# generated using pymatgen
data_HoGa2Ni2Pd
_symmetry_space_group_name_H-M   'P 1'
_cell_length_a   4.16241300
_cell_length_b   8.91520014
_cell_length_c   8.92185325
_cell_angle_alpha   119.97533394
_cell_angle_beta   90.00000000
_cell_angle_gamma   90.00000000
_symmetry_Int_Tables_number   1
_chemical_formula_structural   HoGa2Ni2Pd
_chemical_formula_sum   'Ho3 Ga6 Ni6 Pd3'
_cell_volume   286.79387029
_cell_formula_units_Z   3
loop_
 _symmetry_equiv_pos_site_id
 _symmetry_equiv_pos_as_xyz
  1  'x, y, z'
loop_
 _atom_site_type_symbol
 _atom_site_label
 _atom_site_symmetry_multiplicity
 _atom_site_fract_x
 _atom_site_fract_y
 _atom_site_fract_z
 _atom_site_occupancy
  Ho  Ho0  1  0.500000  0.333060  0.666367  1
  Ho  Ho1  1  0.500000  0.666694  0.333633  1
  Ho  Ho2  1  0.000000  0.000047  0.000000  1
  Ga  Ga3  1  0.000000  0.534424  0.000000  1
  Ga  Ga4  1  0.000000  0.465666  0.465602  1
  Ga  Ga5  1  0.000000  0.000064  0.534398  1
  Ga  Ga6  1  0.500000  0.285446  0.000000  1
  Ga  Ga7  1  0.500000  0.714665  0.714805  1
  Ga  Ga8  1  0.500000  0.999860  0.285195  1
  Ni  Ni9  1  0.000000  0.165977  0.387568  1
  Ni  Ni10  1  0.000000  0.221828  0.833943  1
  Ni  Ni11  1  0.000000  0.611790  0.778125  1
  Ni  Ni12  1  0.000000  0.778410  0.612432  1
  Ni  Ni13  1  0.000000  0.387885  0.166057  1
  Ni  Ni14  1  0.000000  0.833664  0.221875  1
  Pd  Pd15  1  0.500000  0.715041  0.000000  1
  Pd  Pd16  1  0.500000  0.285153  0.284926  1
  Pd  Pd17  1  0.500000  0.000226  0.715074  1
