# generated using pymatgen
data_Ho9TmIn8RuPt3
_symmetry_space_group_name_H-M   'P 1'
_cell_length_a   3.62296100
_cell_length_b   8.10387401
_cell_length_c   18.17672562
_cell_angle_alpha   90.00442406
_cell_angle_beta   90.00000000
_cell_angle_gamma   90.00000000
_symmetry_Int_Tables_number   1
_chemical_formula_structural   Ho9TmIn8RuPt3
_chemical_formula_sum   'Ho9 Tm1 In8 Ru1 Pt3'
_cell_volume   533.66901716
_cell_formula_units_Z   1
loop_
 _symmetry_equiv_pos_site_id
 _symmetry_equiv_pos_as_xyz
  1  'x, y, z'
loop_
 _atom_site_type_symbol
 _atom_site_label
 _atom_site_symmetry_multiplicity
 _atom_site_fract_x
 _atom_site_fract_y
 _atom_site_fract_z
 _atom_site_occupancy
  Ho  Ho0  1  0.000000  0.883939  0.585241  1
  Ho  Ho1  1  0.000000  0.383896  0.914607  1
  Ho  Ho2  1  0.000000  0.618209  0.087080  1
  Ho  Ho3  1  0.000000  0.233466  0.222865  1
  Ho  Ho4  1  0.000000  0.757218  0.778801  1
  Ho  Ho5  1  0.000000  0.257121  0.721478  1
  Ho  Ho6  1  0.000000  0.750933  0.278689  1
  Ho  Ho7  1  0.000000  0.999688  0.000485  1
  Ho  Ho8  1  0.000000  0.500586  0.499164  1
  Tm  Tm9  1  0.000000  0.115474  0.411387  1
  In  In10  1  0.500000  0.422773  0.351214  1
  In  In11  1  0.500000  0.574664  0.647892  1
  In  In12  1  0.500000  0.074689  0.852022  1
  In  In13  1  0.500000  0.930710  0.149864  1
  In  In14  1  0.500000  0.292590  0.066424  1
  In  In15  1  0.500000  0.708342  0.933775  1
  In  In16  1  0.500000  0.209150  0.566476  1
  In  In17  1  0.500000  0.795126  0.430929  1
  Ru  Ru18  1  0.500000  0.019087  0.304812  1
  Pt  Pt19  1  0.500000  0.976698  0.696209  1
  Pt  Pt20  1  0.500000  0.477163  0.803935  1
  Pt  Pt21  1  0.500000  0.518479  0.196653  1
