# generated using pymatgen
data_DyTm5NiI10
_symmetry_space_group_name_H-M   'P 1'
_cell_length_a   7.61225506
_cell_length_b   9.55942324
_cell_length_c   9.60265420
_cell_angle_alpha   107.02435965
_cell_angle_beta   96.90502740
_cell_angle_gamma   104.53756241
_symmetry_Int_Tables_number   1
_chemical_formula_structural   DyTm5NiI10
_chemical_formula_sum   'Dy1 Tm5 Ni1 I10'
_cell_volume   632.43726771
_cell_formula_units_Z   1
loop_
 _symmetry_equiv_pos_site_id
 _symmetry_equiv_pos_as_xyz
  1  'x, y, z'
loop_
 _atom_site_type_symbol
 _atom_site_label
 _atom_site_symmetry_multiplicity
 _atom_site_fract_x
 _atom_site_fract_y
 _atom_site_fract_z
 _atom_site_occupancy
  Dy  Dy0  1  0.112972  0.041176  0.763288  1
  Tm  Tm1  1  0.335876  0.118712  0.159687  1
  Tm  Tm2  1  0.663478  0.880904  0.841202  1
  Tm  Tm3  1  0.969273  0.276836  0.083533  1
  Tm  Tm4  1  0.030321  0.723269  0.918097  1
  Tm  Tm5  1  0.888974  0.959781  0.233115  1
  Ni  Ni6  1  0.999856  0.000125  0.000144  1
  I  I7  1  0.351460  0.450268  0.272381  1
  I  I8  1  0.648782  0.549666  0.727915  1
  I  I9  1  0.771102  0.255117  0.342937  1
  I  I10  1  0.229268  0.742483  0.657486  1
  I  I11  1  0.547071  0.185646  0.907751  1
  I  I12  1  0.454299  0.815056  0.093522  1
  I  I13  1  0.739391  0.911525  0.535471  1
  I  I14  1  0.258257  0.087433  0.461798  1
  I  I15  1  0.915140  0.626022  0.179975  1
  I  I16  1  0.084480  0.375980  0.821695  1
