# generated using pymatgen
data_Li6Zn11SiPd6
_symmetry_space_group_name_H-M   'P 1'
_cell_length_a   4.38382100
_cell_length_b   5.89611200
_cell_length_c   13.18914000
_cell_angle_alpha   89.99991769
_cell_angle_beta   89.99888442
_cell_angle_gamma   89.99996749
_symmetry_Int_Tables_number   1
_chemical_formula_structural   Li6Zn11SiPd6
_chemical_formula_sum   'Li6 Zn11 Si1 Pd6'
_cell_volume   340.90629094
_cell_formula_units_Z   1
loop_
 _symmetry_equiv_pos_site_id
 _symmetry_equiv_pos_as_xyz
  1  'x, y, z'
loop_
 _atom_site_type_symbol
 _atom_site_label
 _atom_site_symmetry_multiplicity
 _atom_site_fract_x
 _atom_site_fract_y
 _atom_site_fract_z
 _atom_site_occupancy
  Li  Li0  1  0.000001  0.502260  0.000000  1
  Li  Li1  1  0.499920  0.998079  0.166430  1
  Li  Li2  1  0.999959  0.502066  0.333458  1
  Li  Li3  1  0.500001  0.997114  0.500000  1
  Li  Li4  1  0.000040  0.502065  0.666543  1
  Li  Li5  1  0.500078  0.998080  0.833570  1
  Zn  Zn6  1  0.500000  0.761514  0.000000  1
  Zn  Zn7  1  0.999939  0.247732  0.171083  1
  Zn  Zn8  1  0.999933  0.752079  0.165346  1
  Zn  Zn9  1  0.499947  0.251624  0.332651  1
  Zn  Zn10  1  0.499948  0.745957  0.329466  1
  Zn  Zn11  1  0.000001  0.248445  0.500000  1
  Zn  Zn12  1  0.000000  0.750900  0.500001  1
  Zn  Zn13  1  0.500054  0.251624  0.667350  1
  Zn  Zn14  1  0.500053  0.745957  0.670533  1
  Zn  Zn15  1  0.000060  0.247732  0.828916  1
  Zn  Zn16  1  0.000065  0.752080  0.834655  1
  Si  Si17  1  0.500001  0.244959  0.000000  1
  Pd  Pd18  1  0.000000  0.023328  0.000000  1
  Pd  Pd19  1  0.499946  0.487835  0.157075  1
  Pd  Pd20  1  0.999941  0.000036  0.334019  1
  Pd  Pd21  1  0.500001  0.500667  0.500000  1
  Pd  Pd22  1  0.000060  0.000036  0.665980  1
  Pd  Pd23  1  0.500053  0.487835  0.842925  1
