# generated using pymatgen
data_La16Dy3LuSn16
_symmetry_space_group_name_H-M   'P 1'
_cell_length_a   8.41565800
_cell_length_b   8.50987405
_cell_length_c   16.27202500
_cell_angle_alpha   90.00000000
_cell_angle_beta   90.00000000
_cell_angle_gamma   90.00620770
_symmetry_Int_Tables_number   1
_chemical_formula_structural   La16Dy3LuSn16
_chemical_formula_sum   'La16 Dy3 Lu1 Sn16'
_cell_volume   1165.34042118
_cell_formula_units_Z   1
loop_
 _symmetry_equiv_pos_site_id
 _symmetry_equiv_pos_as_xyz
  1  'x, y, z'
loop_
 _atom_site_type_symbol
 _atom_site_label
 _atom_site_symmetry_multiplicity
 _atom_site_fract_x
 _atom_site_fract_y
 _atom_site_fract_z
 _atom_site_occupancy
  La  La0  1  0.971392  0.819254  0.900423  1
  La  La1  1  0.471131  0.680323  0.600015  1
  La  La2  1  0.528832  0.318987  0.100351  1
  La  La3  1  0.028490  0.180730  0.399844  1
  La  La4  1  0.971392  0.819254  0.599577  1
  La  La5  1  0.471131  0.680323  0.899985  1
  La  La6  1  0.528832  0.318987  0.399649  1
  La  La7  1  0.028490  0.180730  0.100156  1
  La  La8  1  0.876200  0.658903  0.381877  1
  La  La9  1  0.377765  0.841845  0.118159  1
  La  La10  1  0.623132  0.158281  0.617429  1
  La  La11  1  0.123251  0.341508  0.882193  1
  La  La12  1  0.123251  0.341508  0.617807  1
  La  La13  1  0.623132  0.158281  0.882571  1
  La  La14  1  0.377765  0.841845  0.381841  1
  La  La15  1  0.876200  0.658903  0.118123  1
  Dy  Dy16  1  0.289438  0.003196  0.750000  1
  Dy  Dy17  1  0.789677  0.496618  0.750000  1
  Dy  Dy18  1  0.210142  0.502577  0.250000  1
  Lu  Lu19  1  0.712286  0.996404  0.250000  1
  Sn  Sn20  1  0.782342  0.470159  0.546845  1
  Sn  Sn21  1  0.282257  0.029498  0.952899  1
  Sn  Sn22  1  0.717618  0.971305  0.451484  1
  Sn  Sn23  1  0.217514  0.530448  0.047270  1
  Sn  Sn24  1  0.217514  0.530448  0.452730  1
  Sn  Sn25  1  0.717618  0.971305  0.048516  1
  Sn  Sn26  1  0.282257  0.029498  0.547101  1
  Sn  Sn27  1  0.782342  0.470159  0.953155  1
  Sn  Sn28  1  0.167081  0.646702  0.750000  1
  Sn  Sn29  1  0.667531  0.853524  0.750000  1
  Sn  Sn30  1  0.331603  0.146684  0.250000  1
  Sn  Sn31  1  0.832529  0.352229  0.250000  1
  Sn  Sn32  1  0.925660  0.118212  0.750000  1
  Sn  Sn33  1  0.426256  0.381215  0.750000  1
  Sn  Sn34  1  0.574012  0.618539  0.250000  1
  Sn  Sn35  1  0.073938  0.881618  0.250000  1
