# generated using pymatgen
data_Ho5Si9As3Ir19
_symmetry_space_group_name_H-M   'P 1'
_cell_length_a   12.94072200
_cell_length_b   12.94072287
_cell_length_c   3.96708100
_cell_angle_alpha   90.00000000
_cell_angle_beta   90.00000000
_cell_angle_gamma   119.99999778
_symmetry_Int_Tables_number   1
_chemical_formula_structural   Ho5Si9As3Ir19
_chemical_formula_sum   'Ho5 Si9 As3 Ir19'
_cell_volume   575.33229613
_cell_formula_units_Z   1
loop_
 _symmetry_equiv_pos_site_id
 _symmetry_equiv_pos_as_xyz
  1  'x, y, z'
loop_
 _atom_site_type_symbol
 _atom_site_label
 _atom_site_symmetry_multiplicity
 _atom_site_fract_x
 _atom_site_fract_y
 _atom_site_fract_z
 _atom_site_occupancy
  Ho  Ho0  1  0.333333  0.666667  0.500000  1
  Ho  Ho1  1  0.666667  0.333333  0.500000  1
  Ho  Ho2  1  0.000000  0.809902  0.000000  1
  Ho  Ho3  1  0.190098  0.190098  0.000000  1
  Ho  Ho4  1  0.809902  0.000000  0.000000  1
  Si  Si5  1  0.000000  0.631540  0.500000  1
  Si  Si6  1  0.368460  0.368460  0.500000  1
  Si  Si7  1  0.631540  0.000000  0.500000  1
  Si  Si8  1  0.515966  0.686654  0.000000  1
  Si  Si9  1  0.313346  0.829313  0.000000  1
  Si  Si10  1  0.170687  0.484034  0.000000  1
  Si  Si11  1  0.484034  0.170687  0.000000  1
  Si  Si12  1  0.686654  0.515966  0.000000  1
  Si  Si13  1  0.829313  0.313346  0.000000  1
  As  As14  1  0.000000  0.179858  0.500000  1
  As  As15  1  0.820142  0.820142  0.500000  1
  As  As16  1  0.179858  0.000000  0.500000  1
  Ir  Ir17  1  0.511876  0.872894  0.000000  1
  Ir  Ir18  1  0.127106  0.638982  0.000000  1
  Ir  Ir19  1  0.361018  0.488124  0.000000  1
  Ir  Ir20  1  0.488124  0.361018  0.000000  1
  Ir  Ir21  1  0.872894  0.511876  0.000000  1
  Ir  Ir22  1  0.638982  0.127106  0.000000  1
  Ir  Ir23  1  0.000000  0.448150  0.500000  1
  Ir  Ir24  1  0.551850  0.551850  0.500000  1
  Ir  Ir25  1  0.448150  0.000000  0.500000  1
  Ir  Ir26  1  0.000000  0.288591  0.000000  1
  Ir  Ir27  1  0.711409  0.711409  0.000000  1
  Ir  Ir28  1  0.288591  0.000000  0.000000  1
  Ir  Ir29  1  0.621091  0.804693  0.500000  1
  Ir  Ir30  1  0.195307  0.816398  0.500000  1
  Ir  Ir31  1  0.183602  0.378909  0.500000  1
  Ir  Ir32  1  0.378909  0.183602  0.500000  1
  Ir  Ir33  1  0.804693  0.621091  0.500000  1
  Ir  Ir34  1  0.816398  0.195307  0.500000  1
  Ir  Ir35  1  0.000000  0.000000  0.500000  1
