# generated using pymatgen
data_Er12Th4Mg3HgRh4
_symmetry_space_group_name_H-M   'P 1'
_cell_length_a   9.71021976
_cell_length_b   9.71022002
_cell_length_c   9.71022067
_cell_angle_alpha   59.88241758
_cell_angle_beta   59.88241560
_cell_angle_gamma   59.88242288
_symmetry_Int_Tables_number   1
_chemical_formula_structural   Er12Th4Mg3HgRh4
_chemical_formula_sum   'Er12 Th4 Mg3 Hg1 Rh4'
_cell_volume   645.67215843
_cell_formula_units_Z   1
loop_
 _symmetry_equiv_pos_site_id
 _symmetry_equiv_pos_as_xyz
  1  'x, y, z'
loop_
 _atom_site_type_symbol
 _atom_site_label
 _atom_site_symmetry_multiplicity
 _atom_site_fract_x
 _atom_site_fract_y
 _atom_site_fract_z
 _atom_site_occupancy
  Er  Er0  1  0.812913  0.187105  0.187105  1
  Er  Er1  1  0.185824  0.813511  0.813511  1
  Er  Er2  1  0.187105  0.812913  0.187105  1
  Er  Er3  1  0.813511  0.185824  0.813511  1
  Er  Er4  1  0.187105  0.187105  0.812913  1
  Er  Er5  1  0.813511  0.813511  0.185824  1
  Er  Er6  1  0.932579  0.566306  0.566306  1
  Er  Er7  1  0.566545  0.933740  0.933740  1
  Er  Er8  1  0.566306  0.932579  0.566306  1
  Er  Er9  1  0.933740  0.566545  0.933740  1
  Er  Er10  1  0.566306  0.566306  0.932579  1
  Er  Er11  1  0.933740  0.933740  0.566545  1
  Th  Th12  1  0.348529  0.348529  0.348529  1
  Th  Th13  1  0.351575  0.351575  0.948686  1
  Th  Th14  1  0.351575  0.948686  0.351575  1
  Th  Th15  1  0.948686  0.351575  0.351575  1
  Mg  Mg16  1  0.580024  0.580024  0.259366  1
  Mg  Mg17  1  0.580024  0.259366  0.580024  1
  Mg  Mg18  1  0.259366  0.580024  0.580024  1
  Hg  Hg19  1  0.583638  0.583638  0.583638  1
  Rh  Rh20  1  0.143751  0.143751  0.143751  1
  Rh  Rh21  1  0.142731  0.142731  0.568182  1
  Rh  Rh22  1  0.142731  0.568182  0.142731  1
  Rh  Rh23  1  0.568182  0.142731  0.142731  1
