# generated using pymatgen
data_Yb5Th3TlPt8Pb3
_symmetry_space_group_name_H-M   'P 1'
_cell_length_a   7.95470836
_cell_length_b   7.94608908
_cell_length_c   7.41723333
_cell_angle_alpha   90.00415739
_cell_angle_beta   90.03415743
_cell_angle_gamma   90.82748885
_symmetry_Int_Tables_number   1
_chemical_formula_structural   Yb5Th3TlPt8Pb3
_chemical_formula_sum   'Yb5 Th3 Tl1 Pt8 Pb3'
_cell_volume   468.78559597
_cell_formula_units_Z   1
loop_
 _symmetry_equiv_pos_site_id
 _symmetry_equiv_pos_as_xyz
  1  'x, y, z'
loop_
 _atom_site_type_symbol
 _atom_site_label
 _atom_site_symmetry_multiplicity
 _atom_site_fract_x
 _atom_site_fract_y
 _atom_site_fract_z
 _atom_site_occupancy
  Yb  Yb0  1  0.339457  0.340445  0.500499  1
  Yb  Yb1  1  0.656981  0.663190  0.500547  1
  Yb  Yb2  1  0.176052  0.827196  0.500613  1
  Yb  Yb3  1  0.838743  0.159055  0.999288  1
  Yb  Yb4  1  0.162184  0.840282  0.999489  1
  Th  Th5  1  0.674660  0.677634  0.999757  1
  Th  Th6  1  0.825517  0.171295  0.500317  1
  Th  Th7  1  0.325891  0.321681  0.999677  1
  Tl  Tl8  1  0.493620  0.997123  0.744171  1
  Pt  Pt9  1  0.868772  0.871843  0.738442  1
  Pt  Pt10  1  0.127534  0.131680  0.739018  1
  Pt  Pt11  1  0.631679  0.367821  0.761355  1
  Pt  Pt12  1  0.632137  0.368715  0.237823  1
  Pt  Pt13  1  0.375621  0.623877  0.231033  1
  Pt  Pt14  1  0.127148  0.131368  0.261553  1
  Pt  Pt15  1  0.869834  0.872034  0.261025  1
  Pt  Pt16  1  0.375276  0.624482  0.769196  1
  Pb  Pb17  1  0.493939  0.997817  0.256027  1
  Pb  Pb18  1  0.002438  0.506216  0.744770  1
  Pb  Pb19  1  0.002517  0.506247  0.255399  1
