# generated using pymatgen
data_Tm3BCl3
_symmetry_space_group_name_H-M   'P 1'
_cell_length_a   9.28137136
_cell_length_b   9.28137150
_cell_length_c   9.28137200
_cell_angle_alpha   109.47121736
_cell_angle_beta   109.47121766
_cell_angle_gamma   109.47122640
_symmetry_Int_Tables_number   1
_chemical_formula_structural   Tm3BCl3
_chemical_formula_sum   'Tm12 B4 Cl12'
_cell_volume   615.48092458
_cell_formula_units_Z   4
loop_
 _symmetry_equiv_pos_site_id
 _symmetry_equiv_pos_as_xyz
  1  'x, y, z'
loop_
 _atom_site_type_symbol
 _atom_site_label
 _atom_site_symmetry_multiplicity
 _atom_site_fract_x
 _atom_site_fract_y
 _atom_site_fract_z
 _atom_site_occupancy
  Tm  Tm0  1  0.468063  0.484031  0.234031  1
  Tm  Tm1  1  0.750000  0.234031  0.265969  1
  Tm  Tm2  1  0.750000  0.015969  0.484031  1
  Tm  Tm3  1  0.234031  0.468063  0.484031  1
  Tm  Tm4  1  0.265969  0.750000  0.234031  1
  Tm  Tm5  1  0.031937  0.265969  0.015969  1
  Tm  Tm6  1  0.015969  0.031937  0.265969  1
  Tm  Tm7  1  0.484031  0.750000  0.015969  1
  Tm  Tm8  1  0.484031  0.234031  0.468063  1
  Tm  Tm9  1  0.015969  0.484031  0.750000  1
  Tm  Tm10  1  0.265969  0.015969  0.031937  1
  Tm  Tm11  1  0.234031  0.265969  0.750000  1
  B  B12  1  0.250000  0.250000  0.250000  1
  B  B13  1  0.500000  0.000000  0.250000  1
  B  B14  1  0.000000  0.250000  0.500000  1
  B  B15  1  0.250000  0.500000  0.000000  1
  Cl  Cl16  1  0.250000  0.756293  0.743707  1
  Cl  Cl17  1  0.512586  0.506293  0.756293  1
  Cl  Cl18  1  0.987414  0.743707  0.993707  1
  Cl  Cl19  1  0.743707  0.250000  0.756293  1
  Cl  Cl20  1  0.993707  0.987414  0.743707  1
  Cl  Cl21  1  0.250000  0.993707  0.506293  1
  Cl  Cl22  1  0.756293  0.512586  0.506293  1
  Cl  Cl23  1  0.506293  0.250000  0.993707  1
  Cl  Cl24  1  0.756293  0.743707  0.250000  1
  Cl  Cl25  1  0.743707  0.993707  0.987414  1
  Cl  Cl26  1  0.993707  0.506293  0.250000  1
  Cl  Cl27  1  0.506293  0.756293  0.512586  1
