# generated using pymatgen
data_Tb4Ga18Ru5Rh
_symmetry_space_group_name_H-M   'P 1'
_cell_length_a   7.53540611
_cell_length_b   7.53540505
_cell_length_c   9.72320923
_cell_angle_alpha   89.88752102
_cell_angle_beta   89.88752542
_cell_angle_gamma   119.78944112
_symmetry_Int_Tables_number   1
_chemical_formula_structural   Tb4Ga18Ru5Rh
_chemical_formula_sum   'Tb4 Ga18 Ru5 Rh1'
_cell_volume   479.14587480
_cell_formula_units_Z   1
loop_
 _symmetry_equiv_pos_site_id
 _symmetry_equiv_pos_as_xyz
  1  'x, y, z'
loop_
 _atom_site_type_symbol
 _atom_site_label
 _atom_site_symmetry_multiplicity
 _atom_site_fract_x
 _atom_site_fract_y
 _atom_site_fract_z
 _atom_site_occupancy
  Tb  Tb0  1  0.996819  0.667435  0.249652  1
  Tb  Tb1  1  0.003181  0.332565  0.750348  1
  Tb  Tb2  1  0.667435  0.996819  0.249652  1
  Tb  Tb3  1  0.332565  0.003181  0.750348  1
  Ga  Ga4  1  0.125788  0.125788  0.249293  1
  Ga  Ga5  1  0.874212  0.874212  0.750707  1
  Ga  Ga6  1  0.003267  0.334436  0.076294  1
  Ga  Ga7  1  0.996733  0.665564  0.923706  1
  Ga  Ga8  1  0.997292  0.664777  0.576818  1
  Ga  Ga9  1  0.335223  0.002708  0.423182  1
  Ga  Ga10  1  0.002708  0.335223  0.423182  1
  Ga  Ga11  1  0.664777  0.997292  0.576818  1
  Ga  Ga12  1  0.665564  0.996733  0.923706  1
  Ga  Ga13  1  0.334436  0.003267  0.076294  1
  Ga  Ga14  1  0.337403  0.337403  0.560914  1
  Ga  Ga15  1  0.662597  0.662597  0.439086  1
  Ga  Ga16  1  0.664149  0.664149  0.060258  1
  Ga  Ga17  1  0.335851  0.335851  0.939742  1
  Ga  Ga18  1  0.336593  0.547109  0.250217  1
  Ga  Ga19  1  0.663407  0.452891  0.749783  1
  Ga  Ga20  1  0.547109  0.336593  0.250217  1
  Ga  Ga21  1  0.452891  0.663407  0.749783  1
  Ru  Ru22  1  0.672990  0.327010  0.000000  1
  Ru  Ru23  1  0.327010  0.672990  0.000000  1
  Ru  Ru24  1  0.326848  0.673152  0.500000  1
  Ru  Ru25  1  0.673152  0.326848  0.500000  1
  Ru  Ru26  1  0.000000  0.000000  0.000000  1
  Rh  Rh27  1  0.000000  0.000000  0.500000  1
