# generated using pymatgen
data_SmYFe3Re14C3
_symmetry_space_group_name_H-M   'P 1'
_cell_length_a   6.93018802
_cell_length_b   6.93018751
_cell_length_c   6.93018763
_cell_angle_alpha   82.61980413
_cell_angle_beta   82.61980551
_cell_angle_gamma   82.61978898
_symmetry_Int_Tables_number   1
_chemical_formula_structural   SmYFe3Re14C3
_chemical_formula_sum   'Sm1 Y1 Fe3 Re14 C3'
_cell_volume   325.21998356
_cell_formula_units_Z   1
loop_
 _symmetry_equiv_pos_site_id
 _symmetry_equiv_pos_as_xyz
  1  'x, y, z'
loop_
 _atom_site_type_symbol
 _atom_site_label
 _atom_site_symmetry_multiplicity
 _atom_site_fract_x
 _atom_site_fract_y
 _atom_site_fract_z
 _atom_site_occupancy
  Sm  Sm0  1  0.648559  0.648559  0.648559  1
  Y  Y1  1  0.351196  0.351196  0.351196  1
  Fe  Fe2  1  0.999978  0.999978  0.500016  1
  Fe  Fe3  1  0.500016  0.999978  0.999978  1
  Fe  Fe4  1  0.999978  0.500016  0.999978  1
  Re  Re5  1  0.722220  0.277608  0.000230  1
  Re  Re6  1  0.000230  0.722220  0.277608  1
  Re  Re7  1  0.277608  0.000230  0.722220  1
  Re  Re8  1  0.000230  0.277608  0.722220  1
  Re  Re9  1  0.722220  0.000230  0.277608  1
  Re  Re10  1  0.277608  0.722220  0.000230  1
  Re  Re11  1  0.345868  0.345868  0.861827  1
  Re  Re12  1  0.861827  0.345868  0.345868  1
  Re  Re13  1  0.345868  0.861827  0.345868  1
  Re  Re14  1  0.653689  0.653689  0.138785  1
  Re  Re15  1  0.138785  0.653689  0.653689  1
  Re  Re16  1  0.653689  0.138785  0.653689  1
  Re  Re17  1  0.898254  0.898254  0.898254  1
  Re  Re18  1  0.102021  0.102021  0.102021  1
  C  C19  1  0.499187  0.499187  0.001781  1
  C  C20  1  0.001781  0.499187  0.499187  1
  C  C21  1  0.499187  0.001781  0.499187  1
