# generated using pymatgen
data_Cs12ReTc3S16
_symmetry_space_group_name_H-M   'P 1'
_cell_length_a   9.95226200
_cell_length_b   9.99018627
_cell_length_c   11.80013400
_cell_angle_alpha   90.00000000
_cell_angle_beta   90.00000000
_cell_angle_gamma   89.94704110
_symmetry_Int_Tables_number   1
_chemical_formula_structural   Cs12ReTc3S16
_chemical_formula_sum   'Cs12 Re1 Tc3 S16'
_cell_volume   1173.22724550
_cell_formula_units_Z   1
loop_
 _symmetry_equiv_pos_site_id
 _symmetry_equiv_pos_as_xyz
  1  'x, y, z'
loop_
 _atom_site_type_symbol
 _atom_site_label
 _atom_site_symmetry_multiplicity
 _atom_site_fract_x
 _atom_site_fract_y
 _atom_site_fract_z
 _atom_site_occupancy
  Cs  Cs0  1  0.546762  0.210356  0.043158  1
  Cs  Cs1  1  0.044824  0.291689  0.457305  1
  Cs  Cs2  1  0.454686  0.790541  0.542024  1
  Cs  Cs3  1  0.953773  0.708119  0.958400  1
  Cs  Cs4  1  0.454686  0.790541  0.957976  1
  Cs  Cs5  1  0.953773  0.708119  0.541600  1
  Cs  Cs6  1  0.546762  0.210356  0.456842  1
  Cs  Cs7  1  0.044824  0.291689  0.042695  1
  Cs  Cs8  1  0.648454  0.413202  0.750000  1
  Cs  Cs9  1  0.148600  0.086570  0.750000  1
  Cs  Cs10  1  0.352560  0.585529  0.250000  1
  Cs  Cs11  1  0.850499  0.913592  0.250000  1
  Re  Re12  1  0.777146  0.483147  0.250000  1
  Tc  Tc13  1  0.723390  0.983172  0.750000  1
  Tc  Tc14  1  0.223477  0.516547  0.750000  1
  Tc  Tc15  1  0.276670  0.016463  0.250000  1
  S  S16  1  0.830001  0.046935  0.593490  1
  S  S17  1  0.330001  0.452953  0.906563  1
  S  S18  1  0.169581  0.952609  0.093778  1
  S  S19  1  0.669722  0.548070  0.406271  1
  S  S20  1  0.169581  0.952609  0.406222  1
  S  S21  1  0.669722  0.548070  0.093729  1
  S  S22  1  0.830001  0.046935  0.906510  1
  S  S23  1  0.330001  0.452953  0.593437  1
  S  S24  1  0.515855  0.068314  0.750000  1
  S  S25  1  0.016052  0.431788  0.750000  1
  S  S26  1  0.484273  0.932006  0.250000  1
  S  S27  1  0.984935  0.568149  0.250000  1
  S  S28  1  0.709082  0.760543  0.750000  1
  S  S29  1  0.208556  0.739332  0.750000  1
  S  S30  1  0.290800  0.239080  0.250000  1
  S  S31  1  0.790950  0.260024  0.250000  1
