# generated using pymatgen
data_TmLuSi5Rh3
_symmetry_space_group_name_H-M   'P 1'
_cell_length_a   8.08211419
_cell_length_b   8.07390790
_cell_length_c   5.65496297
_cell_angle_alpha   71.23100647
_cell_angle_beta   71.20967631
_cell_angle_gamma   93.41574500
_symmetry_Int_Tables_number   1
_chemical_formula_structural   TmLuSi5Rh3
_chemical_formula_sum   'Tm2 Lu2 Si10 Rh6'
_cell_volume   325.23673178
_cell_formula_units_Z   2
loop_
 _symmetry_equiv_pos_site_id
 _symmetry_equiv_pos_as_xyz
  1  'x, y, z'
loop_
 _atom_site_type_symbol
 _atom_site_label
 _atom_site_symmetry_multiplicity
 _atom_site_fract_x
 _atom_site_fract_y
 _atom_site_fract_z
 _atom_site_occupancy
  Tm  Tm0  1  0.866918  0.597703  0.761478  1
  Tm  Tm1  1  0.133082  0.402297  0.238522  1
  Lu  Lu2  1  0.402559  0.132865  0.738460  1
  Lu  Lu3  1  0.597441  0.867135  0.261540  1
  Si  Si4  1  0.776409  0.222788  0.750261  1
  Si  Si5  1  0.223591  0.777212  0.249739  1
  Si  Si6  1  0.511727  0.487753  0.750570  1
  Si  Si7  1  0.488273  0.512247  0.249430  1
  Si  Si8  1  0.209922  0.790748  0.750002  1
  Si  Si9  1  0.790078  0.209252  0.249998  1
  Si  Si10  1  0.266930  0.059147  0.338394  1
  Si  Si11  1  0.733070  0.940853  0.661606  1
  Si  Si12  1  0.940073  0.733290  0.161831  1
  Si  Si13  1  0.059927  0.266710  0.838169  1
  Rh  Rh14  1  0.539060  0.257022  0.126147  1
  Rh  Rh15  1  0.741550  0.460440  0.374392  1
  Rh  Rh16  1  0.460940  0.742978  0.873853  1
  Rh  Rh17  1  0.258450  0.539560  0.625608  1
  Rh  Rh18  1  0.998696  0.001203  0.250081  1
  Rh  Rh19  1  0.001304  0.998797  0.749919  1
