# generated using pymatgen
data_Sc5Pa3(TcB6)4
_symmetry_space_group_name_H-M   'P 1'
_cell_length_a   3.61104400
_cell_length_b   8.96492511
_cell_length_c   11.31586400
_cell_angle_alpha   90.07266724
_cell_angle_beta   90.00000000
_cell_angle_gamma   90.00000000
_symmetry_Int_Tables_number   1
_chemical_formula_structural   Sc5Pa3(TcB6)4
_chemical_formula_sum   'Sc5 Pa3 Tc4 B24'
_cell_volume   366.32521771
_cell_formula_units_Z   1
loop_
 _symmetry_equiv_pos_site_id
 _symmetry_equiv_pos_as_xyz
  1  'x, y, z'
loop_
 _atom_site_type_symbol
 _atom_site_label
 _atom_site_symmetry_multiplicity
 _atom_site_fract_x
 _atom_site_fract_y
 _atom_site_fract_z
 _atom_site_occupancy
  Sc  Sc0  1  0.000000  0.183245  0.913302  1
  Sc  Sc1  1  0.000000  0.946294  0.374097  1
  Sc  Sc2  1  0.000000  0.055532  0.627976  1
  Sc  Sc3  1  0.000000  0.442970  0.123881  1
  Sc  Sc4  1  0.000000  0.552817  0.874314  1
  Pa  Pa5  1  0.000000  0.319577  0.413917  1
  Pa  Pa6  1  0.000000  0.679679  0.587194  1
  Pa  Pa7  1  0.000000  0.822385  0.084919  1
  Tc  Tc8  1  0.000000  0.640523  0.319332  1
  Tc  Tc9  1  0.000000  0.360152  0.680099  1
  Tc  Tc10  1  0.000000  0.140063  0.180815  1
  Tc  Tc11  1  0.000000  0.859462  0.819984  1
  B  B12  1  0.500000  0.554528  0.432735  1
  B  B13  1  0.500000  0.445233  0.567554  1
  B  B14  1  0.500000  0.055265  0.065606  1
  B  B15  1  0.500000  0.946452  0.932869  1
  B  B16  1  0.500000  0.753825  0.419373  1
  B  B17  1  0.500000  0.246294  0.582374  1
  B  B18  1  0.500000  0.252178  0.077721  1
  B  B19  1  0.500000  0.747513  0.919433  1
  B  B20  1  0.500000  0.794460  0.264445  1
  B  B21  1  0.500000  0.204834  0.737447  1
  B  B22  1  0.500000  0.294310  0.233192  1
  B  B23  1  0.500000  0.705709  0.765546  1
  B  B24  1  0.500000  0.629630  0.182088  1
  B  B25  1  0.500000  0.368184  0.818494  1
  B  B26  1  0.500000  0.129932  0.316677  1
  B  B27  1  0.500000  0.870996  0.684068  1
  B  B28  1  0.500000  0.982239  0.213168  1
  B  B29  1  0.500000  0.020324  0.787300  1
  B  B30  1  0.500000  0.481666  0.284410  1
  B  B31  1  0.500000  0.517091  0.716040  1
  B  B32  1  0.500000  0.599337  0.027068  1
  B  B33  1  0.500000  0.396980  0.971630  1
  B  B34  1  0.500000  0.100226  0.473027  1
  B  B35  1  0.500000  0.900091  0.527899  1
