# generated using pymatgen
data_Tm3GeAs2Ru3
_symmetry_space_group_name_H-M   'P 1'
_cell_length_a   6.96771500
_cell_length_b   6.96771645
_cell_length_c   3.83133000
_cell_angle_alpha   90.00000000
_cell_angle_beta   90.00000000
_cell_angle_gamma   120.00000738
_symmetry_Int_Tables_number   1
_chemical_formula_structural   Tm3GeAs2Ru3
_chemical_formula_sum   'Tm3 Ge1 As2 Ru3'
_cell_volume   161.08719033
_cell_formula_units_Z   1
loop_
 _symmetry_equiv_pos_site_id
 _symmetry_equiv_pos_as_xyz
  1  'x, y, z'
loop_
 _atom_site_type_symbol
 _atom_site_label
 _atom_site_symmetry_multiplicity
 _atom_site_fract_x
 _atom_site_fract_y
 _atom_site_fract_z
 _atom_site_occupancy
  Tm  Tm0  1  0.407266  0.407266  0.000000  1
  Tm  Tm1  1  0.592734  0.000000  0.000000  1
  Tm  Tm2  1  0.000000  0.592734  0.000000  1
  Ge  Ge3  1  0.000000  0.000000  0.000000  1
  As  As4  1  0.666667  0.333333  0.500000  1
  As  As5  1  0.333333  0.666667  0.500000  1
  Ru  Ru6  1  0.000000  0.241636  0.500000  1
  Ru  Ru7  1  0.758364  0.758364  0.500000  1
  Ru  Ru8  1  0.241636  0.000000  0.500000  1
