# generated using pymatgen
data_Zr8Tc3Os4Ru
_symmetry_space_group_name_H-M   'P 1'
_cell_length_a   6.55040900
_cell_length_b   4.66145400
_cell_length_c   9.30854300
_cell_angle_alpha   90.00000000
_cell_angle_beta   89.99982636
_cell_angle_gamma   90.00000000
_symmetry_Int_Tables_number   1
_chemical_formula_structural   Zr8Tc3Os4Ru
_chemical_formula_sum   'Zr8 Tc3 Os4 Ru1'
_cell_volume   284.23105682
_cell_formula_units_Z   1
loop_
 _symmetry_equiv_pos_site_id
 _symmetry_equiv_pos_as_xyz
  1  'x, y, z'
loop_
 _atom_site_type_symbol
 _atom_site_label
 _atom_site_symmetry_multiplicity
 _atom_site_fract_x
 _atom_site_fract_y
 _atom_site_fract_z
 _atom_site_occupancy
  Zr  Zr0  1  0.000543  0.750001  0.125644  1
  Zr  Zr1  1  0.499276  0.750001  0.125653  1
  Zr  Zr2  1  0.000020  0.250000  0.374982  1
  Zr  Zr3  1  0.499802  0.250000  0.374990  1
  Zr  Zr4  1  0.499453  0.750001  0.624369  1
  Zr  Zr5  1  0.000725  0.750001  0.624378  1
  Zr  Zr6  1  0.499221  0.250000  0.874984  1
  Zr  Zr7  1  0.000963  0.250000  0.874993  1
  Tc  Tc8  1  0.249949  0.250000  0.124282  1
  Tc  Tc9  1  0.749950  0.750001  0.374994  1
  Tc  Tc10  1  0.250050  0.250000  0.625717  1
  Os  Os11  1  0.749940  0.250000  0.124382  1
  Os  Os12  1  0.249940  0.750001  0.374998  1
  Os  Os13  1  0.750056  0.250000  0.625613  1
  Os  Os14  1  0.250062  0.750001  0.874998  1
  Ru  Ru15  1  0.750052  0.750001  0.875025  1
