# generated using pymatgen
data_LaNd3CdNi
_symmetry_space_group_name_H-M   'P 1'
_cell_length_a   9.92513853
_cell_length_b   9.92873082
_cell_length_c   9.92091186
_cell_angle_alpha   60.09033105
_cell_angle_beta   60.09057057
_cell_angle_gamma   60.08699803
_symmetry_Int_Tables_number   1
_chemical_formula_structural   LaNd3CdNi
_chemical_formula_sum   'La4 Nd12 Cd4 Ni4'
_cell_volume   692.69940832
_cell_formula_units_Z   4
loop_
 _symmetry_equiv_pos_site_id
 _symmetry_equiv_pos_as_xyz
  1  'x, y, z'
loop_
 _atom_site_type_symbol
 _atom_site_label
 _atom_site_symmetry_multiplicity
 _atom_site_fract_x
 _atom_site_fract_y
 _atom_site_fract_z
 _atom_site_occupancy
  La  La0  1  0.596781  0.596640  0.596690  1
  La  La1  1  0.598176  0.598343  0.204935  1
  La  La2  1  0.598327  0.204641  0.598457  1
  La  La3  1  0.204810  0.598291  0.598233  1
  Nd  Nd4  1  0.062096  0.439633  0.439501  1
  Nd  Nd5  1  0.439323  0.060306  0.060193  1
  Nd  Nd6  1  0.439547  0.062145  0.439486  1
  Nd  Nd7  1  0.060328  0.439270  0.060211  1
  Nd  Nd8  1  0.439528  0.439586  0.062028  1
  Nd  Nd9  1  0.060242  0.060335  0.439258  1
  Nd  Nd10  1  0.188944  0.813938  0.814014  1
  Nd  Nd11  1  0.812362  0.185728  0.185673  1
  Nd  Nd12  1  0.813967  0.188904  0.814092  1
  Nd  Nd13  1  0.185658  0.812432  0.185657  1
  Nd  Nd14  1  0.813965  0.814033  0.188987  1
  Nd  Nd15  1  0.185631  0.185721  0.812429  1
  Cd  Cd16  1  0.830163  0.830180  0.830184  1
  Cd  Cd17  1  0.830470  0.830507  0.509051  1
  Cd  Cd18  1  0.830469  0.509093  0.830489  1
  Cd  Cd19  1  0.509046  0.830492  0.830493  1
  Ni  Ni20  1  0.392307  0.392580  0.392482  1
  Ni  Ni21  1  0.391478  0.391358  0.824615  1
  Ni  Ni22  1  0.391320  0.824334  0.391455  1
  Ni  Ni23  1  0.825061  0.391511  0.391390  1
