# generated using pymatgen
data_Y3TmOsRu7
_symmetry_space_group_name_H-M   'P 1'
_cell_length_a   5.33173592
_cell_length_b   5.22946539
_cell_length_c   8.94109811
_cell_angle_alpha   89.98830016
_cell_angle_beta   89.99415758
_cell_angle_gamma   120.31086589
_symmetry_Int_Tables_number   1
_chemical_formula_structural   Y3TmOsRu7
_chemical_formula_sum   'Y3 Tm1 Os1 Ru7'
_cell_volume   215.21792021
_cell_formula_units_Z   1
loop_
 _symmetry_equiv_pos_site_id
 _symmetry_equiv_pos_as_xyz
  1  'x, y, z'
loop_
 _atom_site_type_symbol
 _atom_site_label
 _atom_site_symmetry_multiplicity
 _atom_site_fract_x
 _atom_site_fract_y
 _atom_site_fract_z
 _atom_site_occupancy
  Y  Y0  1  0.668429  0.335752  0.567107  1
  Y  Y1  1  0.333105  0.667001  0.432856  1
  Y  Y2  1  0.333264  0.667307  0.066566  1
  Tm  Tm3  1  0.668867  0.336424  0.933099  1
  Os  Os4  1  0.165528  0.331616  0.751336  1
  Ru  Ru5  1  0.004210  0.007548  0.499667  1
  Ru  Ru6  1  0.004161  0.007541  0.999595  1
  Ru  Ru7  1  0.168621  0.822659  0.751333  1
  Ru  Ru8  1  0.652232  0.821939  0.751271  1
  Ru  Ru9  1  0.830103  0.659457  0.249039  1
  Ru  Ru10  1  0.828536  0.170706  0.249005  1
  Ru  Ru11  1  0.342943  0.172050  0.249127  1
