# generated using pymatgen
data_Tb3SmGa18(PdRh2)2
_symmetry_space_group_name_H-M   'P 1'
_cell_length_a   7.62921234
_cell_length_b   7.63014026
_cell_length_c   9.54371000
_cell_angle_alpha   90.00000000
_cell_angle_beta   90.00000000
_cell_angle_gamma   119.82048772
_symmetry_Int_Tables_number   1
_chemical_formula_structural   Tb3SmGa18(PdRh2)2
_chemical_formula_sum   'Tb3 Sm1 Ga18 Pd2 Rh4'
_cell_volume   481.99534019
_cell_formula_units_Z   1
loop_
 _symmetry_equiv_pos_site_id
 _symmetry_equiv_pos_as_xyz
  1  'x, y, z'
loop_
 _atom_site_type_symbol
 _atom_site_label
 _atom_site_symmetry_multiplicity
 _atom_site_fract_x
 _atom_site_fract_y
 _atom_site_fract_z
 _atom_site_occupancy
  Tb  Tb0  1  0.003251  0.330411  0.750000  1
  Tb  Tb1  1  0.669436  0.996558  0.250000  1
  Tb  Tb2  1  0.330422  0.003241  0.750000  1
  Sm  Sm3  1  0.996475  0.669590  0.250000  1
  Ga  Ga4  1  0.129717  0.130208  0.250000  1
  Ga  Ga5  1  0.870477  0.870535  0.750000  1
  Ga  Ga6  1  0.999526  0.336689  0.079462  1
  Ga  Ga7  1  0.000437  0.662565  0.919653  1
  Ga  Ga8  1  0.000437  0.662565  0.580347  1
  Ga  Ga9  1  0.338307  0.000310  0.420508  1
  Ga  Ga10  1  0.999526  0.336689  0.420538  1
  Ga  Ga11  1  0.662590  0.000473  0.579786  1
  Ga  Ga12  1  0.662590  0.000473  0.920214  1
  Ga  Ga13  1  0.338307  0.000310  0.079492  1
  Ga  Ga14  1  0.336598  0.336596  0.565658  1
  Ga  Ga15  1  0.662769  0.663454  0.434722  1
  Ga  Ga16  1  0.662769  0.663454  0.065278  1
  Ga  Ga17  1  0.336598  0.336596  0.934342  1
  Ga  Ga18  1  0.337211  0.546315  0.250000  1
  Ga  Ga19  1  0.663182  0.453419  0.750000  1
  Ga  Ga20  1  0.545679  0.336170  0.250000  1
  Ga  Ga21  1  0.453469  0.663211  0.750000  1
  Pd  Pd22  1  0.000065  0.000205  0.999674  1
  Pd  Pd23  1  0.000065  0.000205  0.500326  1
  Rh  Rh24  1  0.671086  0.328640  0.999655  1
  Rh  Rh25  1  0.328962  0.671241  0.999661  1
  Rh  Rh26  1  0.328962  0.671241  0.500339  1
  Rh  Rh27  1  0.671086  0.328640  0.500345  1
