# generated using pymatgen
data_Sm12FeCoI17
_symmetry_space_group_name_H-M   'P 1'
_cell_length_a   9.90648630
_cell_length_b   11.86448792
_cell_length_c   11.90178441
_cell_angle_alpha   93.37635557
_cell_angle_beta   104.86464358
_cell_angle_gamma   114.36973527
_symmetry_Int_Tables_number   1
_chemical_formula_structural   Sm12FeCoI17
_chemical_formula_sum   'Sm12 Fe1 Co1 I17'
_cell_volume   1209.84529511
_cell_formula_units_Z   1
loop_
 _symmetry_equiv_pos_site_id
 _symmetry_equiv_pos_as_xyz
  1  'x, y, z'
loop_
 _atom_site_type_symbol
 _atom_site_label
 _atom_site_symmetry_multiplicity
 _atom_site_fract_x
 _atom_site_fract_y
 _atom_site_fract_z
 _atom_site_occupancy
  Sm  Sm0  1  0.052641  0.503668  0.319874  1
  Sm  Sm1  1  0.991423  0.809659  0.585540  1
  Sm  Sm2  1  0.651530  0.241181  0.281952  1
  Sm  Sm3  1  0.008203  0.191115  0.412084  1
  Sm  Sm4  1  0.221023  0.671027  0.985572  1
  Sm  Sm5  1  0.256618  0.981161  0.890414  1
  Sm  Sm6  1  0.349890  0.758804  0.717483  1
  Sm  Sm7  1  0.945700  0.494098  0.679023  1
  Sm  Sm8  1  0.745045  0.020870  0.110977  1
  Sm  Sm9  1  0.145091  0.286381  0.152811  1
  Sm  Sm10  1  0.779746  0.328375  0.016028  1
  Sm  Sm11  1  0.853652  0.713140  0.848086  1
  Fe  Fe12  1  0.895670  0.261746  0.214001  1
  Co  Co13  1  0.104118  0.738362  0.785627  1
  I  I14  1  0.784669  0.529416  0.418524  1
  I  I15  1  0.643004  0.419530  0.759940  1
  I  I16  1  0.843545  0.893898  0.326452  1
  I  I17  1  0.326906  0.212807  0.369648  1
  I  I18  1  0.156690  0.104607  0.675063  1
  I  I19  1  0.585996  0.052506  0.842350  1
  I  I20  1  0.757026  0.186331  0.539190  1
  I  I21  1  0.549931  0.708431  0.953344  1
  I  I22  1  0.357688  0.581944  0.238965  1
  I  I23  1  0.215624  0.471461  0.583198  1
  I  I24  1  0.055946  0.368081  0.896390  1
  I  I25  1  0.449031  0.290236  0.045332  1
  I  I26  1  0.000068  0.999362  0.999325  1
  I  I27  1  0.243790  0.814953  0.462375  1
  I  I28  1  0.411477  0.946085  0.156394  1
  I  I29  1  0.673028  0.787335  0.631050  1
  I  I30  1  0.945231  0.633429  0.102986  1
