# generated using pymatgen
data_Mg2Ag2(MoO4)3
_symmetry_space_group_name_H-M   'P 1'
_cell_length_a   7.09857881
_cell_length_b   8.87629457
_cell_length_c   10.47437532
_cell_angle_alpha   107.29579811
_cell_angle_beta   104.92190464
_cell_angle_gamma   103.82517562
_symmetry_Int_Tables_number   1
_chemical_formula_structural   Mg2Ag2(MoO4)3
_chemical_formula_sum   'Mg4 Ag4 Mo6 O24'
_cell_volume   572.17415985
_cell_formula_units_Z   2
loop_
 _symmetry_equiv_pos_site_id
 _symmetry_equiv_pos_as_xyz
  1  'x, y, z'
loop_
 _atom_site_type_symbol
 _atom_site_label
 _atom_site_symmetry_multiplicity
 _atom_site_fract_x
 _atom_site_fract_y
 _atom_site_fract_z
 _atom_site_occupancy
  Mg  Mg0  1  0.872796  0.461147  0.102763  1
  Mg  Mg1  1  0.126757  0.539138  0.896321  1
  Mg  Mg2  1  0.464353  0.301096  0.481876  1
  Mg  Mg3  1  0.538054  0.700751  0.520555  1
  Ag  Ag4  1  0.827976  0.839875  0.343230  1
  Ag  Ag5  1  0.176078  0.164829  0.663176  1
  Ag  Ag6  1  0.484411  0.998559  0.992261  1
  Ag  Ag7  1  0.987237  0.022223  0.056115  1
  Mo  Mo8  1  0.284903  0.835116  0.237774  1
  Mo  Mo9  1  0.714117  0.164469  0.762202  1
  Mo  Mo10  1  0.910819  0.247700  0.362438  1
  Mo  Mo11  1  0.095117  0.753846  0.637684  1
  Mo  Mo12  1  0.621104  0.592550  0.833604  1
  Mo  Mo13  1  0.376270  0.406924  0.167959  1
  O  O14  1  0.333050  0.053484  0.323584  1
  O  O15  1  0.662092  0.946902  0.674253  1
  O  O16  1  0.029215  0.722464  0.226176  1
  O  O17  1  0.968488  0.277557  0.772264  1
  O  O18  1  0.172795  0.477144  0.082062  1
  O  O19  1  0.828070  0.525243  0.919488  1
  O  O20  1  0.744047  0.301770  0.455971  1
  O  O21  1  0.252022  0.689310  0.538887  1
  O  O22  1  0.610518  0.491681  0.142262  1
  O  O23  1  0.385980  0.500228  0.855638  1
  O  O24  1  0.286002  0.791296  0.056924  1
  O  O25  1  0.718456  0.208370  0.944911  1
  O  O26  1  0.942960  0.368108  0.255355  1
  O  O27  1  0.061929  0.635013  0.745959  1
  O  O28  1  0.292520  0.183907  0.080006  1
  O  O29  1  0.692980  0.813216  0.923983  1
  O  O30  1  0.842418  0.732813  0.519364  1
  O  O31  1  0.161468  0.273026  0.483902  1
  O  O32  1  0.790329  0.030421  0.237716  1
  O  O33  1  0.232309  0.969839  0.757445  1
  O  O34  1  0.475792  0.774233  0.343908  1
  O  O35  1  0.525226  0.228438  0.657457  1
  O  O36  1  0.425510  0.449653  0.356051  1
  O  O37  1  0.577333  0.553062  0.646378  1
