# generated using pymatgen
data_Er10IrRhPb6
_symmetry_space_group_name_H-M   'P 1'
_cell_length_a   9.14557900
_cell_length_b   9.14557910
_cell_length_c   6.76489900
_cell_angle_alpha   90.00000000
_cell_angle_beta   90.00000000
_cell_angle_gamma   120.00001048
_symmetry_Int_Tables_number   1
_chemical_formula_structural   Er10IrRhPb6
_chemical_formula_sum   'Er10 Ir1 Rh1 Pb6'
_cell_volume   490.02057868
_cell_formula_units_Z   1
loop_
 _symmetry_equiv_pos_site_id
 _symmetry_equiv_pos_as_xyz
  1  'x, y, z'
loop_
 _atom_site_type_symbol
 _atom_site_label
 _atom_site_symmetry_multiplicity
 _atom_site_fract_x
 _atom_site_fract_y
 _atom_site_fract_z
 _atom_site_occupancy
  Er  Er0  1  0.237349  0.000000  0.249879  1
  Er  Er1  1  0.762651  0.000000  0.750121  1
  Er  Er2  1  0.000000  0.237349  0.249879  1
  Er  Er3  1  0.000000  0.762651  0.750121  1
  Er  Er4  1  0.762651  0.762651  0.249879  1
  Er  Er5  1  0.237349  0.237349  0.750121  1
  Er  Er6  1  0.333333  0.666667  0.000000  1
  Er  Er7  1  0.666667  0.333333  0.000000  1
  Er  Er8  1  0.666667  0.333333  0.500000  1
  Er  Er9  1  0.333333  0.666667  0.500000  1
  Ir  Ir10  1  0.000000  0.000000  0.000000  1
  Rh  Rh11  1  0.000000  0.000000  0.500000  1
  Pb  Pb12  1  0.596594  0.000000  0.252633  1
  Pb  Pb13  1  0.403406  0.000000  0.747367  1
  Pb  Pb14  1  0.000000  0.596594  0.252633  1
  Pb  Pb15  1  0.000000  0.403406  0.747367  1
  Pb  Pb16  1  0.403406  0.403406  0.252633  1
  Pb  Pb17  1  0.596594  0.596594  0.747367  1
