# generated using pymatgen
data_Ca2Tb9In9Pd4
_symmetry_space_group_name_H-M   'P 1'
_cell_length_a   13.41807700
_cell_length_b   13.41997478
_cell_length_c   3.75892000
_cell_angle_alpha   90.00000000
_cell_angle_beta   90.00000000
_cell_angle_gamma   111.84499212
_symmetry_Int_Tables_number   1
_chemical_formula_structural   Ca2Tb9In9Pd4
_chemical_formula_sum   'Ca2 Tb9 In9 Pd4'
_cell_volume   628.26632423
_cell_formula_units_Z   1
loop_
 _symmetry_equiv_pos_site_id
 _symmetry_equiv_pos_as_xyz
  1  'x, y, z'
loop_
 _atom_site_type_symbol
 _atom_site_label
 _atom_site_symmetry_multiplicity
 _atom_site_fract_x
 _atom_site_fract_y
 _atom_site_fract_z
 _atom_site_occupancy
  Ca  Ca0  1  0.339567  0.660166  0.500000  1
  Ca  Ca1  1  0.660433  0.339834  0.500000  1
  Tb  Tb2  1  0.500000  0.500000  0.500000  1
  Tb  Tb3  1  0.811731  0.811729  0.500000  1
  Tb  Tb4  1  0.188269  0.188271  0.500000  1
  Tb  Tb5  1  0.571585  0.917015  0.500000  1
  Tb  Tb6  1  0.428415  0.082985  0.500000  1
  Tb  Tb7  1  0.917100  0.571667  0.500000  1
  Tb  Tb8  1  0.082900  0.428333  0.500000  1
  Tb  Tb9  1  0.126650  0.873486  0.500000  1
  Tb  Tb10  1  0.873350  0.126514  0.500000  1
  In  In11  1  0.339342  0.869498  0.000000  1
  In  In12  1  0.660658  0.130502  0.000000  1
  In  In13  1  0.869556  0.339246  0.000000  1
  In  In14  1  0.130444  0.660754  0.000000  1
  In  In15  1  0.577259  0.719325  0.000000  1
  In  In16  1  0.422741  0.280675  0.000000  1
  In  In17  1  0.719360  0.577302  0.000000  1
  In  In18  1  0.280640  0.422698  0.000000  1
  In  In19  1  0.000000  0.000000  0.000000  1
  Pd  Pd20  1  0.747574  0.949920  0.000000  1
  Pd  Pd21  1  0.252426  0.050080  0.000000  1
  Pd  Pd22  1  0.950073  0.747736  0.000000  1
  Pd  Pd23  1  0.049927  0.252264  0.000000  1
