# generated using pymatgen
data_PaPt4Au
_symmetry_space_group_name_H-M   'P 1'
_cell_length_a   5.35640852
_cell_length_b   5.35640821
_cell_length_c   5.35640800
_cell_angle_alpha   60.00000127
_cell_angle_beta   60.00000320
_cell_angle_gamma   60.00000021
_symmetry_Int_Tables_number   1
_chemical_formula_structural   PaPt4Au
_chemical_formula_sum   'Pa1 Pt4 Au1'
_cell_volume   108.66908901
_cell_formula_units_Z   1
loop_
 _symmetry_equiv_pos_site_id
 _symmetry_equiv_pos_as_xyz
  1  'x, y, z'
loop_
 _atom_site_type_symbol
 _atom_site_label
 _atom_site_symmetry_multiplicity
 _atom_site_fract_x
 _atom_site_fract_y
 _atom_site_fract_z
 _atom_site_occupancy
  Pa  Pa0  1  0.000000  0.000000  0.000000  1
  Pt  Pt1  1  0.624580  0.624580  0.126260  1
  Pt  Pt2  1  0.624580  0.126260  0.624580  1
  Pt  Pt3  1  0.126260  0.624580  0.624580  1
  Pt  Pt4  1  0.624580  0.624580  0.624580  1
  Au  Au5  1  0.250000  0.250000  0.250000  1
