# generated using pymatgen
data_Ho9Er(TlSb2)2
_symmetry_space_group_name_H-M   'P 1'
_cell_length_a   8.93716504
_cell_length_b   8.92108586
_cell_length_c   6.44053300
_cell_angle_alpha   89.98877987
_cell_angle_beta   90.00559677
_cell_angle_gamma   119.94049803
_symmetry_Int_Tables_number   1
_chemical_formula_structural   Ho9Er(TlSb2)2
_chemical_formula_sum   'Ho9 Er1 Tl2 Sb4'
_cell_volume   444.96926368
_cell_formula_units_Z   1
loop_
 _symmetry_equiv_pos_site_id
 _symmetry_equiv_pos_as_xyz
  1  'x, y, z'
loop_
 _atom_site_type_symbol
 _atom_site_label
 _atom_site_symmetry_multiplicity
 _atom_site_fract_x
 _atom_site_fract_y
 _atom_site_fract_z
 _atom_site_occupancy
  Ho  Ho0  1  0.001852  0.760015  0.749994  1
  Ho  Ho1  1  0.001852  0.241838  0.250006  1
  Ho  Ho2  1  0.758232  0.760013  0.249982  1
  Ho  Ho3  1  0.758232  0.998220  0.750018  1
  Ho  Ho4  1  0.241106  0.237287  0.750050  1
  Ho  Ho5  1  0.241106  0.003819  0.249950  1
  Ho  Ho6  1  0.333794  0.666898  0.500000  1
  Ho  Ho7  1  0.663648  0.331824  0.000000  1
  Ho  Ho8  1  0.663415  0.331708  0.500000  1
  Er  Er9  1  0.333797  0.666899  0.000000  1
  Tl  Tl10  1  0.393816  0.997741  0.750374  1
  Tl  Tl11  1  0.393816  0.396075  0.249626  1
  Sb  Sb12  1  0.999324  0.608350  0.249789  1
  Sb  Sb13  1  0.999324  0.390975  0.750211  1
  Sb  Sb14  1  0.608342  0.608037  0.750249  1
  Sb  Sb15  1  0.608342  0.000305  0.249751  1
