# generated using pymatgen
data_Sm3(CrC3)2
_symmetry_space_group_name_H-M   'P 1'
_cell_length_a   8.22364000
_cell_length_b   8.22363973
_cell_length_c   5.12659100
_cell_angle_alpha   90.00000000
_cell_angle_beta   90.00000000
_cell_angle_gamma   119.99998498
_symmetry_Int_Tables_number   1
_chemical_formula_structural   Sm3(CrC3)2
_chemical_formula_sum   'Sm6 Cr4 C12'
_cell_volume   300.25312402
_cell_formula_units_Z   2
loop_
 _symmetry_equiv_pos_site_id
 _symmetry_equiv_pos_as_xyz
  1  'x, y, z'
loop_
 _atom_site_type_symbol
 _atom_site_label
 _atom_site_symmetry_multiplicity
 _atom_site_fract_x
 _atom_site_fract_y
 _atom_site_fract_z
 _atom_site_occupancy
  Sm  Sm0  1  0.617259  0.686974  0.750000  1
  Sm  Sm1  1  0.930284  0.617259  0.250000  1
  Sm  Sm2  1  0.686974  0.069716  0.250000  1
  Sm  Sm3  1  0.313026  0.930284  0.750000  1
  Sm  Sm4  1  0.069716  0.382741  0.750000  1
  Sm  Sm5  1  0.382741  0.313026  0.250000  1
  Cr  Cr6  1  0.000000  0.000000  0.500000  1
  Cr  Cr7  1  0.000000  0.000000  0.000000  1
  Cr  Cr8  1  0.666667  0.333333  0.750000  1
  Cr  Cr9  1  0.333333  0.666667  0.250000  1
  C  C10  1  0.959404  0.774352  0.750000  1
  C  C11  1  0.185052  0.959404  0.250000  1
  C  C12  1  0.774352  0.814948  0.250000  1
  C  C13  1  0.225648  0.185052  0.750000  1
  C  C14  1  0.814948  0.040596  0.750000  1
  C  C15  1  0.040596  0.225648  0.250000  1
  C  C16  1  0.861553  0.580712  0.750000  1
  C  C17  1  0.280840  0.861553  0.250000  1
  C  C18  1  0.580712  0.719160  0.250000  1
  C  C19  1  0.419288  0.280840  0.750000  1
  C  C20  1  0.138447  0.419288  0.250000  1
  C  C21  1  0.719160  0.138447  0.750000  1
