# generated using pymatgen
data_YbPr2HoAl8
_symmetry_space_group_name_H-M   'P 1'
_cell_length_a   9.73873144
_cell_length_b   9.73873220
_cell_length_c   9.73873200
_cell_angle_alpha   33.89949756
_cell_angle_beta   33.89949088
_cell_angle_gamma   33.89948483
_symmetry_Int_Tables_number   1
_chemical_formula_structural   YbPr2HoAl8
_chemical_formula_sum   'Yb1 Pr2 Ho1 Al8'
_cell_volume   256.06825370
_cell_formula_units_Z   1
loop_
 _symmetry_equiv_pos_site_id
 _symmetry_equiv_pos_as_xyz
  1  'x, y, z'
loop_
 _atom_site_type_symbol
 _atom_site_label
 _atom_site_symmetry_multiplicity
 _atom_site_fract_x
 _atom_site_fract_y
 _atom_site_fract_z
 _atom_site_occupancy
  Yb  Yb0  1  0.062439  0.062439  0.062439  1
  Pr  Pr1  1  0.562954  0.562954  0.562954  1
  Pr  Pr2  1  0.435416  0.435416  0.435416  1
  Ho  Ho3  1  0.939435  0.939435  0.939435  1
  Al  Al4  1  0.749168  0.749168  0.749168  1
  Al  Al5  1  0.250821  0.250821  0.250821  1
  Al  Al6  1  0.996428  0.499480  0.499480  1
  Al  Al7  1  0.503087  0.000643  0.000643  1
  Al  Al8  1  0.499480  0.996428  0.499480  1
  Al  Al9  1  0.000643  0.503087  0.000643  1
  Al  Al10  1  0.499480  0.499480  0.996428  1
  Al  Al11  1  0.000643  0.000643  0.503087  1
