# generated using pymatgen
data_Ho19Er(CoBi5)2
_symmetry_space_group_name_H-M   'P 1'
_cell_length_a   8.01731101
_cell_length_b   9.36265801
_cell_length_c   12.04750200
_cell_angle_alpha   90.00007480
_cell_angle_beta   90.00133044
_cell_angle_gamma   89.99462641
_symmetry_Int_Tables_number   1
_chemical_formula_structural   Ho19Er(CoBi5)2
_chemical_formula_sum   'Ho19 Er1 Co2 Bi10'
_cell_volume   904.32574838
_cell_formula_units_Z   1
loop_
 _symmetry_equiv_pos_site_id
 _symmetry_equiv_pos_as_xyz
  1  'x, y, z'
loop_
 _atom_site_type_symbol
 _atom_site_label
 _atom_site_symmetry_multiplicity
 _atom_site_fract_x
 _atom_site_fract_y
 _atom_site_fract_z
 _atom_site_occupancy
  Ho  Ho0  1  0.429619  0.178088  0.563144  1
  Ho  Ho1  1  0.570488  0.821960  0.063070  1
  Ho  Ho2  1  0.070461  0.728600  0.436576  1
  Ho  Ho3  1  0.929437  0.271408  0.936613  1
  Ho  Ho4  1  0.070464  0.271399  0.436540  1
  Ho  Ho5  1  0.929472  0.728528  0.936586  1
  Ho  Ho6  1  0.429587  0.821938  0.563108  1
  Ho  Ho7  1  0.573476  0.500085  0.772696  1
  Ho  Ho8  1  0.426549  0.499979  0.272734  1
  Ho  Ho9  1  0.907959  0.000150  0.201642  1
  Ho  Ho10  1  0.091819  0.000023  0.701716  1
  Ho  Ho11  1  0.260349  0.499954  0.993923  1
  Ho  Ho12  1  0.739640  0.500001  0.493859  1
  Ho  Ho13  1  0.199993  0.000112  0.996773  1
  Ho  Ho14  1  0.800160  0.000053  0.496720  1
  Ho  Ho15  1  0.090342  0.500034  0.717919  1
  Ho  Ho16  1  0.909752  0.500085  0.217891  1
  Ho  Ho17  1  0.372352  0.000042  0.307742  1
  Ho  Ho18  1  0.627595  0.000120  0.808033  1
  Er  Er19  1  0.571172  0.177429  0.063121  1
  Co  Co20  1  0.172133  0.000012  0.488122  1
  Co  Co21  1  0.827315  0.000316  0.988300  1
  Bi  Bi22  1  0.814188  0.741571  0.672129  1
  Bi  Bi23  1  0.186011  0.258422  0.172006  1
  Bi  Bi24  1  0.679562  0.241842  0.325077  1
  Bi  Bi25  1  0.320382  0.758197  0.825251  1
  Bi  Bi26  1  0.679601  0.758188  0.325221  1
  Bi  Bi27  1  0.320341  0.241876  0.825246  1
  Bi  Bi28  1  0.814197  0.258481  0.672120  1
  Bi  Bi29  1  0.185784  0.741595  0.172079  1
  Bi  Bi30  1  0.345488  0.500005  0.526973  1
  Bi  Bi31  1  0.654311  0.499509  0.027072  1
