# generated using pymatgen
data_Tb3Dy(ReB2)6
_symmetry_space_group_name_H-M   'P 1'
_cell_length_a   6.23173159
_cell_length_b   6.23104983
_cell_length_c   7.52028833
_cell_angle_alpha   89.36877606
_cell_angle_beta   89.41148272
_cell_angle_gamma   113.79623983
_symmetry_Int_Tables_number   1
_chemical_formula_structural   Tb3Dy(ReB2)6
_chemical_formula_sum   'Tb3 Dy1 Re6 B12'
_cell_volume   267.13846841
_cell_formula_units_Z   1
loop_
 _symmetry_equiv_pos_site_id
 _symmetry_equiv_pos_as_xyz
  1  'x, y, z'
loop_
 _atom_site_type_symbol
 _atom_site_label
 _atom_site_symmetry_multiplicity
 _atom_site_fract_x
 _atom_site_fract_y
 _atom_site_fract_z
 _atom_site_occupancy
  Tb  Tb0  1  0.899479  0.556905  0.322511  1
  Tb  Tb1  1  0.443140  0.100522  0.177454  1
  Tb  Tb2  1  0.100587  0.443183  0.677522  1
  Dy  Dy3  1  0.556793  0.899080  0.822157  1
  Re  Re4  1  0.411623  0.588414  0.250034  1
  Re  Re5  1  0.588392  0.411471  0.750105  1
  Re  Re6  1  0.009402  0.192911  0.088490  1
  Re  Re7  1  0.807036  0.990502  0.411444  1
  Re  Re8  1  0.990364  0.807148  0.911312  1
  Re  Re9  1  0.193129  0.009426  0.588717  1
  B  B10  1  0.750152  0.848853  0.129930  1
  B  B11  1  0.151179  0.249646  0.369844  1
  B  B12  1  0.249746  0.151125  0.869866  1
  B  B13  1  0.848712  0.750447  0.630241  1
  B  B14  1  0.413233  0.840533  0.479883  1
  B  B15  1  0.159636  0.586957  0.020228  1
  B  B16  1  0.586851  0.159396  0.520461  1
  B  B17  1  0.840487  0.413222  0.979707  1
  B  B18  1  0.557314  0.649840  0.535565  1
  B  B19  1  0.350323  0.442818  0.964540  1
  B  B20  1  0.442679  0.350249  0.464593  1
  B  B21  1  0.649741  0.557354  0.035396  1
