# generated using pymatgen
data_ErTm7In3Ir
_symmetry_space_group_name_H-M   'P 1'
_cell_length_a   10.29501602
_cell_length_b   10.29501581
_cell_length_c   6.97346201
_cell_angle_alpha   90.00421810
_cell_angle_beta   89.99577920
_cell_angle_gamma   119.99412533
_symmetry_Int_Tables_number   1
_chemical_formula_structural   ErTm7In3Ir
_chemical_formula_sum   'Er2 Tm14 In6 Ir2'
_cell_volume   640.11620230
_cell_formula_units_Z   2
loop_
 _symmetry_equiv_pos_site_id
 _symmetry_equiv_pos_as_xyz
  1  'x, y, z'
loop_
 _atom_site_type_symbol
 _atom_site_label
 _atom_site_symmetry_multiplicity
 _atom_site_fract_x
 _atom_site_fract_y
 _atom_site_fract_z
 _atom_site_occupancy
  Er  Er0  1  0.532776  0.065584  0.514877  1
  Er  Er1  1  0.934416  0.467224  0.514877  1
  Tm  Tm2  1  0.532905  0.467095  0.514825  1
  Tm  Tm3  1  0.467012  0.934034  0.014800  1
  Tm  Tm4  1  0.065966  0.532988  0.014800  1
  Tm  Tm5  1  0.467056  0.532944  0.014786  1
  Tm  Tm6  1  0.176816  0.353444  0.721540  1
  Tm  Tm7  1  0.646556  0.823184  0.721540  1
  Tm  Tm8  1  0.176693  0.823307  0.721643  1
  Tm  Tm9  1  0.823205  0.646561  0.221344  1
  Tm  Tm10  1  0.353439  0.176795  0.221344  1
  Tm  Tm11  1  0.823336  0.176664  0.221225  1
  Tm  Tm12  1  0.666605  0.333395  0.895603  1
  Tm  Tm13  1  0.333384  0.666616  0.395443  1
  Tm  Tm14  1  0.999997  0.000003  0.500341  1
  Tm  Tm15  1  0.999986  0.000014  0.000398  1
  In  In16  1  0.837146  0.674411  0.761097  1
  In  In17  1  0.325589  0.162854  0.761097  1
  In  In18  1  0.837252  0.162748  0.761190  1
  In  In19  1  0.162819  0.325637  0.261040  1
  In  In20  1  0.674363  0.837181  0.261040  1
  In  In21  1  0.162820  0.837180  0.260998  1
  Ir  Ir22  1  0.666531  0.333469  0.290919  1
  Ir  Ir23  1  0.333331  0.666669  0.791232  1
