# generated using pymatgen
data_Ho9ErSi5Sb
_symmetry_space_group_name_H-M   'P 1'
_cell_length_a   8.47663900
_cell_length_b   8.50414742
_cell_length_c   6.34834000
_cell_angle_alpha   89.99745327
_cell_angle_beta   90.00022981
_cell_angle_gamma   119.88981765
_symmetry_Int_Tables_number   1
_chemical_formula_structural   Ho9ErSi5Sb
_chemical_formula_sum   'Ho9 Er1 Si5 Sb1'
_cell_volume   396.75863918
_cell_formula_units_Z   1
loop_
 _symmetry_equiv_pos_site_id
 _symmetry_equiv_pos_as_xyz
  1  'x, y, z'
loop_
 _atom_site_type_symbol
 _atom_site_label
 _atom_site_symmetry_multiplicity
 _atom_site_fract_x
 _atom_site_fract_y
 _atom_site_fract_z
 _atom_site_occupancy
  Ho  Ho0  1  0.988623  0.748161  0.750071  1
  Ho  Ho1  1  0.998397  0.242879  0.249904  1
  Ho  Ho2  1  0.755462  0.757163  0.249863  1
  Ho  Ho3  1  0.765361  0.999970  0.750078  1
  Ho  Ho4  1  0.240483  0.251871  0.750085  1
  Ho  Ho5  1  0.241738  0.999967  0.249960  1
  Ho  Ho6  1  0.331080  0.656608  0.496465  1
  Ho  Ho7  1  0.674423  0.343289  0.003513  1
  Ho  Ho8  1  0.674476  0.343412  0.496479  1
  Er  Er9  1  0.331123  0.656619  0.003587  1
  Si  Si10  1  0.393082  0.391491  0.249550  1
  Si  Si11  1  0.002253  0.608832  0.249600  1
  Si  Si12  1  0.999273  0.394517  0.750396  1
  Si  Si13  1  0.604463  0.605823  0.750403  1
  Si  Si14  1  0.605628  0.999718  0.249724  1
  Sb  Sb15  1  0.394135  0.999676  0.750322  1
