# generated using pymatgen
data_Ca11ErPd12
_symmetry_space_group_name_H-M   'P 1'
_cell_length_a   5.74753488
_cell_length_b   4.49507500
_cell_length_c   22.04192832
_cell_angle_alpha   90.00000000
_cell_angle_beta   96.34322644
_cell_angle_gamma   90.00000000
_symmetry_Int_Tables_number   1
_chemical_formula_structural   Ca11ErPd12
_chemical_formula_sum   'Ca11 Er1 Pd12'
_cell_volume   565.98011176
_cell_formula_units_Z   1
loop_
 _symmetry_equiv_pos_site_id
 _symmetry_equiv_pos_as_xyz
  1  'x, y, z'
loop_
 _atom_site_type_symbol
 _atom_site_label
 _atom_site_symmetry_multiplicity
 _atom_site_fract_x
 _atom_site_fract_y
 _atom_site_fract_z
 _atom_site_occupancy
  Ca  Ca0  1  0.185002  0.750000  0.106840  1
  Ca  Ca1  1  0.505838  0.250001  0.226232  1
  Ca  Ca2  1  0.023877  0.750000  0.272495  1
  Ca  Ca3  1  0.810215  0.250001  0.393505  1
  Ca  Ca4  1  0.331986  0.750000  0.439205  1
  Ca  Ca5  1  0.666317  0.250001  0.560233  1
  Ca  Ca6  1  0.189295  0.750000  0.605968  1
  Ca  Ca7  1  0.972619  0.250001  0.727033  1
  Ca  Ca8  1  0.495820  0.750000  0.773715  1
  Ca  Ca9  1  0.823984  0.250001  0.894511  1
  Ca  Ca10  1  0.334094  0.750000  0.940441  1
  Er  Er11  1  0.670550  0.250001  0.061053  1
  Pd  Pd12  1  0.154179  0.250001  0.016608  1
  Pd  Pd13  1  0.697036  0.750000  0.146888  1
  Pd  Pd14  1  0.980675  0.250001  0.176526  1
  Pd  Pd15  1  0.549978  0.750000  0.320775  1
  Pd  Pd16  1  0.283634  0.250001  0.344647  1
  Pd  Pd17  1  0.853468  0.750000  0.487656  1
  Pd  Pd18  1  0.145445  0.250001  0.512120  1
  Pd  Pd19  1  0.714725  0.750000  0.654397  1
  Pd  Pd20  1  0.448263  0.250001  0.678980  1
  Pd  Pd21  1  0.013513  0.750000  0.820275  1
  Pd  Pd22  1  0.303461  0.250001  0.845882  1
  Pd  Pd23  1  0.846028  0.750000  0.994014  1
