# generated using pymatgen
data_RbSc2Cl6
_symmetry_space_group_name_H-M   'P 1'
_cell_length_a   7.76962000
_cell_length_b   7.76961838
_cell_length_c   12.30943800
_cell_angle_alpha   90.00000000
_cell_angle_beta   90.00000000
_cell_angle_gamma   119.99999840
_symmetry_Int_Tables_number   1
_chemical_formula_structural   RbSc2Cl6
_chemical_formula_sum   'Rb2 Sc4 Cl12'
_cell_volume   643.52930782
_cell_formula_units_Z   2
loop_
 _symmetry_equiv_pos_site_id
 _symmetry_equiv_pos_as_xyz
  1  'x, y, z'
loop_
 _atom_site_type_symbol
 _atom_site_label
 _atom_site_symmetry_multiplicity
 _atom_site_fract_x
 _atom_site_fract_y
 _atom_site_fract_z
 _atom_site_occupancy
  Rb  Rb0  1  0.333333  0.666667  0.873177  1
  Rb  Rb1  1  0.666667  0.333333  0.373177  1
  Sc  Sc2  1  0.000000  0.000000  0.125785  1
  Sc  Sc3  1  0.000000  0.000000  0.375904  1
  Sc  Sc4  1  0.000000  0.000000  0.625785  1
  Sc  Sc5  1  0.000000  0.000000  0.875904  1
  Cl  Cl6  1  0.980866  0.730417  0.000842  1
  Cl  Cl7  1  0.248719  0.977843  0.250779  1
  Cl  Cl8  1  0.022157  0.270876  0.250779  1
  Cl  Cl9  1  0.269583  0.250449  0.000842  1
  Cl  Cl10  1  0.250449  0.269583  0.500842  1
  Cl  Cl11  1  0.749551  0.019134  0.000842  1
  Cl  Cl12  1  0.270876  0.022157  0.750779  1
  Cl  Cl13  1  0.729124  0.751281  0.250779  1
  Cl  Cl14  1  0.751281  0.729124  0.750779  1
  Cl  Cl15  1  0.019134  0.749551  0.500842  1
  Cl  Cl16  1  0.730417  0.980866  0.500842  1
  Cl  Cl17  1  0.977843  0.248719  0.750779  1
