# generated using pymatgen
data_Tl(WO3)4
_symmetry_space_group_name_H-M   'P 1'
_cell_length_a   7.52911300
_cell_length_b   7.52911351
_cell_length_c   15.40339100
_cell_angle_alpha   90.00000000
_cell_angle_beta   90.00000000
_cell_angle_gamma   119.99999338
_symmetry_Int_Tables_number   1
_chemical_formula_structural   Tl(WO3)4
_chemical_formula_sum   'Tl3 W12 O36'
_cell_volume   756.19649512
_cell_formula_units_Z   3
loop_
 _symmetry_equiv_pos_site_id
 _symmetry_equiv_pos_as_xyz
  1  'x, y, z'
loop_
 _atom_site_type_symbol
 _atom_site_label
 _atom_site_symmetry_multiplicity
 _atom_site_fract_x
 _atom_site_fract_y
 _atom_site_fract_z
 _atom_site_occupancy
  Tl  Tl0  1  0.000000  0.000000  0.000000  1
  Tl  Tl1  1  0.000000  0.000000  0.717222  1
  Tl  Tl2  1  0.000000  0.000000  0.282778  1
  W  W3  1  0.000000  0.500304  0.375397  1
  W  W4  1  0.000000  0.500235  0.874835  1
  W  W5  1  0.499696  0.499696  0.375397  1
  W  W6  1  0.499765  0.499765  0.874835  1
  W  W7  1  0.500304  0.000000  0.375397  1
  W  W8  1  0.500235  0.000000  0.874835  1
  W  W9  1  0.000000  0.499696  0.624603  1
  W  W10  1  0.000000  0.499765  0.125165  1
  W  W11  1  0.500304  0.500304  0.624603  1
  W  W12  1  0.500235  0.500235  0.125165  1
  W  W13  1  0.499696  0.000000  0.624603  1
  W  W14  1  0.499765  0.000000  0.125165  1
  O  O15  1  0.000000  0.500000  0.500000  1
  O  O16  1  0.000000  0.500000  0.000000  1
  O  O17  1  0.500000  0.500000  0.500000  1
  O  O18  1  0.500000  0.500000  0.000000  1
  O  O19  1  0.500000  0.000000  0.500000  1
  O  O20  1  0.500000  0.000000  0.000000  1
  O  O21  1  0.000000  0.499984  0.750380  1
  O  O22  1  0.000000  0.500016  0.249620  1
  O  O23  1  0.500016  0.500016  0.750380  1
  O  O24  1  0.499984  0.499984  0.249620  1
  O  O25  1  0.500016  0.000000  0.249620  1
  O  O26  1  0.499984  0.000000  0.750380  1
  O  O27  1  0.788324  0.576786  0.373958  1
  O  O28  1  0.788762  0.577638  0.875509  1
  O  O29  1  0.423214  0.211539  0.373958  1
  O  O30  1  0.422362  0.211123  0.875509  1
  O  O31  1  0.788461  0.211676  0.373958  1
  O  O32  1  0.788877  0.211238  0.875509  1
  O  O33  1  0.211676  0.788461  0.373958  1
  O  O34  1  0.211238  0.788877  0.875509  1
  O  O35  1  0.576786  0.788324  0.373958  1
  O  O36  1  0.577638  0.788762  0.875509  1
  O  O37  1  0.211539  0.423214  0.373958  1
  O  O38  1  0.211123  0.422362  0.875509  1
  O  O39  1  0.211676  0.423214  0.626042  1
  O  O40  1  0.211238  0.422362  0.124491  1
  O  O41  1  0.576786  0.788461  0.626042  1
  O  O42  1  0.577638  0.788877  0.124491  1
  O  O43  1  0.211539  0.788324  0.626042  1
  O  O44  1  0.211123  0.788762  0.124491  1
  O  O45  1  0.788324  0.211539  0.626042  1
  O  O46  1  0.788762  0.211123  0.124491  1
  O  O47  1  0.423214  0.211676  0.626042  1
  O  O48  1  0.422362  0.211238  0.124491  1
  O  O49  1  0.788461  0.576786  0.626042  1
  O  O50  1  0.788877  0.577638  0.124491  1
