# generated using pymatgen
data_Ho6Er4Ir5Pt
_symmetry_space_group_name_H-M   'P 1'
_cell_length_a   10.87011094
_cell_length_b   10.87142200
_cell_length_c   6.31382700
_cell_angle_alpha   90.00000000
_cell_angle_beta   89.95220271
_cell_angle_gamma   90.00000000
_symmetry_Int_Tables_number   1
_chemical_formula_structural   Ho6Er4Ir5Pt
_chemical_formula_sum   'Ho12 Er8 Ir10 Pt2'
_cell_volume   746.12717454
_cell_formula_units_Z   2
loop_
 _symmetry_equiv_pos_site_id
 _symmetry_equiv_pos_as_xyz
  1  'x, y, z'
loop_
 _atom_site_type_symbol
 _atom_site_label
 _atom_site_symmetry_multiplicity
 _atom_site_fract_x
 _atom_site_fract_y
 _atom_site_fract_z
 _atom_site_occupancy
  Ho  Ho0  1  0.291094  0.088114  0.375776  1
  Ho  Ho1  1  0.291094  0.911886  0.875776  1
  Ho  Ho2  1  0.705811  0.089746  0.874050  1
  Ho  Ho3  1  0.705811  0.910254  0.374050  1
  Ho  Ho4  1  0.584678  0.790806  0.878047  1
  Ho  Ho5  1  0.584678  0.209194  0.378047  1
  Ho  Ho6  1  0.411202  0.791279  0.377098  1
  Ho  Ho7  1  0.411202  0.208721  0.877098  1
  Ho  Ho8  1  0.208839  0.411804  0.622588  1
  Ho  Ho9  1  0.208839  0.588196  0.122588  1
  Ho  Ho10  1  0.790895  0.414617  0.122955  1
  Ho  Ho11  1  0.790895  0.585383  0.622955  1
  Er  Er12  1  0.913649  0.707095  0.126458  1
  Er  Er13  1  0.913649  0.292905  0.626458  1
  Er  Er14  1  0.090908  0.706974  0.622721  1
  Er  Er15  1  0.090908  0.293026  0.122721  1
  Er  Er16  1  0.002776  0.999723  0.500015  1
  Er  Er17  1  0.002776  0.000277  0.000015  1
  Er  Er18  1  0.499847  0.499637  0.999936  1
  Er  Er19  1  0.499847  0.500363  0.499936  1
  Ir  Ir20  1  0.152432  0.153735  0.750343  1
  Ir  Ir21  1  0.152432  0.846265  0.250343  1
  Ir  Ir22  1  0.654797  0.345968  0.749573  1
  Ir  Ir23  1  0.654797  0.654032  0.249573  1
  Ir  Ir24  1  0.346601  0.346397  0.250163  1
  Ir  Ir25  1  0.346601  0.653603  0.750163  1
  Ir  Ir26  1  0.500796  0.999825  0.123002  1
  Ir  Ir27  1  0.500796  0.000175  0.623002  1
  Ir  Ir28  1  0.999545  0.500079  0.877238  1
  Ir  Ir29  1  0.999545  0.499921  0.377238  1
  Pt  Pt30  1  0.846129  0.153368  0.250036  1
  Pt  Pt31  1  0.846129  0.846632  0.750036  1
