# generated using pymatgen
data_Sm2Al9Ru2Au
_symmetry_space_group_name_H-M   'P 1'
_cell_length_a   7.62051700
_cell_length_b   7.62051574
_cell_length_c   9.56475600
_cell_angle_alpha   90.00000000
_cell_angle_beta   90.00000000
_cell_angle_gamma   119.32217131
_symmetry_Int_Tables_number   1
_chemical_formula_structural   Sm2Al9Ru2Au
_chemical_formula_sum   'Sm4 Al18 Ru4 Au2'
_cell_volume   484.28311716
_cell_formula_units_Z   2
loop_
 _symmetry_equiv_pos_site_id
 _symmetry_equiv_pos_as_xyz
  1  'x, y, z'
loop_
 _atom_site_type_symbol
 _atom_site_label
 _atom_site_symmetry_multiplicity
 _atom_site_fract_x
 _atom_site_fract_y
 _atom_site_fract_z
 _atom_site_occupancy
  Sm  Sm0  1  0.997793  0.678387  0.250000  1
  Sm  Sm1  1  0.002207  0.321613  0.750000  1
  Sm  Sm2  1  0.678387  0.997793  0.250000  1
  Sm  Sm3  1  0.321613  0.002207  0.750000  1
  Al  Al4  1  0.146920  0.146920  0.250000  1
  Al  Al5  1  0.853080  0.853080  0.750000  1
  Al  Al6  1  0.004192  0.348083  0.075565  1
  Al  Al7  1  0.995808  0.651917  0.924435  1
  Al  Al8  1  0.995808  0.651917  0.575565  1
  Al  Al9  1  0.348083  0.004192  0.424435  1
  Al  Al10  1  0.004192  0.348083  0.424435  1
  Al  Al11  1  0.651917  0.995808  0.575565  1
  Al  Al12  1  0.651917  0.995808  0.924435  1
  Al  Al13  1  0.348083  0.004192  0.075565  1
  Al  Al14  1  0.344520  0.344520  0.551001  1
  Al  Al15  1  0.655480  0.655480  0.448999  1
  Al  Al16  1  0.655480  0.655480  0.051001  1
  Al  Al17  1  0.344520  0.344520  0.948999  1
  Al  Al18  1  0.338371  0.554701  0.250000  1
  Al  Al19  1  0.661629  0.445299  0.750000  1
  Al  Al20  1  0.554701  0.338371  0.250000  1
  Al  Al21  1  0.445299  0.661629  0.750000  1
  Ru  Ru22  1  0.672275  0.327725  0.000000  1
  Ru  Ru23  1  0.327725  0.672275  0.000000  1
  Ru  Ru24  1  0.327725  0.672275  0.500000  1
  Ru  Ru25  1  0.672275  0.327725  0.500000  1
  Au  Au26  1  0.000000  0.000000  0.000000  1
  Au  Au27  1  0.000000  0.000000  0.500000  1
