# generated using pymatgen
data_Tb8InAgPt2
_symmetry_space_group_name_H-M   'P 1'
_cell_length_a   9.70870933
_cell_length_b   9.70870946
_cell_length_c   9.66692200
_cell_angle_alpha   60.14227733
_cell_angle_beta   60.14227688
_cell_angle_gamma   60.09748524
_symmetry_Int_Tables_number   1
_chemical_formula_structural   Tb8InAgPt2
_chemical_formula_sum   'Tb16 In2 Ag2 Pt4'
_cell_volume   646.17053715
_cell_formula_units_Z   2
loop_
 _symmetry_equiv_pos_site_id
 _symmetry_equiv_pos_as_xyz
  1  'x, y, z'
loop_
 _atom_site_type_symbol
 _atom_site_label
 _atom_site_symmetry_multiplicity
 _atom_site_fract_x
 _atom_site_fract_y
 _atom_site_fract_z
 _atom_site_occupancy
  Tb  Tb0  1  0.352224  0.352224  0.351125  1
  Tb  Tb1  1  0.352224  0.352224  0.944426  1
  Tb  Tb2  1  0.355099  0.938094  0.353404  1
  Tb  Tb3  1  0.938094  0.355099  0.353404  1
  Tb  Tb4  1  0.809713  0.190471  0.191456  1
  Tb  Tb5  1  0.190471  0.809713  0.808359  1
  Tb  Tb6  1  0.190471  0.809713  0.191456  1
  Tb  Tb7  1  0.809713  0.190471  0.808359  1
  Tb  Tb8  1  0.192263  0.192263  0.807737  1
  Tb  Tb9  1  0.810969  0.810969  0.189031  1
  Tb  Tb10  1  0.932485  0.562617  0.565526  1
  Tb  Tb11  1  0.562617  0.932485  0.939372  1
  Tb  Tb12  1  0.562617  0.932485  0.565526  1
  Tb  Tb13  1  0.932485  0.562617  0.939372  1
  Tb  Tb14  1  0.563222  0.563222  0.936778  1
  Tb  Tb15  1  0.936011  0.936011  0.563989  1
  In  In16  1  0.582542  0.257141  0.580159  1
  In  In17  1  0.257141  0.582542  0.580159  1
  Ag  Ag18  1  0.584513  0.584513  0.583510  1
  Ag  Ag19  1  0.584513  0.584513  0.247463  1
  Pt  Pt20  1  0.143763  0.143763  0.144091  1
  Pt  Pt21  1  0.143763  0.143763  0.568384  1
  Pt  Pt22  1  0.142236  0.570855  0.143455  1
  Pt  Pt23  1  0.570855  0.142236  0.143455  1
