# generated using pymatgen
data_YHo19(Ag3Ru)2
_symmetry_space_group_name_H-M   'P 1'
_cell_length_a   9.45990900
_cell_length_b   9.46009510
_cell_length_c   9.61483000
_cell_angle_alpha   90.00000000
_cell_angle_beta   90.00000000
_cell_angle_gamma   120.00065027
_symmetry_Int_Tables_number   1
_chemical_formula_structural   YHo19(Ag3Ru)2
_chemical_formula_sum   'Y1 Ho19 Ag6 Ru2'
_cell_volume   745.16398570
_cell_formula_units_Z   1
loop_
 _symmetry_equiv_pos_site_id
 _symmetry_equiv_pos_as_xyz
  1  'x, y, z'
loop_
 _atom_site_type_symbol
 _atom_site_label
 _atom_site_symmetry_multiplicity
 _atom_site_fract_x
 _atom_site_fract_y
 _atom_site_fract_z
 _atom_site_occupancy
  Y  Y0  1  0.082903  0.541452  0.750000  1
  Ho  Ho1  1  0.999986  0.999993  0.499969  1
  Ho  Ho2  1  0.999986  0.999993  0.000031  1
  Ho  Ho3  1  0.208819  0.791494  0.441162  1
  Ho  Ho4  1  0.208819  0.417325  0.441162  1
  Ho  Ho5  1  0.582520  0.791260  0.441366  1
  Ho  Ho6  1  0.791090  0.208509  0.558540  1
  Ho  Ho7  1  0.791090  0.582581  0.558540  1
  Ho  Ho8  1  0.417409  0.208704  0.558666  1
  Ho  Ho9  1  0.791090  0.208509  0.941460  1
  Ho  Ho10  1  0.791090  0.582581  0.941460  1
  Ho  Ho11  1  0.417409  0.208704  0.941334  1
  Ho  Ho12  1  0.208819  0.791494  0.058838  1
  Ho  Ho13  1  0.208819  0.417325  0.058838  1
  Ho  Ho14  1  0.582520  0.791260  0.058634  1
  Ho  Ho15  1  0.541371  0.458670  0.250000  1
  Ho  Ho16  1  0.541371  0.082700  0.250000  1
  Ho  Ho17  1  0.917526  0.458762  0.250000  1
  Ho  Ho18  1  0.459029  0.541238  0.750000  1
  Ho  Ho19  1  0.459029  0.917792  0.750000  1
  Ag  Ag20  1  0.883809  0.116129  0.250000  1
  Ag  Ag21  1  0.883809  0.767682  0.250000  1
  Ag  Ag22  1  0.232213  0.116108  0.250000  1
  Ag  Ag23  1  0.116062  0.884360  0.750000  1
  Ag  Ag24  1  0.116062  0.231700  0.750000  1
  Ag  Ag25  1  0.767828  0.883913  0.750000  1
  Ru  Ru26  1  0.333266  0.666633  0.250000  1
  Ru  Ru27  1  0.666257  0.333128  0.750000  1
