# generated using pymatgen
data_Pr4Ga18PtRh5
_symmetry_space_group_name_H-M   'P 1'
_cell_length_a   7.66178747
_cell_length_b   7.67839475
_cell_length_c   9.69056429
_cell_angle_alpha   89.98943664
_cell_angle_beta   90.01142172
_cell_angle_gamma   119.55409225
_symmetry_Int_Tables_number   1
_chemical_formula_structural   Pr4Ga18PtRh5
_chemical_formula_sum   'Pr4 Ga18 Pt1 Rh5'
_cell_volume   495.92287272
_cell_formula_units_Z   1
loop_
 _symmetry_equiv_pos_site_id
 _symmetry_equiv_pos_as_xyz
  1  'x, y, z'
loop_
 _atom_site_type_symbol
 _atom_site_label
 _atom_site_symmetry_multiplicity
 _atom_site_fract_x
 _atom_site_fract_y
 _atom_site_fract_z
 _atom_site_occupancy
  Pr  Pr0  1  0.997209  0.672027  0.749692  1
  Pr  Pr1  1  0.002791  0.327973  0.250308  1
  Pr  Pr2  1  0.672043  0.997018  0.749747  1
  Pr  Pr3  1  0.327957  0.002982  0.250253  1
  Ga  Ga4  1  0.135234  0.135141  0.753294  1
  Ga  Ga5  1  0.864766  0.864859  0.246706  1
  Ga  Ga6  1  0.003401  0.339746  0.578226  1
  Ga  Ga7  1  0.996599  0.660254  0.421774  1
  Ga  Ga8  1  0.997237  0.663907  0.075892  1
  Ga  Ga9  1  0.336156  0.002784  0.924147  1
  Ga  Ga10  1  0.002763  0.336093  0.924108  1
  Ga  Ga11  1  0.663844  0.997216  0.075853  1
  Ga  Ga12  1  0.660198  0.996486  0.421774  1
  Ga  Ga13  1  0.339802  0.003514  0.578226  1
  Ga  Ga14  1  0.333401  0.333399  0.057404  1
  Ga  Ga15  1  0.666599  0.666601  0.942596  1
  Ga  Ga16  1  0.661694  0.661664  0.559629  1
  Ga  Ga17  1  0.338306  0.338336  0.440371  1
  Ga  Ga18  1  0.340908  0.548050  0.750500  1
  Ga  Ga19  1  0.659092  0.451950  0.249500  1
  Ga  Ga20  1  0.548041  0.340812  0.750533  1
  Ga  Ga21  1  0.451959  0.659188  0.249467  1
  Pt  Pt22  1  0.000000  0.000000  0.500000  1
  Rh  Rh23  1  0.670640  0.329458  0.499986  1
  Rh  Rh24  1  0.329360  0.670542  0.500014  1
  Rh  Rh25  1  0.329432  0.670377  0.999965  1
  Rh  Rh26  1  0.670568  0.329623  0.000035  1
  Rh  Rh27  1  0.000000  0.000000  0.000000  1
