# generated using pymatgen
data_YTm3Al4(Ga7Ir3)2
_symmetry_space_group_name_H-M   'P 1'
_cell_length_a   7.55375043
_cell_length_b   7.55827725
_cell_length_c   9.48405200
_cell_angle_alpha   90.00000000
_cell_angle_beta   90.00000000
_cell_angle_gamma   119.71782035
_symmetry_Int_Tables_number   1
_chemical_formula_structural   YTm3Al4(Ga7Ir3)2
_chemical_formula_sum   'Y1 Tm3 Al4 Ga14 Ir6'
_cell_volume   470.25983272
_cell_formula_units_Z   1
loop_
 _symmetry_equiv_pos_site_id
 _symmetry_equiv_pos_as_xyz
  1  'x, y, z'
loop_
 _atom_site_type_symbol
 _atom_site_label
 _atom_site_symmetry_multiplicity
 _atom_site_fract_x
 _atom_site_fract_y
 _atom_site_fract_z
 _atom_site_occupancy
  Y  Y0  1  0.000400  0.669811  0.250000  1
  Tm  Tm1  1  0.998955  0.329528  0.750000  1
  Tm  Tm2  1  0.670312  0.000928  0.250000  1
  Tm  Tm3  1  0.329436  0.999084  0.750000  1
  Al  Al4  1  0.331506  0.331510  0.554538  1
  Al  Al5  1  0.668108  0.668618  0.447294  1
  Al  Al6  1  0.668108  0.668618  0.052706  1
  Al  Al7  1  0.331506  0.331510  0.945462  1
  Ga  Ga8  1  0.127246  0.127984  0.250000  1
  Ga  Ga9  1  0.872453  0.872880  0.750000  1
  Ga  Ga10  1  0.999878  0.334478  0.079331  1
  Ga  Ga11  1  0.000347  0.664571  0.918344  1
  Ga  Ga12  1  0.000347  0.664571  0.581656  1
  Ga  Ga13  1  0.336150  0.000497  0.420616  1
  Ga  Ga14  1  0.999878  0.334478  0.420669  1
  Ga  Ga15  1  0.664570  0.000588  0.580553  1
  Ga  Ga16  1  0.664570  0.000588  0.919447  1
  Ga  Ga17  1  0.336150  0.000497  0.079384  1
  Ga  Ga18  1  0.347848  0.550802  0.250000  1
  Ga  Ga19  1  0.652596  0.448959  0.750000  1
  Ga  Ga20  1  0.549202  0.345375  0.250000  1
  Ga  Ga21  1  0.449247  0.653227  0.750000  1
  Ir  Ir22  1  0.669953  0.330344  0.999719  1
  Ir  Ir23  1  0.330280  0.669746  0.999727  1
  Ir  Ir24  1  0.330280  0.669746  0.500273  1
  Ir  Ir25  1  0.669953  0.330344  0.500281  1
  Ir  Ir26  1  0.000360  0.000361  0.999456  1
  Ir  Ir27  1  0.000360  0.000361  0.500544  1
