# generated using pymatgen
data_Sm2Tm(LuRh6)3
_symmetry_space_group_name_H-M   'P 1'
_cell_length_a   5.25939900
_cell_length_b   5.25928677
_cell_length_c   17.48317400
_cell_angle_alpha   90.00002389
_cell_angle_beta   89.99999672
_cell_angle_gamma   120.00328871
_symmetry_Int_Tables_number   1
_chemical_formula_structural   Sm2Tm(LuRh6)3
_chemical_formula_sum   'Sm2 Tm1 Lu3 Rh18'
_cell_volume   418.79307358
_cell_formula_units_Z   1
loop_
 _symmetry_equiv_pos_site_id
 _symmetry_equiv_pos_as_xyz
  1  'x, y, z'
loop_
 _atom_site_type_symbol
 _atom_site_label
 _atom_site_symmetry_multiplicity
 _atom_site_fract_x
 _atom_site_fract_y
 _atom_site_fract_z
 _atom_site_occupancy
  Sm  Sm0  1  0.333331  0.666669  0.749972  1
  Sm  Sm1  1  0.666668  0.333330  0.250003  1
  Tm  Tm2  1  0.333343  0.666654  0.959171  1
  Lu  Lu3  1  0.666652  0.333342  0.040910  1
  Lu  Lu4  1  0.666657  0.333347  0.459138  1
  Lu  Lu5  1  0.333353  0.666667  0.540861  1
  Rh  Rh6  1  0.167558  0.832467  0.375826  1
  Rh  Rh7  1  0.167554  0.335114  0.375840  1
  Rh  Rh8  1  0.664893  0.832448  0.375838  1
  Rh  Rh9  1  0.832448  0.167540  0.624170  1
  Rh  Rh10  1  0.832447  0.664881  0.624159  1
  Rh  Rh11  1  0.335099  0.167541  0.624161  1
  Rh  Rh12  1  0.832451  0.167533  0.875763  1
  Rh  Rh13  1  0.832453  0.664905  0.875775  1
  Rh  Rh14  1  0.335088  0.167539  0.875775  1
  Rh  Rh15  1  0.167529  0.832483  0.124199  1
  Rh  Rh16  1  0.167530  0.335060  0.124185  1
  Rh  Rh17  1  0.664946  0.832478  0.124186  1
  Rh  Rh18  1  0.333345  0.666676  0.249998  1
  Rh  Rh19  1  0.666654  0.333324  0.750004  1
  Rh  Rh20  1  0.999995  0.999984  0.250018  1
  Rh  Rh21  1  0.999996  0.000013  0.750006  1
  Rh  Rh22  1  0.000000  0.999999  0.500000  1
  Rh  Rh23  1  0.000009  0.000005  0.000043  1
