# generated using pymatgen
data_Ta4Cr5Co3
_symmetry_space_group_name_H-M   'P 1'
_cell_length_a   4.85357800
_cell_length_b   4.85357727
_cell_length_c   7.91370200
_cell_angle_alpha   90.00000000
_cell_angle_beta   90.00000000
_cell_angle_gamma   120.00000500
_symmetry_Int_Tables_number   1
_chemical_formula_structural   Ta4Cr5Co3
_chemical_formula_sum   'Ta4 Cr5 Co3'
_cell_volume   161.44859253
_cell_formula_units_Z   1
loop_
 _symmetry_equiv_pos_site_id
 _symmetry_equiv_pos_as_xyz
  1  'x, y, z'
loop_
 _atom_site_type_symbol
 _atom_site_label
 _atom_site_symmetry_multiplicity
 _atom_site_fract_x
 _atom_site_fract_y
 _atom_site_fract_z
 _atom_site_occupancy
  Ta  Ta0  1  0.333333  0.666667  0.441623  1
  Ta  Ta1  1  0.666667  0.333333  0.565232  1
  Ta  Ta2  1  0.666667  0.333333  0.934768  1
  Ta  Ta3  1  0.333333  0.666667  0.058377  1
  Cr  Cr4  1  0.000000  0.000000  0.510219  1
  Cr  Cr5  1  0.000000  0.000000  0.989781  1
  Cr  Cr6  1  0.829930  0.170070  0.250000  1
  Cr  Cr7  1  0.829930  0.659860  0.250000  1
  Cr  Cr8  1  0.340140  0.170070  0.250000  1
  Co  Co9  1  0.169500  0.830500  0.750000  1
  Co  Co10  1  0.169500  0.338999  0.750000  1
  Co  Co11  1  0.661001  0.830500  0.750000  1
