# generated using pymatgen
data_Lu8In3Os
_symmetry_space_group_name_H-M   'P 1'
_cell_length_a   10.21526900
_cell_length_b   10.21526835
_cell_length_c   6.94661500
_cell_angle_alpha   90.00000000
_cell_angle_beta   90.00000000
_cell_angle_gamma   119.99999886
_symmetry_Int_Tables_number   1
_chemical_formula_structural   Lu8In3Os
_chemical_formula_sum   'Lu16 In6 Os2'
_cell_volume   627.77418626
_cell_formula_units_Z   2
loop_
 _symmetry_equiv_pos_site_id
 _symmetry_equiv_pos_as_xyz
  1  'x, y, z'
loop_
 _atom_site_type_symbol
 _atom_site_label
 _atom_site_symmetry_multiplicity
 _atom_site_fract_x
 _atom_site_fract_y
 _atom_site_fract_z
 _atom_site_occupancy
  Lu  Lu0  1  0.532403  0.064805  0.523556  1
  Lu  Lu1  1  0.935195  0.467597  0.523556  1
  Lu  Lu2  1  0.532403  0.467597  0.523556  1
  Lu  Lu3  1  0.467597  0.935195  0.023556  1
  Lu  Lu4  1  0.064805  0.532403  0.023556  1
  Lu  Lu5  1  0.467597  0.532403  0.023556  1
  Lu  Lu6  1  0.177344  0.354687  0.728455  1
  Lu  Lu7  1  0.645313  0.822656  0.728455  1
  Lu  Lu8  1  0.177344  0.822656  0.728455  1
  Lu  Lu9  1  0.822656  0.645313  0.228455  1
  Lu  Lu10  1  0.354687  0.177344  0.228455  1
  Lu  Lu11  1  0.822656  0.177344  0.228455  1
  Lu  Lu12  1  0.666667  0.333333  0.902304  1
  Lu  Lu13  1  0.333333  0.666667  0.402304  1
  Lu  Lu14  1  0.000000  0.000000  0.506235  1
  Lu  Lu15  1  0.000000  0.000000  0.006235  1
  In  In16  1  0.836616  0.673231  0.770801  1
  In  In17  1  0.326769  0.163384  0.770801  1
  In  In18  1  0.836616  0.163384  0.770801  1
  In  In19  1  0.163384  0.326769  0.270801  1
  In  In20  1  0.673231  0.836616  0.270801  1
  In  In21  1  0.163384  0.836616  0.270801  1
  Os  Os22  1  0.666667  0.333333  0.300863  1
  Os  Os23  1  0.333333  0.666667  0.800863  1
