# generated using pymatgen
data_LiY7(IO6)4
_symmetry_space_group_name_H-M   'P 1'
_cell_length_a   5.44502013
_cell_length_b   7.78151159
_cell_length_c   11.55864967
_cell_angle_alpha   76.36374093
_cell_angle_beta   89.48703874
_cell_angle_gamma   89.87577707
_symmetry_Int_Tables_number   1
_chemical_formula_structural   LiY7(IO6)4
_chemical_formula_sum   'Li1 Y7 I4 O24'
_cell_volume   475.92159309
_cell_formula_units_Z   1
loop_
 _symmetry_equiv_pos_site_id
 _symmetry_equiv_pos_as_xyz
  1  'x, y, z'
loop_
 _atom_site_type_symbol
 _atom_site_label
 _atom_site_symmetry_multiplicity
 _atom_site_fract_x
 _atom_site_fract_y
 _atom_site_fract_z
 _atom_site_occupancy
  Li  Li0  1  0.232089  0.732734  0.078048  1
  Y  Y1  1  0.250558  0.014286  0.754779  1
  Y  Y2  1  0.745382  0.987461  0.239043  1
  Y  Y3  1  0.317899  0.497787  0.765939  1
  Y  Y4  1  0.178813  0.206669  0.426423  1
  Y  Y5  1  0.695869  0.500097  0.247805  1
  Y  Y6  1  0.825044  0.220781  0.918882  1
  Y  Y7  1  0.807639  0.799762  0.578187  1
  I  I8  1  0.739406  0.736815  0.890746  1
  I  I9  1  0.247792  0.727714  0.375194  1
  I  I10  1  0.732821  0.290607  0.611494  1
  I  I11  1  0.261561  0.265948  0.119868  1
  O  O12  1  0.824873  0.349904  0.434687  1
  O  O13  1  0.449214  0.829615  0.939698  1
  O  O14  1  0.870575  0.665221  0.043557  1
  O  O15  1  0.061516  0.287395  0.755510  1
  O  O16  1  0.984286  0.292785  0.223812  1
  O  O17  1  0.151995  0.370672  0.966209  1
  O  O18  1  0.637083  0.503346  0.892449  1
  O  O19  1  0.545303  0.162087  0.067800  1
  O  O20  1  0.122615  0.640406  0.531466  1
  O  O21  1  0.013058  0.703865  0.781280  1
  O  O22  1  0.439890  0.185646  0.271947  1
  O  O23  1  0.058399  0.943255  0.380085  1
  O  O24  1  0.461861  0.161349  0.571501  1
  O  O25  1  0.963462  0.702395  0.282488  1
  O  O26  1  0.000936  0.038937  0.596241  1
  O  O27  1  0.545341  0.226751  0.775719  1
  O  O28  1  0.556060  0.799542  0.734431  1
  O  O29  1  0.069201  0.065409  0.103392  1
  O  O30  1  0.604394  0.518639  0.609069  1
  O  O31  1  0.384647  0.487023  0.123270  1
  O  O32  1  0.430559  0.791023  0.226195  1
  O  O33  1  0.361581  0.497592  0.380416  1
  O  O34  1  0.526498  0.838677  0.429227  1
  O  O35  1  0.901782  0.957803  0.873142  1
