# generated using pymatgen
data_Dy3Lu3Al24Co5Ru3
_symmetry_space_group_name_H-M   'P 1'
_cell_length_a   8.68237900
_cell_length_b   8.68237894
_cell_length_c   9.37897300
_cell_angle_alpha   90.00000000
_cell_angle_beta   90.00000000
_cell_angle_gamma   119.99999641
_symmetry_Int_Tables_number   1
_chemical_formula_structural   Dy3Lu3Al24Co5Ru3
_chemical_formula_sum   'Dy3 Lu3 Al24 Co5 Ru3'
_cell_volume   612.29880131
_cell_formula_units_Z   1
loop_
 _symmetry_equiv_pos_site_id
 _symmetry_equiv_pos_as_xyz
  1  'x, y, z'
loop_
 _atom_site_type_symbol
 _atom_site_label
 _atom_site_symmetry_multiplicity
 _atom_site_fract_x
 _atom_site_fract_y
 _atom_site_fract_z
 _atom_site_occupancy
  Dy  Dy0  1  0.805836  0.194164  0.747534  1
  Dy  Dy1  1  0.805836  0.611671  0.747534  1
  Dy  Dy2  1  0.388329  0.194164  0.747534  1
  Lu  Lu3  1  0.196843  0.803157  0.251952  1
  Lu  Lu4  1  0.196843  0.393688  0.251952  1
  Lu  Lu5  1  0.606312  0.803157  0.251952  1
  Al  Al6  1  0.559789  0.440211  0.257215  1
  Al  Al7  1  0.559789  0.119577  0.257215  1
  Al  Al8  1  0.880423  0.440211  0.257215  1
  Al  Al9  1  0.439141  0.560859  0.743144  1
  Al  Al10  1  0.439141  0.878282  0.743144  1
  Al  Al11  1  0.121718  0.560859  0.743144  1
  Al  Al12  1  0.323457  0.161728  0.423216  1
  Al  Al13  1  0.838272  0.161728  0.423216  1
  Al  Al14  1  0.838272  0.676543  0.423216  1
  Al  Al15  1  0.674564  0.837283  0.572787  1
  Al  Al16  1  0.162717  0.837283  0.572787  1
  Al  Al17  1  0.162717  0.325436  0.572787  1
  Al  Al18  1  0.679646  0.839823  0.923385  1
  Al  Al19  1  0.160177  0.839823  0.923385  1
  Al  Al20  1  0.160177  0.320354  0.923385  1
  Al  Al21  1  0.319134  0.159567  0.080594  1
  Al  Al22  1  0.840433  0.159567  0.080594  1
  Al  Al23  1  0.840433  0.680866  0.080594  1
  Al  Al24  1  0.666667  0.333333  0.517690  1
  Al  Al25  1  0.333333  0.666667  0.478846  1
  Al  Al26  1  0.333333  0.666667  0.017926  1
  Al  Al27  1  0.666667  0.333333  0.984421  1
  Al  Al28  1  0.000000  0.000000  0.250083  1
  Al  Al29  1  0.000000  0.000000  0.750088  1
  Co  Co30  1  0.000000  0.000000  0.500507  1
  Co  Co31  1  0.000000  0.000000  0.999564  1
  Co  Co32  1  0.499249  0.500751  0.498508  1
  Co  Co33  1  0.499249  0.998498  0.498508  1
  Co  Co34  1  0.001502  0.500751  0.498508  1
  Ru  Ru35  1  0.499514  0.500486  0.001958  1
  Ru  Ru36  1  0.499514  0.999029  0.001958  1
  Ru  Ru37  1  0.000971  0.500486  0.001958  1
