# generated using pymatgen
data_Ho4Er6Si16Ag
_symmetry_space_group_name_H-M   'P 1'
_cell_length_a   11.06582063
_cell_length_b   11.05899826
_cell_length_c   11.06364248
_cell_angle_alpha   144.74118905
_cell_angle_beta   136.46052445
_cell_angle_gamma   57.21724224
_symmetry_Int_Tables_number   1
_chemical_formula_structural   Ho4Er6Si16Ag
_chemical_formula_sum   'Ho4 Er6 Si16 Ag1'
_cell_volume   534.04628985
_cell_formula_units_Z   1
loop_
 _symmetry_equiv_pos_site_id
 _symmetry_equiv_pos_as_xyz
  1  'x, y, z'
loop_
 _atom_site_type_symbol
 _atom_site_label
 _atom_site_symmetry_multiplicity
 _atom_site_fract_x
 _atom_site_fract_y
 _atom_site_fract_z
 _atom_site_occupancy
  Ho  Ho0  1  0.849003  0.369999  0.017318  1
  Ho  Ho1  1  0.544200  0.565903  0.512572  1
  Ho  Ho2  1  0.251877  0.765330  0.013388  1
  Ho  Ho3  1  0.751935  0.765316  0.513448  1
  Er  Er4  1  0.053225  0.565857  0.021449  1
  Er  Er5  1  0.352700  0.369949  0.521010  1
  Er  Er6  1  0.154335  0.165788  0.521727  1
  Er  Er7  1  0.451070  0.963168  0.014461  1
  Er  Er8  1  0.644029  0.165688  0.011330  1
  Er  Er9  1  0.948742  0.963215  0.512117  1
  Si  Si10  1  0.118396  0.078798  0.960826  1
  Si  Si11  1  0.797222  0.169442  0.372290  1
  Si  Si12  1  0.300227  0.899578  0.599033  1
  Si  Si13  1  0.399687  0.501303  0.101326  1
  Si  Si14  1  0.881085  0.855047  0.974405  1
  Si  Si15  1  0.104830  0.710747  0.606188  1
  Si  Si16  1  0.199836  0.582278  0.382491  1
  Si  Si17  1  0.699403  0.295300  0.595863  1
  Si  Si18  1  0.002255  0.432140  0.430286  1
  Si  Si19  1  0.714566  0.668506  0.954189  1
  Si  Si20  1  0.600878  0.702670  0.101503  1
  Si  Si21  1  0.999592  0.081734  0.082401  1
  Si  Si22  1  0.500849  0.391041  0.889777  1
  Si  Si23  1  0.284616  0.240850  0.955788  1
  Si  Si24  1  0.583832  0.041180  0.457012  1
  Si  Si25  1  0.415750  0.873181  0.457334  1
  Ag  Ag26  1  0.895858  0.504912  0.609386  1
