# generated using pymatgen
data_Sr3InSiPd2
_symmetry_space_group_name_H-M   'P 1'
_cell_length_a   6.05990800
_cell_length_b   8.46394100
_cell_length_c   14.30942100
_cell_angle_alpha   90.00000000
_cell_angle_beta   90.00000000
_cell_angle_gamma   90.00000000
_symmetry_Int_Tables_number   1
_chemical_formula_structural   Sr3InSiPd2
_chemical_formula_sum   'Sr12 In4 Si4 Pd8'
_cell_volume   733.94027374
_cell_formula_units_Z   4
loop_
 _symmetry_equiv_pos_site_id
 _symmetry_equiv_pos_as_xyz
  1  'x, y, z'
loop_
 _atom_site_type_symbol
 _atom_site_label
 _atom_site_symmetry_multiplicity
 _atom_site_fract_x
 _atom_site_fract_y
 _atom_site_fract_z
 _atom_site_occupancy
  Sr  Sr0  1  0.140762  0.608046  0.103929  1
  Sr  Sr1  1  0.140762  0.891954  0.896071  1
  Sr  Sr2  1  0.859238  0.108046  0.396071  1
  Sr  Sr3  1  0.859238  0.391954  0.603929  1
  Sr  Sr4  1  0.859238  0.391954  0.896071  1
  Sr  Sr5  1  0.859238  0.108046  0.103929  1
  Sr  Sr6  1  0.140762  0.891954  0.603929  1
  Sr  Sr7  1  0.140762  0.608046  0.396071  1
  Sr  Sr8  1  0.344891  0.258274  0.250000  1
  Sr  Sr9  1  0.344891  0.241726  0.750000  1
  Sr  Sr10  1  0.655109  0.758274  0.250000  1
  Sr  Sr11  1  0.655109  0.741726  0.750000  1
  In  In12  1  0.366346  0.250000  0.000000  1
  In  In13  1  0.633654  0.750000  0.500000  1
  In  In14  1  0.633654  0.750000  0.000000  1
  In  In15  1  0.366346  0.250000  0.500000  1
  Si  Si16  1  0.827565  0.404031  0.250000  1
  Si  Si17  1  0.827565  0.095969  0.750000  1
  Si  Si18  1  0.172435  0.904031  0.250000  1
  Si  Si19  1  0.172435  0.595969  0.750000  1
  Pd  Pd20  1  0.635388  0.463849  0.100022  1
  Pd  Pd21  1  0.635388  0.036151  0.899978  1
  Pd  Pd22  1  0.364612  0.963849  0.399978  1
  Pd  Pd23  1  0.364612  0.536151  0.600022  1
  Pd  Pd24  1  0.364612  0.536151  0.899978  1
  Pd  Pd25  1  0.364612  0.963849  0.100022  1
  Pd  Pd26  1  0.635388  0.036151  0.600022  1
  Pd  Pd27  1  0.635388  0.463849  0.399978  1
