# generated using pymatgen
data_LaYbHoSi5PPd20
_symmetry_space_group_name_H-M   'P 1'
_cell_length_a   8.73762096
_cell_length_b   8.73762104
_cell_length_c   8.73762200
_cell_angle_alpha   60.00000394
_cell_angle_beta   60.00000364
_cell_angle_gamma   60.00000273
_symmetry_Int_Tables_number   1
_chemical_formula_structural   LaYbHoSi5PPd20
_chemical_formula_sum   'La1 Yb1 Ho1 Si5 P1 Pd20'
_cell_volume   471.69871686
_cell_formula_units_Z   1
loop_
 _symmetry_equiv_pos_site_id
 _symmetry_equiv_pos_as_xyz
  1  'x, y, z'
loop_
 _atom_site_type_symbol
 _atom_site_label
 _atom_site_symmetry_multiplicity
 _atom_site_fract_x
 _atom_site_fract_y
 _atom_site_fract_z
 _atom_site_occupancy
  La  La0  1  0.249990  0.250010  0.250010  1
  Yb  Yb1  1  0.749812  0.750188  0.750188  1
  Ho  Ho2  1  0.000515  0.999485  0.999485  1
  Si  Si3  1  0.267385  0.732615  0.732615  1
  Si  Si4  1  0.266139  0.733630  0.267654  1
  Si  Si5  1  0.732577  0.267654  0.733630  1
  Si  Si6  1  0.266139  0.267654  0.733630  1
  Si  Si7  1  0.732577  0.733630  0.267654  1
  P  P8  1  0.733365  0.266635  0.266635  1
  Pd  Pd9  1  0.388534  0.385858  0.385858  1
  Pd  Pd10  1  0.616879  0.616778  0.616778  1
  Pd  Pd11  1  0.386178  0.385826  0.841821  1
  Pd  Pd12  1  0.386178  0.841821  0.385826  1
  Pd  Pd13  1  0.616768  0.615369  0.151093  1
  Pd  Pd14  1  0.616768  0.151093  0.615369  1
  Pd  Pd15  1  0.839753  0.385858  0.385858  1
  Pd  Pd16  1  0.149563  0.616778  0.616778  1
  Pd  Pd17  1  0.346663  0.998618  0.998618  1
  Pd  Pd18  1  0.656100  0.998618  0.998618  1
  Pd  Pd19  1  0.000403  0.344851  0.654342  1
  Pd  Pd20  1  0.000403  0.654342  0.344851  1
  Pd  Pd21  1  0.997235  0.345213  0.001101  1
  Pd  Pd22  1  0.656450  0.001101  0.345213  1
  Pd  Pd23  1  0.999528  0.655553  0.999478  1
  Pd  Pd24  1  0.345441  0.999478  0.655553  1
  Pd  Pd25  1  0.997235  0.001101  0.345213  1
  Pd  Pd26  1  0.999528  0.999478  0.655553  1
  Pd  Pd27  1  0.656450  0.345213  0.001101  1
  Pd  Pd28  1  0.345441  0.655553  0.999478  1
