# generated using pymatgen
data_Li4Tb3DySn3Bi
_symmetry_space_group_name_H-M   'P 1'
_cell_length_a   9.45457925
_cell_length_b   9.45343093
_cell_length_c   7.32198901
_cell_angle_alpha   89.99996725
_cell_angle_beta   90.09998524
_cell_angle_gamma   119.99607302
_symmetry_Int_Tables_number   1
_chemical_formula_structural   Li4Tb3DySn3Bi
_chemical_formula_sum   'Li8 Tb6 Dy2 Sn6 Bi2'
_cell_volume   566.77106331
_cell_formula_units_Z   2
loop_
 _symmetry_equiv_pos_site_id
 _symmetry_equiv_pos_as_xyz
  1  'x, y, z'
loop_
 _atom_site_type_symbol
 _atom_site_label
 _atom_site_symmetry_multiplicity
 _atom_site_fract_x
 _atom_site_fract_y
 _atom_site_fract_z
 _atom_site_occupancy
  Li  Li0  1  0.167824  0.333958  0.283210  1
  Li  Li1  1  0.167823  0.833866  0.283210  1
  Li  Li2  1  0.665103  0.832551  0.286646  1
  Li  Li3  1  0.829211  0.664641  0.787525  1
  Li  Li4  1  0.829211  0.164572  0.787526  1
  Li  Li5  1  0.337661  0.168831  0.791689  1
  Li  Li6  1  0.337916  0.668957  0.668709  1
  Li  Li7  1  0.665511  0.332755  0.172987  1
  Tb  Tb8  1  0.516839  0.026619  0.491113  1
  Tb  Tb9  1  0.516840  0.490220  0.491113  1
  Tb  Tb10  1  0.971984  0.485993  0.489093  1
  Tb  Tb11  1  0.492991  0.978318  0.997010  1
  Tb  Tb12  1  0.492991  0.514674  0.997009  1
  Tb  Tb13  1  0.017743  0.508872  0.999506  1
  Dy  Dy14  1  0.994771  0.997386  0.494635  1
  Dy  Dy15  1  0.995354  0.997677  0.005100  1
  Sn  Sn16  1  0.667508  0.833754  0.731939  1
  Sn  Sn17  1  0.834122  0.667411  0.232196  1
  Sn  Sn18  1  0.834122  0.166711  0.232197  1
  Sn  Sn19  1  0.332544  0.166272  0.231652  1
  Sn  Sn20  1  0.332407  0.666204  0.260109  1
  Sn  Sn21  1  0.667587  0.333793  0.761042  1
  Bi  Bi22  1  0.165966  0.332969  0.733389  1
  Bi  Bi23  1  0.165966  0.832997  0.733389  1
