# generated using pymatgen
data_Pm(GeRu)2
_symmetry_space_group_name_H-M   'P 1'
_cell_length_a   5.87684843
_cell_length_b   5.87684861
_cell_length_c   5.87684881
_cell_angle_alpha   137.20902687
_cell_angle_beta   137.20903315
_cell_angle_gamma   62.11659160
_symmetry_Int_Tables_number   1
_chemical_formula_structural   Pm(GeRu)2
_chemical_formula_sum   'Pm1 Ge2 Ru2'
_cell_volume   92.55738480
_cell_formula_units_Z   1
loop_
 _symmetry_equiv_pos_site_id
 _symmetry_equiv_pos_as_xyz
  1  'x, y, z'
loop_
 _atom_site_type_symbol
 _atom_site_label
 _atom_site_symmetry_multiplicity
 _atom_site_fract_x
 _atom_site_fract_y
 _atom_site_fract_z
 _atom_site_occupancy
  Pm  Pm0  1  0.000000  0.000000  0.000000  1
  Ge  Ge1  1  0.368373  0.368373  0.000000  1
  Ge  Ge2  1  0.631626  0.631626  0.000000  1
  Ru  Ru3  1  0.750000  0.250000  0.500000  1
  Ru  Ru4  1  0.250000  0.750000  0.500000  1
