# generated using pymatgen
data_Hf4SnHgC2
_symmetry_space_group_name_H-M   'P 1'
_cell_length_a   3.32448100
_cell_length_b   3.32448125
_cell_length_c   14.66380500
_cell_angle_alpha   90.00000000
_cell_angle_beta   90.00000000
_cell_angle_gamma   120.00000747
_symmetry_Int_Tables_number   1
_chemical_formula_structural   Hf4SnHgC2
_chemical_formula_sum   'Hf4 Sn1 Hg1 C2'
_cell_volume   140.35407257
_cell_formula_units_Z   1
loop_
 _symmetry_equiv_pos_site_id
 _symmetry_equiv_pos_as_xyz
  1  'x, y, z'
loop_
 _atom_site_type_symbol
 _atom_site_label
 _atom_site_symmetry_multiplicity
 _atom_site_fract_x
 _atom_site_fract_y
 _atom_site_fract_z
 _atom_site_occupancy
  Hf  Hf0  1  0.333333  0.666667  0.083781  1
  Hf  Hf1  1  0.666667  0.333333  0.583775  1
  Hf  Hf2  1  0.666667  0.333333  0.916225  1
  Hf  Hf3  1  0.333333  0.666667  0.416219  1
  Sn  Sn4  1  0.666667  0.333333  0.250000  1
  Hg  Hg5  1  0.333333  0.666667  0.750000  1
  C  C6  1  0.000000  0.000000  0.000026  1
  C  C7  1  0.000000  0.000000  0.499974  1
