# generated using pymatgen
data_Dy4Lu16GaBi11
_symmetry_space_group_name_H-M   'P 1'
_cell_length_a   8.11033649
_cell_length_b   9.37260300
_cell_length_c   11.86438400
_cell_angle_alpha   90.00000000
_cell_angle_beta   90.38119115
_cell_angle_gamma   90.00000000
_symmetry_Int_Tables_number   1
_chemical_formula_structural   Dy4Lu16GaBi11
_chemical_formula_sum   'Dy4 Lu16 Ga1 Bi11'
_cell_volume   901.85076472
_cell_formula_units_Z   1
loop_
 _symmetry_equiv_pos_site_id
 _symmetry_equiv_pos_as_xyz
  1  'x, y, z'
loop_
 _atom_site_type_symbol
 _atom_site_label
 _atom_site_symmetry_multiplicity
 _atom_site_fract_x
 _atom_site_fract_y
 _atom_site_fract_z
 _atom_site_occupancy
  Dy  Dy0  1  0.314579  0.250000  0.217745  1
  Dy  Dy1  1  0.811960  0.250000  0.282971  1
  Dy  Dy2  1  0.672847  0.750000  0.789627  1
  Dy  Dy3  1  0.191760  0.750000  0.721281  1
  Lu  Lu4  1  0.353634  0.750000  0.206540  1
  Lu  Lu5  1  0.849550  0.750000  0.282590  1
  Lu  Lu6  1  0.652698  0.250000  0.781680  1
  Lu  Lu7  1  0.148921  0.250000  0.720213  1
  Lu  Lu8  1  0.682567  0.573483  0.056329  1
  Lu  Lu9  1  0.190726  0.932184  0.437038  1
  Lu  Lu10  1  0.310730  0.050534  0.940650  1
  Lu  Lu11  1  0.809200  0.432850  0.560740  1
  Lu  Lu12  1  0.310730  0.449466  0.940650  1
  Lu  Lu13  1  0.809200  0.067150  0.560740  1
  Lu  Lu14  1  0.682567  0.926517  0.056329  1
  Lu  Lu15  1  0.190726  0.567816  0.437038  1
  Lu  Lu16  1  0.478654  0.250000  0.489744  1
  Lu  Lu17  1  0.982424  0.250000  0.008707  1
  Lu  Lu18  1  0.522218  0.750000  0.510612  1
  Lu  Lu19  1  0.035904  0.750000  0.991167  1
  Ga  Ga20  1  0.404078  0.750000  0.962722  1
  Bi  Bi21  1  0.903085  0.750000  0.543046  1
  Bi  Bi22  1  0.598299  0.250000  0.039488  1
  Bi  Bi23  1  0.099293  0.250000  0.460324  1
  Bi  Bi24  1  0.563043  0.994090  0.326072  1
  Bi  Bi25  1  0.061057  0.503823  0.174860  1
  Bi  Bi26  1  0.436424  0.493855  0.674040  1
  Bi  Bi27  1  0.936300  0.002560  0.826039  1
  Bi  Bi28  1  0.436424  0.006145  0.674040  1
  Bi  Bi29  1  0.936300  0.497440  0.826039  1
  Bi  Bi30  1  0.563043  0.505910  0.326072  1
  Bi  Bi31  1  0.061057  0.996177  0.174860  1
