# generated using pymatgen
data_Ce5Fe13Co3(P4Ru)3
_symmetry_space_group_name_H-M   'P 1'
_cell_length_a   12.20038700
_cell_length_b   12.20038666
_cell_length_c   3.73387300
_cell_angle_alpha   90.00000000
_cell_angle_beta   90.00000000
_cell_angle_gamma   119.99999324
_symmetry_Int_Tables_number   1
_chemical_formula_structural   Ce5Fe13Co3(P4Ru)3
_chemical_formula_sum   'Ce5 Fe13 Co3 P12 Ru3'
_cell_volume   481.32387560
_cell_formula_units_Z   1
loop_
 _symmetry_equiv_pos_site_id
 _symmetry_equiv_pos_as_xyz
  1  'x, y, z'
loop_
 _atom_site_type_symbol
 _atom_site_label
 _atom_site_symmetry_multiplicity
 _atom_site_fract_x
 _atom_site_fract_y
 _atom_site_fract_z
 _atom_site_occupancy
  Ce  Ce0  1  0.185349  0.184511  0.500000  1
  Ce  Ce1  1  0.815489  0.000838  0.500000  1
  Ce  Ce2  1  0.999162  0.814651  0.500000  1
  Ce  Ce3  1  0.333333  0.666667  0.000000  1
  Ce  Ce4  1  0.666667  0.333333  0.000000  1
  Fe  Fe5  1  0.554546  0.562573  0.000000  1
  Fe  Fe6  1  0.437427  0.991973  0.000000  1
  Fe  Fe7  1  0.008027  0.445454  0.000000  1
  Fe  Fe8  1  0.178634  0.377428  0.000000  1
  Fe  Fe9  1  0.622572  0.801206  0.000000  1
  Fe  Fe10  1  0.198794  0.821366  0.000000  1
  Fe  Fe11  1  0.799468  0.626149  0.000000  1
  Fe  Fe12  1  0.826681  0.200532  0.000000  1
  Fe  Fe13  1  0.373851  0.173319  0.000000  1
  Fe  Fe14  1  0.359203  0.488663  0.500000  1
  Fe  Fe15  1  0.511337  0.870540  0.500000  1
  Fe  Fe16  1  0.129460  0.640797  0.500000  1
  Fe  Fe17  1  0.000000  0.000000  0.000000  1
  Co  Co18  1  0.713933  0.717095  0.500000  1
  Co  Co19  1  0.282905  0.996838  0.500000  1
  Co  Co20  1  0.003162  0.286067  0.500000  1
  P  P21  1  0.813676  0.815690  0.000000  1
  P  P22  1  0.184310  0.997986  0.000000  1
  P  P23  1  0.002014  0.186324  0.000000  1
  P  P24  1  0.165442  0.477422  0.500000  1
  P  P25  1  0.522578  0.688020  0.500000  1
  P  P26  1  0.311980  0.834558  0.500000  1
  P  P27  1  0.690967  0.529116  0.500000  1
  P  P28  1  0.838149  0.309033  0.500000  1
  P  P29  1  0.470884  0.161851  0.500000  1
  P  P30  1  0.368105  0.379612  0.000000  1
  P  P31  1  0.620388  0.988493  0.000000  1
  P  P32  1  0.011507  0.631895  0.000000  1
  Ru  Ru33  1  0.880729  0.517184  0.500000  1
  Ru  Ru34  1  0.636455  0.119271  0.500000  1
  Ru  Ru35  1  0.482816  0.363545  0.500000  1
