# generated using pymatgen
data_YbZr2(AsPd)3
_symmetry_space_group_name_H-M   'P 1'
_cell_length_a   6.84217300
_cell_length_b   6.94057628
_cell_length_c   3.94601000
_cell_angle_alpha   90.00000000
_cell_angle_beta   90.00000000
_cell_angle_gamma   119.53208965
_symmetry_Int_Tables_number   1
_chemical_formula_structural   YbZr2(AsPd)3
_chemical_formula_sum   'Yb1 Zr2 As3 Pd3'
_cell_volume   163.04475562
_cell_formula_units_Z   1
loop_
 _symmetry_equiv_pos_site_id
 _symmetry_equiv_pos_as_xyz
  1  'x, y, z'
loop_
 _atom_site_type_symbol
 _atom_site_label
 _atom_site_symmetry_multiplicity
 _atom_site_fract_x
 _atom_site_fract_y
 _atom_site_fract_z
 _atom_site_occupancy
  Yb  Yb0  1  0.591405  0.000000  0.500000  1
  Zr  Zr1  1  0.995265  0.591606  0.500000  1
  Zr  Zr2  1  0.403659  0.408394  0.500000  1
  As  As3  1  0.670367  0.351129  0.000000  1
  As  As4  1  0.319237  0.648871  0.000000  1
  As  As5  1  0.017029  0.000000  0.500000  1
  Pd  Pd6  1  0.270117  0.000000  0.000000  1
  Pd  Pd7  1  0.741610  0.750299  0.000000  1
  Pd  Pd8  1  0.991311  0.249701  0.000000  1
