# generated using pymatgen
data_Ho14Tm6Ir7Au5
_symmetry_space_group_name_H-M   'P 1'
_cell_length_a   11.08229679
_cell_length_b   11.08668497
_cell_length_c   6.33019118
_cell_angle_alpha   89.90659928
_cell_angle_beta   89.86888725
_cell_angle_gamma   89.60574746
_symmetry_Int_Tables_number   1
_chemical_formula_structural   Ho14Tm6Ir7Au5
_chemical_formula_sum   'Ho14 Tm6 Ir7 Au5'
_cell_volume   777.74338441
_cell_formula_units_Z   1
loop_
 _symmetry_equiv_pos_site_id
 _symmetry_equiv_pos_as_xyz
  1  'x, y, z'
loop_
 _atom_site_type_symbol
 _atom_site_label
 _atom_site_symmetry_multiplicity
 _atom_site_fract_x
 _atom_site_fract_y
 _atom_site_fract_z
 _atom_site_occupancy
  Ho  Ho0  1  0.299575  0.090560  0.364646  1
  Ho  Ho1  1  0.301227  0.907834  0.862566  1
  Ho  Ho2  1  0.697602  0.080228  0.860561  1
  Ho  Ho3  1  0.698145  0.906601  0.361722  1
  Ho  Ho4  1  0.580736  0.785528  0.876069  1
  Ho  Ho5  1  0.575371  0.206414  0.363771  1
  Ho  Ho6  1  0.418323  0.789143  0.375787  1
  Ho  Ho7  1  0.411547  0.207775  0.878510  1
  Ho  Ho8  1  0.214131  0.419333  0.623972  1
  Ho  Ho9  1  0.210509  0.581472  0.124362  1
  Ho  Ho10  1  0.793994  0.424409  0.136157  1
  Ho  Ho11  1  0.792653  0.588489  0.621391  1
  Ho  Ho12  1  0.910103  0.700161  0.135048  1
  Ho  Ho13  1  0.920088  0.302333  0.639189  1
  Tm  Tm14  1  0.091962  0.697827  0.636708  1
  Tm  Tm15  1  0.093464  0.302693  0.137722  1
  Tm  Tm16  1  0.999018  0.999984  0.499337  1
  Tm  Tm17  1  0.000001  0.001348  0.001071  1
  Tm  Tm18  1  0.495710  0.502186  0.001834  1
  Tm  Tm19  1  0.497718  0.504138  0.498300  1
  Ir  Ir20  1  0.652290  0.650517  0.250290  1
  Ir  Ir21  1  0.348675  0.347616  0.249309  1
  Ir  Ir22  1  0.345550  0.653670  0.749532  1
  Ir  Ir23  1  0.499483  0.999484  0.112176  1
  Ir  Ir24  1  0.499339  0.000145  0.614081  1
  Ir  Ir25  1  0.000408  0.500613  0.885644  1
  Ir  Ir26  1  0.001035  0.500433  0.387648  1
  Au  Au27  1  0.843118  0.157575  0.249857  1
  Au  Au28  1  0.845182  0.846241  0.750386  1
  Au  Au29  1  0.153160  0.155973  0.750917  1
  Au  Au30  1  0.154785  0.844244  0.251434  1
  Au  Au31  1  0.655100  0.345036  0.750001  1
