# generated using pymatgen
data_Tm6Zr5Al11Os7
_symmetry_space_group_name_H-M   'P 1'
_cell_length_a   9.17080197
_cell_length_b   9.17080217
_cell_length_c   9.15749593
_cell_angle_alpha   59.95192918
_cell_angle_beta   59.95191644
_cell_angle_gamma   60.00000447
_symmetry_Int_Tables_number   1
_chemical_formula_structural   Tm6Zr5Al11Os7
_chemical_formula_sum   'Tm6 Zr5 Al11 Os7'
_cell_volume   544.20235062
_cell_formula_units_Z   1
loop_
 _symmetry_equiv_pos_site_id
 _symmetry_equiv_pos_as_xyz
  1  'x, y, z'
loop_
 _atom_site_type_symbol
 _atom_site_label
 _atom_site_symmetry_multiplicity
 _atom_site_fract_x
 _atom_site_fract_y
 _atom_site_fract_z
 _atom_site_occupancy
  Tm  Tm0  1  0.703934  0.703934  0.297661  1
  Tm  Tm1  1  0.294472  0.703934  0.297661  1
  Tm  Tm2  1  0.703934  0.294472  0.297661  1
  Tm  Tm3  1  0.296419  0.296419  0.713721  1
  Tm  Tm4  1  0.693439  0.296419  0.713721  1
  Tm  Tm5  1  0.296419  0.693439  0.713721  1
  Zr  Zr6  1  0.880938  0.880938  0.357184  1
  Zr  Zr7  1  0.876686  0.363325  0.883303  1
  Zr  Zr8  1  0.363325  0.876686  0.883303  1
  Zr  Zr9  1  0.876686  0.876686  0.883303  1
  Zr  Zr10  1  0.124892  0.124892  0.625323  1
  Al  Al11  1  0.119747  0.640061  0.120447  1
  Al  Al12  1  0.640061  0.119747  0.120447  1
  Al  Al13  1  0.119747  0.119747  0.120447  1
  Al  Al14  1  0.665894  0.665894  0.002318  1
  Al  Al15  1  0.667954  0.997839  0.666255  1
  Al  Al16  1  0.997839  0.667954  0.666255  1
  Al  Al17  1  0.667954  0.667954  0.666255  1
  Al  Al18  1  0.328433  0.328433  0.014699  1
  Al  Al19  1  0.337097  0.000964  0.324843  1
  Al  Al20  1  0.000964  0.337097  0.324843  1
  Al  Al21  1  0.337097  0.337097  0.324843  1
  Os  Os22  1  0.002712  0.002712  0.991865  1
  Os  Os23  1  0.000724  0.000724  0.498543  1
  Os  Os24  1  0.500009  0.000724  0.498543  1
  Os  Os25  1  0.000724  0.500009  0.498543  1
  Os  Os26  1  0.499026  0.499026  0.998096  1
  Os  Os27  1  0.003853  0.499026  0.998096  1
  Os  Os28  1  0.499026  0.003853  0.998096  1
