# generated using pymatgen
data_La3Nd6YC4I15
_symmetry_space_group_name_H-M   'P 1'
_cell_length_a   9.81339752
_cell_length_b   10.71612459
_cell_length_c   11.81023094
_cell_angle_alpha   93.68066713
_cell_angle_beta   114.18558362
_cell_angle_gamma   109.52503450
_symmetry_Int_Tables_number   1
_chemical_formula_structural   La3Nd6YC4I15
_chemical_formula_sum   'La3 Nd6 Y1 C4 I15'
_cell_volume   1038.18739077
_cell_formula_units_Z   1
loop_
 _symmetry_equiv_pos_site_id
 _symmetry_equiv_pos_as_xyz
  1  'x, y, z'
loop_
 _atom_site_type_symbol
 _atom_site_label
 _atom_site_symmetry_multiplicity
 _atom_site_fract_x
 _atom_site_fract_y
 _atom_site_fract_z
 _atom_site_occupancy
  La  La0  1  0.706328  0.568608  0.045256  1
  La  La1  1  0.293103  0.432177  0.955623  1
  La  La2  1  0.658081  0.253516  0.831701  1
  Nd  Nd3  1  0.346539  0.746973  0.165197  1
  Nd  Nd4  1  0.776499  0.883049  0.257856  1
  Nd  Nd5  1  0.527367  0.185914  0.101526  1
  Nd  Nd6  1  0.224455  0.115777  0.743620  1
  Nd  Nd7  1  0.402101  0.457484  0.658126  1
  Nd  Nd8  1  0.472857  0.814338  0.899310  1
  Y  Y9  1  0.593500  0.545858  0.335645  1
  C  C10  1  0.482428  0.299595  0.937255  1
  C  C11  1  0.518594  0.699935  0.062833  1
  C  C12  1  0.452582  0.361229  0.833526  1
  C  C13  1  0.546826  0.637607  0.166168  1
  I  I14  1  0.209151  0.907102  0.938521  1
  I  I15  1  0.104742  0.187152  0.469993  1
  I  I16  1  0.153828  0.557508  0.701986  1
  I  I17  1  0.400052  0.965048  0.645699  1
  I  I18  1  0.711285  0.734771  0.818905  1
  I  I19  1  0.296848  0.271151  0.187555  1
  I  I20  1  0.838986  0.444876  0.302727  1
  I  I21  1  0.885610  0.802163  0.527039  1
  I  I22  1  0.366696  0.628509  0.411885  1
  I  I23  1  0.055978  0.835370  0.223514  1
  I  I24  1  0.792038  0.093709  0.064543  1
  I  I25  1  0.640107  0.376264  0.581319  1
  I  I26  1  0.944505  0.162473  0.777608  1
  I  I27  1  0.594575  0.029399  0.351528  1
  I  I28  1  0.004334  0.502441  0.003537  1
