# generated using pymatgen
data_YEr5Al18
_symmetry_space_group_name_H-M   'P 1'
_cell_length_a   14.46710960
_cell_length_b   14.46710973
_cell_length_c   14.46711090
_cell_angle_alpha   24.59327314
_cell_angle_beta   24.59327197
_cell_angle_gamma   24.59327526
_symmetry_Int_Tables_number   1
_chemical_formula_structural   YEr5Al18
_chemical_formula_sum   'Y1 Er5 Al18'
_cell_volume   461.14658242
_cell_formula_units_Z   1
loop_
 _symmetry_equiv_pos_site_id
 _symmetry_equiv_pos_as_xyz
  1  'x, y, z'
loop_
 _atom_site_type_symbol
 _atom_site_label
 _atom_site_symmetry_multiplicity
 _atom_site_fract_x
 _atom_site_fract_y
 _atom_site_fract_z
 _atom_site_occupancy
  Y  Y0  1  0.390886  0.390886  0.390886  1
  Er  Er1  1  0.999938  0.999938  0.999938  1
  Er  Er2  1  0.500005  0.500005  0.500005  1
  Er  Er3  1  0.609020  0.609020  0.609020  1
  Er  Er4  1  0.109011  0.109011  0.109011  1
  Er  Er5  1  0.891099  0.891099  0.891099  1
  Al  Al6  1  0.923665  0.370899  0.370899  1
  Al  Al7  1  0.422872  0.870784  0.870784  1
  Al  Al8  1  0.370899  0.370899  0.923665  1
  Al  Al9  1  0.870784  0.870784  0.422872  1
  Al  Al10  1  0.370899  0.923665  0.370899  1
  Al  Al11  1  0.870784  0.422872  0.870784  1
  Al  Al12  1  0.576649  0.129344  0.129344  1
  Al  Al13  1  0.075900  0.629606  0.629606  1
  Al  Al14  1  0.129344  0.129344  0.576649  1
  Al  Al15  1  0.629606  0.629606  0.075900  1
  Al  Al16  1  0.129344  0.576649  0.129344  1
  Al  Al17  1  0.629606  0.075900  0.629606  1
  Al  Al18  1  0.500741  0.500741  0.997867  1
  Al  Al19  1  0.000251  0.000251  0.499833  1
  Al  Al20  1  0.500741  0.997867  0.500741  1
  Al  Al21  1  0.000251  0.499833  0.000251  1
  Al  Al22  1  0.997867  0.500741  0.500741  1
  Al  Al23  1  0.499833  0.000251  0.000251  1
