# generated using pymatgen
data_Ho3SnPt2RhPb2
_symmetry_space_group_name_H-M   'P 1'
_cell_length_a   7.73089900
_cell_length_b   7.78158466
_cell_length_c   3.82508700
_cell_angle_alpha   90.00000000
_cell_angle_beta   90.00000000
_cell_angle_gamma   119.78477099
_symmetry_Int_Tables_number   1
_chemical_formula_structural   Ho3SnPt2RhPb2
_chemical_formula_sum   'Ho3 Sn1 Pt2 Rh1 Pb2'
_cell_volume   199.71367771
_cell_formula_units_Z   1
loop_
 _symmetry_equiv_pos_site_id
 _symmetry_equiv_pos_as_xyz
  1  'x, y, z'
loop_
 _atom_site_type_symbol
 _atom_site_label
 _atom_site_symmetry_multiplicity
 _atom_site_fract_x
 _atom_site_fract_y
 _atom_site_fract_z
 _atom_site_occupancy
  Ho  Ho0  1  0.995055  0.398304  0.000000  1
  Ho  Ho1  1  0.596751  0.601696  0.000000  1
  Ho  Ho2  1  0.405768  0.000000  0.000000  1
  Sn  Sn3  1  0.739172  0.000000  0.500000  1
  Pt  Pt4  1  0.669942  0.325568  0.500000  1
  Pt  Pt5  1  0.344373  0.674432  0.500000  1
  Rh  Rh6  1  0.988279  0.000000  0.000000  1
  Pb  Pb7  1  0.261417  0.262175  0.500000  1
  Pb  Pb8  1  0.999242  0.737825  0.500000  1
