# generated using pymatgen
data_LaSm(Bi3O7)2
_symmetry_space_group_name_H-M   'P 1'
_cell_length_a   6.75368539
_cell_length_b   6.95997792
_cell_length_c   7.97229983
_cell_angle_alpha   106.56473081
_cell_angle_beta   89.24306437
_cell_angle_gamma   99.40773726
_symmetry_Int_Tables_number   1
_chemical_formula_structural   LaSm(Bi3O7)2
_chemical_formula_sum   'La1 Sm1 Bi6 O14'
_cell_volume   354.13743816
_cell_formula_units_Z   1
loop_
 _symmetry_equiv_pos_site_id
 _symmetry_equiv_pos_as_xyz
  1  'x, y, z'
loop_
 _atom_site_type_symbol
 _atom_site_label
 _atom_site_symmetry_multiplicity
 _atom_site_fract_x
 _atom_site_fract_y
 _atom_site_fract_z
 _atom_site_occupancy
  La  La0  1  0.462410  0.998905  0.247580  1
  Sm  Sm1  1  0.541517  0.000021  0.751673  1
  Bi  Bi2  1  0.999978  0.999720  0.501189  1
  Bi  Bi3  1  0.000753  0.000012  0.997764  1
  Bi  Bi4  1  0.259692  0.505814  0.874297  1
  Bi  Bi5  1  0.743051  0.491342  0.124633  1
  Bi  Bi6  1  0.720033  0.470799  0.610487  1
  Bi  Bi7  1  0.279728  0.531558  0.394193  1
  O  O8  1  0.464156  0.641159  0.182492  1
  O  O9  1  0.534118  0.350036  0.814558  1
  O  O10  1  0.296189  0.939881  0.948381  1
  O  O11  1  0.703274  0.062258  0.039923  1
  O  O12  1  0.288615  0.910114  0.512374  1
  O  O13  1  0.710515  0.090532  0.498662  1
  O  O14  1  0.535444  0.358554  0.358522  1
  O  O15  1  0.468304  0.647810  0.644815  1
  O  O16  1  0.909570  0.681518  0.968107  1
  O  O17  1  0.090234  0.319195  0.032038  1
  O  O18  1  0.105576  0.320476  0.622742  1
  O  O19  1  0.896152  0.679926  0.376063  1
  O  O20  1  0.883854  0.926273  0.730824  1
  O  O21  1  0.106837  0.074094  0.268681  1
