# generated using pymatgen
data_Sc6CoTc
_symmetry_space_group_name_H-M   'P 1'
_cell_length_a   5.90032900
_cell_length_b   8.63851200
_cell_length_c   13.12190400
_cell_angle_alpha   90.00000000
_cell_angle_beta   90.00000000
_cell_angle_gamma   90.00000000
_symmetry_Int_Tables_number   1
_chemical_formula_structural   Sc6CoTc
_chemical_formula_sum   'Sc24 Co4 Tc4'
_cell_volume   668.82427186
_cell_formula_units_Z   4
loop_
 _symmetry_equiv_pos_site_id
 _symmetry_equiv_pos_as_xyz
  1  'x, y, z'
loop_
 _atom_site_type_symbol
 _atom_site_label
 _atom_site_symmetry_multiplicity
 _atom_site_fract_x
 _atom_site_fract_y
 _atom_site_fract_z
 _atom_site_occupancy
  Sc  Sc0  1  0.529762  0.750000  0.351382  1
  Sc  Sc1  1  0.029762  0.250000  0.148618  1
  Sc  Sc2  1  0.470238  0.250000  0.648618  1
  Sc  Sc3  1  0.970238  0.750000  0.851382  1
  Sc  Sc4  1  0.788246  0.750000  0.112572  1
  Sc  Sc5  1  0.288246  0.250000  0.387428  1
  Sc  Sc6  1  0.211754  0.250000  0.887428  1
  Sc  Sc7  1  0.711754  0.750000  0.612572  1
  Sc  Sc8  1  0.408172  0.935934  0.785151  1
  Sc  Sc9  1  0.908172  0.064066  0.714849  1
  Sc  Sc10  1  0.591828  0.435934  0.214849  1
  Sc  Sc11  1  0.091828  0.564066  0.285151  1
  Sc  Sc12  1  0.591828  0.064066  0.214849  1
  Sc  Sc13  1  0.091828  0.935934  0.285151  1
  Sc  Sc14  1  0.408172  0.564066  0.785151  1
  Sc  Sc15  1  0.908172  0.435934  0.714849  1
  Sc  Sc16  1  0.244753  0.939999  0.537678  1
  Sc  Sc17  1  0.744753  0.060001  0.962322  1
  Sc  Sc18  1  0.755247  0.439999  0.462322  1
  Sc  Sc19  1  0.255247  0.560001  0.037678  1
  Sc  Sc20  1  0.755247  0.060001  0.462322  1
  Sc  Sc21  1  0.255247  0.939999  0.037678  1
  Sc  Sc22  1  0.244753  0.560001  0.537678  1
  Sc  Sc23  1  0.744753  0.439999  0.962322  1
  Co  Co24  1  0.370632  0.750000  0.179224  1
  Co  Co25  1  0.870632  0.250000  0.320776  1
  Co  Co26  1  0.629368  0.250000  0.820776  1
  Co  Co27  1  0.129368  0.750000  0.679224  1
  Tc  Tc28  1  0.934432  0.750000  0.438811  1
  Tc  Tc29  1  0.434432  0.250000  0.061189  1
  Tc  Tc30  1  0.065568  0.250000  0.561189  1
  Tc  Tc31  1  0.565568  0.750000  0.938811  1
