# generated using pymatgen
data_Sc6P5Cl
_symmetry_space_group_name_H-M   'P 1'
_cell_length_a   6.53714234
_cell_length_b   6.53512359
_cell_length_c   6.51843881
_cell_angle_alpha   80.37385988
_cell_angle_beta   80.36860279
_cell_angle_gamma   119.86031832
_symmetry_Int_Tables_number   1
_chemical_formula_structural   Sc6P5Cl
_chemical_formula_sum   'Sc6 P5 Cl1'
_cell_volume   227.65093615
_cell_formula_units_Z   1
loop_
 _symmetry_equiv_pos_site_id
 _symmetry_equiv_pos_as_xyz
  1  'x, y, z'
loop_
 _atom_site_type_symbol
 _atom_site_label
 _atom_site_symmetry_multiplicity
 _atom_site_fract_x
 _atom_site_fract_y
 _atom_site_fract_z
 _atom_site_occupancy
  Sc  Sc0  1  0.167248  0.881349  0.471797  1
  Sc  Sc1  1  0.871062  0.232795  0.469964  1
  Sc  Sc2  1  0.346318  0.705815  0.989276  1
  Sc  Sc3  1  0.698893  0.411580  0.991681  1
  Sc  Sc4  1  0.990627  0.058547  0.988833  1
  Sc  Sc5  1  0.519562  0.583922  0.469228  1
  P  P6  1  0.100401  0.479128  0.729583  1
  P  P7  1  0.934561  0.647558  0.230291  1
  P  P8  1  0.270091  0.305553  0.229578  1
  P  P9  1  0.591911  0.983861  0.230421  1
  P  P10  1  0.764233  0.812565  0.729404  1
  Cl  Cl11  1  0.433424  0.149598  0.729492  1
