# generated using pymatgen
data_Hf5Sc3Ta12Si15Ge
_symmetry_space_group_name_H-M   'P 1'
_cell_length_a   6.67865605
_cell_length_b   6.85711632
_cell_length_c   13.09254323
_cell_angle_alpha   90.03523123
_cell_angle_beta   90.13196096
_cell_angle_gamma   90.01218510
_symmetry_Int_Tables_number   1
_chemical_formula_structural   Hf5Sc3Ta12Si15Ge
_chemical_formula_sum   'Hf5 Sc3 Ta12 Si15 Ge1'
_cell_volume   599.58859966
_cell_formula_units_Z   1
loop_
 _symmetry_equiv_pos_site_id
 _symmetry_equiv_pos_as_xyz
  1  'x, y, z'
loop_
 _atom_site_type_symbol
 _atom_site_label
 _atom_site_symmetry_multiplicity
 _atom_site_fract_x
 _atom_site_fract_y
 _atom_site_fract_z
 _atom_site_occupancy
  Hf  Hf0  1  0.006819  0.170522  0.409207  1
  Hf  Hf1  1  0.502958  0.325688  0.407085  1
  Hf  Hf2  1  0.005979  0.170500  0.091680  1
  Hf  Hf3  1  0.498728  0.674251  0.904925  1
  Hf  Hf4  1  0.997305  0.827218  0.593532  1
  Sc  Sc5  1  0.496838  0.673085  0.593179  1
  Sc  Sc6  1  0.997136  0.827003  0.906760  1
  Sc  Sc7  1  0.501935  0.327698  0.092487  1
  Ta  Ta8  1  0.664614  0.171740  0.623884  1
  Ta  Ta9  1  0.164979  0.328807  0.875934  1
  Ta  Ta10  1  0.334476  0.830782  0.123953  1
  Ta  Ta11  1  0.836007  0.673333  0.377133  1
  Ta  Ta12  1  0.333883  0.830437  0.376675  1
  Ta  Ta13  1  0.835785  0.673641  0.123595  1
  Ta  Ta14  1  0.664563  0.171865  0.875971  1
  Ta  Ta15  1  0.162481  0.326871  0.623514  1
  Ta  Ta16  1  0.838080  0.494877  0.749084  1
  Ta  Ta17  1  0.338127  0.004907  0.750449  1
  Ta  Ta18  1  0.163470  0.505310  0.250636  1
  Ta  Ta19  1  0.660723  0.991725  0.251453  1
  Si  Si20  1  0.670810  0.964530  0.461598  1
  Si  Si21  1  0.170725  0.535038  0.039209  1
  Si  Si22  1  0.328937  0.034595  0.960414  1
  Si  Si23  1  0.827631  0.464377  0.538206  1
  Si  Si24  1  0.329073  0.035383  0.539152  1
  Si  Si25  1  0.829725  0.465952  0.961067  1
  Si  Si26  1  0.669517  0.966108  0.039094  1
  Si  Si27  1  0.170351  0.535580  0.461242  1
  Si  Si28  1  0.461023  0.387694  0.749565  1
  Si  Si29  1  0.961214  0.112231  0.750543  1
  Si  Si30  1  0.536809  0.614748  0.250224  1
  Si  Si31  1  0.038082  0.887782  0.250109  1
  Si  Si32  1  0.704133  0.860290  0.749708  1
  Si  Si33  1  0.203645  0.639829  0.749679  1
  Si  Si34  1  0.296208  0.140859  0.249721  1
  Ge  Ge35  1  0.797228  0.354738  0.249333  1
