# generated using pymatgen
data_Ti6BPb2Cl17
_symmetry_space_group_name_H-M   'P 1'
_cell_length_a   9.32298180
_cell_length_b   9.32298241
_cell_length_c   9.32298391
_cell_angle_alpha   104.74526447
_cell_angle_beta   104.74526415
_cell_angle_gamma   119.40344315
_symmetry_Int_Tables_number   1
_chemical_formula_structural   Ti6BPb2Cl17
_chemical_formula_sum   'Ti6 B1 Pb2 Cl17'
_cell_volume   609.52576767
_cell_formula_units_Z   1
loop_
 _symmetry_equiv_pos_site_id
 _symmetry_equiv_pos_as_xyz
  1  'x, y, z'
loop_
 _atom_site_type_symbol
 _atom_site_label
 _atom_site_symmetry_multiplicity
 _atom_site_fract_x
 _atom_site_fract_y
 _atom_site_fract_z
 _atom_site_occupancy
  Ti  Ti0  1  0.231011  0.231011  0.000000  1
  Ti  Ti1  1  0.768989  0.768989  0.000000  1
  Ti  Ti2  1  0.178853  0.060734  0.239588  1
  Ti  Ti3  1  0.939266  0.178853  0.118119  1
  Ti  Ti4  1  0.821147  0.939266  0.760412  1
  Ti  Ti5  1  0.060734  0.821147  0.881881  1
  B  B6  1  0.000000  0.000000  0.000000  1
  Pb  Pb7  1  0.250000  0.750000  0.500000  1
  Pb  Pb8  1  0.750000  0.250000  0.500000  1
  Cl  Cl9  1  0.868279  0.732263  0.600542  1
  Cl  Cl10  1  0.267737  0.868279  0.136017  1
  Cl  Cl11  1  0.125268  0.597817  0.723085  1
  Cl  Cl12  1  0.546827  0.676093  0.728396  1
  Cl  Cl13  1  0.874732  0.402183  0.276915  1
  Cl  Cl14  1  0.453173  0.323907  0.271604  1
  Cl  Cl15  1  0.818432  0.546827  0.870735  1
  Cl  Cl16  1  0.402183  0.125268  0.527451  1
  Cl  Cl17  1  0.597817  0.874732  0.472549  1
  Cl  Cl18  1  0.131721  0.267737  0.399458  1
  Cl  Cl19  1  0.323907  0.052305  0.870735  1
  Cl  Cl20  1  0.947695  0.818432  0.271604  1
  Cl  Cl21  1  0.732263  0.131721  0.863983  1
  Cl  Cl22  1  0.500000  0.500000  0.000000  1
  Cl  Cl23  1  0.181568  0.453173  0.129265  1
  Cl  Cl24  1  0.052305  0.181568  0.728396  1
  Cl  Cl25  1  0.676093  0.947695  0.129265  1
