# generated using pymatgen
data_YbLu3AlOs7
_symmetry_space_group_name_H-M   'P 1'
_cell_length_a   5.32494900
_cell_length_b   5.32494866
_cell_length_c   8.59908700
_cell_angle_alpha   90.00000000
_cell_angle_beta   90.00000000
_cell_angle_gamma   119.99999592
_symmetry_Int_Tables_number   1
_chemical_formula_structural   YbLu3AlOs7
_chemical_formula_sum   'Yb1 Lu3 Al1 Os7'
_cell_volume   211.16107764
_cell_formula_units_Z   1
loop_
 _symmetry_equiv_pos_site_id
 _symmetry_equiv_pos_as_xyz
  1  'x, y, z'
loop_
 _atom_site_type_symbol
 _atom_site_label
 _atom_site_symmetry_multiplicity
 _atom_site_fract_x
 _atom_site_fract_y
 _atom_site_fract_z
 _atom_site_occupancy
  Yb  Yb0  1  0.333333  0.666667  0.062930  1
  Lu  Lu1  1  0.333333  0.666667  0.426240  1
  Lu  Lu2  1  0.666667  0.333333  0.570089  1
  Lu  Lu3  1  0.666667  0.333333  0.939186  1
  Al  Al4  1  0.000000  0.000000  0.501227  1
  Os  Os5  1  0.000000  0.000000  0.999263  1
  Os  Os6  1  0.829059  0.170941  0.252793  1
  Os  Os7  1  0.829059  0.658119  0.252793  1
  Os  Os8  1  0.341881  0.170941  0.252793  1
  Os  Os9  1  0.171834  0.828166  0.747562  1
  Os  Os10  1  0.171834  0.343668  0.747562  1
  Os  Os11  1  0.656332  0.828166  0.747562  1
