# generated using pymatgen
data_Er3Th(Al8Pt3)3
_symmetry_space_group_name_H-M   'P 1'
_cell_length_a   7.55109642
_cell_length_b   7.54373086
_cell_length_c   13.14844694
_cell_angle_alpha   84.54039926
_cell_angle_beta   100.98619382
_cell_angle_gamma   119.88998380
_symmetry_Int_Tables_number   1
_chemical_formula_structural   Er3Th(Al8Pt3)3
_chemical_formula_sum   'Er3 Th1 Al24 Pt9'
_cell_volume   637.45359946
_cell_formula_units_Z   1
loop_
 _symmetry_equiv_pos_site_id
 _symmetry_equiv_pos_as_xyz
  1  'x, y, z'
loop_
 _atom_site_type_symbol
 _atom_site_label
 _atom_site_symmetry_multiplicity
 _atom_site_fract_x
 _atom_site_fract_y
 _atom_site_fract_z
 _atom_site_occupancy
  Er  Er0  1  0.266786  0.000691  0.806660  1
  Er  Er1  1  0.062319  0.668310  0.192528  1
  Er  Er2  1  0.937815  0.332243  0.806767  1
  Th  Th3  1  0.732308  0.998709  0.192622  1
  Al  Al4  1  0.808166  0.869002  0.815247  1
  Al  Al5  1  0.196373  0.131799  0.184490  1
  Al  Al6  1  0.982570  0.666427  0.943288  1
  Al  Al7  1  0.020616  0.337384  0.053218  1
  Al  Al8  1  0.397321  0.663338  0.816336  1
  Al  Al9  1  0.601345  0.339608  0.183152  1
  Al  Al10  1  0.882978  0.665302  0.671204  1
  Al  Al11  1  0.121846  0.338242  0.331976  1
  Al  Al12  1  0.602961  0.457627  0.816055  1
  Al  Al13  1  0.393594  0.537465  0.183803  1
  Al  Al14  1  0.230141  0.339672  0.670048  1
  Al  Al15  1  0.770879  0.656184  0.333475  1
  Al  Al16  1  0.853100  0.334049  0.559207  1
  Al  Al17  1  0.186262  0.999093  0.559314  1
  Al  Al18  1  0.814894  0.000521  0.443349  1
  Al  Al19  1  0.348016  0.999444  0.053216  1
  Al  Al20  1  0.646913  0.001384  0.941170  1
  Al  Al21  1  0.556039  0.993546  0.671497  1
  Al  Al22  1  0.440956  0.006484  0.331753  1
  Al  Al23  1  0.520408  0.666833  0.562329  1
  Al  Al24  1  0.479508  0.332657  0.439437  1
  Al  Al25  1  0.682248  0.664768  0.044145  1
  Al  Al26  1  0.315625  0.331665  0.951120  1
  Al  Al27  1  0.147603  0.666922  0.441706  1
  Pt  Pt28  1  0.329544  0.672560  0.000279  1
  Pt  Pt29  1  0.545525  0.324279  0.637626  1
  Pt  Pt30  1  0.454944  0.675990  0.362433  1
  Pt  Pt31  1  0.888149  0.008909  0.639267  1
  Pt  Pt32  1  0.111408  0.991611  0.360986  1
  Pt  Pt33  1  0.671694  0.328078  0.000092  1
  Pt  Pt34  1  0.203926  0.666523  0.639155  1
  Pt  Pt35  1  0.795904  0.332428  0.360904  1
  Pt  Pt36  1  0.999314  0.000253  0.000148  1
