# generated using pymatgen
data_Sm2HoTm3(Co3P2)6
_symmetry_space_group_name_H-M   'P 1'
_cell_length_a   3.69544900
_cell_length_b   10.51293106
_cell_length_c   12.17931607
_cell_angle_alpha   90.01217511
_cell_angle_beta   90.00000000
_cell_angle_gamma   90.00000000
_symmetry_Int_Tables_number   1
_chemical_formula_structural   Sm2HoTm3(Co3P2)6
_chemical_formula_sum   'Sm2 Ho1 Tm3 Co18 P12'
_cell_volume   473.16642553
_cell_formula_units_Z   1
loop_
 _symmetry_equiv_pos_site_id
 _symmetry_equiv_pos_as_xyz
  1  'x, y, z'
loop_
 _atom_site_type_symbol
 _atom_site_label
 _atom_site_symmetry_multiplicity
 _atom_site_fract_x
 _atom_site_fract_y
 _atom_site_fract_z
 _atom_site_occupancy
  Sm  Sm0  1  0.000000  0.499906  0.522516  1
  Sm  Sm1  1  0.500000  0.000101  0.477828  1
  Ho  Ho2  1  0.500000  0.817833  0.205037  1
  Tm  Tm3  1  0.500000  0.182421  0.205053  1
  Tm  Tm4  1  0.000000  0.682166  0.794920  1
  Tm  Tm5  1  0.000000  0.317798  0.794815  1
  Co  Co6  1  0.500000  0.499924  0.157534  1
  Co  Co7  1  0.000000  0.000119  0.842324  1
  Co  Co8  1  0.500000  0.499908  0.706337  1
  Co  Co9  1  0.000000  0.000745  0.293890  1
  Co  Co10  1  0.000000  0.499713  0.986137  1
  Co  Co11  1  0.500000  0.000279  0.013171  1
  Co  Co12  1  0.500000  0.333037  0.994681  1
  Co  Co13  1  0.500000  0.666561  0.994345  1
  Co  Co14  1  0.000000  0.167147  0.005077  1
  Co  Co15  1  0.000000  0.833240  0.004758  1
  Co  Co16  1  0.500000  0.296827  0.429358  1
  Co  Co17  1  0.500000  0.703054  0.429819  1
  Co  Co18  1  0.000000  0.203191  0.570774  1
  Co  Co19  1  0.000000  0.796863  0.571021  1
  Co  Co20  1  0.500000  0.878830  0.712058  1
  Co  Co21  1  0.500000  0.121175  0.711971  1
  Co  Co22  1  0.000000  0.620660  0.288398  1
  Co  Co23  1  0.000000  0.378660  0.287999  1
  P  P24  1  0.500000  0.499843  0.882962  1
  P  P25  1  0.000000  0.000624  0.116461  1
  P  P26  1  0.500000  0.500003  0.341431  1
  P  P27  1  0.000000  0.000001  0.658599  1
  P  P28  1  0.500000  0.309162  0.617925  1
  P  P29  1  0.500000  0.690734  0.618104  1
  P  P30  1  0.000000  0.191009  0.382199  1
  P  P31  1  0.000000  0.808995  0.382927  1
  P  P32  1  0.500000  0.846418  0.893247  1
  P  P33  1  0.500000  0.153722  0.893086  1
  P  P34  1  0.000000  0.652934  0.106429  1
  P  P35  1  0.000000  0.346396  0.106806  1
