# generated using pymatgen
data_Yb11Pr8HoPt16
_symmetry_space_group_name_H-M   'P 1'
_cell_length_a   7.55862122
_cell_length_b   7.73933465
_cell_length_c   14.50417400
_cell_angle_alpha   89.95671353
_cell_angle_beta   90.11496881
_cell_angle_gamma   90.11820463
_symmetry_Int_Tables_number   1
_chemical_formula_structural   Yb11Pr8HoPt16
_chemical_formula_sum   'Yb11 Pr8 Ho1 Pt16'
_cell_volume   848.47155762
_cell_formula_units_Z   1
loop_
 _symmetry_equiv_pos_site_id
 _symmetry_equiv_pos_as_xyz
  1  'x, y, z'
loop_
 _atom_site_type_symbol
 _atom_site_label
 _atom_site_symmetry_multiplicity
 _atom_site_fract_x
 _atom_site_fract_y
 _atom_site_fract_z
 _atom_site_occupancy
  Yb  Yb0  1  0.333874  0.167801  0.624718  1
  Yb  Yb1  1  0.665547  0.831562  0.375597  1
  Yb  Yb2  1  0.668036  0.004216  0.750647  1
  Yb  Yb3  1  0.166343  0.666700  0.375088  1
  Yb  Yb4  1  0.834687  0.333111  0.876645  1
  Yb  Yb5  1  0.833686  0.331731  0.624594  1
  Yb  Yb6  1  0.833421  0.501886  0.250220  1
  Yb  Yb7  1  0.328845  0.996762  0.250232  1
  Yb  Yb8  1  0.334113  0.166375  0.876796  1
  Yb  Yb9  1  0.165034  0.667415  0.122852  1
  Yb  Yb10  1  0.167696  0.494674  0.750387  1
  Pr  Pr11  1  0.007320  0.181071  0.403130  1
  Pr  Pr12  1  0.507294  0.318690  0.403489  1
  Pr  Pr13  1  0.491957  0.678264  0.902841  1
  Pr  Pr14  1  0.493069  0.678653  0.597473  1
  Pr  Pr15  1  0.992256  0.820644  0.596916  1
  Pr  Pr16  1  0.993736  0.820607  0.902721  1
  Pr  Pr17  1  0.507320  0.321696  0.096405  1
  Pr  Pr18  1  0.008870  0.178960  0.096465  1
  Ho  Ho19  1  0.665640  0.833579  0.125264  1
  Pt  Pt20  1  0.295812  0.855901  0.750015  1
  Pt  Pt21  1  0.465674  0.617343  0.245916  1
  Pt  Pt22  1  0.035603  0.113393  0.750749  1
  Pt  Pt23  1  0.536179  0.385404  0.751534  1
  Pt  Pt24  1  0.175742  0.466687  0.538434  1
  Pt  Pt25  1  0.961332  0.883571  0.247612  1
  Pt  Pt26  1  0.702238  0.142682  0.248627  1
  Pt  Pt27  1  0.819225  0.544172  0.038123  1
  Pt  Pt28  1  0.330662  0.964248  0.040614  1
  Pt  Pt29  1  0.172258  0.464222  0.960931  1
  Pt  Pt30  1  0.673644  0.032686  0.539408  1
  Pt  Pt31  1  0.323500  0.966958  0.459975  1
  Pt  Pt32  1  0.824351  0.531925  0.460527  1
  Pt  Pt33  1  0.795534  0.643954  0.749786  1
  Pt  Pt34  1  0.206994  0.357718  0.250470  1
  Pt  Pt35  1  0.682511  0.034741  0.964795  1
