# generated using pymatgen
data_Ho4TaGe8Mo5
_symmetry_space_group_name_H-M   'P 1'
_cell_length_a   7.06599458
_cell_length_b   6.93891382
_cell_length_c   7.00714568
_cell_angle_alpha   70.46349450
_cell_angle_beta   90.44082043
_cell_angle_gamma   90.01409992
_symmetry_Int_Tables_number   1
_chemical_formula_structural   Ho4TaGe8Mo5
_chemical_formula_sum   'Ho4 Ta1 Ge8 Mo5'
_cell_volume   323.77270081
_cell_formula_units_Z   1
loop_
 _symmetry_equiv_pos_site_id
 _symmetry_equiv_pos_as_xyz
  1  'x, y, z'
loop_
 _atom_site_type_symbol
 _atom_site_label
 _atom_site_symmetry_multiplicity
 _atom_site_fract_x
 _atom_site_fract_y
 _atom_site_fract_z
 _atom_site_occupancy
  Ho  Ho0  1  0.327032  0.555880  0.810425  1
  Ho  Ho1  1  0.830504  0.943325  0.189896  1
  Ho  Ho2  1  0.672968  0.444120  0.189575  1
  Ho  Ho3  1  0.169496  0.056675  0.810104  1
  Ta  Ta4  1  0.500000  0.000000  0.500000  1
  Ge  Ge5  1  0.543640  0.856508  0.912656  1
  Ge  Ge6  1  0.046188  0.640690  0.092752  1
  Ge  Ge7  1  0.456360  0.143492  0.087344  1
  Ge  Ge8  1  0.953812  0.359310  0.907248  1
  Ge  Ge9  1  0.133142  0.863539  0.498746  1
  Ge  Ge10  1  0.639230  0.628936  0.503527  1
  Ge  Ge11  1  0.866858  0.136461  0.501254  1
  Ge  Ge12  1  0.360770  0.371064  0.496473  1
  Mo  Mo13  1  0.000000  0.500000  0.500000  1
  Mo  Mo14  1  0.837385  0.751342  0.749519  1
  Mo  Mo15  1  0.343015  0.755077  0.251857  1
  Mo  Mo16  1  0.162615  0.248658  0.250481  1
  Mo  Mo17  1  0.656985  0.244923  0.748143  1
