# generated using pymatgen
data_YbDyYAl7Cu2
_symmetry_space_group_name_H-M   'P 1'
_cell_length_a   9.03923211
_cell_length_b   9.03923293
_cell_length_c   9.03923189
_cell_angle_alpha   35.63887061
_cell_angle_beta   35.63886356
_cell_angle_gamma   35.63885695
_symmetry_Int_Tables_number   1
_chemical_formula_structural   YbDyYAl7Cu2
_chemical_formula_sum   'Yb1 Dy1 Y1 Al7 Cu2'
_cell_volume   224.13921373
_cell_formula_units_Z   1
loop_
 _symmetry_equiv_pos_site_id
 _symmetry_equiv_pos_as_xyz
  1  'x, y, z'
loop_
 _atom_site_type_symbol
 _atom_site_label
 _atom_site_symmetry_multiplicity
 _atom_site_fract_x
 _atom_site_fract_y
 _atom_site_fract_z
 _atom_site_occupancy
  Yb  Yb0  1  0.999906  0.999906  0.999906  1
  Dy  Dy1  1  0.857955  0.857955  0.857955  1
  Y  Y2  1  0.142143  0.142143  0.142143  1
  Al  Al3  1  0.417878  0.417878  0.927596  1
  Al  Al4  1  0.927596  0.417878  0.417878  1
  Al  Al5  1  0.417878  0.927596  0.417878  1
  Al  Al6  1  0.500008  0.500008  0.500008  1
  Al  Al7  1  0.582176  0.072273  0.582176  1
  Al  Al8  1  0.072273  0.582176  0.582176  1
  Al  Al9  1  0.582176  0.582176  0.072273  1
  Cu  Cu10  1  0.664586  0.664586  0.664586  1
  Cu  Cu11  1  0.335427  0.335427  0.335427  1
