# generated using pymatgen
data_BaAl7(FeSi)2
_symmetry_space_group_name_H-M   'P 1'
_cell_length_a   7.80153719
_cell_length_b   7.80153721
_cell_length_c   3.99643600
_cell_angle_alpha   90.00000000
_cell_angle_beta   90.00000000
_cell_angle_gamma   120.58364737
_symmetry_Int_Tables_number   1
_chemical_formula_structural   BaAl7(FeSi)2
_chemical_formula_sum   'Ba1 Al7 Fe2 Si2'
_cell_volume   209.40136996
_cell_formula_units_Z   1
loop_
 _symmetry_equiv_pos_site_id
 _symmetry_equiv_pos_as_xyz
  1  'x, y, z'
loop_
 _atom_site_type_symbol
 _atom_site_label
 _atom_site_symmetry_multiplicity
 _atom_site_fract_x
 _atom_site_fract_y
 _atom_site_fract_z
 _atom_site_occupancy
  Ba  Ba0  1  0.000000  0.000000  0.000000  1
  Al  Al1  1  0.500000  0.500000  0.000000  1
  Al  Al2  1  0.212224  0.431228  0.500000  1
  Al  Al3  1  0.788872  0.211128  0.500000  1
  Al  Al4  1  0.431228  0.212224  0.500000  1
  Al  Al5  1  0.568772  0.787776  0.500000  1
  Al  Al6  1  0.211128  0.788872  0.500000  1
  Al  Al7  1  0.787776  0.568772  0.500000  1
  Fe  Fe8  1  0.672967  0.327033  0.000000  1
  Fe  Fe9  1  0.327033  0.672967  0.000000  1
  Si  Si10  1  0.500000  0.000000  0.000000  1
  Si  Si11  1  0.000000  0.500000  0.000000  1
