# generated using pymatgen
data_Dy3Ga3Ge2Ir
_symmetry_space_group_name_H-M   'P 1'
_cell_length_a   7.02601800
_cell_length_b   7.02601930
_cell_length_c   4.19067800
_cell_angle_alpha   90.00000000
_cell_angle_beta   90.00000000
_cell_angle_gamma   120.00000329
_symmetry_Int_Tables_number   1
_chemical_formula_structural   Dy3Ga3Ge2Ir
_chemical_formula_sum   'Dy3 Ga3 Ge2 Ir1'
_cell_volume   179.15688633
_cell_formula_units_Z   1
loop_
 _symmetry_equiv_pos_site_id
 _symmetry_equiv_pos_as_xyz
  1  'x, y, z'
loop_
 _atom_site_type_symbol
 _atom_site_label
 _atom_site_symmetry_multiplicity
 _atom_site_fract_x
 _atom_site_fract_y
 _atom_site_fract_z
 _atom_site_occupancy
  Dy  Dy0  1  0.410589  0.000000  0.000000  1
  Dy  Dy1  1  0.000000  0.410589  0.000000  1
  Dy  Dy2  1  0.589411  0.589411  0.000000  1
  Ga  Ga3  1  0.768297  0.000000  0.500000  1
  Ga  Ga4  1  0.231704  0.231704  0.500000  1
  Ga  Ga5  1  0.000000  0.768296  0.500000  1
  Ge  Ge6  1  0.666666  0.333333  0.500000  1
  Ge  Ge7  1  0.333333  0.666667  0.500000  1
  Ir  Ir8  1  0.000000  0.000000  0.000000  1
