# generated using pymatgen
data_LiU2NiC4
_symmetry_space_group_name_H-M   'P 1'
_cell_length_a   3.47361600
_cell_length_b   3.47361600
_cell_length_c   7.33915000
_cell_angle_alpha   90.00000000
_cell_angle_beta   90.00000000
_cell_angle_gamma   90.00000000
_symmetry_Int_Tables_number   1
_chemical_formula_structural   LiU2NiC4
_chemical_formula_sum   'Li1 U2 Ni1 C4'
_cell_volume   88.55424346
_cell_formula_units_Z   1
loop_
 _symmetry_equiv_pos_site_id
 _symmetry_equiv_pos_as_xyz
  1  'x, y, z'
loop_
 _atom_site_type_symbol
 _atom_site_label
 _atom_site_symmetry_multiplicity
 _atom_site_fract_x
 _atom_site_fract_y
 _atom_site_fract_z
 _atom_site_occupancy
  Li  Li0  1  0.000000  0.000000  0.000000  1
  U  U1  1  0.000000  0.500000  0.679916  1
  U  U2  1  0.500000  0.000000  0.320084  1
  Ni  Ni3  1  0.500000  0.500000  0.000000  1
  C  C4  1  0.000000  0.500000  0.170444  1
  C  C5  1  0.500000  0.000000  0.829556  1
  C  C6  1  0.000000  0.500000  0.367920  1
  C  C7  1  0.500000  0.000000  0.632080  1
