# generated using pymatgen
data_Er20Si15Ir
_symmetry_space_group_name_H-M   'P 1'
_cell_length_a   7.36759501
_cell_length_b   7.61672433
_cell_length_c   14.45967694
_cell_angle_alpha   90.19139531
_cell_angle_beta   90.34126491
_cell_angle_gamma   90.22406582
_symmetry_Int_Tables_number   1
_chemical_formula_structural   Er20Si15Ir
_chemical_formula_sum   'Er20 Si15 Ir1'
_cell_volume   811.40763714
_cell_formula_units_Z   1
loop_
 _symmetry_equiv_pos_site_id
 _symmetry_equiv_pos_as_xyz
  1  'x, y, z'
loop_
 _atom_site_type_symbol
 _atom_site_label
 _atom_site_symmetry_multiplicity
 _atom_site_fract_x
 _atom_site_fract_y
 _atom_site_fract_z
 _atom_site_occupancy
  Er  Er0  1  0.023807  0.819517  0.598830  1
  Er  Er1  1  0.526790  0.686101  0.596562  1
  Er  Er2  1  0.320895  0.818591  0.121512  1
  Er  Er3  1  0.816428  0.679487  0.122137  1
  Er  Er4  1  0.853264  0.506373  0.749108  1
  Er  Er5  1  0.470593  0.315712  0.099200  1
  Er  Er6  1  0.028827  0.817343  0.901806  1
  Er  Er7  1  0.471887  0.313080  0.402183  1
  Er  Er8  1  0.652105  0.011834  0.257911  1
  Er  Er9  1  0.530085  0.682543  0.901068  1
  Er  Er10  1  0.681253  0.180027  0.877340  1
  Er  Er11  1  0.179951  0.321998  0.624130  1
  Er  Er12  1  0.185354  0.323298  0.875938  1
  Er  Er13  1  0.815135  0.687998  0.382192  1
  Er  Er14  1  0.323331  0.825312  0.377777  1
  Er  Er15  1  0.352415  0.989860  0.747596  1
  Er  Er16  1  0.683083  0.166333  0.619446  1
  Er  Er17  1  0.145910  0.489919  0.252524  1
  Er  Er18  1  0.970869  0.181617  0.098130  1
  Er  Er19  1  0.969213  0.175094  0.401998  1
  Si  Si20  1  0.234047  0.629259  0.750708  1
  Si  Si21  1  0.342994  0.028420  0.540891  1
  Si  Si22  1  0.026864  0.892474  0.245630  1
  Si  Si23  1  0.734674  0.869181  0.752736  1
  Si  Si24  1  0.264562  0.127599  0.245901  1
  Si  Si25  1  0.852798  0.473024  0.542530  1
  Si  Si26  1  0.482602  0.394314  0.748871  1
  Si  Si27  1  0.147175  0.531194  0.461531  1
  Si  Si28  1  0.146914  0.527501  0.040273  1
  Si  Si29  1  0.978725  0.104108  0.752096  1
  Si  Si30  1  0.767365  0.375735  0.248374  1
  Si  Si31  1  0.351551  0.029866  0.959962  1
  Si  Si32  1  0.856253  0.471279  0.959080  1
  Si  Si33  1  0.646739  0.971187  0.039477  1
  Si  Si34  1  0.520424  0.601936  0.247854  1
  Ir  Ir35  1  0.645116  0.980883  0.456696  1
