# generated using pymatgen
data_HoEr7InAgIr2
_symmetry_space_group_name_H-M   'P 1'
_cell_length_a   9.52593700
_cell_length_b   9.55023655
_cell_length_c   9.52658429
_cell_angle_alpha   59.91674575
_cell_angle_beta   59.89709605
_cell_angle_gamma   59.89932646
_symmetry_Int_Tables_number   1
_chemical_formula_structural   HoEr7InAgIr2
_chemical_formula_sum   'Ho2 Er14 In2 Ag2 Ir4'
_cell_volume   611.50638790
_cell_formula_units_Z   2
loop_
 _symmetry_equiv_pos_site_id
 _symmetry_equiv_pos_as_xyz
  1  'x, y, z'
loop_
 _atom_site_type_symbol
 _atom_site_label
 _atom_site_symmetry_multiplicity
 _atom_site_fract_x
 _atom_site_fract_y
 _atom_site_fract_z
 _atom_site_occupancy
  Ho  Ho0  1  0.058206  0.065829  0.437323  1
  Ho  Ho1  1  0.649297  0.048464  0.649452  1
  Er  Er2  1  0.192157  0.807746  0.192073  1
  Er  Er3  1  0.436532  0.063699  0.436289  1
  Er  Er4  1  0.190524  0.189279  0.810804  1
  Er  Er5  1  0.649508  0.652564  0.649544  1
  Er  Er6  1  0.049924  0.650411  0.648991  1
  Er  Er7  1  0.437480  0.065775  0.057984  1
  Er  Er8  1  0.648947  0.650450  0.049979  1
  Er  Er9  1  0.190763  0.809120  0.810854  1
  Er  Er10  1  0.810443  0.189574  0.810713  1
  Er  Er11  1  0.810673  0.189299  0.190446  1
  Er  Er12  1  0.810750  0.809169  0.190714  1
  Er  Er13  1  0.057985  0.439175  0.437398  1
  Er  Er14  1  0.437334  0.438974  0.058004  1
  Er  Er15  1  0.060909  0.439419  0.060639  1
  In  In16  1  0.421263  0.741718  0.421118  1
  In  In17  1  0.420918  0.416186  0.420918  1
  Ag  Ag18  1  0.749287  0.416842  0.417409  1
  Ag  Ag19  1  0.417426  0.416588  0.749552  1
  Ir  Ir20  1  0.858012  0.858673  0.858147  1
  Ir  Ir21  1  0.425227  0.857821  0.858673  1
  Ir  Ir22  1  0.858649  0.857788  0.425169  1
  Ir  Ir23  1  0.857788  0.425438  0.857809  1
