# generated using pymatgen
data_DyGaCu3Pd
_symmetry_space_group_name_H-M   'P 1'
_cell_length_a   5.04094322
_cell_length_b   5.04094333
_cell_length_c   5.04094425
_cell_angle_alpha   60.34977168
_cell_angle_beta   60.34976554
_cell_angle_gamma   60.34977440
_symmetry_Int_Tables_number   1
_chemical_formula_structural   DyGaCu3Pd
_chemical_formula_sum   'Dy1 Ga1 Cu3 Pd1'
_cell_volume   91.29423343
_cell_formula_units_Z   1
loop_
 _symmetry_equiv_pos_site_id
 _symmetry_equiv_pos_as_xyz
  1  'x, y, z'
loop_
 _atom_site_type_symbol
 _atom_site_label
 _atom_site_symmetry_multiplicity
 _atom_site_fract_x
 _atom_site_fract_y
 _atom_site_fract_z
 _atom_site_occupancy
  Dy  Dy0  1  0.247284  0.247284  0.247284  1
  Ga  Ga1  1  0.629264  0.629264  0.629264  1
  Cu  Cu2  1  0.625905  0.625905  0.124363  1
  Cu  Cu3  1  0.625905  0.124363  0.625905  1
  Cu  Cu4  1  0.124363  0.625905  0.625905  1
  Pd  Pd5  1  0.997279  0.997279  0.997279  1
