# generated using pymatgen
data_Lu9Sc(GeB4)4
_symmetry_space_group_name_H-M   'P 1'
_cell_length_a   7.12064200
_cell_length_b   7.12064200
_cell_length_c   7.86040700
_cell_angle_alpha   90.00000000
_cell_angle_beta   90.00000000
_cell_angle_gamma   90.00000000
_symmetry_Int_Tables_number   1
_chemical_formula_structural   Lu9Sc(GeB4)4
_chemical_formula_sum   'Lu9 Sc1 Ge4 B16'
_cell_volume   398.55048033
_cell_formula_units_Z   1
loop_
 _symmetry_equiv_pos_site_id
 _symmetry_equiv_pos_as_xyz
  1  'x, y, z'
loop_
 _atom_site_type_symbol
 _atom_site_label
 _atom_site_symmetry_multiplicity
 _atom_site_fract_x
 _atom_site_fract_y
 _atom_site_fract_z
 _atom_site_occupancy
  Lu  Lu0  1  0.680935  0.179897  0.222567  1
  Lu  Lu1  1  0.319065  0.820103  0.777433  1
  Lu  Lu2  1  0.319065  0.820103  0.222567  1
  Lu  Lu3  1  0.820103  0.680935  0.222567  1
  Lu  Lu4  1  0.820103  0.680935  0.777433  1
  Lu  Lu5  1  0.680935  0.179897  0.777433  1
  Lu  Lu6  1  0.179897  0.319065  0.777433  1
  Lu  Lu7  1  0.179897  0.319065  0.222567  1
  Lu  Lu8  1  0.500000  0.500000  0.500000  1
  Sc  Sc9  1  0.000000  0.000000  0.500000  1
  Ge  Ge10  1  0.118415  0.627801  0.500000  1
  Ge  Ge11  1  0.881585  0.372199  0.500000  1
  Ge  Ge12  1  0.372199  0.118415  0.500000  1
  Ge  Ge13  1  0.627801  0.881585  0.500000  1
  B  B14  1  0.173171  0.039262  0.000000  1
  B  B15  1  0.826829  0.960738  0.000000  1
  B  B16  1  0.960738  0.173171  0.000000  1
  B  B17  1  0.326972  0.539391  0.000000  1
  B  B18  1  0.039262  0.826829  0.000000  1
  B  B19  1  0.673028  0.460609  0.000000  1
  B  B20  1  0.539391  0.673028  0.000000  1
  B  B21  1  0.460609  0.326972  0.000000  1
  B  B22  1  0.089479  0.589451  0.000000  1
  B  B23  1  0.910521  0.410549  0.000000  1
  B  B24  1  0.410549  0.089479  0.000000  1
  B  B25  1  0.589451  0.910521  0.000000  1
  B  B26  1  0.000000  0.000000  0.169182  1
  B  B27  1  0.000000  0.000000  0.830818  1
  B  B28  1  0.500000  0.500000  0.831541  1
  B  B29  1  0.500000  0.500000  0.168459  1
