# generated using pymatgen
data_SrHfCr(PO4)3
_symmetry_space_group_name_H-M   'P 1'
_cell_length_a   8.60562549
_cell_length_b   8.60562458
_cell_length_c   9.18816110
_cell_angle_alpha   62.07601754
_cell_angle_beta   117.92397692
_cell_angle_gamma   120.00000080
_symmetry_Int_Tables_number   1
_chemical_formula_structural   SrHfCr(PO4)3
_chemical_formula_sum   'Sr2 Hf2 Cr2 P6 O24'
_cell_volume   495.69679782
_cell_formula_units_Z   2
loop_
 _symmetry_equiv_pos_site_id
 _symmetry_equiv_pos_as_xyz
  1  'x, y, z'
loop_
 _atom_site_type_symbol
 _atom_site_label
 _atom_site_symmetry_multiplicity
 _atom_site_fract_x
 _atom_site_fract_y
 _atom_site_fract_z
 _atom_site_occupancy
  Sr  Sr0  1  0.000000  0.000000  0.000000  1
  Sr  Sr1  1  0.500000  0.500000  0.499999  1
  Hf  Hf2  1  0.351590  0.648410  0.054769  1
  Hf  Hf3  1  0.648411  0.351589  0.945231  1
  Cr  Cr4  1  0.148890  0.851110  0.446668  1
  Cr  Cr5  1  0.851110  0.148890  0.553332  1
  P  P6  1  0.041194  0.242615  0.260420  1
  P  P7  1  0.757384  0.538159  0.260420  1
  P  P8  1  0.461840  0.958806  0.260420  1
  P  P9  1  0.538160  0.041195  0.739582  1
  P  P10  1  0.242614  0.461839  0.739582  1
  P  P11  1  0.958805  0.757383  0.739582  1
  O  O12  1  0.494518  0.115451  0.089436  1
  O  O13  1  0.884549  0.289631  0.089436  1
  O  O14  1  0.710369  0.505482  0.089436  1
  O  O15  1  0.233141  0.400246  0.236114  1
  O  O16  1  0.599756  0.596782  0.236114  1
  O  O17  1  0.403218  0.766860  0.236114  1
  O  O18  1  0.036008  0.054341  0.274513  1
  O  O19  1  0.945659  0.707155  0.274513  1
  O  O20  1  0.292846  0.963991  0.274513  1
  O  O21  1  0.023883  0.246052  0.416842  1
  O  O22  1  0.753950  0.360990  0.416842  1
  O  O23  1  0.639010  0.976117  0.416842  1
  O  O24  1  0.360990  0.023882  0.583159  1
  O  O25  1  0.246053  0.639010  0.583159  1
  O  O26  1  0.976117  0.753948  0.583159  1
  O  O27  1  0.707155  0.036008  0.725487  1
  O  O28  1  0.054341  0.292845  0.725487  1
  O  O29  1  0.963992  0.945658  0.725487  1
  O  O30  1  0.596783  0.233141  0.763886  1
  O  O31  1  0.400243  0.403216  0.763886  1
  O  O32  1  0.766861  0.599758  0.763886  1
  O  O33  1  0.289630  0.494518  0.910563  1
  O  O34  1  0.115450  0.710369  0.910563  1
  O  O35  1  0.505483  0.884551  0.910563  1
