# generated using pymatgen
data_BaPrGdSe4
_symmetry_space_group_name_H-M   'P 1'
_cell_length_a   4.31638300
_cell_length_b   13.02243700
_cell_length_c   15.49149100
_cell_angle_alpha   90.00000000
_cell_angle_beta   90.00000000
_cell_angle_gamma   90.00000000
_symmetry_Int_Tables_number   1
_chemical_formula_structural   BaPrGdSe4
_chemical_formula_sum   'Ba4 Pr4 Gd4 Se16'
_cell_volume   870.77400872
_cell_formula_units_Z   4
loop_
 _symmetry_equiv_pos_site_id
 _symmetry_equiv_pos_as_xyz
  1  'x, y, z'
loop_
 _atom_site_type_symbol
 _atom_site_label
 _atom_site_symmetry_multiplicity
 _atom_site_fract_x
 _atom_site_fract_y
 _atom_site_fract_z
 _atom_site_occupancy
  Ba  Ba0  1  0.250000  0.757892  0.337878  1
  Ba  Ba1  1  0.250000  0.257892  0.162122  1
  Ba  Ba2  1  0.750000  0.242108  0.662122  1
  Ba  Ba3  1  0.750000  0.742108  0.837878  1
  Pr  Pr4  1  0.250000  0.430420  0.389943  1
  Pr  Pr5  1  0.250000  0.930420  0.110057  1
  Pr  Pr6  1  0.750000  0.569580  0.610057  1
  Pr  Pr7  1  0.750000  0.069580  0.889943  1
  Gd  Gd8  1  0.250000  0.421715  0.900481  1
  Gd  Gd9  1  0.250000  0.921715  0.599519  1
  Gd  Gd10  1  0.750000  0.578285  0.099519  1
  Gd  Gd11  1  0.750000  0.078285  0.400481  1
  Se  Se12  1  0.250000  0.211979  0.828530  1
  Se  Se13  1  0.250000  0.711979  0.671470  1
  Se  Se14  1  0.750000  0.788021  0.171470  1
  Se  Se15  1  0.750000  0.288021  0.328530  1
  Se  Se16  1  0.250000  0.126193  0.524141  1
  Se  Se17  1  0.250000  0.626193  0.975859  1
  Se  Se18  1  0.750000  0.873807  0.475859  1
  Se  Se19  1  0.750000  0.373807  0.024141  1
  Se  Se20  1  0.250000  0.524419  0.213358  1
  Se  Se21  1  0.250000  0.024419  0.286642  1
  Se  Se22  1  0.750000  0.475581  0.786642  1
  Se  Se23  1  0.750000  0.975581  0.713358  1
  Se  Se24  1  0.250000  0.414287  0.579613  1
  Se  Se25  1  0.250000  0.914287  0.920387  1
  Se  Se26  1  0.750000  0.585713  0.420387  1
  Se  Se27  1  0.750000  0.085713  0.079613  1
