# generated using pymatgen
data_Tb13Dy3MgCo4Ag3
_symmetry_space_group_name_H-M   'P 1'
_cell_length_a   9.46372991
_cell_length_b   9.48645491
_cell_length_c   9.48645489
_cell_angle_alpha   60.29367735
_cell_angle_beta   60.27530675
_cell_angle_gamma   60.27530648
_symmetry_Int_Tables_number   1
_chemical_formula_structural   Tb13Dy3MgCo4Ag3
_chemical_formula_sum   'Tb13 Dy3 Mg1 Co4 Ag3'
_cell_volume   606.05576409
_cell_formula_units_Z   1
loop_
 _symmetry_equiv_pos_site_id
 _symmetry_equiv_pos_as_xyz
  1  'x, y, z'
loop_
 _atom_site_type_symbol
 _atom_site_label
 _atom_site_symmetry_multiplicity
 _atom_site_fract_x
 _atom_site_fract_y
 _atom_site_fract_z
 _atom_site_occupancy
  Tb  Tb0  1  0.809655  0.188457  0.188457  1
  Tb  Tb1  1  0.185550  0.813328  0.813328  1
  Tb  Tb2  1  0.185252  0.813567  0.186239  1
  Tb  Tb3  1  0.808851  0.189274  0.811325  1
  Tb  Tb4  1  0.185252  0.186239  0.813567  1
  Tb  Tb5  1  0.808851  0.811325  0.189274  1
  Tb  Tb6  1  0.934931  0.562776  0.562776  1
  Tb  Tb7  1  0.562893  0.937781  0.937781  1
  Tb  Tb8  1  0.561809  0.936990  0.562999  1
  Tb  Tb9  1  0.936758  0.562647  0.938571  1
  Tb  Tb10  1  0.561809  0.562999  0.936990  1
  Tb  Tb11  1  0.936758  0.938571  0.562647  1
  Tb  Tb12  1  0.345408  0.344981  0.344981  1
  Dy  Dy13  1  0.345576  0.345495  0.964477  1
  Dy  Dy14  1  0.345576  0.964477  0.345495  1
  Dy  Dy15  1  0.951842  0.349947  0.349947  1
  Mg  Mg16  1  0.290865  0.569662  0.569662  1
  Co  Co17  1  0.138684  0.142403  0.142403  1
  Co  Co18  1  0.139259  0.142713  0.576607  1
  Co  Co19  1  0.139259  0.576607  0.142713  1
  Co  Co20  1  0.576203  0.141668  0.141668  1
  Ag  Ag21  1  0.583277  0.583406  0.583406  1
  Ag  Ag22  1  0.582839  0.583217  0.251466  1
  Ag  Ag23  1  0.582839  0.251466  0.583217  1
