# generated using pymatgen
data_CaTmLu2(B6Os)2
_symmetry_space_group_name_H-M   'P 1'
_cell_length_a   3.60498900
_cell_length_b   9.07955570
_cell_length_c   11.47668201
_cell_angle_alpha   89.84809036
_cell_angle_beta   90.00000000
_cell_angle_gamma   90.00000000
_symmetry_Int_Tables_number   1
_chemical_formula_structural   CaTmLu2(B6Os)2
_chemical_formula_sum   'Ca2 Tm2 Lu4 B24 Os4'
_cell_volume   375.64997417
_cell_formula_units_Z   2
loop_
 _symmetry_equiv_pos_site_id
 _symmetry_equiv_pos_as_xyz
  1  'x, y, z'
loop_
 _atom_site_type_symbol
 _atom_site_label
 _atom_site_symmetry_multiplicity
 _atom_site_fract_x
 _atom_site_fract_y
 _atom_site_fract_z
 _atom_site_occupancy
  Ca  Ca0  1  0.000000  0.323150  0.414541  1
  Ca  Ca1  1  0.000000  0.676850  0.585459  1
  Tm  Tm2  1  0.000000  0.821668  0.086292  1
  Tm  Tm3  1  0.000000  0.178332  0.913708  1
  Lu  Lu4  1  0.000000  0.942777  0.370189  1
  Lu  Lu5  1  0.000000  0.057223  0.629811  1
  Lu  Lu6  1  0.000000  0.443253  0.129161  1
  Lu  Lu7  1  0.000000  0.556747  0.870839  1
  B  B8  1  0.500000  0.554491  0.431723  1
  B  B9  1  0.500000  0.445509  0.568277  1
  B  B10  1  0.500000  0.053551  0.065972  1
  B  B11  1  0.500000  0.946449  0.934028  1
  B  B12  1  0.500000  0.749857  0.417122  1
  B  B13  1  0.500000  0.250143  0.582878  1
  B  B14  1  0.500000  0.249387  0.080229  1
  B  B15  1  0.500000  0.750613  0.919771  1
  B  B16  1  0.500000  0.792760  0.263671  1
  B  B17  1  0.500000  0.207240  0.736328  1
  B  B18  1  0.500000  0.290966  0.233211  1
  B  B19  1  0.500000  0.709034  0.766790  1
  B  B20  1  0.500000  0.631440  0.183696  1
  B  B21  1  0.500000  0.368560  0.816304  1
  B  B22  1  0.500000  0.129965  0.313619  1
  B  B23  1  0.500000  0.870035  0.686381  1
  B  B24  1  0.500000  0.982113  0.211448  1
  B  B25  1  0.500000  0.017887  0.788552  1
  B  B26  1  0.500000  0.483479  0.286429  1
  B  B27  1  0.500000  0.516521  0.713571  1
  B  B28  1  0.500000  0.602440  0.028044  1
  B  B29  1  0.500000  0.397560  0.971956  1
  B  B30  1  0.500000  0.098003  0.473023  1
  B  B31  1  0.500000  0.901997  0.526977  1
  Os  Os32  1  0.000000  0.641265  0.316996  1
  Os  Os33  1  0.000000  0.358735  0.683004  1
  Os  Os34  1  0.000000  0.136742  0.177255  1
  Os  Os35  1  0.000000  0.863258  0.822745  1
