# generated using pymatgen
data_Gd6ErScO12
_symmetry_space_group_name_H-M   'P 1'
_cell_length_a   6.74505053
_cell_length_b   6.74505071
_cell_length_c   6.74505128
_cell_angle_alpha   92.51249822
_cell_angle_beta   92.51249910
_cell_angle_gamma   92.51249275
_symmetry_Int_Tables_number   1
_chemical_formula_structural   Gd6ErScO12
_chemical_formula_sum   'Gd6 Er1 Sc1 O12'
_cell_volume   305.95910195
_cell_formula_units_Z   1
loop_
 _symmetry_equiv_pos_site_id
 _symmetry_equiv_pos_as_xyz
  1  'x, y, z'
loop_
 _atom_site_type_symbol
 _atom_site_label
 _atom_site_symmetry_multiplicity
 _atom_site_fract_x
 _atom_site_fract_y
 _atom_site_fract_z
 _atom_site_occupancy
  Gd  Gd0  1  0.742900  0.930430  0.439979  1
  Gd  Gd1  1  0.439979  0.742900  0.930430  1
  Gd  Gd2  1  0.069570  0.560021  0.257100  1
  Gd  Gd3  1  0.930430  0.439979  0.742900  1
  Gd  Gd4  1  0.560021  0.257100  0.069570  1
  Gd  Gd5  1  0.257100  0.069570  0.560021  1
  Er  Er6  1  0.000000  0.000000  0.000000  1
  Sc  Sc7  1  0.500000  0.500000  0.500000  1
  O  O8  1  0.067435  0.907424  0.314007  1
  O  O9  1  0.685993  0.932565  0.092576  1
  O  O10  1  0.464489  0.802965  0.591742  1
  O  O11  1  0.092576  0.685993  0.932565  1
  O  O12  1  0.802965  0.591742  0.464489  1
  O  O13  1  0.408258  0.535511  0.197035  1
  O  O14  1  0.591742  0.464489  0.802965  1
  O  O15  1  0.197035  0.408258  0.535511  1
  O  O16  1  0.907424  0.314007  0.067435  1
  O  O17  1  0.535511  0.197035  0.408258  1
  O  O18  1  0.314007  0.067435  0.907424  1
  O  O19  1  0.932565  0.092576  0.685993  1
