# generated using pymatgen
data_Na3Ho(BO3)2
_symmetry_space_group_name_H-M   'P 1'
_cell_length_a   9.37532500
_cell_length_b   5.22861569
_cell_length_c   7.30059604
_cell_angle_alpha   57.07528298
_cell_angle_beta   90.00000000
_cell_angle_gamma   90.00000000
_symmetry_Int_Tables_number   1
_chemical_formula_structural   Na3Ho(BO3)2
_chemical_formula_sum   'Na6 Ho2 B4 O12'
_cell_volume   300.39508073
_cell_formula_units_Z   2
loop_
 _symmetry_equiv_pos_site_id
 _symmetry_equiv_pos_as_xyz
  1  'x, y, z'
loop_
 _atom_site_type_symbol
 _atom_site_label
 _atom_site_symmetry_multiplicity
 _atom_site_fract_x
 _atom_site_fract_y
 _atom_site_fract_z
 _atom_site_occupancy
  Na  Na0  1  0.500000  0.000000  0.000000  1
  Na  Na1  1  0.000000  0.000000  0.500000  1
  Na  Na2  1  0.832224  0.259179  0.734983  1
  Na  Na3  1  0.332224  0.740821  0.765017  1
  Na  Na4  1  0.167776  0.740821  0.265017  1
  Na  Na5  1  0.667776  0.259179  0.234983  1
  Ho  Ho6  1  0.500000  0.500000  0.500000  1
  Ho  Ho7  1  0.000000  0.500000  0.000000  1
  B  B8  1  0.669506  0.770009  0.741492  1
  B  B9  1  0.169506  0.229991  0.758508  1
  B  B10  1  0.330494  0.229991  0.258508  1
  B  B11  1  0.830494  0.770009  0.241492  1
  O  O12  1  0.586599  0.523921  0.782278  1
  O  O13  1  0.086599  0.476079  0.717722  1
  O  O14  1  0.413401  0.476079  0.217722  1
  O  O15  1  0.913401  0.523921  0.282278  1
  O  O16  1  0.608023  0.052523  0.662384  1
  O  O17  1  0.108023  0.947477  0.837616  1
  O  O18  1  0.391977  0.947477  0.337616  1
  O  O19  1  0.891977  0.052523  0.162384  1
  O  O20  1  0.815510  0.736927  0.779974  1
  O  O21  1  0.315510  0.263073  0.720026  1
  O  O22  1  0.184490  0.263073  0.220026  1
  O  O23  1  0.684490  0.736927  0.279974  1
