# generated using pymatgen
data_CeTm7(MgPt)2
_symmetry_space_group_name_H-M   'P 1'
_cell_length_a   9.67872876
_cell_length_b   9.67872812
_cell_length_c   9.70782500
_cell_angle_alpha   59.90050001
_cell_angle_beta   59.90050219
_cell_angle_gamma   59.78133980
_symmetry_Int_Tables_number   1
_chemical_formula_structural   CeTm7(MgPt)2
_chemical_formula_sum   'Ce2 Tm14 Mg4 Pt4'
_cell_volume   641.01485985
_cell_formula_units_Z   2
loop_
 _symmetry_equiv_pos_site_id
 _symmetry_equiv_pos_as_xyz
  1  'x, y, z'
loop_
 _atom_site_type_symbol
 _atom_site_label
 _atom_site_symmetry_multiplicity
 _atom_site_fract_x
 _atom_site_fract_y
 _atom_site_fract_z
 _atom_site_occupancy
  Ce  Ce0  1  0.349712  0.349712  0.352855  1
  Ce  Ce1  1  0.349712  0.349712  0.947721  1
  Tm  Tm2  1  0.351651  0.946996  0.350677  1
  Tm  Tm3  1  0.946996  0.351651  0.350677  1
  Tm  Tm4  1  0.811760  0.188665  0.187421  1
  Tm  Tm5  1  0.188665  0.811760  0.812154  1
  Tm  Tm6  1  0.188665  0.811760  0.187421  1
  Tm  Tm7  1  0.811760  0.188665  0.812154  1
  Tm  Tm8  1  0.186301  0.186301  0.813699  1
  Tm  Tm9  1  0.811071  0.811071  0.188929  1
  Tm  Tm10  1  0.935512  0.566481  0.566016  1
  Tm  Tm11  1  0.566481  0.935512  0.931991  1
  Tm  Tm12  1  0.566481  0.935512  0.566016  1
  Tm  Tm13  1  0.935512  0.566481  0.931991  1
  Tm  Tm14  1  0.567655  0.567655  0.932345  1
  Tm  Tm15  1  0.936015  0.936015  0.563985  1
  Mg  Mg16  1  0.581378  0.581378  0.580720  1
  Mg  Mg17  1  0.581378  0.581378  0.256525  1
  Mg  Mg18  1  0.581714  0.256896  0.580695  1
  Mg  Mg19  1  0.256896  0.581714  0.580695  1
  Pt  Pt20  1  0.140198  0.140198  0.147002  1
  Pt  Pt21  1  0.140198  0.140198  0.572603  1
  Pt  Pt22  1  0.141099  0.573186  0.142858  1
  Pt  Pt23  1  0.573186  0.141099  0.142858  1
