# generated using pymatgen
data_Dy3TmAl2
_symmetry_space_group_name_H-M   'P 1'
_cell_length_a   5.08217900
_cell_length_b   6.55459522
_cell_length_c   9.39404390
_cell_angle_alpha   90.25388920
_cell_angle_beta   90.00000000
_cell_angle_gamma   90.00000000
_symmetry_Int_Tables_number   1
_chemical_formula_structural   Dy3TmAl2
_chemical_formula_sum   'Dy6 Tm2 Al4'
_cell_volume   312.92780641
_cell_formula_units_Z   2
loop_
 _symmetry_equiv_pos_site_id
 _symmetry_equiv_pos_as_xyz
  1  'x, y, z'
loop_
 _atom_site_type_symbol
 _atom_site_label
 _atom_site_symmetry_multiplicity
 _atom_site_fract_x
 _atom_site_fract_y
 _atom_site_fract_z
 _atom_site_occupancy
  Dy  Dy0  1  0.750000  0.688799  0.427238  1
  Dy  Dy1  1  0.250000  0.311201  0.572762  1
  Dy  Dy2  1  0.750000  0.186362  0.072821  1
  Dy  Dy3  1  0.250000  0.813638  0.927179  1
  Dy  Dy4  1  0.750000  0.527983  0.789969  1
  Dy  Dy5  1  0.250000  0.472017  0.210031  1
  Tm  Tm6  1  0.750000  0.028069  0.710663  1
  Tm  Tm7  1  0.250000  0.971931  0.289337  1
  Al  Al8  1  0.750000  0.207834  0.398038  1
  Al  Al9  1  0.250000  0.792166  0.601962  1
  Al  Al10  1  0.750000  0.708952  0.102898  1
  Al  Al11  1  0.250000  0.291048  0.897102  1
