# generated using pymatgen
data_Ac4IrI5
_symmetry_space_group_name_H-M   'P 1'
_cell_length_a   4.41871700
_cell_length_b   9.71402700
_cell_length_c   20.53065900
_cell_angle_alpha   90.00000000
_cell_angle_beta   90.00000000
_cell_angle_gamma   90.00000000
_symmetry_Int_Tables_number   1
_chemical_formula_structural   Ac4IrI5
_chemical_formula_sum   'Ac8 Ir2 I10'
_cell_volume   881.24848569
_cell_formula_units_Z   2
loop_
 _symmetry_equiv_pos_site_id
 _symmetry_equiv_pos_as_xyz
  1  'x, y, z'
loop_
 _atom_site_type_symbol
 _atom_site_label
 _atom_site_symmetry_multiplicity
 _atom_site_fract_x
 _atom_site_fract_y
 _atom_site_fract_z
 _atom_site_occupancy
  Ac  Ac0  1  0.000000  0.369576  0.854013  1
  Ac  Ac1  1  0.500000  0.577407  0.000000  1
  Ac  Ac2  1  0.000000  0.369576  0.145987  1
  Ac  Ac3  1  0.000000  0.836372  0.500000  1
  Ac  Ac4  1  0.500000  0.630424  0.354013  1
  Ac  Ac5  1  0.000000  0.422593  0.500000  1
  Ac  Ac6  1  0.500000  0.630424  0.645987  1
  Ac  Ac7  1  0.500000  0.163628  0.000000  1
  Ir  Ir8  1  0.500000  0.628063  0.500000  1
  Ir  Ir9  1  0.000000  0.371937  0.000000  1
  I  I10  1  0.500000  0.111771  0.169386  1
  I  I11  1  0.000000  0.364811  0.676308  1
  I  I12  1  0.000000  0.873481  0.000000  1
  I  I13  1  0.000000  0.888229  0.330614  1
  I  I14  1  0.500000  0.111771  0.830614  1
  I  I15  1  0.500000  0.635189  0.823692  1
  I  I16  1  0.000000  0.888229  0.669386  1
  I  I17  1  0.000000  0.364811  0.323692  1
  I  I18  1  0.500000  0.635189  0.176308  1
  I  I19  1  0.500000  0.126519  0.500000  1
