# generated using pymatgen
data_Zr5Fe2Co14(MoP4)3
_symmetry_space_group_name_H-M   'P 1'
_cell_length_a   11.88977511
_cell_length_b   11.89615219
_cell_length_c   3.66104000
_cell_angle_alpha   90.00000000
_cell_angle_beta   90.00000000
_cell_angle_gamma   119.96671963
_symmetry_Int_Tables_number   1
_chemical_formula_structural   Zr5Fe2Co14(MoP4)3
_chemical_formula_sum   'Zr5 Fe2 Co14 Mo3 P12'
_cell_volume   448.60158375
_cell_formula_units_Z   1
loop_
 _symmetry_equiv_pos_site_id
 _symmetry_equiv_pos_as_xyz
  1  'x, y, z'
loop_
 _atom_site_type_symbol
 _atom_site_label
 _atom_site_symmetry_multiplicity
 _atom_site_fract_x
 _atom_site_fract_y
 _atom_site_fract_z
 _atom_site_occupancy
  Zr  Zr0  1  0.667052  0.333285  0.000000  1
  Zr  Zr1  1  0.332557  0.666569  0.000000  1
  Zr  Zr2  1  0.820867  0.821022  0.500000  1
  Zr  Zr3  1  0.179872  0.999245  0.500000  1
  Zr  Zr4  1  0.000808  0.181403  0.500000  1
  Fe  Fe5  1  0.197456  0.374317  0.000000  1
  Fe  Fe6  1  0.176795  0.802746  0.000000  1
  Co  Co7  1  0.821857  0.627190  0.000000  1
  Co  Co8  1  0.804914  0.179480  0.000000  1
  Co  Co9  1  0.373466  0.194534  0.000000  1
  Co  Co10  1  0.128198  0.484771  0.500000  1
  Co  Co11  1  0.355848  0.872015  0.500000  1
  Co  Co12  1  0.515333  0.644071  0.500000  1
  Co  Co13  1  0.645905  0.517141  0.500000  1
  Co  Co14  1  0.870972  0.354473  0.500000  1
  Co  Co15  1  0.483928  0.129499  0.500000  1
  Co  Co16  1  0.999547  0.999614  0.000000  1
  Co  Co17  1  0.719802  0.999966  0.500000  1
  Co  Co18  1  0.998185  0.718673  0.500000  1
  Co  Co19  1  0.625669  0.820921  0.000000  1
  Co  Co20  1  0.281288  0.279404  0.500000  1
  Mo  Mo21  1  0.448736  0.447796  0.000000  1
  Mo  Mo22  1  0.551408  0.000014  0.000000  1
  Mo  Mo23  1  0.998891  0.551026  0.000000  1
  P  P24  1  0.643545  0.643899  0.000000  1
  P  P25  1  0.354962  0.998000  0.000000  1
  P  P26  1  0.001758  0.356936  0.000000  1
  P  P27  1  0.481761  0.314520  0.500000  1
  P  P28  1  0.686367  0.167025  0.500000  1
  P  P29  1  0.832895  0.518318  0.500000  1
  P  P30  1  0.519187  0.832719  0.500000  1
  P  P31  1  0.167603  0.687959  0.500000  1
  P  P32  1  0.823732  0.000465  0.000000  1
  P  P33  1  0.001776  0.824607  0.000000  1
  P  P34  1  0.311749  0.479732  0.500000  1
  P  P35  1  0.175310  0.176644  0.000000  1
