# generated using pymatgen
data_Tm8Ti12Si15Ge
_symmetry_space_group_name_H-M   'P 1'
_cell_length_a   7.02962698
_cell_length_b   7.02135306
_cell_length_c   12.89584101
_cell_angle_alpha   89.99502154
_cell_angle_beta   89.94126158
_cell_angle_gamma   89.97114620
_symmetry_Int_Tables_number   1
_chemical_formula_structural   Tm8Ti12Si15Ge
_chemical_formula_sum   'Tm8 Ti12 Si15 Ge1'
_cell_volume   636.50596392
_cell_formula_units_Z   1
loop_
 _symmetry_equiv_pos_site_id
 _symmetry_equiv_pos_as_xyz
  1  'x, y, z'
loop_
 _atom_site_type_symbol
 _atom_site_label
 _atom_site_symmetry_multiplicity
 _atom_site_fract_x
 _atom_site_fract_y
 _atom_site_fract_z
 _atom_site_occupancy
  Tm  Tm0  1  0.341678  0.001325  0.465596  1
  Tm  Tm1  1  0.499081  0.840228  0.717048  1
  Tm  Tm2  1  0.502202  0.159312  0.216778  1
  Tm  Tm3  1  0.840832  0.497558  0.283193  1
  Tm  Tm4  1  0.159219  0.502923  0.783795  1
  Tm  Tm5  1  0.659919  0.997121  0.967243  1
  Tm  Tm6  1  0.000084  0.342623  0.532132  1
  Tm  Tm7  1  0.998064  0.659085  0.033464  1
  Ti  Ti8  1  0.326339  0.326567  0.000187  1
  Ti  Ti9  1  0.173545  0.826383  0.250004  1
  Ti  Ti10  1  0.823308  0.174032  0.750552  1
  Ti  Ti11  1  0.673334  0.673425  0.499942  1
  Ti  Ti12  1  0.151914  0.008237  0.877486  1
  Ti  Ti13  1  0.492243  0.651039  0.126315  1
  Ti  Ti14  1  0.509667  0.349762  0.626532  1
  Ti  Ti15  1  0.652047  0.492930  0.874213  1
  Ti  Ti16  1  0.348364  0.508201  0.373510  1
  Ti  Ti17  1  0.848291  0.992401  0.376164  1
  Ti  Ti18  1  0.008052  0.151341  0.123780  1
  Ti  Ti19  1  0.989398  0.845419  0.622588  1
  Si  Si20  1  0.368842  0.702997  0.933909  1
  Si  Si21  1  0.630497  0.297351  0.433625  1
  Si  Si22  1  0.703036  0.368834  0.066571  1
  Si  Si23  1  0.297494  0.631101  0.566238  1
  Si  Si24  1  0.797179  0.868753  0.183789  1
  Si  Si25  1  0.131084  0.202688  0.316306  1
  Si  Si26  1  0.869394  0.797776  0.816316  1
  Si  Si27  1  0.291883  0.952495  0.065271  1
  Si  Si28  1  0.547903  0.791231  0.314603  1
  Si  Si29  1  0.455587  0.208886  0.816650  1
  Si  Si30  1  0.792045  0.547198  0.685448  1
  Si  Si31  1  0.208408  0.452564  0.185230  1
  Si  Si32  1  0.707995  0.047537  0.564834  1
  Si  Si33  1  0.952742  0.291683  0.935187  1
  Si  Si34  1  0.047521  0.708867  0.434685  1
  Ge  Ge35  1  0.200807  0.130128  0.680819  1
