# generated using pymatgen
data_DyY5Te3
_symmetry_space_group_name_H-M   'P 1'
_cell_length_a   4.08351200
_cell_length_b   11.56001500
_cell_length_c   22.24689400
_cell_angle_alpha   90.00000000
_cell_angle_beta   90.00000000
_cell_angle_gamma   90.00000000
_symmetry_Int_Tables_number   1
_chemical_formula_structural   DyY5Te3
_chemical_formula_sum   'Dy4 Y20 Te12'
_cell_volume   1050.17486423
_cell_formula_units_Z   4
loop_
 _symmetry_equiv_pos_site_id
 _symmetry_equiv_pos_as_xyz
  1  'x, y, z'
loop_
 _atom_site_type_symbol
 _atom_site_label
 _atom_site_symmetry_multiplicity
 _atom_site_fract_x
 _atom_site_fract_y
 _atom_site_fract_z
 _atom_site_occupancy
  Dy  Dy0  1  0.250000  0.612850  0.983024  1
  Dy  Dy1  1  0.750000  0.387150  0.016976  1
  Dy  Dy2  1  0.750000  0.112850  0.516976  1
  Dy  Dy3  1  0.250000  0.887150  0.483024  1
  Y  Y4  1  0.250000  0.151761  0.391444  1
  Y  Y5  1  0.750000  0.848239  0.608556  1
  Y  Y6  1  0.750000  0.651761  0.108556  1
  Y  Y7  1  0.250000  0.348239  0.891444  1
  Y  Y8  1  0.250000  0.456208  0.339952  1
  Y  Y9  1  0.750000  0.543792  0.660048  1
  Y  Y10  1  0.750000  0.956208  0.160048  1
  Y  Y11  1  0.250000  0.043792  0.839952  1
  Y  Y12  1  0.250000  0.734330  0.233480  1
  Y  Y13  1  0.750000  0.265670  0.766520  1
  Y  Y14  1  0.750000  0.234330  0.266520  1
  Y  Y15  1  0.250000  0.765670  0.733480  1
  Y  Y16  1  0.250000  0.115800  0.034330  1
  Y  Y17  1  0.750000  0.884200  0.965670  1
  Y  Y18  1  0.750000  0.615800  0.465670  1
  Y  Y19  1  0.250000  0.384200  0.534330  1
  Y  Y20  1  0.250000  0.414728  0.146784  1
  Y  Y21  1  0.750000  0.585272  0.853216  1
  Y  Y22  1  0.750000  0.914728  0.353216  1
  Y  Y23  1  0.250000  0.085272  0.646784  1
  Te  Te24  1  0.250000  0.850527  0.068970  1
  Te  Te25  1  0.750000  0.149473  0.931030  1
  Te  Te26  1  0.750000  0.350527  0.431030  1
  Te  Te27  1  0.250000  0.649473  0.568970  1
  Te  Te28  1  0.250000  0.712025  0.372741  1
  Te  Te29  1  0.750000  0.287975  0.627259  1
  Te  Te30  1  0.750000  0.212025  0.127259  1
  Te  Te31  1  0.250000  0.787975  0.872741  1
  Te  Te32  1  0.250000  0.020572  0.260974  1
  Te  Te33  1  0.750000  0.979428  0.739026  1
  Te  Te34  1  0.750000  0.520572  0.239026  1
  Te  Te35  1  0.250000  0.479428  0.760974  1
