# generated using pymatgen
data_Y3ErC5
_symmetry_space_group_name_H-M   'P 1'
_cell_length_a   3.66874000
_cell_length_b   6.57950544
_cell_length_c   11.92974419
_cell_angle_alpha   90.09037948
_cell_angle_beta   90.00000000
_cell_angle_gamma   90.00000000
_symmetry_Int_Tables_number   1
_chemical_formula_structural   Y3ErC5
_chemical_formula_sum   'Y6 Er2 C10'
_cell_volume   287.96570964
_cell_formula_units_Z   2
loop_
 _symmetry_equiv_pos_site_id
 _symmetry_equiv_pos_as_xyz
  1  'x, y, z'
loop_
 _atom_site_type_symbol
 _atom_site_label
 _atom_site_symmetry_multiplicity
 _atom_site_fract_x
 _atom_site_fract_y
 _atom_site_fract_z
 _atom_site_occupancy
  Y  Y0  1  0.000000  0.750327  0.457529  1
  Y  Y1  1  0.000000  0.749461  0.955164  1
  Y  Y2  1  0.000000  0.238513  0.041693  1
  Y  Y3  1  0.500000  0.893064  0.195934  1
  Y  Y4  1  0.500000  0.604402  0.697982  1
  Y  Y5  1  0.500000  0.392054  0.304248  1
  Er  Er6  1  0.000000  0.263474  0.541972  1
  Er  Er7  1  0.500000  0.107883  0.804122  1
  C  C8  1  0.500000  0.507556  0.502135  1
  C  C9  1  0.500000  0.990019  0.998534  1
  C  C10  1  0.000000  0.360199  0.733751  1
  C  C11  1  0.000000  0.643594  0.263537  1
  C  C12  1  0.000000  0.859303  0.760764  1
  C  C13  1  0.000000  0.136030  0.236318  1
  C  C14  1  0.000000  0.382321  0.845129  1
  C  C15  1  0.000000  0.580939  0.157456  1
  C  C16  1  0.000000  0.110110  0.347255  1
  C  C17  1  0.000000  0.930754  0.656477  1
