# generated using pymatgen
data_Ac2CuNi8Ge
_symmetry_space_group_name_H-M   'P 1'
_cell_length_a   5.09895000
_cell_length_b   5.09894847
_cell_length_c   8.25746400
_cell_angle_alpha   90.00000000
_cell_angle_beta   90.00000000
_cell_angle_gamma   118.47064771
_symmetry_Int_Tables_number   1
_chemical_formula_structural   Ac2CuNi8Ge
_chemical_formula_sum   'Ac2 Cu1 Ni8 Ge1'
_cell_volume   188.72407132
_cell_formula_units_Z   1
loop_
 _symmetry_equiv_pos_site_id
 _symmetry_equiv_pos_as_xyz
  1  'x, y, z'
loop_
 _atom_site_type_symbol
 _atom_site_label
 _atom_site_symmetry_multiplicity
 _atom_site_fract_x
 _atom_site_fract_y
 _atom_site_fract_z
 _atom_site_occupancy
  Ac  Ac0  1  0.000000  0.000000  0.756875  1
  Ac  Ac1  1  0.000000  0.000000  0.243125  1
  Cu  Cu2  1  0.500000  0.500000  0.000000  1
  Ni  Ni3  1  0.668507  0.331493  0.750703  1
  Ni  Ni4  1  0.668507  0.331493  0.249297  1
  Ni  Ni5  1  0.331493  0.668507  0.750703  1
  Ni  Ni6  1  0.500000  0.000000  0.500000  1
  Ni  Ni7  1  0.000000  0.500000  0.000000  1
  Ni  Ni8  1  0.500000  0.000000  0.000000  1
  Ni  Ni9  1  0.331493  0.668507  0.249297  1
  Ni  Ni10  1  0.000000  0.500000  0.500000  1
  Ge  Ge11  1  0.500000  0.500000  0.500000  1
