# generated using pymatgen
data_Ac3Sn2IrRh2Pb
_symmetry_space_group_name_H-M   'P 1'
_cell_length_a   7.78162615
_cell_length_b   7.76087635
_cell_length_c   4.37274200
_cell_angle_alpha   90.00000000
_cell_angle_beta   90.00000000
_cell_angle_gamma   119.77477962
_symmetry_Int_Tables_number   1
_chemical_formula_structural   Ac3Sn2IrRh2Pb
_chemical_formula_sum   'Ac3 Sn2 Ir1 Rh2 Pb1'
_cell_volume   229.21696793
_cell_formula_units_Z   1
loop_
 _symmetry_equiv_pos_site_id
 _symmetry_equiv_pos_as_xyz
  1  'x, y, z'
loop_
 _atom_site_type_symbol
 _atom_site_label
 _atom_site_symmetry_multiplicity
 _atom_site_fract_x
 _atom_site_fract_y
 _atom_site_fract_z
 _atom_site_occupancy
  Ac  Ac0  1  0.998007  0.416469  0.000000  1
  Ac  Ac1  1  0.586609  0.584211  0.000000  1
  Ac  Ac2  1  0.418077  0.001207  0.000000  1
  Sn  Sn3  1  0.000434  0.755880  0.500000  1
  Sn  Sn4  1  0.754359  0.997718  0.500000  1
  Ir  Ir5  1  0.678722  0.336700  0.500000  1
  Rh  Rh6  1  0.337180  0.678378  0.500000  1
  Rh  Rh7  1  0.984577  0.984824  0.000000  1
  Pb  Pb8  1  0.242034  0.244611  0.500000  1
