# generated using pymatgen
data_K5ScS4
_symmetry_space_group_name_H-M   'P 1'
_cell_length_a   7.85077700
_cell_length_b   13.21859300
_cell_length_c   23.78835500
_cell_angle_alpha   90.00000000
_cell_angle_beta   90.00000000
_cell_angle_gamma   90.00000000
_symmetry_Int_Tables_number   1
_chemical_formula_structural   K5ScS4
_chemical_formula_sum   'K40 Sc8 S32'
_cell_volume   2468.66570219
_cell_formula_units_Z   8
loop_
 _symmetry_equiv_pos_site_id
 _symmetry_equiv_pos_as_xyz
  1  'x, y, z'
loop_
 _atom_site_type_symbol
 _atom_site_label
 _atom_site_symmetry_multiplicity
 _atom_site_fract_x
 _atom_site_fract_y
 _atom_site_fract_z
 _atom_site_occupancy
  K  K0  1  0.052776  0.287991  0.866148  1
  K  K1  1  0.112492  0.164347  0.170634  1
  K  K2  1  0.375392  0.407126  0.749546  1
  K  K3  1  0.387508  0.164347  0.670634  1
  K  K4  1  0.566537  0.941581  0.933097  1
  K  K5  1  0.908697  0.148656  0.001564  1
  K  K6  1  0.591303  0.148656  0.501564  1
  K  K7  1  0.091303  0.851344  0.998436  1
  K  K8  1  0.947224  0.712009  0.133852  1
  K  K9  1  0.887508  0.335653  0.670634  1
  K  K10  1  0.433463  0.058419  0.066903  1
  K  K11  1  0.947224  0.212009  0.366148  1
  K  K12  1  0.566537  0.441581  0.566903  1
  K  K13  1  0.875392  0.092874  0.749546  1
  K  K14  1  0.066537  0.058419  0.566903  1
  K  K15  1  0.433463  0.558419  0.433097  1
  K  K16  1  0.387508  0.664347  0.829366  1
  K  K17  1  0.447224  0.287991  0.366148  1
  K  K18  1  0.124608  0.907126  0.250454  1
  K  K19  1  0.933463  0.441581  0.066903  1
  K  K20  1  0.552776  0.712009  0.633852  1
  K  K21  1  0.591303  0.648656  0.998436  1
  K  K22  1  0.112492  0.664347  0.329366  1
  K  K23  1  0.552776  0.212009  0.866148  1
  K  K24  1  0.875392  0.592874  0.750454  1
  K  K25  1  0.624608  0.592874  0.250454  1
  K  K26  1  0.887508  0.835653  0.829366  1
  K  K27  1  0.375392  0.907126  0.750454  1
  K  K28  1  0.066537  0.558419  0.933097  1
  K  K29  1  0.408697  0.351344  0.001564  1
  K  K30  1  0.052776  0.787991  0.633852  1
  K  K31  1  0.091303  0.351344  0.501564  1
  K  K32  1  0.908697  0.648656  0.498436  1
  K  K33  1  0.124608  0.407126  0.249546  1
  K  K34  1  0.408697  0.851344  0.498436  1
  K  K35  1  0.624608  0.092874  0.249546  1
  K  K36  1  0.447224  0.787991  0.133852  1
  K  K37  1  0.612492  0.335653  0.170634  1
  K  K38  1  0.933463  0.941581  0.433097  1
  K  K39  1  0.612492  0.835653  0.329366  1
  Sc  Sc40  1  0.332263  0.540272  0.125129  1
  Sc  Sc41  1  0.332263  0.040272  0.374871  1
  Sc  Sc42  1  0.167737  0.040272  0.874871  1
  Sc  Sc43  1  0.667737  0.459728  0.874871  1
  Sc  Sc44  1  0.167737  0.540272  0.625129  1
  Sc  Sc45  1  0.832263  0.959728  0.125129  1
  Sc  Sc46  1  0.832263  0.459728  0.374871  1
  Sc  Sc47  1  0.667737  0.959728  0.625129  1
  S  S48  1  0.789580  0.872411  0.544340  1
  S  S49  1  0.250794  0.361129  0.125039  1
  S  S50  1  0.750794  0.638871  0.374961  1
  S  S51  1  0.742659  0.872289  0.210915  1
  S  S52  1  0.749206  0.638871  0.874961  1
  S  S53  1  0.640400  0.055879  0.379793  1
  S  S54  1  0.242659  0.127711  0.289085  1
  S  S55  1  0.210420  0.127589  0.455660  1
  S  S56  1  0.289580  0.627589  0.544340  1
  S  S57  1  0.789580  0.372411  0.955660  1
  S  S58  1  0.140400  0.944121  0.120207  1
  S  S59  1  0.640400  0.555879  0.120207  1
  S  S60  1  0.289580  0.127589  0.955660  1
  S  S61  1  0.250794  0.861129  0.374961  1
  S  S62  1  0.859600  0.055879  0.879793  1
  S  S63  1  0.757341  0.872289  0.710915  1
  S  S64  1  0.359600  0.444121  0.879793  1
  S  S65  1  0.749206  0.138871  0.625039  1
  S  S66  1  0.710420  0.372411  0.455660  1
  S  S67  1  0.140400  0.444121  0.379793  1
  S  S68  1  0.242659  0.627711  0.210915  1
  S  S69  1  0.859600  0.555879  0.620207  1
  S  S70  1  0.249206  0.861129  0.874961  1
  S  S71  1  0.257341  0.627711  0.710915  1
  S  S72  1  0.750794  0.138871  0.125039  1
  S  S73  1  0.710420  0.872411  0.044340  1
  S  S74  1  0.359600  0.944121  0.620207  1
  S  S75  1  0.742659  0.372289  0.289085  1
  S  S76  1  0.257341  0.127711  0.789085  1
  S  S77  1  0.249206  0.361129  0.625039  1
  S  S78  1  0.757341  0.372289  0.789085  1
  S  S79  1  0.210420  0.627589  0.044340  1
