# generated using pymatgen
data_Dy7Ho3(ReO6)4
_symmetry_space_group_name_H-M   'P 1'
_cell_length_a   5.67283200
_cell_length_b   7.54606426
_cell_length_c   12.41790072
_cell_angle_alpha   107.47870031
_cell_angle_beta   90.00000000
_cell_angle_gamma   90.00000000
_symmetry_Int_Tables_number   1
_chemical_formula_structural   Dy7Ho3(ReO6)4
_chemical_formula_sum   'Dy7 Ho3 Re4 O24'
_cell_volume   507.03621258
_cell_formula_units_Z   1
loop_
 _symmetry_equiv_pos_site_id
 _symmetry_equiv_pos_as_xyz
  1  'x, y, z'
loop_
 _atom_site_type_symbol
 _atom_site_label
 _atom_site_symmetry_multiplicity
 _atom_site_fract_x
 _atom_site_fract_y
 _atom_site_fract_z
 _atom_site_occupancy
  Dy  Dy0  1  0.750000  0.388363  0.563898  1
  Dy  Dy1  1  0.250000  0.088032  0.446204  1
  Dy  Dy2  1  0.750000  0.911432  0.553736  1
  Dy  Dy3  1  0.250000  0.889105  0.064667  1
  Dy  Dy4  1  0.750000  0.110925  0.935321  1
  Dy  Dy5  1  0.250000  0.412771  0.053156  1
  Dy  Dy6  1  0.750000  0.587312  0.946925  1
  Ho  Ho7  1  0.250000  0.611950  0.436075  1
  Ho  Ho8  1  0.250000  0.247580  0.749751  1
  Ho  Ho9  1  0.750000  0.752297  0.250285  1
  Re  Re10  1  0.464036  0.747663  0.750342  1
  Re  Re11  1  0.964109  0.252493  0.249648  1
  Re  Re12  1  0.535891  0.252493  0.249648  1
  Re  Re13  1  0.035964  0.747663  0.750342  1
  O  O14  1  0.250000  0.956294  0.752822  1
  O  O15  1  0.750000  0.043776  0.247278  1
  O  O16  1  0.501447  0.329222  0.903141  1
  O  O17  1  0.001428  0.670801  0.096865  1
  O  O18  1  0.498572  0.670801  0.096865  1
  O  O19  1  0.998553  0.329222  0.903141  1
  O  O20  1  0.250000  0.539684  0.748598  1
  O  O21  1  0.750000  0.460312  0.251307  1
  O  O22  1  0.250000  0.076107  0.250560  1
  O  O23  1  0.750000  0.923906  0.749371  1
  O  O24  1  0.502925  0.828464  0.915598  1
  O  O25  1  0.003018  0.171576  0.084365  1
  O  O26  1  0.496982  0.171576  0.084365  1
  O  O27  1  0.997075  0.828464  0.915598  1
  O  O28  1  0.501376  0.169251  0.595998  1
  O  O29  1  0.001940  0.829684  0.403995  1
  O  O30  1  0.498060  0.829684  0.403995  1
  O  O31  1  0.998624  0.169251  0.595998  1
  O  O32  1  0.501764  0.668633  0.584983  1
  O  O33  1  0.003040  0.331946  0.414876  1
  O  O34  1  0.496960  0.331946  0.414876  1
  O  O35  1  0.998236  0.668633  0.584983  1
  O  O36  1  0.250000  0.429486  0.249539  1
  O  O37  1  0.750000  0.571203  0.750882  1
