# generated using pymatgen
data_TbEr3(CuPd)2
_symmetry_space_group_name_H-M   'P 1'
_cell_length_a   4.48118800
_cell_length_b   5.49301480
_cell_length_c   7.11760112
_cell_angle_alpha   90.20754423
_cell_angle_beta   90.00000000
_cell_angle_gamma   90.00000000
_symmetry_Int_Tables_number   1
_chemical_formula_structural   TbEr3(CuPd)2
_chemical_formula_sum   'Tb1 Er3 Cu2 Pd2'
_cell_volume   175.20025344
_cell_formula_units_Z   1
loop_
 _symmetry_equiv_pos_site_id
 _symmetry_equiv_pos_as_xyz
  1  'x, y, z'
loop_
 _atom_site_type_symbol
 _atom_site_label
 _atom_site_symmetry_multiplicity
 _atom_site_fract_x
 _atom_site_fract_y
 _atom_site_fract_z
 _atom_site_occupancy
  Tb  Tb0  1  0.500000  0.608012  0.816282  1
  Er  Er1  1  0.000000  0.113899  0.683568  1
  Er  Er2  1  0.000000  0.886932  0.184427  1
  Er  Er3  1  0.500000  0.392560  0.316368  1
  Cu  Cu4  1  0.500000  0.894439  0.462271  1
  Cu  Cu5  1  0.500000  0.106394  0.965180  1
  Pd  Pd6  1  0.000000  0.614354  0.532779  1
  Pd  Pd7  1  0.000000  0.383410  0.039128  1
