# generated using pymatgen
data_LiLa2ZnSi4
_symmetry_space_group_name_H-M   'P 1'
_cell_length_a   8.94880459
_cell_length_b   8.94880530
_cell_length_c   4.29256400
_cell_angle_alpha   90.00000000
_cell_angle_beta   90.00000000
_cell_angle_gamma   152.30941254
_symmetry_Int_Tables_number   1
_chemical_formula_structural   LiLa2ZnSi4
_chemical_formula_sum   'Li1 La2 Zn1 Si4'
_cell_volume   159.74098062
_cell_formula_units_Z   1
loop_
 _symmetry_equiv_pos_site_id
 _symmetry_equiv_pos_as_xyz
  1  'x, y, z'
loop_
 _atom_site_type_symbol
 _atom_site_label
 _atom_site_symmetry_multiplicity
 _atom_site_fract_x
 _atom_site_fract_y
 _atom_site_fract_z
 _atom_site_occupancy
  Li  Li0  1  0.249769  0.750231  0.250000  1
  La  La1  1  0.599352  0.400648  0.250000  1
  La  La2  1  0.401864  0.598136  0.750000  1
  Zn  Zn3  1  0.749644  0.250356  0.750000  1
  Si  Si4  1  0.969326  0.030674  0.250000  1
  Si  Si5  1  0.030977  0.969023  0.750000  1
  Si  Si6  1  0.833139  0.166861  0.250000  1
  Si  Si7  1  0.165930  0.834070  0.750000  1
