# generated using pymatgen
data_Zr2Mn3Os
_symmetry_space_group_name_H-M   'P 1'
_cell_length_a   5.04059400
_cell_length_b   5.03991762
_cell_length_c   8.36303100
_cell_angle_alpha   90.00000000
_cell_angle_beta   90.00000000
_cell_angle_gamma   120.00442641
_symmetry_Int_Tables_number   1
_chemical_formula_structural   Zr2Mn3Os
_chemical_formula_sum   'Zr4 Mn6 Os2'
_cell_volume   183.98402753
_cell_formula_units_Z   2
loop_
 _symmetry_equiv_pos_site_id
 _symmetry_equiv_pos_as_xyz
  1  'x, y, z'
loop_
 _atom_site_type_symbol
 _atom_site_label
 _atom_site_symmetry_multiplicity
 _atom_site_fract_x
 _atom_site_fract_y
 _atom_site_fract_z
 _atom_site_occupancy
  Zr  Zr0  1  0.333326  0.666651  0.063355  1
  Zr  Zr1  1  0.333326  0.666651  0.436645  1
  Zr  Zr2  1  0.666673  0.333348  0.563355  1
  Zr  Zr3  1  0.666673  0.333348  0.936645  1
  Mn  Mn4  1  0.342831  0.171423  0.250001  1
  Mn  Mn5  1  0.828593  0.171423  0.250001  1
  Mn  Mn6  1  0.828579  0.657159  0.250001  1
  Mn  Mn7  1  0.171420  0.342840  0.750001  1
  Mn  Mn8  1  0.171406  0.828576  0.750001  1
  Mn  Mn9  1  0.657170  0.828576  0.750001  1
  Os  Os10  1  0.000000  0.000000  0.000000  1
  Os  Os11  1  0.000000  0.000000  0.500000  1
