# generated using pymatgen
data_Dy3PaRh4
_symmetry_space_group_name_H-M   'P 1'
_cell_length_a   4.40051400
_cell_length_b   5.58490469
_cell_length_c   6.94414316
_cell_angle_alpha   91.71184086
_cell_angle_beta   90.00000000
_cell_angle_gamma   90.00000000
_symmetry_Int_Tables_number   1
_chemical_formula_structural   Dy3PaRh4
_chemical_formula_sum   'Dy3 Pa1 Rh4'
_cell_volume   170.58623069
_cell_formula_units_Z   1
loop_
 _symmetry_equiv_pos_site_id
 _symmetry_equiv_pos_as_xyz
  1  'x, y, z'
loop_
 _atom_site_type_symbol
 _atom_site_label
 _atom_site_symmetry_multiplicity
 _atom_site_fract_x
 _atom_site_fract_y
 _atom_site_fract_z
 _atom_site_occupancy
  Dy  Dy0  1  0.750000  0.642545  0.314070  1
  Dy  Dy1  1  0.750000  0.854744  0.824090  1
  Dy  Dy2  1  0.250000  0.141998  0.185619  1
  Pa  Pa3  1  0.250000  0.370234  0.683031  1
  Rh  Rh4  1  0.250000  0.828108  0.552767  1
  Rh  Rh5  1  0.750000  0.174775  0.487315  1
  Rh  Rh6  1  0.750000  0.340278  0.920761  1
  Rh  Rh7  1  0.250000  0.647318  0.032347  1
