# generated using pymatgen
data_Er3Ga2Co5(NiB)4
_symmetry_space_group_name_H-M   'P 1'
_cell_length_a   5.11355111
_cell_length_b   5.11173133
_cell_length_c   9.63647400
_cell_angle_alpha   90.00000000
_cell_angle_beta   90.00000000
_cell_angle_gamma   119.98822818
_symmetry_Int_Tables_number   1
_chemical_formula_structural   Er3Ga2Co5(NiB)4
_chemical_formula_sum   'Er3 Ga2 Co5 Ni4 B4'
_cell_volume   218.16792971
_cell_formula_units_Z   1
loop_
 _symmetry_equiv_pos_site_id
 _symmetry_equiv_pos_as_xyz
  1  'x, y, z'
loop_
 _atom_site_type_symbol
 _atom_site_label
 _atom_site_symmetry_multiplicity
 _atom_site_fract_x
 _atom_site_fract_y
 _atom_site_fract_z
 _atom_site_occupancy
  Er  Er0  1  0.000000  0.000000  0.000000  1
  Er  Er1  1  0.000000  0.000000  0.657518  1
  Er  Er2  1  0.000000  0.000000  0.342482  1
  Ga  Ga3  1  0.673278  0.336638  0.000000  1
  Ga  Ga4  1  0.326722  0.663362  0.000000  1
  Co  Co5  1  0.500000  0.500000  0.500000  1
  Co  Co6  1  0.500000  0.000000  0.500000  1
  Co  Co7  1  0.000000  0.500000  0.500000  1
  Co  Co8  1  0.000000  0.500000  0.790065  1
  Co  Co9  1  0.000000  0.500000  0.209935  1
  Ni  Ni10  1  0.500000  0.500000  0.794658  1
  Ni  Ni11  1  0.500000  0.000000  0.794658  1
  Ni  Ni12  1  0.500000  0.500000  0.205342  1
  Ni  Ni13  1  0.500000  0.000000  0.205342  1
  B  B14  1  0.668196  0.334097  0.649198  1
  B  B15  1  0.331804  0.665903  0.649198  1
  B  B16  1  0.331804  0.665903  0.350802  1
  B  B17  1  0.668196  0.334097  0.350802  1
