# generated using pymatgen
data_Dy5In4IrPt
_symmetry_space_group_name_H-M   'P 1'
_cell_length_a   3.63568600
_cell_length_b   8.12845760
_cell_length_c   18.27075836
_cell_angle_alpha   89.95581648
_cell_angle_beta   90.00000000
_cell_angle_gamma   90.00000000
_symmetry_Int_Tables_number   1
_chemical_formula_structural   Dy5In4IrPt
_chemical_formula_sum   'Dy10 In8 Ir2 Pt2'
_cell_volume   539.94678236
_cell_formula_units_Z   2
loop_
 _symmetry_equiv_pos_site_id
 _symmetry_equiv_pos_as_xyz
  1  'x, y, z'
loop_
 _atom_site_type_symbol
 _atom_site_label
 _atom_site_symmetry_multiplicity
 _atom_site_fract_x
 _atom_site_fract_y
 _atom_site_fract_z
 _atom_site_occupancy
  Dy  Dy0  1  0.000000  0.115273  0.412109  1
  Dy  Dy1  1  0.000000  0.884727  0.587891  1
  Dy  Dy2  1  0.000000  0.383106  0.913879  1
  Dy  Dy3  1  0.000000  0.616894  0.086121  1
  Dy  Dy4  1  0.000000  0.237154  0.222033  1
  Dy  Dy5  1  0.000000  0.762846  0.777967  1
  Dy  Dy6  1  0.000000  0.248614  0.720620  1
  Dy  Dy7  1  0.000000  0.751386  0.279380  1
  Dy  Dy8  1  0.000000  0.000000  0.000000  1
  Dy  Dy9  1  0.000000  0.500000  0.500000  1
  In  In10  1  0.500000  0.424848  0.351465  1
  In  In11  1  0.500000  0.575152  0.648535  1
  In  In12  1  0.500000  0.072377  0.851074  1
  In  In13  1  0.500000  0.927623  0.148926  1
  In  In14  1  0.500000  0.292082  0.066806  1
  In  In15  1  0.500000  0.707918  0.933194  1
  In  In16  1  0.500000  0.206848  0.567955  1
  In  In17  1  0.500000  0.793152  0.432045  1
  Ir  Ir18  1  0.500000  0.021283  0.303889  1
  Ir  Ir19  1  0.500000  0.978717  0.696111  1
  Pt  Pt20  1  0.500000  0.477627  0.803352  1
  Pt  Pt21  1  0.500000  0.522373  0.196648  1
