# generated using pymatgen
data_Zr5Co16Si9(TcP)3
_symmetry_space_group_name_H-M   'P 1'
_cell_length_a   12.01609000
_cell_length_b   12.01609070
_cell_length_c   3.68006900
_cell_angle_alpha   90.00000000
_cell_angle_beta   90.00000000
_cell_angle_gamma   119.99999808
_symmetry_Int_Tables_number   1
_chemical_formula_structural   Zr5Co16Si9(TcP)3
_chemical_formula_sum   'Zr5 Co16 Si9 Tc3 P3'
_cell_volume   460.16435228
_cell_formula_units_Z   1
loop_
 _symmetry_equiv_pos_site_id
 _symmetry_equiv_pos_as_xyz
  1  'x, y, z'
loop_
 _atom_site_type_symbol
 _atom_site_label
 _atom_site_symmetry_multiplicity
 _atom_site_fract_x
 _atom_site_fract_y
 _atom_site_fract_z
 _atom_site_occupancy
  Zr  Zr0  1  0.666667  0.333333  0.000000  1
  Zr  Zr1  1  0.333333  0.666667  0.000000  1
  Zr  Zr2  1  0.815904  0.815904  0.500000  1
  Zr  Zr3  1  0.184096  0.000000  0.500000  1
  Zr  Zr4  1  0.000000  0.184096  0.500000  1
  Co  Co5  1  0.195513  0.369770  0.000000  1
  Co  Co6  1  0.174257  0.804487  0.000000  1
  Co  Co7  1  0.825743  0.630230  0.000000  1
  Co  Co8  1  0.804487  0.174257  0.000000  1
  Co  Co9  1  0.369770  0.195513  0.000000  1
  Co  Co10  1  0.125401  0.477708  0.500000  1
  Co  Co11  1  0.352307  0.874599  0.500000  1
  Co  Co12  1  0.522292  0.647693  0.500000  1
  Co  Co13  1  0.647693  0.522292  0.500000  1
  Co  Co14  1  0.874599  0.352307  0.500000  1
  Co  Co15  1  0.477708  0.125401  0.500000  1
  Co  Co16  1  0.000000  0.000000  0.000000  1
  Co  Co17  1  0.726381  0.000000  0.500000  1
  Co  Co18  1  0.000000  0.726381  0.500000  1
  Co  Co19  1  0.630230  0.825743  0.000000  1
  Co  Co20  1  0.273619  0.273619  0.500000  1
  Si  Si21  1  0.639755  0.639755  0.000000  1
  Si  Si22  1  0.360245  0.000000  0.000000  1
  Si  Si23  1  0.000000  0.360245  0.000000  1
  Si  Si24  1  0.481168  0.317228  0.500000  1
  Si  Si25  1  0.682772  0.163941  0.500000  1
  Si  Si26  1  0.836059  0.518832  0.500000  1
  Si  Si27  1  0.518832  0.836059  0.500000  1
  Si  Si28  1  0.163941  0.682772  0.500000  1
  Si  Si29  1  0.317228  0.481168  0.500000  1
  Tc  Tc30  1  0.443071  0.443071  0.000000  1
  Tc  Tc31  1  0.556929  0.000000  0.000000  1
  Tc  Tc32  1  0.000000  0.556929  0.000000  1
  P  P33  1  0.823602  0.000000  0.000000  1
  P  P34  1  0.000000  0.823602  0.000000  1
  P  P35  1  0.176398  0.176398  0.000000  1
