# generated using pymatgen
data_Y3Mg(Pd2Au)4
_symmetry_space_group_name_H-M   'P 1'
_cell_length_a   5.98594700
_cell_length_b   5.96128000
_cell_length_c   7.98509700
_cell_angle_alpha   90.00003845
_cell_angle_beta   90.00055516
_cell_angle_gamma   89.99998078
_symmetry_Int_Tables_number   1
_chemical_formula_structural   Y3Mg(Pd2Au)4
_chemical_formula_sum   'Y3 Mg1 Pd8 Au4'
_cell_volume   284.93945180
_cell_formula_units_Z   1
loop_
 _symmetry_equiv_pos_site_id
 _symmetry_equiv_pos_as_xyz
  1  'x, y, z'
loop_
 _atom_site_type_symbol
 _atom_site_label
 _atom_site_symmetry_multiplicity
 _atom_site_fract_x
 _atom_site_fract_y
 _atom_site_fract_z
 _atom_site_occupancy
  Y  Y0  1  0.250436  0.249997  0.999994  1
  Y  Y1  1  0.749547  0.750004  0.000009  1
  Y  Y2  1  0.750455  0.750003  0.499992  1
  Mg  Mg3  1  0.249068  0.250001  0.500015  1
  Pd  Pd4  1  0.003075  0.002932  0.253433  1
  Pd  Pd5  1  0.003073  0.497087  0.253435  1
  Pd  Pd6  1  0.497124  0.003061  0.254249  1
  Pd  Pd7  1  0.497111  0.496914  0.254238  1
  Pd  Pd8  1  0.496881  0.003049  0.745727  1
  Pd  Pd9  1  0.496882  0.496961  0.745732  1
  Pd  Pd10  1  0.002856  0.002908  0.746585  1
  Pd  Pd11  1  0.002840  0.497087  0.746573  1
  Au  Au12  1  0.749945  0.250000  0.000003  1
  Au  Au13  1  0.250081  0.749999  0.000006  1
  Au  Au14  1  0.249870  0.749999  0.499999  1
  Au  Au15  1  0.750753  0.250001  0.500008  1
