# generated using pymatgen
data_TmNb4(Re7Tc)3
_symmetry_space_group_name_H-M   'P 1'
_cell_length_a   8.42229138
_cell_length_b   8.42440492
_cell_length_c   8.42147000
_cell_angle_alpha   109.50354155
_cell_angle_beta   109.44956494
_cell_angle_gamma   109.46367761
_symmetry_Int_Tables_number   1
_chemical_formula_structural   TmNb4(Re7Tc)3
_chemical_formula_sum   'Tm1 Nb4 Re21 Tc3'
_cell_volume   459.95855106
_cell_formula_units_Z   1
loop_
 _symmetry_equiv_pos_site_id
 _symmetry_equiv_pos_as_xyz
  1  'x, y, z'
loop_
 _atom_site_type_symbol
 _atom_site_label
 _atom_site_symmetry_multiplicity
 _atom_site_fract_x
 _atom_site_fract_y
 _atom_site_fract_z
 _atom_site_occupancy
  Tm  Tm0  1  0.999959  0.999797  0.000183  1
  Nb  Nb1  1  0.370840  0.370960  0.371799  1
  Nb  Nb2  1  0.000019  0.628718  0.999174  1
  Nb  Nb3  1  0.629150  0.000022  0.000830  1
  Nb  Nb4  1  0.000090  0.000369  0.629808  1
  Re  Re5  1  0.317963  0.717861  0.318215  1
  Re  Re6  1  0.681384  0.001201  0.400072  1
  Re  Re7  1  0.999985  0.682369  0.400349  1
  Re  Re8  1  0.599419  0.599751  0.280778  1
  Re  Re9  1  0.804457  0.804751  0.182196  1
  Re  Re10  1  0.377538  0.195058  0.999875  1
  Re  Re11  1  0.195172  0.377037  0.000070  1
  Re  Re12  1  0.622680  0.817698  0.622514  1
  Re  Re13  1  0.376945  0.999862  0.195097  1
  Re  Re14  1  0.000080  0.377501  0.196274  1
  Re  Re15  1  0.817489  0.621267  0.620628  1
  Re  Re16  1  0.182484  0.803821  0.803213  1
  Re  Re17  1  0.804614  0.181701  0.804735  1
  Re  Re18  1  0.195468  0.000324  0.377645  1
  Re  Re19  1  0.000052  0.195421  0.379914  1
  Re  Re20  1  0.623036  0.622966  0.818104  1
  Re  Re21  1  0.400732  0.000531  0.681536  1
  Re  Re22  1  0.601074  0.281664  0.599874  1
  Re  Re23  1  0.681987  0.399890  0.000246  1
  Re  Re24  1  0.398851  0.680595  0.998677  1
  Re  Re25  1  0.318598  0.319967  0.718720  1
  Tc  Tc26  1  0.999666  0.400647  0.683340  1
  Tc  Tc27  1  0.282491  0.600339  0.599295  1
  Tc  Tc28  1  0.717776  0.317914  0.316842  1
