# generated using pymatgen
data_Tc2NO3
_symmetry_space_group_name_H-M   'P 1'
_cell_length_a   5.71420263
_cell_length_b   4.84186056
_cell_length_c   5.57258845
_cell_angle_alpha   89.96136944
_cell_angle_beta   121.50957336
_cell_angle_gamma   89.99124157
_symmetry_Int_Tables_number   1
_chemical_formula_structural   Tc2NO3
_chemical_formula_sum   'Tc4 N2 O6'
_cell_volume   131.44559025
_cell_formula_units_Z   2
loop_
 _symmetry_equiv_pos_site_id
 _symmetry_equiv_pos_as_xyz
  1  'x, y, z'
loop_
 _atom_site_type_symbol
 _atom_site_label
 _atom_site_symmetry_multiplicity
 _atom_site_fract_x
 _atom_site_fract_y
 _atom_site_fract_z
 _atom_site_occupancy
  Tc  Tc0  1  0.274125  0.992698  0.996560  1
  Tc  Tc1  1  0.726006  0.492680  0.503393  1
  Tc  Tc2  1  0.734282  0.996640  0.019334  1
  Tc  Tc3  1  0.265637  0.496594  0.480837  1
  N  N4  1  0.388679  0.706888  0.265454  1
  N  N5  1  0.611292  0.206801  0.234480  1
  O  O6  1  0.605371  0.290927  0.732338  1
  O  O7  1  0.394617  0.790902  0.767677  1
  O  O8  1  0.106563  0.193551  0.199499  1
  O  O9  1  0.893490  0.693573  0.300499  1
  O  O10  1  0.893271  0.819372  0.803310  1
  O  O11  1  0.106670  0.319381  0.696628  1
