# generated using pymatgen
data_NaTe7Mo6
_symmetry_space_group_name_H-M   'P 1'
_cell_length_a   10.40045362
_cell_length_b   10.40045340
_cell_length_c   10.40045325
_cell_angle_alpha   58.50193273
_cell_angle_beta   58.50193719
_cell_angle_gamma   58.50193562
_symmetry_Int_Tables_number   1
_chemical_formula_structural   NaTe7Mo6
_chemical_formula_sum   'Na2 Te14 Mo12'
_cell_volume   768.24179226
_cell_formula_units_Z   2
loop_
 _symmetry_equiv_pos_site_id
 _symmetry_equiv_pos_as_xyz
  1  'x, y, z'
loop_
 _atom_site_type_symbol
 _atom_site_label
 _atom_site_symmetry_multiplicity
 _atom_site_fract_x
 _atom_site_fract_y
 _atom_site_fract_z
 _atom_site_occupancy
  Na  Na0  1  0.620196  0.620196  0.620196  1
  Na  Na1  1  0.379805  0.379805  0.379805  1
  Te  Te2  1  0.428718  0.789732  0.167564  1
  Te  Te3  1  0.167564  0.428718  0.789732  1
  Te  Te4  1  0.789732  0.167564  0.428718  1
  Te  Te5  1  0.571282  0.210268  0.832436  1
  Te  Te6  1  0.832436  0.571282  0.210268  1
  Te  Te7  1  0.210268  0.832436  0.571282  1
  Te  Te8  1  0.624427  0.971893  0.263792  1
  Te  Te9  1  0.263792  0.624427  0.971893  1
  Te  Te10  1  0.971893  0.263792  0.624427  1
  Te  Te11  1  0.375573  0.028107  0.736208  1
  Te  Te12  1  0.736208  0.375573  0.028107  1
  Te  Te13  1  0.028107  0.736208  0.375573  1
  Te  Te14  1  0.776712  0.776712  0.776712  1
  Te  Te15  1  0.223288  0.223288  0.223288  1
  Mo  Mo16  1  0.705848  0.883820  0.005097  1
  Mo  Mo17  1  0.005097  0.705848  0.883820  1
  Mo  Mo18  1  0.883820  0.005097  0.705848  1
  Mo  Mo19  1  0.294152  0.116180  0.994903  1
  Mo  Mo20  1  0.994903  0.294152  0.116180  1
  Mo  Mo21  1  0.116180  0.994903  0.294152  1
  Mo  Mo22  1  0.947113  0.808184  0.112545  1
  Mo  Mo23  1  0.112545  0.947113  0.808184  1
  Mo  Mo24  1  0.808184  0.112545  0.947113  1
  Mo  Mo25  1  0.052887  0.191816  0.887455  1
  Mo  Mo26  1  0.887455  0.052887  0.191816  1
  Mo  Mo27  1  0.191816  0.887455  0.052887  1
