# generated using pymatgen
data_BeNb10Si2P3
_symmetry_space_group_name_H-M   'P 1'
_cell_length_a   7.50155817
_cell_length_b   7.50155877
_cell_length_c   7.45930436
_cell_angle_alpha   128.18474594
_cell_angle_beta   128.18474512
_cell_angle_gamma   76.73624207
_symmetry_Int_Tables_number   1
_chemical_formula_structural   BeNb10Si2P3
_chemical_formula_sum   'Be1 Nb10 Si2 P3'
_cell_volume   251.29072742
_cell_formula_units_Z   1
loop_
 _symmetry_equiv_pos_site_id
 _symmetry_equiv_pos_as_xyz
  1  'x, y, z'
loop_
 _atom_site_type_symbol
 _atom_site_label
 _atom_site_symmetry_multiplicity
 _atom_site_fract_x
 _atom_site_fract_y
 _atom_site_fract_z
 _atom_site_occupancy
  Be  Be0  1  0.125170  0.625170  0.750341  1
  Nb  Nb1  1  0.018131  0.191558  0.503187  1
  Nb  Nb2  1  0.519520  0.019520  0.829572  1
  Nb  Nb3  1  0.187520  0.687520  0.163379  1
  Nb  Nb4  1  0.475859  0.975859  0.163379  1
  Nb  Nb5  1  0.691558  0.518131  0.503187  1
  Nb  Nb6  1  0.985055  0.811629  0.503187  1
  Nb  Nb7  1  0.311629  0.485055  0.503187  1
  Nb  Nb8  1  0.810051  0.310051  0.829572  1
  Nb  Nb9  1  0.498556  0.499885  0.998441  1
  Nb  Nb10  1  0.999885  0.998556  0.998441  1
  Si  Si11  1  0.750377  0.750377  0.000753  1
  Si  Si12  1  0.250377  0.250377  0.000753  1
  P  P13  1  0.634384  0.862066  0.496450  1
  P  P14  1  0.362066  0.134384  0.496450  1
  P  P15  1  0.879861  0.379861  0.259722  1
