# generated using pymatgen
data_CaTb2Yb(Ga2Ag)4
_symmetry_space_group_name_H-M   'P 1'
_cell_length_a   4.36315200
_cell_length_b   7.00295093
_cell_length_c   10.41509175
_cell_angle_alpha   90.13093644
_cell_angle_beta   90.00000000
_cell_angle_gamma   90.00000000
_symmetry_Int_Tables_number   1
_chemical_formula_structural   CaTb2Yb(Ga2Ag)4
_chemical_formula_sum   'Ca1 Tb2 Yb1 Ga8 Ag4'
_cell_volume   318.23166600
_cell_formula_units_Z   1
loop_
 _symmetry_equiv_pos_site_id
 _symmetry_equiv_pos_as_xyz
  1  'x, y, z'
loop_
 _atom_site_type_symbol
 _atom_site_label
 _atom_site_symmetry_multiplicity
 _atom_site_fract_x
 _atom_site_fract_y
 _atom_site_fract_z
 _atom_site_occupancy
  Ca  Ca0  1  0.250000  0.275858  0.673912  1
  Tb  Tb1  1  0.750000  0.220144  0.170334  1
  Tb  Tb2  1  0.750000  0.719464  0.328654  1
  Yb  Yb3  1  0.250000  0.775949  0.828334  1
  Ga  Ga4  1  0.250000  0.924788  0.155271  1
  Ga  Ga5  1  0.750000  0.071732  0.851524  1
  Ga  Ga6  1  0.750000  0.576291  0.649912  1
  Ga  Ga7  1  0.250000  0.425525  0.343665  1
  Ga  Ga8  1  0.250000  0.703832  0.534243  1
  Ga  Ga9  1  0.750000  0.297588  0.463492  1
  Ga  Ga10  1  0.750000  0.798540  0.035105  1
  Ga  Ga11  1  0.250000  0.202784  0.966456  1
  Ag  Ag12  1  0.250000  0.544654  0.097670  1
  Ag  Ag13  1  0.750000  0.460833  0.901083  1
  Ag  Ag14  1  0.750000  0.958355  0.599443  1
  Ag  Ag15  1  0.250000  0.043664  0.400905  1
