# generated using pymatgen
data_La5Pr4Nd(Ga2Ru3)2
_symmetry_space_group_name_H-M   'P 1'
_cell_length_a   8.55698842
_cell_length_b   8.55698673
_cell_length_c   8.63454853
_cell_angle_alpha   109.48515956
_cell_angle_beta   109.40841616
_cell_angle_gamma   109.15362785
_symmetry_Int_Tables_number   1
_chemical_formula_structural   La5Pr4Nd(Ga2Ru3)2
_chemical_formula_sum   'La5 Pr4 Nd1 Ga4 Ru6'
_cell_volume   488.88336142
_cell_formula_units_Z   1
loop_
 _symmetry_equiv_pos_site_id
 _symmetry_equiv_pos_as_xyz
  1  'x, y, z'
loop_
 _atom_site_type_symbol
 _atom_site_label
 _atom_site_symmetry_multiplicity
 _atom_site_fract_x
 _atom_site_fract_y
 _atom_site_fract_z
 _atom_site_occupancy
  La  La0  1  0.254071  0.693710  0.443397  1
  La  La1  1  0.750314  0.810675  0.056603  1
  La  La2  1  0.442279  0.249836  0.689989  1
  La  La3  1  0.691815  0.441815  0.250000  1
  La  La4  1  0.059847  0.752290  0.810011  1
  Pr  Pr5  1  0.217889  0.221196  0.219816  1
  Pr  Pr6  1  0.501379  0.998073  0.280184  1
  Pr  Pr7  1  0.280117  0.497761  0.996976  1
  Pr  Pr8  1  0.000785  0.283141  0.503024  1
  Nd  Nd9  1  0.813273  0.063273  0.750000  1
  Ga  Ga10  1  0.588311  0.587743  0.585972  1
  Ga  Ga11  1  0.501771  0.002340  0.914028  1
  Ga  Ga12  1  0.917605  0.498531  0.001041  1
  Ga  Ga13  1  0.997489  0.916563  0.498959  1
  Ru  Ru14  1  0.243197  0.113522  0.865138  1
  Ru  Ru15  1  0.748384  0.378059  0.634862  1
  Ru  Ru16  1  0.865051  0.254270  0.127091  1
  Ru  Ru17  1  0.116955  0.866954  0.250000  1
  Ru  Ru18  1  0.627179  0.737960  0.372909  1
  Ru  Ru19  1  0.382288  0.632288  0.750000  1
