# generated using pymatgen
data_Tb2Ho3GaSiB8
_symmetry_space_group_name_H-M   'P 1'
_cell_length_a   7.24385455
_cell_length_b   7.24385534
_cell_length_c   8.14139100
_cell_angle_alpha   90.00000000
_cell_angle_beta   90.00000000
_cell_angle_gamma   89.75880436
_symmetry_Int_Tables_number   1
_chemical_formula_structural   Tb2Ho3GaSiB8
_chemical_formula_sum   'Tb4 Ho6 Ga2 Si2 B16'
_cell_volume   427.20296169
_cell_formula_units_Z   2
loop_
 _symmetry_equiv_pos_site_id
 _symmetry_equiv_pos_as_xyz
  1  'x, y, z'
loop_
 _atom_site_type_symbol
 _atom_site_label
 _atom_site_symmetry_multiplicity
 _atom_site_fract_x
 _atom_site_fract_y
 _atom_site_fract_z
 _atom_site_occupancy
  Tb  Tb0  1  0.679461  0.179461  0.224538  1
  Tb  Tb1  1  0.320539  0.820539  0.775462  1
  Tb  Tb2  1  0.320539  0.820539  0.224538  1
  Tb  Tb3  1  0.679461  0.179461  0.775462  1
  Ho  Ho4  1  0.815612  0.684388  0.218257  1
  Ho  Ho5  1  0.815612  0.684388  0.781743  1
  Ho  Ho6  1  0.184388  0.315612  0.781743  1
  Ho  Ho7  1  0.184388  0.315612  0.218257  1
  Ho  Ho8  1  0.000000  0.000000  0.500000  1
  Ho  Ho9  1  0.500000  0.500000  0.500000  1
  Ga  Ga10  1  0.117119  0.617119  0.500000  1
  Ga  Ga11  1  0.882881  0.382881  0.500000  1
  Si  Si12  1  0.383786  0.116214  0.500000  1
  Si  Si13  1  0.616214  0.883786  0.500000  1
  B  B14  1  0.171469  0.039657  0.000000  1
  B  B15  1  0.828531  0.960343  0.000000  1
  B  B16  1  0.959931  0.171917  0.000000  1
  B  B17  1  0.328083  0.540069  0.000000  1
  B  B18  1  0.040069  0.828083  0.000000  1
  B  B19  1  0.671917  0.459931  0.000000  1
  B  B20  1  0.539657  0.671469  0.000000  1
  B  B21  1  0.460343  0.328531  0.000000  1
  B  B22  1  0.090512  0.590512  0.000000  1
  B  B23  1  0.909488  0.409488  0.000000  1
  B  B24  1  0.408284  0.091716  0.000000  1
  B  B25  1  0.591716  0.908284  0.000000  1
  B  B26  1  0.000000  0.000000  0.162061  1
  B  B27  1  0.000000  0.000000  0.837939  1
  B  B28  1  0.500000  0.500000  0.837939  1
  B  B29  1  0.500000  0.500000  0.162061  1
