# generated using pymatgen
data_Tb20IrRu7Au4
_symmetry_space_group_name_H-M   'P 1'
_cell_length_a   11.07140188
_cell_length_b   11.07140249
_cell_length_c   6.46274437
_cell_angle_alpha   90.00889842
_cell_angle_beta   90.00889904
_cell_angle_gamma   92.23812042
_symmetry_Int_Tables_number   1
_chemical_formula_structural   Tb20IrRu7Au4
_chemical_formula_sum   'Tb20 Ir1 Ru7 Au4'
_cell_volume   791.57267792
_cell_formula_units_Z   1
loop_
 _symmetry_equiv_pos_site_id
 _symmetry_equiv_pos_as_xyz
  1  'x, y, z'
loop_
 _atom_site_type_symbol
 _atom_site_label
 _atom_site_symmetry_multiplicity
 _atom_site_fract_x
 _atom_site_fract_y
 _atom_site_fract_z
 _atom_site_occupancy
  Tb  Tb0  1  0.298831  0.074271  0.363001  1
  Tb  Tb1  1  0.292802  0.905826  0.880974  1
  Tb  Tb2  1  0.707812  0.094946  0.881401  1
  Tb  Tb3  1  0.701098  0.926216  0.363404  1
  Tb  Tb4  1  0.574247  0.799791  0.863911  1
  Tb  Tb5  1  0.595148  0.206833  0.380827  1
  Tb  Tb6  1  0.405362  0.793638  0.380489  1
  Tb  Tb7  1  0.426782  0.201498  0.863200  1
  Tb  Tb8  1  0.200209  0.425753  0.636089  1
  Tb  Tb9  1  0.206362  0.594638  0.119511  1
  Tb  Tb10  1  0.793167  0.404852  0.119173  1
  Tb  Tb11  1  0.798502  0.573218  0.636800  1
  Tb  Tb12  1  0.925729  0.701169  0.136999  1
  Tb  Tb13  1  0.905054  0.292188  0.618599  1
  Tb  Tb14  1  0.094174  0.707198  0.619026  1
  Tb  Tb15  1  0.073784  0.298902  0.136596  1
  Tb  Tb16  1  0.000339  0.000019  0.496915  1
  Tb  Tb17  1  0.999981  0.999661  0.003085  1
  Tb  Tb18  1  0.501761  0.500185  0.998054  1
  Tb  Tb19  1  0.499815  0.498239  0.501946  1
  Ir  Ir20  1  0.351117  0.648883  0.750000  1
  Ru  Ru21  1  0.852572  0.147428  0.250000  1
  Ru  Ru22  1  0.148346  0.851654  0.250000  1
  Ru  Ru23  1  0.647021  0.352979  0.750000  1
  Ru  Ru24  1  0.499945  0.999817  0.120027  1
  Ru  Ru25  1  0.500087  0.000018  0.620555  1
  Ru  Ru26  1  0.999982  0.499913  0.879445  1
  Ru  Ru27  1  0.000183  0.500055  0.379973  1
  Au  Au28  1  0.840134  0.840035  0.749348  1
  Au  Au29  1  0.159965  0.159866  0.750652  1
  Au  Au30  1  0.659521  0.659831  0.251979  1
  Au  Au31  1  0.340169  0.340479  0.248021  1
