# generated using pymatgen
data_Ca9NdIr4
_symmetry_space_group_name_H-M   'P 1'
_cell_length_a   8.64099249
_cell_length_b   8.64099312
_cell_length_c   7.58715639
_cell_angle_alpha   82.84889301
_cell_angle_beta   82.84890138
_cell_angle_gamma   44.73034936
_symmetry_Int_Tables_number   1
_chemical_formula_structural   Ca9NdIr4
_chemical_formula_sum   'Ca9 Nd1 Ir4'
_cell_volume   395.06345503
_cell_formula_units_Z   1
loop_
 _symmetry_equiv_pos_site_id
 _symmetry_equiv_pos_as_xyz
  1  'x, y, z'
loop_
 _atom_site_type_symbol
 _atom_site_label
 _atom_site_symmetry_multiplicity
 _atom_site_fract_x
 _atom_site_fract_y
 _atom_site_fract_z
 _atom_site_occupancy
  Ca  Ca0  1  0.025269  0.801423  0.415529  1
  Ca  Ca1  1  0.198577  0.974731  0.084471  1
  Ca  Ca2  1  0.979197  0.195902  0.581473  1
  Ca  Ca3  1  0.804098  0.020803  0.918527  1
  Ca  Ca4  1  0.361500  0.204537  0.322427  1
  Ca  Ca5  1  0.795463  0.638500  0.177573  1
  Ca  Ca6  1  0.640265  0.799432  0.677920  1
  Ca  Ca7  1  0.200568  0.359735  0.822080  1
  Ca  Ca8  1  0.571437  0.428563  0.250000  1
  Nd  Nd9  1  0.434303  0.565697  0.750000  1
  Ir  Ir10  1  0.178453  0.604170  0.073794  1
  Ir  Ir11  1  0.395830  0.821547  0.426206  1
  Ir  Ir12  1  0.815905  0.400865  0.915365  1
  Ir  Ir13  1  0.599135  0.184095  0.584635  1
