# generated using pymatgen
data_SrPr6ReBr12
_symmetry_space_group_name_H-M   'P 1'
_cell_length_a   9.68820724
_cell_length_b   9.68437104
_cell_length_c   9.69030538
_cell_angle_alpha   106.24798879
_cell_angle_beta   106.36396874
_cell_angle_gamma   106.24216907
_symmetry_Int_Tables_number   1
_chemical_formula_structural   SrPr6ReBr12
_chemical_formula_sum   'Sr1 Pr6 Re1 Br12'
_cell_volume   771.47489202
_cell_formula_units_Z   1
loop_
 _symmetry_equiv_pos_site_id
 _symmetry_equiv_pos_as_xyz
  1  'x, y, z'
loop_
 _atom_site_type_symbol
 _atom_site_label
 _atom_site_symmetry_multiplicity
 _atom_site_fract_x
 _atom_site_fract_y
 _atom_site_fract_z
 _atom_site_occupancy
  Sr  Sr0  1  0.500000  0.500000  0.500000  1
  Pr  Pr1  1  0.103482  0.310781  0.019663  1
  Pr  Pr2  1  0.311234  0.019773  0.104278  1
  Pr  Pr3  1  0.019587  0.103715  0.310705  1
  Pr  Pr4  1  0.980412  0.896285  0.689295  1
  Pr  Pr5  1  0.688766  0.980226  0.895721  1
  Pr  Pr6  1  0.896518  0.689219  0.980337  1
  Re  Re7  1  0.000000  0.000000  0.000000  1
  Br  Br8  1  0.217041  0.681043  0.072341  1
  Br  Br9  1  0.448527  0.366595  0.152590  1
  Br  Br10  1  0.680922  0.072202  0.216193  1
  Br  Br11  1  0.927720  0.783220  0.318749  1
  Br  Br12  1  0.152546  0.448814  0.366385  1
  Br  Br13  1  0.366314  0.152288  0.448816  1
  Br  Br14  1  0.633686  0.847712  0.551184  1
  Br  Br15  1  0.847453  0.551186  0.633615  1
  Br  Br16  1  0.072281  0.216781  0.681252  1
  Br  Br17  1  0.319079  0.927799  0.783807  1
  Br  Br18  1  0.551472  0.633404  0.847410  1
  Br  Br19  1  0.782959  0.318958  0.927659  1
