# generated using pymatgen
data_Pr4NdSb4Te
_symmetry_space_group_name_H-M   'P 1'
_cell_length_a   12.02887639
_cell_length_b   12.02887655
_cell_length_c   12.02887500
_cell_angle_alpha   158.05936532
_cell_angle_beta   149.24115573
_cell_angle_gamma   38.10335098
_symmetry_Int_Tables_number   1
_chemical_formula_structural   Pr4NdSb4Te
_chemical_formula_sum   'Pr4 Nd1 Sb4 Te1'
_cell_volume   332.12344563
_cell_formula_units_Z   1
loop_
 _symmetry_equiv_pos_site_id
 _symmetry_equiv_pos_as_xyz
  1  'x, y, z'
loop_
 _atom_site_type_symbol
 _atom_site_label
 _atom_site_symmetry_multiplicity
 _atom_site_fract_x
 _atom_site_fract_y
 _atom_site_fract_z
 _atom_site_occupancy
  Pr  Pr0  1  0.895345  0.895345  0.000000  1
  Pr  Pr1  1  0.104655  0.104655  0.000000  1
  Pr  Pr2  1  0.300251  0.300251  0.000000  1
  Pr  Pr3  1  0.699749  0.699749  0.000000  1
  Nd  Nd4  1  0.500000  0.500000  0.000000  1
  Sb  Sb5  1  0.598629  0.098629  0.500000  1
  Sb  Sb6  1  0.401371  0.901371  0.500000  1
  Sb  Sb7  1  0.799724  0.299724  0.500000  1
  Sb  Sb8  1  0.200276  0.700276  0.500000  1
  Te  Te9  1  0.000000  0.500000  0.500000  1
