# generated using pymatgen
data_CePr4Nd5(Al2Ru3)2
_symmetry_space_group_name_H-M   'P 1'
_cell_length_a   8.62639697
_cell_length_b   8.50483692
_cell_length_c   8.50483592
_cell_angle_alpha   108.30106706
_cell_angle_beta   110.43363840
_cell_angle_gamma   109.09897022
_symmetry_Int_Tables_number   1
_chemical_formula_structural   CePr4Nd5(Al2Ru3)2
_chemical_formula_sum   'Ce1 Pr4 Nd5 Al4 Ru6'
_cell_volume   483.60840857
_cell_formula_units_Z   1
loop_
 _symmetry_equiv_pos_site_id
 _symmetry_equiv_pos_as_xyz
  1  'x, y, z'
loop_
 _atom_site_type_symbol
 _atom_site_label
 _atom_site_symmetry_multiplicity
 _atom_site_fract_x
 _atom_site_fract_y
 _atom_site_fract_z
 _atom_site_occupancy
  Ce  Ce0  1  0.250000  0.695881  0.445881  1
  Pr  Pr1  1  0.218374  0.218126  0.220626  1
  Pr  Pr2  1  0.505119  0.000779  0.287570  1
  Pr  Pr3  1  0.281626  0.502252  0.999752  1
  Pr  Pr4  1  0.994881  0.282451  0.495659  1
  Nd  Nd5  1  0.750000  0.811272  0.061272  1
  Nd  Nd6  1  0.438478  0.254155  0.689012  1
  Nd  Nd7  1  0.685276  0.437192  0.249046  1
  Nd  Nd8  1  0.061522  0.750533  0.815678  1
  Nd  Nd9  1  0.814724  0.063770  0.751915  1
  Al  Al10  1  0.594375  0.595120  0.587659  1
  Al  Al11  1  0.498849  0.004791  0.909711  1
  Al  Al12  1  0.905625  0.493284  0.000747  1
  Al  Al13  1  0.001151  0.910862  0.505943  1
  Ru  Ru14  1  0.250000  0.123246  0.873246  1
  Ru  Ru15  1  0.750000  0.381952  0.631952  1
  Ru  Ru16  1  0.863961  0.239276  0.117215  1
  Ru  Ru17  1  0.131620  0.844772  0.268648  1
  Ru  Ru18  1  0.636038  0.753254  0.375314  1
  Ru  Ru19  1  0.368380  0.637028  0.713153  1
