# generated using pymatgen
data_K2Mn3(AsO3)4
_symmetry_space_group_name_H-M   'P 1'
_cell_length_a   5.99707998
_cell_length_b   5.99707907
_cell_length_c   11.48859383
_cell_angle_alpha   75.75475228
_cell_angle_beta   75.75475609
_cell_angle_gamma   56.59466952
_symmetry_Int_Tables_number   1
_chemical_formula_structural   K2Mn3(AsO3)4
_chemical_formula_sum   'K2 Mn3 As4 O12'
_cell_volume   331.18321622
_cell_formula_units_Z   1
loop_
 _symmetry_equiv_pos_site_id
 _symmetry_equiv_pos_as_xyz
  1  'x, y, z'
loop_
 _atom_site_type_symbol
 _atom_site_label
 _atom_site_symmetry_multiplicity
 _atom_site_fract_x
 _atom_site_fract_y
 _atom_site_fract_z
 _atom_site_occupancy
  K  K0  1  0.370149  0.370149  0.421349  1
  K  K1  1  0.629851  0.629851  0.578651  1
  Mn  Mn2  1  0.226048  0.226048  0.751919  1
  Mn  Mn3  1  0.000000  0.000000  0.000000  1
  Mn  Mn4  1  0.773952  0.773952  0.248081  1
  As  As5  1  0.080389  0.080389  0.305810  1
  As  As6  1  0.919611  0.919611  0.694190  1
  As  As7  1  0.317549  0.317549  0.049330  1
  As  As8  1  0.682451  0.682451  0.950670  1
  O  O9  1  0.892508  0.390041  0.354705  1
  O  O10  1  0.870322  0.382320  0.882605  1
  O  O11  1  0.390041  0.892508  0.354705  1
  O  O12  1  0.132238  0.132238  0.142700  1
  O  O13  1  0.107492  0.609959  0.645295  1
  O  O14  1  0.911719  0.911719  0.351978  1
  O  O15  1  0.609959  0.107492  0.645295  1
  O  O16  1  0.617680  0.129678  0.117395  1
  O  O17  1  0.129678  0.617680  0.117395  1
  O  O18  1  0.382320  0.870322  0.882605  1
  O  O19  1  0.088281  0.088281  0.648022  1
  O  O20  1  0.867762  0.867762  0.857300  1
