# generated using pymatgen
data_Cs2Ga(BSe)9
_symmetry_space_group_name_H-M   'P 1'
_cell_length_a   10.11274480
_cell_length_b   10.95044070
_cell_length_c   11.27099300
_cell_angle_alpha   100.09265560
_cell_angle_beta   90.47927283
_cell_angle_gamma   116.07080494
_symmetry_Int_Tables_number   1
_chemical_formula_structural   Cs2Ga(BSe)9
_chemical_formula_sum   'Cs4 Ga2 B18 Se18'
_cell_volume   1098.63736802
_cell_formula_units_Z   2
loop_
 _symmetry_equiv_pos_site_id
 _symmetry_equiv_pos_as_xyz
  1  'x, y, z'
loop_
 _atom_site_type_symbol
 _atom_site_label
 _atom_site_symmetry_multiplicity
 _atom_site_fract_x
 _atom_site_fract_y
 _atom_site_fract_z
 _atom_site_occupancy
  Cs  Cs0  1  0.183598  0.822383  0.990295  1
  Cs  Cs1  1  0.816402  0.177617  0.009705  1
  Cs  Cs2  1  0.819322  0.648899  0.483583  1
  Cs  Cs3  1  0.180678  0.351101  0.516417  1
  Ga  Ga4  1  0.594423  0.596928  0.954954  1
  Ga  Ga5  1  0.405577  0.403072  0.045046  1
  B  B6  1  0.489233  0.842114  0.451276  1
  B  B7  1  0.510767  0.157886  0.548724  1
  B  B8  1  0.339708  0.878408  0.416024  1
  B  B9  1  0.660292  0.121592  0.583976  1
  B  B10  1  0.510369  0.956386  0.351817  1
  B  B11  1  0.489631  0.043614  0.648183  1
  B  B12  1  0.660149  0.993717  0.458859  1
  B  B13  1  0.339851  0.006283  0.541141  1
  B  B14  1  0.580976  0.941717  0.594733  1
  B  B15  1  0.419024  0.058283  0.405267  1
  B  B16  1  0.384383  0.873173  0.566150  1
  B  B17  1  0.615617  0.126827  0.433850  1
  B  B18  1  0.280471  0.596971  0.279143  1
  B  B19  1  0.719529  0.403029  0.720857  1
  B  B20  1  0.437049  0.729958  0.738542  1
  B  B21  1  0.562951  0.270042  0.261458  1
  B  B22  1  0.719721  0.888854  0.211535  1
  B  B23  1  0.280279  0.111146  0.788465  1
  Se  Se24  1  0.462282  0.650404  0.380397  1
  Se  Se25  1  0.537718  0.349596  0.619603  1
  Se  Se26  1  0.173711  0.713293  0.306493  1
  Se  Se27  1  0.826289  0.286707  0.693507  1
  Se  Se28  1  0.535748  0.899118  0.177733  1
  Se  Se29  1  0.464252  0.100882  0.822267  1
  Se  Se30  1  0.826730  0.967840  0.376486  1
  Se  Se31  1  0.173270  0.032160  0.623514  1
  Se  Se32  1  0.641672  0.852775  0.712884  1
  Se  Se33  1  0.358328  0.147225  0.287116  1
  Se  Se34  1  0.263239  0.724217  0.653833  1
  Se  Se35  1  0.736761  0.275783  0.346167  1
  Se  Se36  1  0.198426  0.424744  0.159394  1
  Se  Se37  1  0.801574  0.575256  0.840606  1
  Se  Se38  1  0.803320  0.812230  0.081148  1
  Se  Se39  1  0.196680  0.187770  0.918852  1
  Se  Se40  1  0.385808  0.603996  0.848174  1
  Se  Se41  1  0.614192  0.396004  0.151826  1
