# generated using pymatgen
data_S24IBr3
_symmetry_space_group_name_H-M   'P 1'
_cell_length_a   15.29966053
_cell_length_b   15.29966062
_cell_length_c   15.29966015
_cell_angle_alpha   118.80816034
_cell_angle_beta   118.80816260
_cell_angle_gamma   118.80815437
_symmetry_Int_Tables_number   1
_chemical_formula_structural   S24IBr3
_chemical_formula_sum   'S24 I1 Br3'
_cell_volume   1010.34694487
_cell_formula_units_Z   1
loop_
 _symmetry_equiv_pos_site_id
 _symmetry_equiv_pos_as_xyz
  1  'x, y, z'
loop_
 _atom_site_type_symbol
 _atom_site_label
 _atom_site_symmetry_multiplicity
 _atom_site_fract_x
 _atom_site_fract_y
 _atom_site_fract_z
 _atom_site_occupancy
  S  S0  1  0.016268  0.610936  0.610936  1
  S  S1  1  0.610936  0.610936  0.016268  1
  S  S2  1  0.610936  0.016268  0.610936  1
  S  S3  1  0.235265  0.844684  0.717132  1
  S  S4  1  0.844684  0.717132  0.235265  1
  S  S5  1  0.717132  0.235265  0.844684  1
  S  S6  1  0.844684  0.235265  0.717132  1
  S  S7  1  0.235265  0.717132  0.844684  1
  S  S8  1  0.717132  0.844684  0.235265  1
  S  S9  1  0.100003  0.627987  0.447837  1
  S  S10  1  0.627987  0.447837  0.100003  1
  S  S11  1  0.447837  0.100003  0.627987  1
  S  S12  1  0.627987  0.100003  0.447837  1
  S  S13  1  0.100003  0.447837  0.627987  1
  S  S14  1  0.447837  0.627987  0.100003  1
  S  S15  1  0.356175  0.744986  0.617153  1
  S  S16  1  0.744986  0.617153  0.356175  1
  S  S17  1  0.617153  0.356175  0.744986  1
  S  S18  1  0.744986  0.356175  0.617153  1
  S  S19  1  0.356175  0.617153  0.744986  1
  S  S20  1  0.617153  0.744986  0.356175  1
  S  S21  1  0.188226  0.469603  0.469603  1
  S  S22  1  0.469603  0.469603  0.188226  1
  S  S23  1  0.469603  0.188226  0.469603  1
  I  I24  1  0.078920  0.078920  0.078920  1
  Br  Br25  1  0.188776  0.015695  0.015695  1
  Br  Br26  1  0.015695  0.015695  0.188776  1
  Br  Br27  1  0.015695  0.188776  0.015695  1
