# generated using pymatgen
data_GdSe23
_symmetry_space_group_name_H-M   'P 1'
_cell_length_a   5.67537911
_cell_length_b   10.03156375
_cell_length_c   16.67277300
_cell_angle_alpha   89.20851961
_cell_angle_beta   78.78273632
_cell_angle_gamma   98.86073831
_symmetry_Int_Tables_number   1
_chemical_formula_structural   GdSe23
_chemical_formula_sum   'Gd1 Se23'
_cell_volume   919.04523214
_cell_formula_units_Z   1
loop_
 _symmetry_equiv_pos_site_id
 _symmetry_equiv_pos_as_xyz
  1  'x, y, z'
loop_
 _atom_site_type_symbol
 _atom_site_label
 _atom_site_symmetry_multiplicity
 _atom_site_fract_x
 _atom_site_fract_y
 _atom_site_fract_z
 _atom_site_occupancy
  Gd  Gd0  1  0.450097  0.422467  0.474410  1
  Se  Se1  1  0.538293  0.796239  0.373349  1
  Se  Se2  1  0.057529  0.329681  0.117709  1
  Se  Se3  1  0.926923  0.319385  0.459771  1
  Se  Se4  1  0.251202  0.704260  0.492706  1
  Se  Se5  1  0.246841  0.288351  0.982712  1
  Se  Se6  1  0.781877  0.695869  0.026240  1
  Se  Se7  1  0.161480  0.433278  0.332791  1
  Se  Se8  1  0.828381  0.640324  0.357292  1
  Se  Se9  1  0.816604  0.122174  0.171717  1
  Se  Se10  1  0.290053  0.891349  0.119849  1
  Se  Se11  1  0.656197  0.589805  0.616862  1
  Se  Se12  1  0.157060  0.312375  0.640754  1
  Se  Se13  1  0.198395  0.873456  0.837779  1
  Se  Se14  1  0.723725  0.102300  0.892174  1
  Se  Se15  1  0.058527  0.675357  0.112854  1
  Se  Se16  1  0.442322  0.773629  0.603237  1
  Se  Se17  1  0.422068  0.177655  0.567591  1
  Se  Se18  1  0.976915  0.660893  0.891190  1
  Se  Se19  1  0.972060  0.315304  0.895752  1
  Se  Se20  1  0.648480  0.442595  0.296592  1
  Se  Se21  1  0.071882  0.999472  0.228970  1
  Se  Se22  1  0.393781  0.444660  0.724309  1
  Se  Se23  1  0.929308  0.989118  0.783390  1
