# generated using pymatgen
data_Rb3Ga2(PO4)3
_symmetry_space_group_name_H-M   'P 1'
_cell_length_a   9.73310500
_cell_length_b   9.73310485
_cell_length_c   8.95670400
_cell_angle_alpha   90.00000000
_cell_angle_beta   90.00000000
_cell_angle_gamma   126.39137593
_symmetry_Int_Tables_number   1
_chemical_formula_structural   Rb3Ga2(PO4)3
_chemical_formula_sum   'Rb6 Ga4 P6 O24'
_cell_volume   683.02688706
_cell_formula_units_Z   2
loop_
 _symmetry_equiv_pos_site_id
 _symmetry_equiv_pos_as_xyz
  1  'x, y, z'
loop_
 _atom_site_type_symbol
 _atom_site_label
 _atom_site_symmetry_multiplicity
 _atom_site_fract_x
 _atom_site_fract_y
 _atom_site_fract_z
 _atom_site_occupancy
  Rb  Rb0  1  0.162571  0.935498  0.470261  1
  Rb  Rb1  1  0.064502  0.837429  0.970261  1
  Rb  Rb2  1  0.356549  0.356549  0.168075  1
  Rb  Rb3  1  0.935498  0.162571  0.470261  1
  Rb  Rb4  1  0.837429  0.064502  0.970261  1
  Rb  Rb5  1  0.643451  0.643451  0.668075  1
  Ga  Ga6  1  0.177098  0.513074  0.818931  1
  Ga  Ga7  1  0.486926  0.822902  0.318931  1
  Ga  Ga8  1  0.822902  0.486926  0.318931  1
  Ga  Ga9  1  0.513074  0.177098  0.818931  1
  P  P10  1  0.461171  0.873493  0.656261  1
  P  P11  1  0.770252  0.770252  0.259404  1
  P  P12  1  0.229748  0.229748  0.759404  1
  P  P13  1  0.538829  0.126507  0.156261  1
  P  P14  1  0.873493  0.461171  0.656261  1
  P  P15  1  0.126507  0.538829  0.156261  1
  O  O16  1  0.643894  0.782847  0.363644  1
  O  O17  1  0.650665  0.968964  0.675875  1
  O  O18  1  0.309418  0.632173  0.224507  1
  O  O19  1  0.152419  0.600604  0.990117  1
  O  O20  1  0.612655  0.034940  0.227411  1
  O  O21  1  0.034940  0.612655  0.227411  1
  O  O22  1  0.356106  0.217153  0.863644  1
  O  O23  1  0.308593  0.308593  0.608312  1
  O  O24  1  0.217153  0.356106  0.863644  1
  O  O25  1  0.782847  0.643894  0.363644  1
  O  O26  1  0.847581  0.399396  0.490117  1
  O  O27  1  0.690582  0.367827  0.724507  1
  O  O28  1  0.031036  0.349335  0.175875  1
  O  O29  1  0.056219  0.056219  0.753315  1
  O  O30  1  0.632173  0.309418  0.224507  1
  O  O31  1  0.691407  0.691407  0.108312  1
  O  O32  1  0.387345  0.965060  0.727411  1
  O  O33  1  0.943781  0.943781  0.253315  1
  O  O34  1  0.965060  0.387345  0.727411  1
  O  O35  1  0.600604  0.152419  0.990117  1
  O  O36  1  0.399396  0.847581  0.490117  1
  O  O37  1  0.968964  0.650665  0.675875  1
  O  O38  1  0.349335  0.031036  0.175875  1
  O  O39  1  0.367827  0.690582  0.724507  1
