# generated using pymatgen
data_Dy3YP7Ir8
_symmetry_space_group_name_H-M   'P 1'
_cell_length_a   3.94862400
_cell_length_b   12.67686604
_cell_length_c   13.11054407
_cell_angle_alpha   80.86119184
_cell_angle_beta   90.00000000
_cell_angle_gamma   90.00000000
_symmetry_Int_Tables_number   1
_chemical_formula_structural   Dy3YP7Ir8
_chemical_formula_sum   'Dy6 Y2 P14 Ir16'
_cell_volume   647.93340789
_cell_formula_units_Z   2
loop_
 _symmetry_equiv_pos_site_id
 _symmetry_equiv_pos_as_xyz
  1  'x, y, z'
loop_
 _atom_site_type_symbol
 _atom_site_label
 _atom_site_symmetry_multiplicity
 _atom_site_fract_x
 _atom_site_fract_y
 _atom_site_fract_z
 _atom_site_occupancy
  Dy  Dy0  1  0.250000  0.279395  0.102059  1
  Dy  Dy1  1  0.750000  0.720605  0.897941  1
  Dy  Dy2  1  0.250000  0.520475  0.293905  1
  Dy  Dy3  1  0.750000  0.479525  0.706095  1
  Dy  Dy4  1  0.250000  0.209124  0.437913  1
  Dy  Dy5  1  0.750000  0.790876  0.562087  1
  Y  Y6  1  0.250000  0.102724  0.789878  1
  Y  Y7  1  0.750000  0.897276  0.210122  1
  P  P8  1  0.250000  0.051975  0.100332  1
  P  P9  1  0.750000  0.948025  0.899668  1
  P  P10  1  0.250000  0.312337  0.688923  1
  P  P11  1  0.750000  0.687663  0.311077  1
  P  P12  1  0.250000  0.607722  0.567144  1
  P  P13  1  0.750000  0.392278  0.432856  1
  P  P14  1  0.250000  0.843549  0.717856  1
  P  P15  1  0.750000  0.156451  0.282144  1
  P  P16  1  0.750000  0.258076  0.920057  1
  P  P17  1  0.250000  0.741924  0.079943  1
  P  P18  1  0.750000  0.093394  0.587851  1
  P  P19  1  0.250000  0.906606  0.412149  1
  P  P20  1  0.750000  0.472331  0.129330  1
  P  P21  1  0.250000  0.527669  0.870670  1
  Ir  Ir22  1  0.250000  0.990875  0.576129  1
  Ir  Ir23  1  0.750000  0.009125  0.423871  1
  Ir  Ir24  1  0.250000  0.662845  0.731367  1
  Ir  Ir25  1  0.750000  0.337155  0.268633  1
  Ir  Ir26  1  0.250000  0.555294  0.044572  1
  Ir  Ir27  1  0.750000  0.444706  0.955428  1
  Ir  Ir28  1  0.250000  0.059933  0.272770  1
  Ir  Ir29  1  0.750000  0.940067  0.727230  1
  Ir  Ir30  1  0.250000  0.421802  0.523363  1
  Ir  Ir31  1  0.750000  0.578198  0.476637  1
  Ir  Ir32  1  0.250000  0.914953  0.997566  1
  Ir  Ir33  1  0.750000  0.085047  0.002434  1
  Ir  Ir34  1  0.250000  0.729088  0.395331  1
  Ir  Ir35  1  0.750000  0.270912  0.604669  1
  Ir  Ir36  1  0.250000  0.341769  0.857889  1
  Ir  Ir37  1  0.750000  0.658231  0.142111  1
