# generated using pymatgen
data_Tm20Sn7Pb9
_symmetry_space_group_name_H-M   'P 1'
_cell_length_a   8.09502200
_cell_length_b   8.15199201
_cell_length_c   15.46330000
_cell_angle_alpha   90.00000000
_cell_angle_beta   90.00000000
_cell_angle_gamma   89.99761736
_symmetry_Int_Tables_number   1
_chemical_formula_structural   Tm20Sn7Pb9
_chemical_formula_sum   'Tm20 Sn7 Pb9'
_cell_volume   1020.43174270
_cell_formula_units_Z   1
loop_
 _symmetry_equiv_pos_site_id
 _symmetry_equiv_pos_as_xyz
  1  'x, y, z'
loop_
 _atom_site_type_symbol
 _atom_site_label
 _atom_site_symmetry_multiplicity
 _atom_site_fract_x
 _atom_site_fract_y
 _atom_site_fract_z
 _atom_site_occupancy
  Tm  Tm0  1  0.380157  0.838551  0.876503  1
  Tm  Tm1  1  0.880487  0.660994  0.623594  1
  Tm  Tm2  1  0.619744  0.161086  0.377014  1
  Tm  Tm3  1  0.119622  0.337410  0.123144  1
  Tm  Tm4  1  0.619744  0.161086  0.122986  1
  Tm  Tm5  1  0.119622  0.337410  0.376856  1
  Tm  Tm6  1  0.380157  0.838551  0.623497  1
  Tm  Tm7  1  0.880487  0.660994  0.876406  1
  Tm  Tm8  1  0.538315  0.324963  0.895727  1
  Tm  Tm9  1  0.038793  0.174510  0.604471  1
  Tm  Tm10  1  0.464337  0.675071  0.397024  1
  Tm  Tm11  1  0.959414  0.827244  0.101666  1
  Tm  Tm12  1  0.464337  0.675071  0.102976  1
  Tm  Tm13  1  0.959414  0.827244  0.398334  1
  Tm  Tm14  1  0.538315  0.324963  0.604273  1
  Tm  Tm15  1  0.038793  0.174510  0.895529  1
  Tm  Tm16  1  0.210968  0.503590  0.750000  1
  Tm  Tm17  1  0.710888  0.996341  0.750000  1
  Tm  Tm18  1  0.787181  0.494739  0.250000  1
  Tm  Tm19  1  0.291128  0.006685  0.250000  1
  Sn  Sn20  1  0.575577  0.623533  0.750000  1
  Sn  Sn21  1  0.075525  0.876137  0.750000  1
  Sn  Sn22  1  0.424999  0.375495  0.250000  1
  Sn  Sn23  1  0.924430  0.122653  0.250000  1
  Sn  Sn24  1  0.346855  0.149445  0.750000  1
  Sn  Sn25  1  0.846720  0.350407  0.750000  1
  Sn  Sn26  1  0.654129  0.850075  0.250000  1
  Pb  Pb27  1  0.280371  0.031541  0.041006  1
  Pb  Pb28  1  0.781350  0.467437  0.459030  1
  Pb  Pb29  1  0.718634  0.968518  0.541920  1
  Pb  Pb30  1  0.219322  0.531537  0.958895  1
  Pb  Pb31  1  0.718634  0.968518  0.958080  1
  Pb  Pb32  1  0.219322  0.531537  0.541105  1
  Pb  Pb33  1  0.280371  0.031541  0.458994  1
  Pb  Pb34  1  0.781350  0.467437  0.040970  1
  Pb  Pb35  1  0.150505  0.653175  0.250000  1
