# generated using pymatgen
data_Tb20Tc3GeBi8
_symmetry_space_group_name_H-M   'P 1'
_cell_length_a   8.05475680
_cell_length_b   9.17637000
_cell_length_c   12.34779925
_cell_angle_alpha   90.00000000
_cell_angle_beta   89.71520865
_cell_angle_gamma   90.00000000
_symmetry_Int_Tables_number   1
_chemical_formula_structural   Tb20Tc3GeBi8
_chemical_formula_sum   'Tb20 Tc3 Ge1 Bi8'
_cell_volume   912.65690457
_cell_formula_units_Z   1
loop_
 _symmetry_equiv_pos_site_id
 _symmetry_equiv_pos_as_xyz
  1  'x, y, z'
loop_
 _atom_site_type_symbol
 _atom_site_label
 _atom_site_symmetry_multiplicity
 _atom_site_fract_x
 _atom_site_fract_y
 _atom_site_fract_z
 _atom_site_occupancy
  Tb  Tb0  1  0.848445  0.750000  0.796836  1
  Tb  Tb1  1  0.157609  0.250000  0.209333  1
  Tb  Tb2  1  0.339207  0.250000  0.711863  1
  Tb  Tb3  1  0.673833  0.750000  0.278548  1
  Tb  Tb4  1  0.365551  0.750000  0.702023  1
  Tb  Tb5  1  0.623378  0.250000  0.303550  1
  Tb  Tb6  1  0.880378  0.250000  0.803720  1
  Tb  Tb7  1  0.126773  0.750000  0.199204  1
  Tb  Tb8  1  0.961959  0.750000  0.500789  1
  Tb  Tb9  1  0.045067  0.250000  0.498130  1
  Tb  Tb10  1  0.447624  0.250000  0.995991  1
  Tb  Tb11  1  0.548516  0.750000  0.001130  1
  Tb  Tb12  1  0.676319  0.053372  0.563816  1
  Tb  Tb13  1  0.318474  0.966678  0.434647  1
  Tb  Tb14  1  0.176083  0.960074  0.939521  1
  Tb  Tb15  1  0.318474  0.533322  0.434647  1
  Tb  Tb16  1  0.823508  0.038171  0.061826  1
  Tb  Tb17  1  0.676319  0.446628  0.563816  1
  Tb  Tb18  1  0.823508  0.461829  0.061826  1
  Tb  Tb19  1  0.176083  0.539926  0.939521  1
  Tc  Tc20  1  0.416265  0.250000  0.486401  1
  Tc  Tc21  1  0.079973  0.250000  0.985937  1
  Tc  Tc22  1  0.918288  0.750000  0.019699  1
  Ge  Ge23  1  0.578617  0.750000  0.511611  1
  Bi  Bi24  1  0.571282  0.493729  0.823678  1
  Bi  Bi25  1  0.430262  0.508445  0.173890  1
  Bi  Bi26  1  0.073170  0.509323  0.669769  1
  Bi  Bi27  1  0.430262  0.991555  0.173890  1
  Bi  Bi28  1  0.925160  0.490864  0.330471  1
  Bi  Bi29  1  0.571282  0.006271  0.823678  1
  Bi  Bi30  1  0.925160  0.009136  0.330471  1
  Bi  Bi31  1  0.073170  0.990677  0.669769  1
