# generated using pymatgen
data_Fe2B6Sb2Rh19
_symmetry_space_group_name_H-M   'P 1'
_cell_length_a   8.08480548
_cell_length_b   8.08480616
_cell_length_c   8.07167200
_cell_angle_alpha   60.05371691
_cell_angle_beta   60.05371414
_cell_angle_gamma   60.50894845
_symmetry_Int_Tables_number   1
_chemical_formula_structural   Fe2B6Sb2Rh19
_chemical_formula_sum   'Fe2 B6 Sb2 Rh19'
_cell_volume   374.78760653
_cell_formula_units_Z   1
loop_
 _symmetry_equiv_pos_site_id
 _symmetry_equiv_pos_as_xyz
  1  'x, y, z'
loop_
 _atom_site_type_symbol
 _atom_site_label
 _atom_site_symmetry_multiplicity
 _atom_site_fract_x
 _atom_site_fract_y
 _atom_site_fract_z
 _atom_site_occupancy
  Fe  Fe0  1  0.000000  0.000000  0.667669  1
  Fe  Fe1  1  0.000000  0.000000  0.000479  1
  B  B2  1  0.722888  0.722888  0.275870  1
  B  B3  1  0.718693  0.281307  0.720540  1
  B  B4  1  0.278442  0.721558  0.281316  1
  B  B5  1  0.721558  0.278442  0.281316  1
  B  B6  1  0.281307  0.718693  0.720540  1
  B  B7  1  0.277112  0.277112  0.721646  1
  Sb  Sb8  1  0.249590  0.249590  0.250820  1
  Sb  Sb9  1  0.750410  0.750410  0.750000  1
  Rh  Rh10  1  0.619769  0.619769  0.143052  1
  Rh  Rh11  1  0.381461  0.857772  0.383131  1
  Rh  Rh12  1  0.668835  0.331165  0.001643  1
  Rh  Rh13  1  0.995323  0.325047  0.669986  1
  Rh  Rh14  1  0.674953  0.004677  0.990356  1
  Rh  Rh15  1  0.000000  0.000000  0.336085  1
  Rh  Rh16  1  0.000919  0.328735  0.999476  1
  Rh  Rh17  1  0.325047  0.995323  0.669986  1
  Rh  Rh18  1  0.671265  0.999081  0.329131  1
  Rh  Rh19  1  0.328735  0.000919  0.999476  1
  Rh  Rh20  1  0.004677  0.674953  0.990356  1
  Rh  Rh21  1  0.380492  0.380492  0.857460  1
  Rh  Rh22  1  0.999081  0.671265  0.329131  1
  Rh  Rh23  1  0.331165  0.668835  0.001643  1
  Rh  Rh24  1  0.618539  0.142228  0.622364  1
  Rh  Rh25  1  0.142228  0.618539  0.622364  1
  Rh  Rh26  1  0.380231  0.380231  0.382590  1
  Rh  Rh27  1  0.857772  0.381461  0.383131  1
  Rh  Rh28  1  0.619508  0.619508  0.618444  1
