# generated using pymatgen
data_Sr2H7Ir
_symmetry_space_group_name_H-M   'P 1'
_cell_length_a   9.54833785
_cell_length_b   8.37531122
_cell_length_c   9.54827587
_cell_angle_alpha   89.55412788
_cell_angle_beta   119.06622856
_cell_angle_gamma   126.43824002
_symmetry_Int_Tables_number   1
_chemical_formula_structural   Sr2H7Ir
_chemical_formula_sum   'Sr8 H28 Ir4'
_cell_volume   492.27156022
_cell_formula_units_Z   4
loop_
 _symmetry_equiv_pos_site_id
 _symmetry_equiv_pos_as_xyz
  1  'x, y, z'
loop_
 _atom_site_type_symbol
 _atom_site_label
 _atom_site_symmetry_multiplicity
 _atom_site_fract_x
 _atom_site_fract_y
 _atom_site_fract_z
 _atom_site_occupancy
  Sr  Sr0  1  0.736613  0.162409  0.262684  1
  Sr  Sr1  1  0.100293  0.337609  0.074216  1
  Sr  Sr2  1  0.263387  0.837591  0.737316  1
  Sr  Sr3  1  0.899707  0.662390  0.925784  1
  Sr  Sr4  1  0.759334  0.688859  0.285676  1
  Sr  Sr5  1  0.596771  0.811107  0.570430  1
  Sr  Sr6  1  0.240666  0.311141  0.714324  1
  Sr  Sr7  1  0.403230  0.188893  0.429570  1
  H  H8  1  0.968423  0.566483  0.388101  1
  H  H9  1  0.821600  0.933502  0.901921  1
  H  H10  1  0.031577  0.433518  0.611900  1
  H  H11  1  0.178399  0.066498  0.098079  1
  H  H12  1  0.166613  0.481717  0.389952  1
  H  H13  1  0.908207  0.018270  0.184869  1
  H  H14  1  0.833388  0.518283  0.610048  1
  H  H15  1  0.091793  0.981730  0.815131  1
  H  H16  1  0.335442  0.852965  0.509241  1
  H  H17  1  0.656258  0.647014  0.982472  1
  H  H18  1  0.664559  0.147035  0.490760  1
  H  H19  1  0.343741  0.352986  0.017527  1
  H  H20  1  0.275272  0.726197  0.248075  1
  H  H21  1  0.521855  0.773792  0.049049  1
  H  H22  1  0.724728  0.273803  0.751926  1
  H  H23  1  0.478145  0.226208  0.950951  1
  H  H24  1  0.060910  0.790602  0.242846  1
  H  H25  1  0.452244  0.709406  0.770298  1
  H  H26  1  0.939090  0.209398  0.757154  1
  H  H27  1  0.547756  0.290595  0.229702  1
  H  H28  1  0.898012  0.432464  0.121175  1
  H  H29  1  0.688702  0.067534  0.965518  1
  H  H30  1  0.101988  0.567536  0.878826  1
  H  H31  1  0.311297  0.932465  0.034481  1
  H  H32  1  0.477375  0.523413  0.349025  1
  H  H33  1  0.825602  0.976579  0.453943  1
  H  H34  1  0.522625  0.476586  0.650975  1
  H  H35  1  0.174398  0.023422  0.546057  1
  Ir  Ir36  1  0.117927  0.640539  0.315632  1
  Ir  Ir37  1  0.675090  0.859447  0.977380  1
  Ir  Ir38  1  0.882073  0.359461  0.684368  1
  Ir  Ir39  1  0.324910  0.140553  0.022619  1
