# generated using pymatgen
data_Zr4Sc4IrRu7
_symmetry_space_group_name_H-M   'P 1'
_cell_length_a   6.46541600
_cell_length_b   4.60383800
_cell_length_c   9.22600300
_cell_angle_alpha   90.00000000
_cell_angle_beta   90.00178312
_cell_angle_gamma   90.00000000
_symmetry_Int_Tables_number   1
_chemical_formula_structural   Zr4Sc4IrRu7
_chemical_formula_sum   'Zr4 Sc4 Ir1 Ru7'
_cell_volume   274.61869453
_cell_formula_units_Z   1
loop_
 _symmetry_equiv_pos_site_id
 _symmetry_equiv_pos_as_xyz
  1  'x, y, z'
loop_
 _atom_site_type_symbol
 _atom_site_label
 _atom_site_symmetry_multiplicity
 _atom_site_fract_x
 _atom_site_fract_y
 _atom_site_fract_z
 _atom_site_occupancy
  Zr  Zr0  1  0.753232  0.250000  0.125003  1
  Zr  Zr1  1  0.248378  0.750000  0.377047  1
  Zr  Zr2  1  0.749928  0.250000  0.625021  1
  Zr  Zr3  1  0.248587  0.750000  0.872904  1
  Sc  Sc4  1  0.249131  0.250000  0.124978  1
  Sc  Sc5  1  0.750149  0.750000  0.376442  1
  Sc  Sc6  1  0.250347  0.250000  0.624986  1
  Sc  Sc7  1  0.750392  0.750000  0.873569  1
  Ir  Ir8  1  0.499902  0.750000  0.124971  1
  Ru  Ru9  1  0.000241  0.750000  0.124988  1
  Ru  Ru10  1  0.499914  0.250000  0.374277  1
  Ru  Ru11  1  0.999860  0.250000  0.374597  1
  Ru  Ru12  1  0.999709  0.750000  0.624986  1
  Ru  Ru13  1  0.500109  0.750000  0.624993  1
  Ru  Ru14  1  0.000029  0.250000  0.875434  1
  Ru  Ru15  1  0.500087  0.250000  0.875803  1
