# generated using pymatgen
data_Ce3CuHg3PdPt
_symmetry_space_group_name_H-M   'P 1'
_cell_length_a   7.87790100
_cell_length_b   7.87790041
_cell_length_c   3.79424300
_cell_angle_alpha   90.00000000
_cell_angle_beta   90.00000000
_cell_angle_gamma   119.99999829
_symmetry_Int_Tables_number   1
_chemical_formula_structural   Ce3CuHg3PdPt
_chemical_formula_sum   'Ce3 Cu1 Hg3 Pd1 Pt1'
_cell_volume   203.92796517
_cell_formula_units_Z   1
loop_
 _symmetry_equiv_pos_site_id
 _symmetry_equiv_pos_as_xyz
  1  'x, y, z'
loop_
 _atom_site_type_symbol
 _atom_site_label
 _atom_site_symmetry_multiplicity
 _atom_site_fract_x
 _atom_site_fract_y
 _atom_site_fract_z
 _atom_site_occupancy
  Ce  Ce0  1  0.412293  0.406259  0.500000  1
  Ce  Ce1  1  0.593741  0.006033  0.500000  1
  Ce  Ce2  1  0.993967  0.587707  0.500000  1
  Cu  Cu3  1  0.000000  0.000000  0.500000  1
  Hg  Hg4  1  0.742510  0.749142  0.000000  1
  Hg  Hg5  1  0.250858  0.993368  0.000000  1
  Hg  Hg6  1  0.006632  0.257490  0.000000  1
  Pd  Pd7  1  0.333333  0.666667  0.000000  1
  Pt  Pt8  1  0.666667  0.333333  0.000000  1
