# generated using pymatgen
data_Yb5SmTh2(B6Ru)4
_symmetry_space_group_name_H-M   'P 1'
_cell_length_a   3.72538900
_cell_length_b   9.12171012
_cell_length_c   11.54084846
_cell_angle_alpha   90.05218617
_cell_angle_beta   90.00000000
_cell_angle_gamma   90.00000000
_symmetry_Int_Tables_number   1
_chemical_formula_structural   Yb5SmTh2(B6Ru)4
_chemical_formula_sum   'Yb5 Sm1 Th2 B24 Ru4'
_cell_volume   392.18000958
_cell_formula_units_Z   1
loop_
 _symmetry_equiv_pos_site_id
 _symmetry_equiv_pos_as_xyz
  1  'x, y, z'
loop_
 _atom_site_type_symbol
 _atom_site_label
 _atom_site_symmetry_multiplicity
 _atom_site_fract_x
 _atom_site_fract_y
 _atom_site_fract_z
 _atom_site_occupancy
  Yb  Yb0  1  0.000000  0.177485  0.912800  1
  Yb  Yb1  1  0.000000  0.944486  0.369458  1
  Yb  Yb2  1  0.000000  0.059667  0.633058  1
  Yb  Yb3  1  0.000000  0.439734  0.131062  1
  Yb  Yb4  1  0.000000  0.555663  0.869190  1
  Sm  Sm5  1  0.000000  0.320111  0.413798  1
  Th  Th6  1  0.000000  0.678713  0.587193  1
  Th  Th7  1  0.000000  0.822975  0.084899  1
  B  B8  1  0.500000  0.555181  0.429819  1
  B  B9  1  0.500000  0.443405  0.568942  1
  B  B10  1  0.500000  0.057232  0.067942  1
  B  B11  1  0.500000  0.945817  0.929800  1
  B  B12  1  0.500000  0.750347  0.416492  1
  B  B13  1  0.500000  0.249086  0.583683  1
  B  B14  1  0.500000  0.250767  0.081895  1
  B  B15  1  0.500000  0.750333  0.916256  1
  B  B16  1  0.500000  0.789575  0.266560  1
  B  B17  1  0.500000  0.209259  0.735058  1
  B  B18  1  0.500000  0.289922  0.233680  1
  B  B19  1  0.500000  0.710187  0.766878  1
  B  B20  1  0.500000  0.628114  0.185999  1
  B  B21  1  0.500000  0.369524  0.814930  1
  B  B22  1  0.500000  0.129696  0.314512  1
  B  B23  1  0.500000  0.871869  0.686991  1
  B  B24  1  0.500000  0.986255  0.212641  1
  B  B25  1  0.500000  0.017538  0.787673  1
  B  B26  1  0.500000  0.483232  0.286316  1
  B  B27  1  0.500000  0.514037  0.713224  1
  B  B28  1  0.500000  0.594065  0.026373  1
  B  B29  1  0.500000  0.403579  0.973567  1
  B  B30  1  0.500000  0.097625  0.473569  1
  B  B31  1  0.500000  0.904630  0.527079  1
  Ru  Ru32  1  0.000000  0.639257  0.319711  1
  Ru  Ru33  1  0.000000  0.362278  0.679858  1
  Ru  Ru34  1  0.000000  0.138452  0.179337  1
  Ru  Ru35  1  0.000000  0.859904  0.819759  1
