# generated using pymatgen
data_Li4GdErTm2O8
_symmetry_space_group_name_H-M   'P 1'
_cell_length_a   3.36049100
_cell_length_b   5.28905245
_cell_length_c   11.15074019
_cell_angle_alpha   90.18382842
_cell_angle_beta   90.00000000
_cell_angle_gamma   90.00000000
_symmetry_Int_Tables_number   1
_chemical_formula_structural   Li4GdErTm2O8
_chemical_formula_sum   'Li4 Gd1 Er1 Tm2 O8'
_cell_volume   198.19015260
_cell_formula_units_Z   1
loop_
 _symmetry_equiv_pos_site_id
 _symmetry_equiv_pos_as_xyz
  1  'x, y, z'
loop_
 _atom_site_type_symbol
 _atom_site_label
 _atom_site_symmetry_multiplicity
 _atom_site_fract_x
 _atom_site_fract_y
 _atom_site_fract_z
 _atom_site_occupancy
  Li  Li0  1  0.750000  0.403289  0.064666  1
  Li  Li1  1  0.250000  0.901336  0.435572  1
  Li  Li2  1  0.750000  0.095759  0.568555  1
  Li  Li3  1  0.250000  0.597627  0.929424  1
  Gd  Gd4  1  0.250000  0.951689  0.141675  1
  Er  Er5  1  0.250000  0.544406  0.641431  1
  Tm  Tm6  1  0.750000  0.454131  0.363177  1
  Tm  Tm7  1  0.750000  0.045583  0.858175  1
  O  O8  1  0.250000  0.240804  0.969102  1
  O  O9  1  0.250000  0.259002  0.473835  1
  O  O10  1  0.750000  0.757334  0.021458  1
  O  O11  1  0.750000  0.738063  0.528012  1
  O  O12  1  0.250000  0.813213  0.791344  1
  O  O13  1  0.750000  0.202355  0.207686  1
  O  O14  1  0.750000  0.309001  0.707444  1
  O  O15  1  0.250000  0.686411  0.298446  1
