# generated using pymatgen
data_Ce2Al3Zn
_symmetry_space_group_name_H-M   'P 1'
_cell_length_a   5.46644868
_cell_length_b   5.68384614
_cell_length_c   5.68384500
_cell_angle_alpha   60.00000081
_cell_angle_beta   58.67548267
_cell_angle_gamma   58.67549024
_symmetry_Int_Tables_number   1
_chemical_formula_structural   Ce2Al3Zn
_chemical_formula_sum   'Ce2 Al3 Zn1'
_cell_volume   122.31612470
_cell_formula_units_Z   1
loop_
 _symmetry_equiv_pos_site_id
 _symmetry_equiv_pos_as_xyz
  1  'x, y, z'
loop_
 _atom_site_type_symbol
 _atom_site_label
 _atom_site_symmetry_multiplicity
 _atom_site_fract_x
 _atom_site_fract_y
 _atom_site_fract_z
 _atom_site_occupancy
  Ce  Ce0  1  0.455892  0.514703  0.514703  1
  Ce  Ce1  1  0.794108  0.735297  0.735297  1
  Al  Al2  1  0.125000  0.125000  0.125000  1
  Al  Al3  1  0.125000  0.625000  0.125000  1
  Al  Al4  1  0.125000  0.125000  0.625000  1
  Zn  Zn5  1  0.625000  0.125000  0.125000  1
