# generated using pymatgen
data_Hf8Fe2PdPt
_symmetry_space_group_name_H-M   'P 1'
_cell_length_a   8.60753137
_cell_length_b   8.60749846
_cell_length_c   8.62084700
_cell_angle_alpha   59.94970783
_cell_angle_beta   59.94969443
_cell_angle_gamma   59.89351455
_symmetry_Int_Tables_number   1
_chemical_formula_structural   Hf8Fe2PdPt
_chemical_formula_sum   'Hf16 Fe4 Pd2 Pt2'
_cell_volume   450.93060978
_cell_formula_units_Z   2
loop_
 _symmetry_equiv_pos_site_id
 _symmetry_equiv_pos_as_xyz
  1  'x, y, z'
loop_
 _atom_site_type_symbol
 _atom_site_label
 _atom_site_symmetry_multiplicity
 _atom_site_fract_x
 _atom_site_fract_y
 _atom_site_fract_z
 _atom_site_occupancy
  Hf  Hf0  1  0.183400  0.605158  0.605765  1
  Hf  Hf1  1  0.605153  0.183390  0.605774  1
  Hf  Hf2  1  0.605667  0.605678  0.182569  1
  Hf  Hf3  1  0.605618  0.605630  0.606130  1
  Hf  Hf4  1  0.810253  0.810248  0.189749  1
  Hf  Hf5  1  0.190243  0.190244  0.809758  1
  Hf  Hf6  1  0.809893  0.190970  0.809949  1
  Hf  Hf7  1  0.190970  0.809889  0.189191  1
  Hf  Hf8  1  0.190965  0.809892  0.809955  1
  Hf  Hf9  1  0.809889  0.190971  0.189195  1
  Hf  Hf10  1  0.440821  0.440820  0.059127  1
  Hf  Hf11  1  0.060624  0.060620  0.439380  1
  Hf  Hf12  1  0.440038  0.059491  0.440445  1
  Hf  Hf13  1  0.059558  0.440031  0.059982  1
  Hf  Hf14  1  0.059493  0.440038  0.440446  1
  Hf  Hf15  1  0.440028  0.059557  0.059984  1
  Fe  Fe16  1  0.820209  0.393267  0.393262  1
  Fe  Fe17  1  0.393266  0.820197  0.393269  1
  Fe  Fe18  1  0.393468  0.393465  0.819555  1
  Fe  Fe19  1  0.393463  0.393463  0.393497  1
  Pd  Pd20  1  0.836503  0.836501  0.490777  1
  Pd  Pd21  1  0.836504  0.836503  0.836219  1
  Pt  Pt22  1  0.485396  0.838579  0.838013  1
  Pt  Pt23  1  0.838578  0.485399  0.838011  1
