# generated using pymatgen
data_Y3SiPd5
_symmetry_space_group_name_H-M   'P 1'
_cell_length_a   8.24377490
_cell_length_b   8.24377481
_cell_length_c   8.24377518
_cell_angle_alpha   127.38809933
_cell_angle_beta   125.57526458
_cell_angle_gamma   79.10657619
_symmetry_Int_Tables_number   1
_chemical_formula_structural   Y3SiPd5
_chemical_formula_sum   'Y6 Si2 Pd10'
_cell_volume   350.16079772
_cell_formula_units_Z   2
loop_
 _symmetry_equiv_pos_site_id
 _symmetry_equiv_pos_as_xyz
  1  'x, y, z'
loop_
 _atom_site_type_symbol
 _atom_site_label
 _atom_site_symmetry_multiplicity
 _atom_site_fract_x
 _atom_site_fract_y
 _atom_site_fract_z
 _atom_site_occupancy
  Y  Y0  1  0.225789  0.449845  0.775944  1
  Y  Y1  1  0.774211  0.550155  0.224056  1
  Y  Y2  1  0.826098  0.050155  0.775944  1
  Y  Y3  1  0.173902  0.949845  0.224056  1
  Y  Y4  1  0.391531  0.250000  0.141531  1
  Y  Y5  1  0.608469  0.750000  0.858469  1
  Si  Si6  1  0.782235  0.250000  0.532235  1
  Si  Si7  1  0.217765  0.750000  0.467765  1
  Pd  Pd8  1  0.167816  0.400758  0.356447  1
  Pd  Pd9  1  0.832184  0.188631  0.232943  1
  Pd  Pd10  1  0.455689  0.099242  0.767057  1
  Pd  Pd11  1  0.544311  0.311369  0.643553  1
  Pd  Pd12  1  0.000000  0.500000  0.000000  1
  Pd  Pd13  1  0.000000  0.000000  0.500000  1
  Pd  Pd14  1  0.455689  0.688631  0.356447  1
  Pd  Pd15  1  0.544311  0.900758  0.232943  1
  Pd  Pd16  1  0.167816  0.811369  0.767057  1
  Pd  Pd17  1  0.832184  0.599242  0.643553  1
