# generated using pymatgen
data_Y20In6OsRu
_symmetry_space_group_name_H-M   'P 1'
_cell_length_a   9.76192800
_cell_length_b   9.76192831
_cell_length_c   9.81639400
_cell_angle_alpha   90.00000000
_cell_angle_beta   90.00000000
_cell_angle_gamma   119.99999894
_symmetry_Int_Tables_number   1
_chemical_formula_structural   Y20In6OsRu
_chemical_formula_sum   'Y20 In6 Os1 Ru1'
_cell_volume   810.12835296
_cell_formula_units_Z   1
loop_
 _symmetry_equiv_pos_site_id
 _symmetry_equiv_pos_as_xyz
  1  'x, y, z'
loop_
 _atom_site_type_symbol
 _atom_site_label
 _atom_site_symmetry_multiplicity
 _atom_site_fract_x
 _atom_site_fract_y
 _atom_site_fract_z
 _atom_site_occupancy
  Y  Y0  1  0.000000  0.000000  0.499503  1
  Y  Y1  1  0.000000  0.000000  0.000497  1
  Y  Y2  1  0.209741  0.790259  0.438895  1
  Y  Y3  1  0.209741  0.419482  0.438895  1
  Y  Y4  1  0.580518  0.790259  0.438895  1
  Y  Y5  1  0.790062  0.209938  0.561168  1
  Y  Y6  1  0.790062  0.580124  0.561168  1
  Y  Y7  1  0.419876  0.209938  0.561168  1
  Y  Y8  1  0.790062  0.209938  0.938832  1
  Y  Y9  1  0.790062  0.580124  0.938832  1
  Y  Y10  1  0.419876  0.209938  0.938832  1
  Y  Y11  1  0.209741  0.790259  0.061105  1
  Y  Y12  1  0.209741  0.419482  0.061105  1
  Y  Y13  1  0.580518  0.790259  0.061105  1
  Y  Y14  1  0.538768  0.461232  0.250000  1
  Y  Y15  1  0.538768  0.077537  0.250000  1
  Y  Y16  1  0.922463  0.461232  0.250000  1
  Y  Y17  1  0.460622  0.539378  0.750000  1
  Y  Y18  1  0.460622  0.921242  0.750000  1
  Y  Y19  1  0.078758  0.539378  0.750000  1
  In  In20  1  0.883989  0.116011  0.250000  1
  In  In21  1  0.883989  0.767978  0.250000  1
  In  In22  1  0.232022  0.116011  0.250000  1
  In  In23  1  0.115542  0.884458  0.750000  1
  In  In24  1  0.115542  0.231082  0.750000  1
  In  In25  1  0.768918  0.884458  0.750000  1
  Os  Os26  1  0.333333  0.666667  0.250000  1
  Ru  Ru27  1  0.666667  0.333333  0.750000  1
