# generated using pymatgen
data_Eu2VH9
_symmetry_space_group_name_H-M   'P 1'
_cell_length_a   8.62976200
_cell_length_b   8.62976066
_cell_length_c   4.95938600
_cell_angle_alpha   90.00000000
_cell_angle_beta   90.00000000
_cell_angle_gamma   120.00001279
_symmetry_Int_Tables_number   1
_chemical_formula_structural   Eu2VH9
_chemical_formula_sum   'Eu6 V3 H27'
_cell_volume   319.85714549
_cell_formula_units_Z   3
loop_
 _symmetry_equiv_pos_site_id
 _symmetry_equiv_pos_as_xyz
  1  'x, y, z'
loop_
 _atom_site_type_symbol
 _atom_site_label
 _atom_site_symmetry_multiplicity
 _atom_site_fract_x
 _atom_site_fract_y
 _atom_site_fract_z
 _atom_site_occupancy
  Eu  Eu0  1  0.000000  0.265971  0.500000  1
  Eu  Eu1  1  0.734029  0.734029  0.500000  1
  Eu  Eu2  1  0.265971  0.000000  0.500000  1
  Eu  Eu3  1  0.000000  0.600307  0.000000  1
  Eu  Eu4  1  0.399693  0.399693  0.000000  1
  Eu  Eu5  1  0.600307  0.000000  0.000000  1
  V  V6  1  0.666667  0.333333  0.500000  1
  V  V7  1  0.333333  0.666667  0.500000  1
  V  V8  1  0.000000  0.000000  0.000000  1
  H  H9  1  0.800743  0.322194  0.756743  1
  H  H10  1  0.677806  0.478548  0.756743  1
  H  H11  1  0.521452  0.199257  0.756743  1
  H  H12  1  0.199257  0.521452  0.243257  1
  H  H13  1  0.521452  0.199257  0.243257  1
  H  H14  1  0.800743  0.322194  0.243257  1
  H  H15  1  0.677806  0.478548  0.243257  1
  H  H16  1  0.322194  0.800743  0.756743  1
  H  H17  1  0.478548  0.677806  0.756743  1
  H  H18  1  0.202849  0.000000  0.000000  1
  H  H19  1  0.797151  0.797151  0.000000  1
  H  H20  1  0.000000  0.202849  0.000000  1
  H  H21  1  0.853308  0.000000  0.242377  1
  H  H22  1  0.146692  0.146692  0.757623  1
  H  H23  1  0.000000  0.853308  0.757623  1
  H  H24  1  0.000000  0.853308  0.242377  1
  H  H25  1  0.146692  0.146692  0.242377  1
  H  H26  1  0.853308  0.000000  0.757623  1
  H  H27  1  0.134005  0.663555  0.500000  1
  H  H28  1  0.529550  0.865995  0.500000  1
  H  H29  1  0.336445  0.470450  0.500000  1
  H  H30  1  0.470450  0.336445  0.500000  1
  H  H31  1  0.865995  0.529550  0.500000  1
  H  H32  1  0.663555  0.134005  0.500000  1
  H  H33  1  0.199257  0.521452  0.756743  1
  H  H34  1  0.322194  0.800743  0.243257  1
  H  H35  1  0.478548  0.677806  0.243257  1
