# generated using pymatgen
data_Tm8BeSi11Pt4
_symmetry_space_group_name_H-M   'P 1'
_cell_length_a   8.17671100
_cell_length_b   8.18629827
_cell_length_c   7.76315100
_cell_angle_alpha   90.00014698
_cell_angle_beta   90.00000000
_cell_angle_gamma   119.96126264
_symmetry_Int_Tables_number   1
_chemical_formula_structural   Tm8BeSi11Pt4
_chemical_formula_sum   'Tm8 Be1 Si11 Pt4'
_cell_volume   450.19873404
_cell_formula_units_Z   1
loop_
 _symmetry_equiv_pos_site_id
 _symmetry_equiv_pos_as_xyz
  1  'x, y, z'
loop_
 _atom_site_type_symbol
 _atom_site_label
 _atom_site_symmetry_multiplicity
 _atom_site_fract_x
 _atom_site_fract_y
 _atom_site_fract_z
 _atom_site_occupancy
  Tm  Tm0  1  0.512208  0.024415  0.245024  1
  Tm  Tm1  1  0.490059  0.980118  0.753935  1
  Tm  Tm2  1  0.982019  0.487407  0.245007  1
  Tm  Tm3  1  0.024197  0.509319  0.755847  1
  Tm  Tm4  1  0.505389  0.487407  0.245007  1
  Tm  Tm5  1  0.485121  0.509319  0.755847  1
  Tm  Tm6  1  0.999804  0.999608  0.249812  1
  Tm  Tm7  1  0.999335  0.998670  0.751210  1
  Be  Be8  1  0.163805  0.327608  0.002962  1
  Si  Si9  1  0.834913  0.669826  0.998424  1
  Si  Si10  1  0.669175  0.837533  0.002824  1
  Si  Si11  1  0.834679  0.669358  0.499159  1
  Si  Si12  1  0.321836  0.171867  0.996640  1
  Si  Si13  1  0.164781  0.329561  0.500138  1
  Si  Si14  1  0.168359  0.837533  0.002824  1
  Si  Si15  1  0.330787  0.164496  0.501383  1
  Si  Si16  1  0.850030  0.171867  0.996640  1
  Si  Si17  1  0.669212  0.834527  0.499474  1
  Si  Si18  1  0.833708  0.164496  0.501383  1
  Si  Si19  1  0.165316  0.834527  0.499474  1
  Pt  Pt20  1  0.329306  0.658612  0.031429  1
  Pt  Pt21  1  0.665470  0.330939  0.966829  1
  Pt  Pt22  1  0.666998  0.333994  0.535273  1
  Pt  Pt23  1  0.333494  0.666989  0.463459  1
