# generated using pymatgen
data_Rb5Nd(MoH9)3
_symmetry_space_group_name_H-M   'P 1'
_cell_length_a   9.95406229
_cell_length_b   9.65576284
_cell_length_c   5.51179500
_cell_angle_alpha   90.00000000
_cell_angle_beta   90.00000000
_cell_angle_gamma   119.01354722
_symmetry_Int_Tables_number   1
_chemical_formula_structural   Rb5Nd(MoH9)3
_chemical_formula_sum   'Rb5 Nd1 Mo3 H27'
_cell_volume   463.27868988
_cell_formula_units_Z   1
loop_
 _symmetry_equiv_pos_site_id
 _symmetry_equiv_pos_as_xyz
  1  'x, y, z'
loop_
 _atom_site_type_symbol
 _atom_site_label
 _atom_site_symmetry_multiplicity
 _atom_site_fract_x
 _atom_site_fract_y
 _atom_site_fract_z
 _atom_site_occupancy
  Rb  Rb0  1  0.736596  0.741513  0.500000  1
  Rb  Rb1  1  0.263404  0.004917  0.500000  1
  Rb  Rb2  1  0.000000  0.601854  0.000000  1
  Rb  Rb3  1  0.418245  0.398422  0.000000  1
  Rb  Rb4  1  0.581755  0.980177  0.000000  1
  Nd  Nd5  1  0.000000  0.264739  0.500000  1
  Mo  Mo6  1  0.693059  0.320520  0.500000  1
  Mo  Mo7  1  0.306941  0.627461  0.500000  1
  Mo  Mo8  1  0.000000  0.045645  0.000000  1
  H  H9  1  0.811713  0.292706  0.719776  1
  H  H10  1  0.711728  0.464078  0.712062  1
  H  H11  1  0.545861  0.213663  0.710537  1
  H  H12  1  0.188287  0.480993  0.280224  1
  H  H13  1  0.545861  0.213663  0.289463  1
  H  H14  1  0.811713  0.292706  0.280224  1
  H  H15  1  0.711728  0.464078  0.287938  1
  H  H16  1  0.288272  0.752351  0.712062  1
  H  H17  1  0.454139  0.667803  0.710537  1
  H  H18  1  0.170445  0.041363  0.000000  1
  H  H19  1  0.829555  0.870919  0.000000  1
  H  H20  1  0.000000  0.231508  0.000000  1
  H  H21  1  0.875385  0.039550  0.237735  1
  H  H22  1  0.124615  0.164165  0.762265  1
  H  H23  1  0.000000  0.907534  0.795769  1
  H  H24  1  0.000000  0.907534  0.204231  1
  H  H25  1  0.124615  0.164165  0.237735  1
  H  H26  1  0.875385  0.039550  0.762265  1
  H  H27  1  0.125836  0.617076  0.500000  1
  H  H28  1  0.448014  0.825537  0.500000  1
  H  H29  1  0.353003  0.473452  0.500000  1
  H  H30  1  0.551986  0.377524  0.500000  1
  H  H31  1  0.874164  0.491240  0.500000  1
  H  H32  1  0.646997  0.120449  0.500000  1
  H  H33  1  0.188287  0.480993  0.719776  1
  H  H34  1  0.288272  0.752351  0.287938  1
  H  H35  1  0.454139  0.667803  0.289463  1
