# generated using pymatgen
data_Ce2Re3Si2MoC2
_symmetry_space_group_name_H-M   'P 1'
_cell_length_a   5.87164006
_cell_length_b   5.87164190
_cell_length_c   7.44387358
_cell_angle_alpha   89.16597532
_cell_angle_beta   90.83402637
_cell_angle_gamma   140.61986622
_symmetry_Int_Tables_number   1
_chemical_formula_structural   Ce2Re3Si2MoC2
_chemical_formula_sum   'Ce2 Re3 Si2 Mo1 C2'
_cell_volume   162.80661887
_cell_formula_units_Z   1
loop_
 _symmetry_equiv_pos_site_id
 _symmetry_equiv_pos_as_xyz
  1  'x, y, z'
loop_
 _atom_site_type_symbol
 _atom_site_label
 _atom_site_symmetry_multiplicity
 _atom_site_fract_x
 _atom_site_fract_y
 _atom_site_fract_z
 _atom_site_occupancy
  Ce  Ce0  1  0.541331  0.458669  0.250889  1
  Ce  Ce1  1  0.459602  0.540398  0.748289  1
  Re  Re2  1  0.178456  0.821544  0.940826  1
  Re  Re3  1  0.169896  0.830104  0.563541  1
  Re  Re4  1  0.827440  0.172560  0.437323  1
  Si  Si5  1  0.261343  0.738657  0.261086  1
  Si  Si6  1  0.735589  0.264411  0.740663  1
  Mo  Mo7  1  0.824551  0.175449  0.058921  1
  C  C8  1  0.002890  0.997110  0.999077  1
  C  C9  1  0.998902  0.001098  0.499384  1
