# generated using pymatgen
data_Dy5Bi2P
_symmetry_space_group_name_H-M   'P 1'
_cell_length_a   7.98713400
_cell_length_b   8.97407400
_cell_length_c   12.18122000
_cell_angle_alpha   90.00000000
_cell_angle_beta   90.00000000
_cell_angle_gamma   90.00000000
_symmetry_Int_Tables_number   1
_chemical_formula_structural   Dy5Bi2P
_chemical_formula_sum   'Dy20 Bi8 P4'
_cell_volume   873.11490855
_cell_formula_units_Z   4
loop_
 _symmetry_equiv_pos_site_id
 _symmetry_equiv_pos_as_xyz
  1  'x, y, z'
loop_
 _atom_site_type_symbol
 _atom_site_label
 _atom_site_symmetry_multiplicity
 _atom_site_fract_x
 _atom_site_fract_y
 _atom_site_fract_z
 _atom_site_occupancy
  Dy  Dy0  1  0.851584  0.750000  0.794352  1
  Dy  Dy1  1  0.148416  0.250000  0.205648  1
  Dy  Dy2  1  0.351584  0.250000  0.705648  1
  Dy  Dy3  1  0.648416  0.750000  0.294352  1
  Dy  Dy4  1  0.375958  0.750000  0.699305  1
  Dy  Dy5  1  0.624042  0.250000  0.300695  1
  Dy  Dy6  1  0.875958  0.250000  0.800695  1
  Dy  Dy7  1  0.124042  0.750000  0.199305  1
  Dy  Dy8  1  0.959416  0.750000  0.502342  1
  Dy  Dy9  1  0.040584  0.250000  0.497658  1
  Dy  Dy10  1  0.459416  0.250000  0.997658  1
  Dy  Dy11  1  0.540584  0.750000  0.002342  1
  Dy  Dy12  1  0.683334  0.048521  0.564056  1
  Dy  Dy13  1  0.316666  0.951479  0.435944  1
  Dy  Dy14  1  0.183334  0.951479  0.935944  1
  Dy  Dy15  1  0.316666  0.548521  0.435944  1
  Dy  Dy16  1  0.816666  0.048521  0.064056  1
  Dy  Dy17  1  0.683334  0.451479  0.564056  1
  Dy  Dy18  1  0.816666  0.451479  0.064056  1
  Dy  Dy19  1  0.183334  0.548521  0.935944  1
  Bi  Bi20  1  0.577335  0.490881  0.826550  1
  Bi  Bi21  1  0.422665  0.509119  0.173450  1
  Bi  Bi22  1  0.077335  0.509119  0.673450  1
  Bi  Bi23  1  0.422665  0.990881  0.173450  1
  Bi  Bi24  1  0.922665  0.490881  0.326550  1
  Bi  Bi25  1  0.577335  0.009119  0.826550  1
  Bi  Bi26  1  0.922665  0.009119  0.326550  1
  Bi  Bi27  1  0.077335  0.990881  0.673450  1
  P  P28  1  0.572694  0.750000  0.511978  1
  P  P29  1  0.427306  0.250000  0.488022  1
  P  P30  1  0.072694  0.250000  0.988022  1
  P  P31  1  0.927306  0.750000  0.011978  1
