# generated using pymatgen
data_RhCl(OF3)2
_symmetry_space_group_name_H-M   'P 1'
_cell_length_a   5.88216100
_cell_length_b   7.19106548
_cell_length_c   10.48088064
_cell_angle_alpha   47.21841186
_cell_angle_beta   90.00000000
_cell_angle_gamma   90.00000000
_symmetry_Int_Tables_number   1
_chemical_formula_structural   RhCl(OF3)2
_chemical_formula_sum   'Rh2 Cl2 O4 F12'
_cell_volume   325.38184230
_cell_formula_units_Z   2
loop_
 _symmetry_equiv_pos_site_id
 _symmetry_equiv_pos_as_xyz
  1  'x, y, z'
loop_
 _atom_site_type_symbol
 _atom_site_label
 _atom_site_symmetry_multiplicity
 _atom_site_fract_x
 _atom_site_fract_y
 _atom_site_fract_z
 _atom_site_occupancy
  Rh  Rh0  1  0.007550  0.500000  0.750000  1
  Rh  Rh1  1  0.992450  0.500000  0.250000  1
  Cl  Cl2  1  0.349322  0.000000  0.750000  1
  Cl  Cl3  1  0.650678  0.000000  0.250000  1
  O  O4  1  0.523561  0.846926  0.408363  1
  O  O5  1  0.476439  0.846926  0.908363  1
  O  O6  1  0.523561  0.153074  0.091637  1
  O  O7  1  0.476439  0.153074  0.591637  1
  F  F8  1  0.749819  0.324952  0.241372  1
  F  F9  1  0.011975  0.246141  0.994293  1
  F  F10  1  0.250181  0.324952  0.741372  1
  F  F11  1  0.217976  0.321427  0.241695  1
  F  F12  1  0.749819  0.675048  0.258628  1
  F  F13  1  0.782024  0.678573  0.758305  1
  F  F14  1  0.988025  0.246141  0.494293  1
  F  F15  1  0.782024  0.321427  0.741695  1
  F  F16  1  0.250181  0.675048  0.758628  1
  F  F17  1  0.011975  0.753859  0.505707  1
  F  F18  1  0.988025  0.753859  0.005707  1
  F  F19  1  0.217976  0.678573  0.258305  1
