# generated using pymatgen
data_Ho12Ni4HgRh
_symmetry_space_group_name_H-M   'P 1'
_cell_length_a   8.24505633
_cell_length_b   8.24476563
_cell_length_c   8.24505700
_cell_angle_alpha   110.76504063
_cell_angle_beta   109.77374915
_cell_angle_gamma   107.88936275
_symmetry_Int_Tables_number   1
_chemical_formula_structural   Ho12Ni4HgRh
_chemical_formula_sum   'Ho12 Ni4 Hg1 Rh1'
_cell_volume   431.17642086
_cell_formula_units_Z   1
loop_
 _symmetry_equiv_pos_site_id
 _symmetry_equiv_pos_as_xyz
  1  'x, y, z'
loop_
 _atom_site_type_symbol
 _atom_site_label
 _atom_site_symmetry_multiplicity
 _atom_site_fract_x
 _atom_site_fract_y
 _atom_site_fract_z
 _atom_site_occupancy
  Ho  Ho0  1  0.414232  0.224897  0.189348  1
  Ho  Ho1  1  0.585768  0.775103  0.810652  1
  Ho  Ho2  1  0.035549  0.224897  0.810664  1
  Ho  Ho3  1  0.964451  0.775103  0.189336  1
  Ho  Ho4  1  0.180167  0.283650  0.463795  1
  Ho  Ho5  1  0.819833  0.716350  0.536205  1
  Ho  Ho6  1  0.180146  0.716350  0.896517  1
  Ho  Ho7  1  0.819854  0.283650  0.103483  1
  Ho  Ho8  1  0.324052  0.630083  0.306032  1
  Ho  Ho9  1  0.675948  0.369917  0.693968  1
  Ho  Ho10  1  0.324041  0.017974  0.693935  1
  Ho  Ho11  1  0.675959  0.982026  0.306065  1
  Ni  Ni12  1  0.356281  0.000000  0.356281  1
  Ni  Ni13  1  0.643719  0.000000  0.643719  1
  Ni  Ni14  1  0.120877  0.620833  0.499956  1
  Ni  Ni15  1  0.879123  0.379167  0.500044  1
  Hg  Hg16  1  0.500000  0.500000  0.000000  1
  Rh  Rh17  1  0.000000  0.000000  0.000000  1
