# generated using pymatgen
data_Dy6Ho7Tm3(CdPt)4
_symmetry_space_group_name_H-M   'P 1'
_cell_length_a   9.64776742
_cell_length_b   9.64623698
_cell_length_c   9.63869074
_cell_angle_alpha   60.03636867
_cell_angle_beta   59.99338960
_cell_angle_gamma   59.94301474
_symmetry_Int_Tables_number   1
_chemical_formula_structural   Dy6Ho7Tm3(CdPt)4
_chemical_formula_sum   'Dy6 Ho7 Tm3 Cd4 Pt4'
_cell_volume   634.15853956
_cell_formula_units_Z   1
loop_
 _symmetry_equiv_pos_site_id
 _symmetry_equiv_pos_as_xyz
  1  'x, y, z'
loop_
 _atom_site_type_symbol
 _atom_site_label
 _atom_site_symmetry_multiplicity
 _atom_site_fract_x
 _atom_site_fract_y
 _atom_site_fract_z
 _atom_site_occupancy
  Dy  Dy0  1  0.935828  0.564096  0.564259  1
  Dy  Dy1  1  0.564259  0.935817  0.935828  1
  Dy  Dy2  1  0.564992  0.935008  0.564992  1
  Dy  Dy3  1  0.936631  0.563368  0.936631  1
  Dy  Dy4  1  0.564341  0.564071  0.935870  1
  Dy  Dy5  1  0.935870  0.935718  0.564340  1
  Ho  Ho6  1  0.352064  0.350661  0.352635  1
  Ho  Ho7  1  0.354250  0.352152  0.941041  1
  Ho  Ho8  1  0.352635  0.944642  0.352064  1
  Ho  Ho9  1  0.941041  0.352559  0.354250  1
  Ho  Ho10  1  0.811208  0.189543  0.188336  1
  Ho  Ho11  1  0.188336  0.810913  0.811208  1
  Ho  Ho12  1  0.189619  0.810381  0.189619  1
  Tm  Tm13  1  0.811421  0.188579  0.811421  1
  Tm  Tm14  1  0.188697  0.189877  0.810829  1
  Tm  Tm15  1  0.810829  0.810596  0.188697  1
  Cd  Cd16  1  0.581441  0.581910  0.581261  1
  Cd  Cd17  1  0.581304  0.582009  0.254832  1
  Cd  Cd18  1  0.581261  0.255387  0.581441  1
  Cd  Cd19  1  0.254832  0.581854  0.581304  1
  Pt  Pt20  1  0.143390  0.144409  0.142250  1
  Pt  Pt21  1  0.141833  0.143782  0.571672  1
  Pt  Pt22  1  0.142250  0.569952  0.143390  1
  Pt  Pt23  1  0.571672  0.142715  0.141833  1
