# generated using pymatgen
data_Yb7Ho(Si3Pt)4
_symmetry_space_group_name_H-M   'P 1'
_cell_length_a   8.19831436
_cell_length_b   8.21733004
_cell_length_c   8.28339400
_cell_angle_alpha   90.00000000
_cell_angle_beta   90.00000000
_cell_angle_gamma   120.07676510
_symmetry_Int_Tables_number   1
_chemical_formula_structural   Yb7Ho(Si3Pt)4
_chemical_formula_sum   'Yb7 Ho1 Si12 Pt4'
_cell_volume   482.90064507
_cell_formula_units_Z   1
loop_
 _symmetry_equiv_pos_site_id
 _symmetry_equiv_pos_as_xyz
  1  'x, y, z'
loop_
 _atom_site_type_symbol
 _atom_site_label
 _atom_site_symmetry_multiplicity
 _atom_site_fract_x
 _atom_site_fract_y
 _atom_site_fract_z
 _atom_site_occupancy
  Yb  Yb0  1  0.000375  0.000187  0.250000  1
  Yb  Yb1  1  0.000079  0.000039  0.750000  1
  Yb  Yb2  1  0.502393  0.497127  0.250000  1
  Yb  Yb3  1  0.502393  0.005266  0.250000  1
  Yb  Yb4  1  0.994357  0.497179  0.250000  1
  Yb  Yb5  1  0.497721  0.503064  0.750000  1
  Yb  Yb6  1  0.497721  0.994657  0.750000  1
  Ho  Ho7  1  0.005356  0.502678  0.750000  1
  Si  Si8  1  0.165055  0.835146  0.500988  1
  Si  Si9  1  0.165055  0.329907  0.500988  1
  Si  Si10  1  0.668485  0.834241  0.499149  1
  Si  Si11  1  0.834758  0.164697  0.504117  1
  Si  Si12  1  0.834758  0.670062  0.504117  1
  Si  Si13  1  0.331583  0.165792  0.503764  1
  Si  Si14  1  0.834758  0.164697  0.995883  1
  Si  Si15  1  0.834758  0.670062  0.995883  1
  Si  Si16  1  0.331583  0.165792  0.996236  1
  Si  Si17  1  0.165055  0.835146  0.999012  1
  Si  Si18  1  0.165055  0.329907  0.999012  1
  Si  Si19  1  0.668485  0.834241  0.000851  1
  Pt  Pt20  1  0.331376  0.665689  0.498078  1
  Pt  Pt21  1  0.668735  0.334367  0.508634  1
  Pt  Pt22  1  0.668735  0.334367  0.991366  1
  Pt  Pt23  1  0.331376  0.665689  0.001922  1
