# generated using pymatgen
data_Th3AlPd2PtAu2
_symmetry_space_group_name_H-M   'P 1'
_cell_length_a   7.80853412
_cell_length_b   7.54796075
_cell_length_c   3.84490100
_cell_angle_alpha   90.00000000
_cell_angle_beta   90.00000000
_cell_angle_gamma   118.99773363
_symmetry_Int_Tables_number   1
_chemical_formula_structural   Th3AlPd2PtAu2
_chemical_formula_sum   'Th3 Al1 Pd2 Pt1 Au2'
_cell_volume   198.20430726
_cell_formula_units_Z   1
loop_
 _symmetry_equiv_pos_site_id
 _symmetry_equiv_pos_as_xyz
  1  'x, y, z'
loop_
 _atom_site_type_symbol
 _atom_site_label
 _atom_site_symmetry_multiplicity
 _atom_site_fract_x
 _atom_site_fract_y
 _atom_site_fract_z
 _atom_site_occupancy
  Th  Th0  1  0.402299  0.397112  0.500000  1
  Th  Th1  1  0.595220  0.989696  0.500000  1
  Th  Th2  1  0.002216  0.614548  0.500000  1
  Al  Al3  1  0.998266  0.254517  0.000000  1
  Pd  Pd4  1  0.690361  0.328561  0.000000  1
  Pd  Pd5  1  0.999750  0.035699  0.500000  1
  Pt  Pt6  1  0.307211  0.637513  0.000000  1
  Au  Au7  1  0.732416  0.733033  0.000000  1
  Au  Au8  1  0.272261  0.009320  0.000000  1
