# generated using pymatgen
data_DyY7Sc12Si15P
_symmetry_space_group_name_H-M   'P 1'
_cell_length_a   7.09681640
_cell_length_b   7.37949315
_cell_length_c   13.98249001
_cell_angle_alpha   90.00563437
_cell_angle_beta   89.99285094
_cell_angle_gamma   90.13111952
_symmetry_Int_Tables_number   1
_chemical_formula_structural   DyY7Sc12Si15P
_chemical_formula_sum   'Dy1 Y7 Sc12 Si15 P1'
_cell_volume   732.27377122
_cell_formula_units_Z   1
loop_
 _symmetry_equiv_pos_site_id
 _symmetry_equiv_pos_as_xyz
  1  'x, y, z'
loop_
 _atom_site_type_symbol
 _atom_site_label
 _atom_site_symmetry_multiplicity
 _atom_site_fract_x
 _atom_site_fract_y
 _atom_site_fract_z
 _atom_site_occupancy
  Dy  Dy0  1  0.489518  0.675155  0.596530  1
  Y  Y1  1  0.010390  0.174749  0.096487  1
  Y  Y2  1  0.990713  0.827172  0.900339  1
  Y  Y3  1  0.489776  0.675050  0.903671  1
  Y  Y4  1  0.990697  0.827080  0.599579  1
  Y  Y5  1  0.511458  0.324683  0.096120  1
  Y  Y6  1  0.010458  0.174936  0.403503  1
  Y  Y7  1  0.511385  0.324759  0.404001  1
  Sc  Sc8  1  0.159924  0.501430  0.749986  1
  Sc  Sc9  1  0.838963  0.498003  0.250005  1
  Sc  Sc10  1  0.339629  0.001649  0.250002  1
  Sc  Sc11  1  0.661953  0.999537  0.750010  1
  Sc  Sc12  1  0.327123  0.173298  0.627406  1
  Sc  Sc13  1  0.668339  0.823256  0.375372  1
  Sc  Sc14  1  0.168119  0.677040  0.375145  1
  Sc  Sc15  1  0.668349  0.823212  0.124645  1
  Sc  Sc16  1  0.832227  0.323022  0.626311  1
  Sc  Sc17  1  0.327160  0.173322  0.872642  1
  Sc  Sc18  1  0.832302  0.322976  0.873654  1
  Sc  Sc19  1  0.168254  0.677188  0.124725  1
  Si  Si20  1  0.965300  0.882764  0.249900  1
  Si  Si21  1  0.465920  0.616275  0.249917  1
  Si  Si22  1  0.531678  0.381888  0.749954  1
  Si  Si23  1  0.295925  0.864097  0.749904  1
  Si  Si24  1  0.714574  0.125346  0.249990  1
  Si  Si25  1  0.214957  0.374299  0.249937  1
  Si  Si26  1  0.786729  0.627439  0.749968  1
  Si  Si27  1  0.157462  0.463872  0.540264  1
  Si  Si28  1  0.842698  0.536016  0.461352  1
  Si  Si29  1  0.341043  0.964699  0.460906  1
  Si  Si30  1  0.842657  0.535930  0.038720  1
  Si  Si31  1  0.658407  0.036406  0.540494  1
  Si  Si32  1  0.157177  0.463567  0.959763  1
  Si  Si33  1  0.658768  0.036803  0.959567  1
  Si  Si34  1  0.340993  0.964984  0.039248  1
  P  P35  1  0.028972  0.128100  0.749983  1
