# generated using pymatgen
data_Ta4RhS8
_symmetry_space_group_name_H-M   'P 1'
_cell_length_a   6.67005400
_cell_length_b   6.67005332
_cell_length_c   12.16793000
_cell_angle_alpha   90.00000000
_cell_angle_beta   90.00000000
_cell_angle_gamma   119.99999346
_symmetry_Int_Tables_number   1
_chemical_formula_structural   Ta4RhS8
_chemical_formula_sum   'Ta8 Rh2 S16'
_cell_volume   468.81987906
_cell_formula_units_Z   2
loop_
 _symmetry_equiv_pos_site_id
 _symmetry_equiv_pos_as_xyz
  1  'x, y, z'
loop_
 _atom_site_type_symbol
 _atom_site_label
 _atom_site_symmetry_multiplicity
 _atom_site_fract_x
 _atom_site_fract_y
 _atom_site_fract_z
 _atom_site_occupancy
  Ta  Ta0  1  0.000000  0.000000  0.250000  1
  Ta  Ta1  1  0.000000  0.000000  0.750000  1
  Ta  Ta2  1  0.507657  0.015314  0.250000  1
  Ta  Ta3  1  0.492343  0.984686  0.750000  1
  Ta  Ta4  1  0.984686  0.492343  0.250000  1
  Ta  Ta5  1  0.015314  0.507657  0.750000  1
  Ta  Ta6  1  0.507657  0.492343  0.250000  1
  Ta  Ta7  1  0.492343  0.507657  0.750000  1
  Rh  Rh8  1  0.000000  0.000000  0.000000  1
  Rh  Rh9  1  0.000000  0.000000  0.500000  1
  S  S10  1  0.333333  0.666667  0.615905  1
  S  S11  1  0.666667  0.333333  0.384095  1
  S  S12  1  0.666667  0.333333  0.115905  1
  S  S13  1  0.333333  0.666667  0.884095  1
  S  S14  1  0.167385  0.334770  0.122682  1
  S  S15  1  0.832615  0.665230  0.877318  1
  S  S16  1  0.665230  0.832615  0.122682  1
  S  S17  1  0.832615  0.665230  0.622682  1
  S  S18  1  0.334770  0.167385  0.877318  1
  S  S19  1  0.167385  0.334770  0.377318  1
  S  S20  1  0.167385  0.832615  0.122682  1
  S  S21  1  0.334770  0.167385  0.622682  1
  S  S22  1  0.832615  0.167385  0.877318  1
  S  S23  1  0.665230  0.832615  0.377318  1
  S  S24  1  0.832615  0.167385  0.622682  1
  S  S25  1  0.167385  0.832615  0.377318  1
