# generated using pymatgen
data_Tb2HoPa(Al3Ir)6
_symmetry_space_group_name_H-M   'P 1'
_cell_length_a   7.57754311
_cell_length_b   7.57288028
_cell_length_c   9.43180100
_cell_angle_alpha   90.00000000
_cell_angle_beta   90.00000000
_cell_angle_gamma   119.60419560
_symmetry_Int_Tables_number   1
_chemical_formula_structural   Tb2HoPa(Al3Ir)6
_chemical_formula_sum   'Tb2 Ho1 Pa1 Al18 Ir6'
_cell_volume   470.57962810
_cell_formula_units_Z   1
loop_
 _symmetry_equiv_pos_site_id
 _symmetry_equiv_pos_as_xyz
  1  'x, y, z'
loop_
 _atom_site_type_symbol
 _atom_site_label
 _atom_site_symmetry_multiplicity
 _atom_site_fract_x
 _atom_site_fract_y
 _atom_site_fract_z
 _atom_site_occupancy
  Tb  Tb0  1  0.004776  0.329285  0.750000  1
  Tb  Tb1  1  0.329507  0.004297  0.750000  1
  Ho  Ho2  1  0.672277  0.994939  0.250000  1
  Pa  Pa3  1  0.996111  0.671266  0.250000  1
  Al  Al4  1  0.131499  0.130378  0.250000  1
  Al  Al5  1  0.872366  0.873908  0.750000  1
  Al  Al6  1  0.000826  0.332066  0.074815  1
  Al  Al7  1  0.998873  0.664741  0.921283  1
  Al  Al8  1  0.998873  0.664741  0.578717  1
  Al  Al9  1  0.338647  0.003914  0.425018  1
  Al  Al10  1  0.000826  0.332066  0.425185  1
  Al  Al11  1  0.665171  0.999816  0.575495  1
  Al  Al12  1  0.665171  0.999816  0.924505  1
  Al  Al13  1  0.338647  0.003914  0.074982  1
  Al  Al14  1  0.332713  0.332798  0.555429  1
  Al  Al15  1  0.663196  0.665890  0.448365  1
  Al  Al16  1  0.663196  0.665890  0.051635  1
  Al  Al17  1  0.332713  0.332798  0.944571  1
  Al  Al18  1  0.339331  0.547034  0.250000  1
  Al  Al19  1  0.659421  0.450199  0.750000  1
  Al  Al20  1  0.546827  0.341681  0.250000  1
  Al  Al21  1  0.451104  0.660992  0.750000  1
  Ir  Ir22  1  0.673889  0.329993  0.002282  1
  Ir  Ir23  1  0.326012  0.672027  0.002358  1
  Ir  Ir24  1  0.326012  0.672027  0.497642  1
  Ir  Ir25  1  0.673889  0.329993  0.497718  1
  Ir  Ir26  1  0.999065  0.996764  0.003243  1
  Ir  Ir27  1  0.999065  0.996764  0.496757  1
