# generated using pymatgen
data_Ca4Zn(RuO4)3
_symmetry_space_group_name_H-M   'P 1'
_cell_length_a   5.41233912
_cell_length_b   5.61965685
_cell_length_c   7.75329946
_cell_angle_alpha   89.78759216
_cell_angle_beta   89.83157380
_cell_angle_gamma   89.86537463
_symmetry_Int_Tables_number   1
_chemical_formula_structural   Ca4Zn(RuO4)3
_chemical_formula_sum   'Ca4 Zn1 Ru3 O12'
_cell_volume   235.81710702
_cell_formula_units_Z   1
loop_
 _symmetry_equiv_pos_site_id
 _symmetry_equiv_pos_as_xyz
  1  'x, y, z'
loop_
 _atom_site_type_symbol
 _atom_site_label
 _atom_site_symmetry_multiplicity
 _atom_site_fract_x
 _atom_site_fract_y
 _atom_site_fract_z
 _atom_site_occupancy
  Ca  Ca0  1  0.512877  0.554638  0.239736  1
  Ca  Ca1  1  0.983302  0.063019  0.237556  1
  Ca  Ca2  1  0.487123  0.445362  0.760264  1
  Ca  Ca3  1  0.016698  0.936981  0.762444  1
  Zn  Zn4  1  0.000000  0.500000  0.000000  1
  Ru  Ru5  1  0.500000  0.000000  0.500000  1
  Ru  Ru6  1  0.000000  0.500000  0.500000  1
  Ru  Ru7  1  0.500000  0.000000  0.000000  1
  O  O8  1  0.794243  0.806792  0.046277  1
  O  O9  1  0.696382  0.298580  0.447996  1
  O  O10  1  0.199779  0.200434  0.553381  1
  O  O11  1  0.311485  0.710980  0.951641  1
  O  O12  1  0.205757  0.193208  0.953723  1
  O  O13  1  0.303618  0.701420  0.552004  1
  O  O14  1  0.800221  0.799566  0.446619  1
  O  O15  1  0.688515  0.289020  0.048359  1
  O  O16  1  0.401230  0.968714  0.251560  1
  O  O17  1  0.096285  0.470473  0.260168  1
  O  O18  1  0.598770  0.031286  0.748440  1
  O  O19  1  0.903715  0.529527  0.739832  1
