# generated using pymatgen
data_La2YbU3(Ni3Sb4)2
_symmetry_space_group_name_H-M   'P 1'
_cell_length_a   8.23737307
_cell_length_b   8.29466087
_cell_length_c   8.29110101
_cell_angle_alpha   109.92337441
_cell_angle_beta   109.63285581
_cell_angle_gamma   109.10303153
_symmetry_Int_Tables_number   1
_chemical_formula_structural   La2YbU3(Ni3Sb4)2
_chemical_formula_sum   'La2 Yb1 U3 Ni6 Sb8'
_cell_volume   434.74758269
_cell_formula_units_Z   1
loop_
 _symmetry_equiv_pos_site_id
 _symmetry_equiv_pos_as_xyz
  1  'x, y, z'
loop_
 _atom_site_type_symbol
 _atom_site_label
 _atom_site_symmetry_multiplicity
 _atom_site_fract_x
 _atom_site_fract_y
 _atom_site_fract_z
 _atom_site_occupancy
  La  La0  1  0.628031  0.749964  0.375685  1
  La  La1  1  0.250001  0.129556  0.879583  1
  Yb  Yb2  1  0.871981  0.247639  0.121936  1
  U  U3  1  0.750014  0.369902  0.619936  1
  U  U4  1  0.121206  0.872289  0.249917  1
  U  U5  1  0.378779  0.628764  0.751037  1
  Ni  Ni6  1  0.389310  0.255051  0.617658  1
  Ni  Ni7  1  0.110710  0.728326  0.865703  1
  Ni  Ni8  1  0.249964  0.629272  0.379329  1
  Ni  Ni9  1  0.749991  0.869636  0.119562  1
  Ni  Ni10  1  0.640159  0.376586  0.286561  1
  Ni  Ni11  1  0.859892  0.146508  0.736576  1
  Sb  Sb12  1  0.663795  0.501718  0.995597  1
  Sb  Sb13  1  0.494180  0.997678  0.656416  1
  Sb  Sb14  1  0.005821  0.662013  0.503423  1
  Sb  Sb15  1  0.836213  0.831920  0.837999  1
  Sb  Sb16  1  0.494538  0.994369  0.159045  1
  Sb  Sb17  1  0.160912  0.504310  0.000813  1
  Sb  Sb18  1  0.005549  0.164694  0.499860  1
  Sb  Sb19  1  0.338953  0.339804  0.343365  1
