# generated using pymatgen
data_Er3CuSn3IrRu
_symmetry_space_group_name_H-M   'P 1'
_cell_length_a   7.54777700
_cell_length_b   7.54777621
_cell_length_c   3.84502300
_cell_angle_alpha   90.00000000
_cell_angle_beta   90.00000000
_cell_angle_gamma   119.99999908
_symmetry_Int_Tables_number   1
_chemical_formula_structural   Er3CuSn3IrRu
_chemical_formula_sum   'Er3 Cu1 Sn3 Ir1 Ru1'
_cell_volume   189.70014071
_cell_formula_units_Z   1
loop_
 _symmetry_equiv_pos_site_id
 _symmetry_equiv_pos_as_xyz
  1  'x, y, z'
loop_
 _atom_site_type_symbol
 _atom_site_label
 _atom_site_symmetry_multiplicity
 _atom_site_fract_x
 _atom_site_fract_y
 _atom_site_fract_z
 _atom_site_occupancy
  Er  Er0  1  0.392479  0.409481  0.500000  1
  Er  Er1  1  0.590519  0.982997  0.500000  1
  Er  Er2  1  0.017003  0.607521  0.500000  1
  Cu  Cu3  1  0.666667  0.333333  0.000000  1
  Sn  Sn4  1  0.739608  0.731652  0.000000  1
  Sn  Sn5  1  0.268348  0.007955  0.000000  1
  Sn  Sn6  1  0.992045  0.260392  0.000000  1
  Ir  Ir7  1  0.333333  0.666667  0.000000  1
  Ru  Ru8  1  0.000000  0.000000  0.500000  1
