# generated using pymatgen
data_La2Er3P12Pd2Ru17
_symmetry_space_group_name_H-M   'P 1'
_cell_length_a   12.59378627
_cell_length_b   12.72298436
_cell_length_c   3.99759000
_cell_angle_alpha   90.00000000
_cell_angle_beta   90.00000000
_cell_angle_gamma   120.22731924
_symmetry_Int_Tables_number   1
_chemical_formula_structural   La2Er3P12Pd2Ru17
_chemical_formula_sum   'La2 Er3 P12 Pd2 Ru17'
_cell_volume   553.44545568
_cell_formula_units_Z   1
loop_
 _symmetry_equiv_pos_site_id
 _symmetry_equiv_pos_as_xyz
  1  'x, y, z'
loop_
 _atom_site_type_symbol
 _atom_site_label
 _atom_site_symmetry_multiplicity
 _atom_site_fract_x
 _atom_site_fract_y
 _atom_site_fract_z
 _atom_site_occupancy
  La  La0  1  0.818233  0.999262  0.500000  1
  La  La1  1  0.001009  0.816746  0.500000  1
  Er  Er2  1  0.182912  0.181707  0.500000  1
  Er  Er3  1  0.326328  0.662587  0.000000  1
  Er  Er4  1  0.672305  0.335070  0.000000  1
  P  P5  1  0.807243  0.808508  0.000000  1
  P  P6  1  0.193027  0.005431  0.000000  1
  P  P7  1  0.003987  0.186608  0.000000  1
  P  P8  1  0.171656  0.478025  0.500000  1
  P  P9  1  0.514387  0.699524  0.500000  1
  P  P10  1  0.298355  0.820998  0.500000  1
  P  P11  1  0.700470  0.520771  0.500000  1
  P  P12  1  0.829237  0.305824  0.500000  1
  P  P13  1  0.484718  0.185096  0.500000  1
  P  P14  1  0.366188  0.365874  0.000000  1
  P  P15  1  0.630988  0.000218  0.000000  1
  P  P16  1  0.999899  0.622631  0.000000  1
  Pd  Pd17  1  0.550314  0.552294  0.000000  1
  Pd  Pd18  1  0.448012  0.002433  0.000000  1
  Ru  Ru19  1  0.001027  0.444173  0.000000  1
  Ru  Ru20  1  0.706216  0.708670  0.500000  1
  Ru  Ru21  1  0.292594  0.004814  0.500000  1
  Ru  Ru22  1  0.002370  0.284768  0.500000  1
  Ru  Ru23  1  0.186449  0.377412  0.000000  1
  Ru  Ru24  1  0.613297  0.802392  0.000000  1
  Ru  Ru25  1  0.195569  0.815450  0.000000  1
  Ru  Ru26  1  0.804401  0.618717  0.000000  1
  Ru  Ru27  1  0.815291  0.194787  0.000000  1
  Ru  Ru28  1  0.383573  0.189658  0.000000  1
  Ru  Ru29  1  0.365537  0.495078  0.500000  1
  Ru  Ru30  1  0.504435  0.877422  0.500000  1
  Ru  Ru31  1  0.124317  0.630638  0.500000  1
  Ru  Ru32  1  0.875315  0.505445  0.500000  1
  Ru  Ru33  1  0.633423  0.129256  0.500000  1
  Ru  Ru34  1  0.493583  0.371483  0.500000  1
  Ru  Ru35  1  0.003337  0.000231  0.000000  1
