# generated using pymatgen
data_Y2Tm3In2Bi
_symmetry_space_group_name_H-M   'P 1'
_cell_length_a   6.54375100
_cell_length_b   8.97525242
_cell_length_c   8.99703900
_cell_angle_alpha   120.07458820
_cell_angle_beta   89.99986390
_cell_angle_gamma   90.00027478
_symmetry_Int_Tables_number   1
_chemical_formula_structural   Y2Tm3In2Bi
_chemical_formula_sum   'Y4 Tm6 In4 Bi2'
_cell_volume   457.27426994
_cell_formula_units_Z   2
loop_
 _symmetry_equiv_pos_site_id
 _symmetry_equiv_pos_as_xyz
  1  'x, y, z'
loop_
 _atom_site_type_symbol
 _atom_site_label
 _atom_site_symmetry_multiplicity
 _atom_site_fract_x
 _atom_site_fract_y
 _atom_site_fract_z
 _atom_site_occupancy
  Y  Y0  1  0.749998  0.229714  0.991131  1
  Y  Y1  1  0.749997  0.770175  0.761370  1
  Y  Y2  1  0.249999  0.763728  0.000555  1
  Y  Y3  1  0.249994  0.236357  0.236881  1
  Tm  Tm4  1  0.492949  0.328539  0.667353  1
  Tm  Tm5  1  0.492945  0.671471  0.338816  1
  Tm  Tm6  1  0.007048  0.671463  0.338810  1
  Tm  Tm7  1  0.007045  0.328542  0.667360  1
  Tm  Tm8  1  0.749996  0.999975  0.240887  1
  Tm  Tm9  1  0.249997  0.000027  0.760946  1
  In  In10  1  0.749997  0.000005  0.594934  1
  In  In11  1  0.250047  0.396848  0.001940  1
  In  In12  1  0.249997  0.603194  0.605132  1
  In  In13  1  0.249996  0.000020  0.398591  1
  Bi  Bi14  1  0.749998  0.604436  0.999906  1
  Bi  Bi15  1  0.749996  0.395506  0.395390  1
