# generated using pymatgen
data_CrRh2F18
_symmetry_space_group_name_H-M   'P 1'
_cell_length_a   8.89642085
_cell_length_b   8.89639951
_cell_length_c   5.28533234
_cell_angle_alpha   85.47553446
_cell_angle_beta   85.47383148
_cell_angle_gamma   60.99770518
_symmetry_Int_Tables_number   1
_chemical_formula_structural   CrRh2F18
_chemical_formula_sum   'Cr1 Rh2 F18'
_cell_volume   364.32005354
_cell_formula_units_Z   1
loop_
 _symmetry_equiv_pos_site_id
 _symmetry_equiv_pos_as_xyz
  1  'x, y, z'
loop_
 _atom_site_type_symbol
 _atom_site_label
 _atom_site_symmetry_multiplicity
 _atom_site_fract_x
 _atom_site_fract_y
 _atom_site_fract_z
 _atom_site_occupancy
  Cr  Cr0  1  0.331546  0.331547  0.589670  1
  Rh  Rh1  1  0.668338  0.668336  0.410323  1
  Rh  Rh2  1  0.999988  0.000003  0.000005  1
  F  F3  1  0.252743  0.528396  0.411231  1
  F  F4  1  0.925459  0.925468  0.301389  1
  F  F5  1  0.074515  0.074506  0.698616  1
  F  F6  1  0.784444  0.077743  0.866515  1
  F  F7  1  0.922293  0.215516  0.133595  1
  F  F8  1  0.215516  0.922291  0.133593  1
  F  F9  1  0.077748  0.784436  0.866510  1
  F  F10  1  0.459017  0.752397  0.600208  1
  F  F11  1  0.752396  0.459022  0.600200  1
  F  F12  1  0.252145  0.252137  0.369611  1
  F  F13  1  0.752938  0.752941  0.644446  1
  F  F14  1  0.411355  0.411358  0.809049  1
  F  F15  1  0.583523  0.583522  0.176911  1
  F  F16  1  0.410380  0.134950  0.767982  1
  F  F17  1  0.877623  0.584690  0.220464  1
  F  F18  1  0.584684  0.877628  0.220475  1
  F  F19  1  0.134951  0.410378  0.767986  1
  F  F20  1  0.528402  0.252735  0.411222  1
