# generated using pymatgen
data_HoSc(NbSe2)8
_symmetry_space_group_name_H-M   'P 1'
_cell_length_a   7.00098400
_cell_length_b   7.00061448
_cell_length_c   14.01982100
_cell_angle_alpha   89.99991070
_cell_angle_beta   89.99950928
_cell_angle_gamma   120.00182480
_symmetry_Int_Tables_number   1
_chemical_formula_structural   HoSc(NbSe2)8
_chemical_formula_sum   'Ho1 Sc1 Nb8 Se16'
_cell_volume   595.05945694
_cell_formula_units_Z   1
loop_
 _symmetry_equiv_pos_site_id
 _symmetry_equiv_pos_as_xyz
  1  'x, y, z'
loop_
 _atom_site_type_symbol
 _atom_site_label
 _atom_site_symmetry_multiplicity
 _atom_site_fract_x
 _atom_site_fract_y
 _atom_site_fract_z
 _atom_site_occupancy
  Ho  Ho0  1  0.000000  0.000000  0.000000  1
  Sc  Sc1  1  0.000000  0.000000  0.500000  1
  Nb  Nb2  1  0.985836  0.492922  0.256620  1
  Nb  Nb3  1  0.014164  0.507078  0.743380  1
  Nb  Nb4  1  0.492915  0.507077  0.743380  1
  Nb  Nb5  1  0.507083  0.014167  0.256613  1
  Nb  Nb6  1  0.999998  0.999997  0.744104  1
  Nb  Nb7  1  0.000002  0.000003  0.255896  1
  Nb  Nb8  1  0.507085  0.492923  0.256620  1
  Nb  Nb9  1  0.492917  0.985833  0.743387  1
  Se  Se10  1  0.333314  0.666635  0.620156  1
  Se  Se11  1  0.666668  0.333333  0.132721  1
  Se  Se12  1  0.666686  0.333365  0.379844  1
  Se  Se13  1  0.333332  0.666667  0.867279  1
  Se  Se14  1  0.168980  0.337971  0.375389  1
  Se  Se15  1  0.830257  0.169752  0.862609  1
  Se  Se16  1  0.339496  0.169751  0.862607  1
  Se  Se17  1  0.662077  0.831029  0.375389  1
  Se  Se18  1  0.168949  0.831023  0.375388  1
  Se  Se19  1  0.830246  0.660491  0.862610  1
  Se  Se20  1  0.169754  0.339509  0.137390  1
  Se  Se21  1  0.831051  0.168977  0.624612  1
  Se  Se22  1  0.337923  0.168971  0.624611  1
  Se  Se23  1  0.660504  0.830249  0.137393  1
  Se  Se24  1  0.169743  0.830248  0.137391  1
  Se  Se25  1  0.831020  0.662029  0.624611  1
