# generated using pymatgen
data_Ce4NdHo11(CdIr)4
_symmetry_space_group_name_H-M   'P 1'
_cell_length_a   9.66789296
_cell_length_b   9.66789358
_cell_length_c   9.66599600
_cell_angle_alpha   60.00649255
_cell_angle_beta   60.00649045
_cell_angle_gamma   59.93287574
_symmetry_Int_Tables_number   1
_chemical_formula_structural   Ce4NdHo11(CdIr)4
_chemical_formula_sum   'Ce4 Nd1 Ho11 Cd4 Ir4'
_cell_volume   638.58258701
_cell_formula_units_Z   1
loop_
 _symmetry_equiv_pos_site_id
 _symmetry_equiv_pos_as_xyz
  1  'x, y, z'
loop_
 _atom_site_type_symbol
 _atom_site_label
 _atom_site_symmetry_multiplicity
 _atom_site_fract_x
 _atom_site_fract_y
 _atom_site_fract_z
 _atom_site_occupancy
  Ce  Ce0  1  0.349268  0.349268  0.348336  1
  Ce  Ce1  1  0.349268  0.349268  0.953127  1
  Ce  Ce2  1  0.349858  0.952406  0.348868  1
  Ce  Ce3  1  0.952406  0.349858  0.348868  1
  Nd  Nd4  1  0.937446  0.937446  0.562554  1
  Ho  Ho5  1  0.810851  0.189653  0.187570  1
  Ho  Ho6  1  0.189653  0.810851  0.811926  1
  Ho  Ho7  1  0.189653  0.810851  0.187570  1
  Ho  Ho8  1  0.810851  0.189653  0.811926  1
  Ho  Ho9  1  0.189153  0.189153  0.810847  1
  Ho  Ho10  1  0.811480  0.811480  0.188520  1
  Ho  Ho11  1  0.938191  0.560521  0.562443  1
  Ho  Ho12  1  0.560521  0.938191  0.938845  1
  Ho  Ho13  1  0.560521  0.938191  0.562443  1
  Ho  Ho14  1  0.938191  0.560521  0.938845  1
  Ho  Ho15  1  0.562983  0.562983  0.937017  1
  Cd  Cd16  1  0.580914  0.580914  0.581441  1
  Cd  Cd17  1  0.580914  0.580914  0.256729  1
  Cd  Cd18  1  0.578660  0.257816  0.581761  1
  Cd  Cd19  1  0.257816  0.578660  0.581761  1
  Ir  Ir20  1  0.143854  0.143854  0.140809  1
  Ir  Ir21  1  0.143854  0.143854  0.571481  1
  Ir  Ir22  1  0.143010  0.570680  0.143154  1
  Ir  Ir23  1  0.570680  0.143010  0.143154  1
