# generated using pymatgen
data_NdTm3(Si5Os3)2
_symmetry_space_group_name_H-M   'P 1'
_cell_length_a   8.12684239
_cell_length_b   8.15615833
_cell_length_c   5.79581992
_cell_angle_alpha   70.57221437
_cell_angle_beta   70.55164345
_cell_angle_gamma   94.07230985
_symmetry_Int_Tables_number   1
_chemical_formula_structural   NdTm3(Si5Os3)2
_chemical_formula_sum   'Nd1 Tm3 Si10 Os6'
_cell_volume   334.41065784
_cell_formula_units_Z   1
loop_
 _symmetry_equiv_pos_site_id
 _symmetry_equiv_pos_as_xyz
  1  'x, y, z'
loop_
 _atom_site_type_symbol
 _atom_site_label
 _atom_site_symmetry_multiplicity
 _atom_site_fract_x
 _atom_site_fract_y
 _atom_site_fract_z
 _atom_site_occupancy
  Nd  Nd0  1  0.600319  0.868627  0.254801  1
  Tm  Tm1  1  0.868346  0.602428  0.752484  1
  Tm  Tm2  1  0.399850  0.131183  0.745457  1
  Tm  Tm3  1  0.130814  0.397639  0.247761  1
  Si  Si4  1  0.067980  0.258855  0.834535  1
  Si  Si5  1  0.737586  0.932227  0.666706  1
  Si  Si6  1  0.935646  0.738604  0.164313  1
  Si  Si7  1  0.263664  0.070107  0.331462  1
  Si  Si8  1  0.208066  0.795134  0.743184  1
  Si  Si9  1  0.794665  0.207484  0.254171  1
  Si  Si10  1  0.512033  0.486901  0.748549  1
  Si  Si11  1  0.484343  0.509123  0.255498  1
  Si  Si12  1  0.774571  0.227205  0.745661  1
  Si  Si13  1  0.222738  0.774228  0.253289  1
  Os  Os14  1  0.251305  0.540395  0.635076  1
  Os  Os15  1  0.452260  0.742063  0.873775  1
  Os  Os16  1  0.746157  0.458271  0.366020  1
  Os  Os17  1  0.546328  0.259178  0.129012  1
  Os  Os18  1  0.003878  0.997391  0.748988  1
  Os  Os19  1  0.999450  0.002955  0.249260  1
