# generated using pymatgen
data_Sr6HoSc(BO3)6
_symmetry_space_group_name_H-M   'P 1'
_cell_length_a   7.79734920
_cell_length_b   7.79734959
_cell_length_c   7.79734890
_cell_angle_alpha   105.13204216
_cell_angle_beta   105.13203987
_cell_angle_gamma   105.13203705
_symmetry_Int_Tables_number   1
_chemical_formula_structural   Sr6HoSc(BO3)6
_chemical_formula_sum   'Sr6 Ho1 Sc1 B6 O18'
_cell_volume   413.28054699
_cell_formula_units_Z   1
loop_
 _symmetry_equiv_pos_site_id
 _symmetry_equiv_pos_as_xyz
  1  'x, y, z'
loop_
 _atom_site_type_symbol
 _atom_site_label
 _atom_site_symmetry_multiplicity
 _atom_site_fract_x
 _atom_site_fract_y
 _atom_site_fract_z
 _atom_site_occupancy
  Sr  Sr0  1  0.648371  0.264246  0.159307  1
  Sr  Sr1  1  0.159307  0.648371  0.264246  1
  Sr  Sr2  1  0.735753  0.840694  0.351629  1
  Sr  Sr3  1  0.264247  0.159306  0.648371  1
  Sr  Sr4  1  0.840694  0.351629  0.735754  1
  Sr  Sr5  1  0.351629  0.735754  0.840693  1
  Ho  Ho6  1  0.000000  0.000000  0.000000  1
  Sc  Sc7  1  0.500000  0.500000  0.500000  1
  B  B8  1  0.294612  0.377942  0.042062  1
  B  B9  1  0.377941  0.042062  0.294612  1
  B  B10  1  0.042062  0.294612  0.377941  1
  B  B11  1  0.957938  0.705389  0.622059  1
  B  B12  1  0.622059  0.957939  0.705388  1
  B  B13  1  0.705389  0.622059  0.957939  1
  O  O14  1  0.729975  0.815033  0.017841  1
  O  O15  1  0.807698  0.548690  0.071693  1
  O  O16  1  0.982159  0.270025  0.184965  1
  O  O17  1  0.451309  0.928307  0.192301  1
  O  O18  1  0.432367  0.496630  0.219019  1
  O  O19  1  0.184966  0.982159  0.270024  1
  O  O20  1  0.496629  0.219019  0.432367  1
  O  O21  1  0.928307  0.192301  0.451310  1
  O  O22  1  0.219019  0.432367  0.496630  1
  O  O23  1  0.780981  0.567633  0.503371  1
  O  O24  1  0.071693  0.807698  0.548690  1
  O  O25  1  0.503371  0.780981  0.567633  1
  O  O26  1  0.815033  0.017840  0.729975  1
  O  O27  1  0.567633  0.503371  0.780982  1
  O  O28  1  0.548690  0.071693  0.807699  1
  O  O29  1  0.017840  0.729974  0.815034  1
  O  O30  1  0.192301  0.451309  0.928307  1
  O  O31  1  0.270025  0.184966  0.982159  1
