# generated using pymatgen
data_La4ZnFe(SiI)2
_symmetry_space_group_name_H-M   'P 1'
_cell_length_a   4.20417600
_cell_length_b   4.20417618
_cell_length_c   17.86727900
_cell_angle_alpha   90.00000000
_cell_angle_beta   90.00000000
_cell_angle_gamma   119.99998287
_symmetry_Int_Tables_number   1
_chemical_formula_structural   La4ZnFe(SiI)2
_chemical_formula_sum   'La4 Zn1 Fe1 Si2 I2'
_cell_volume   273.49596371
_cell_formula_units_Z   1
loop_
 _symmetry_equiv_pos_site_id
 _symmetry_equiv_pos_as_xyz
  1  'x, y, z'
loop_
 _atom_site_type_symbol
 _atom_site_label
 _atom_site_symmetry_multiplicity
 _atom_site_fract_x
 _atom_site_fract_y
 _atom_site_fract_z
 _atom_site_occupancy
  La  La0  1  0.000000  0.000000  0.116654  1
  La  La1  1  0.000000  0.000000  0.600481  1
  La  La2  1  0.000000  0.000000  0.883003  1
  La  La3  1  0.000000  0.000000  0.397027  1
  Zn  Zn4  1  0.333333  0.666667  0.006459  1
  Fe  Fe5  1  0.666667  0.333333  0.501323  1
  Si  Si6  1  0.666667  0.333333  0.995061  1
  Si  Si7  1  0.333333  0.666667  0.498424  1
  I  I8  1  0.666667  0.333333  0.250837  1
  I  I9  1  0.333333  0.666667  0.750732  1
