# generated using pymatgen
data_Nd6Al24IrOs5Pt2
_symmetry_space_group_name_H-M   'P 1'
_cell_length_a   8.88798685
_cell_length_b   8.87905177
_cell_length_c   9.68499140
_cell_angle_alpha   90.11183403
_cell_angle_beta   89.95927975
_cell_angle_gamma   119.26593757
_symmetry_Int_Tables_number   1
_chemical_formula_structural   Nd6Al24IrOs5Pt2
_chemical_formula_sum   'Nd6 Al24 Ir1 Os5 Pt2'
_cell_volume   666.75174176
_cell_formula_units_Z   1
loop_
 _symmetry_equiv_pos_site_id
 _symmetry_equiv_pos_as_xyz
  1  'x, y, z'
loop_
 _atom_site_type_symbol
 _atom_site_label
 _atom_site_symmetry_multiplicity
 _atom_site_fract_x
 _atom_site_fract_y
 _atom_site_fract_z
 _atom_site_occupancy
  Nd  Nd0  1  0.186399  0.384690  0.251977  1
  Nd  Nd1  1  0.813601  0.615310  0.748023  1
  Nd  Nd2  1  0.619000  0.812602  0.250531  1
  Nd  Nd3  1  0.381000  0.187398  0.749469  1
  Nd  Nd4  1  0.188957  0.809536  0.248242  1
  Nd  Nd5  1  0.811043  0.190464  0.751758  1
  Al  Al6  1  0.330172  0.663276  0.024228  1
  Al  Al7  1  0.669828  0.336724  0.975772  1
  Al  Al8  1  0.669073  0.329318  0.524616  1
  Al  Al9  1  0.330927  0.670682  0.475384  1
  Al  Al10  1  0.159144  0.326334  0.574676  1
  Al  Al11  1  0.840856  0.673666  0.425324  1
  Al  Al12  1  0.673966  0.841257  0.573635  1
  Al  Al13  1  0.836221  0.672509  0.073232  1
  Al  Al14  1  0.326034  0.158743  0.426365  1
  Al  Al15  1  0.163779  0.327491  0.926768  1
  Al  Al16  1  0.165548  0.835367  0.574117  1
  Al  Al17  1  0.325663  0.168796  0.074722  1
  Al  Al18  1  0.834452  0.164633  0.425883  1
  Al  Al19  1  0.674337  0.831204  0.925278  1
  Al  Al20  1  0.840934  0.169427  0.076606  1
  Al  Al21  1  0.159066  0.830573  0.923394  1
  Al  Al22  1  0.562338  0.128435  0.253015  1
  Al  Al23  1  0.437662  0.871565  0.746985  1
  Al  Al24  1  0.873243  0.440003  0.249925  1
  Al  Al25  1  0.126757  0.559997  0.750075  1
  Al  Al26  1  0.563578  0.437809  0.247347  1
  Al  Al27  1  0.436422  0.562191  0.752653  1
  Al  Al28  1  0.996295  0.003509  0.249973  1
  Al  Al29  1  0.003705  0.996491  0.750027  1
  Ir  Ir30  1  0.500000  0.500000  0.000000  1
  Os  Os31  1  0.000000  0.500000  0.000000  1
  Os  Os32  1  0.500000  0.000000  0.500000  1
  Os  Os33  1  0.000000  0.500000  0.500000  1
  Os  Os34  1  0.000000  0.000000  0.000000  1
  Os  Os35  1  0.000000  0.000000  0.500000  1
  Pt  Pt36  1  0.500000  0.000000  0.000000  1
  Pt  Pt37  1  0.500000  0.500000  0.500000  1
