# generated using pymatgen
data_PrDy3(ZnSi)4
_symmetry_space_group_name_H-M   'P 1'
_cell_length_a   4.16655600
_cell_length_b   4.16655484
_cell_length_c   16.06930600
_cell_angle_alpha   90.00000000
_cell_angle_beta   90.00000000
_cell_angle_gamma   120.00000923
_symmetry_Int_Tables_number   1
_chemical_formula_structural   PrDy3(ZnSi)4
_chemical_formula_sum   'Pr1 Dy3 Zn4 Si4'
_cell_volume   241.59171545
_cell_formula_units_Z   1
loop_
 _symmetry_equiv_pos_site_id
 _symmetry_equiv_pos_as_xyz
  1  'x, y, z'
loop_
 _atom_site_type_symbol
 _atom_site_label
 _atom_site_symmetry_multiplicity
 _atom_site_fract_x
 _atom_site_fract_y
 _atom_site_fract_z
 _atom_site_occupancy
  Pr  Pr0  1  0.000000  0.000000  0.000000  1
  Dy  Dy1  1  0.000000  0.000000  0.254412  1
  Dy  Dy2  1  0.000000  0.000000  0.500000  1
  Dy  Dy3  1  0.000000  0.000000  0.745588  1
  Zn  Zn4  1  0.666666  0.333334  0.144478  1
  Zn  Zn5  1  0.666666  0.333334  0.362318  1
  Zn  Zn6  1  0.333333  0.666665  0.637682  1
  Zn  Zn7  1  0.333333  0.666665  0.855522  1
  Si  Si8  1  0.333333  0.666665  0.125339  1
  Si  Si9  1  0.333333  0.666665  0.384039  1
  Si  Si10  1  0.666666  0.333334  0.615961  1
  Si  Si11  1  0.666666  0.333334  0.874661  1
