# generated using pymatgen
data_Sm3GdCCl5
_symmetry_space_group_name_H-M   'P 1'
_cell_length_a   8.92903053
_cell_length_b   8.92903080
_cell_length_c   8.02751469
_cell_angle_alpha   103.82420177
_cell_angle_beta   103.82420174
_cell_angle_gamma   24.49978191
_symmetry_Int_Tables_number   1
_chemical_formula_structural   Sm3GdCCl5
_chemical_formula_sum   'Sm3 Gd1 C1 Cl5'
_cell_volume   257.35140021
_cell_formula_units_Z   1
loop_
 _symmetry_equiv_pos_site_id
 _symmetry_equiv_pos_as_xyz
  1  'x, y, z'
loop_
 _atom_site_type_symbol
 _atom_site_label
 _atom_site_symmetry_multiplicity
 _atom_site_fract_x
 _atom_site_fract_y
 _atom_site_fract_z
 _atom_site_occupancy
  Sm  Sm0  1  0.998541  0.998541  0.212903  1
  Sm  Sm1  1  0.001059  0.001059  0.787050  1
  Sm  Sm2  1  0.354237  0.354237  0.916520  1
  Gd  Gd3  1  0.645280  0.645280  0.083360  1
  C  C4  1  0.500914  0.500914  0.000638  1
  Cl  Cl5  1  0.829316  0.829316  0.159971  1
  Cl  Cl6  1  0.163493  0.163493  0.339582  1
  Cl  Cl7  1  0.500105  0.500105  0.500033  1
  Cl  Cl8  1  0.836803  0.836803  0.656600  1
  Cl  Cl9  1  0.170251  0.170251  0.843344  1
