# generated using pymatgen
data_La9Nd(Sn5Pd2)4
_symmetry_space_group_name_H-M   'P 1'
_cell_length_a   14.39067115
_cell_length_b   14.40594119
_cell_length_c   4.72960600
_cell_angle_alpha   90.00000000
_cell_angle_beta   90.00000000
_cell_angle_gamma   90.01760017
_symmetry_Int_Tables_number   1
_chemical_formula_structural   La9Nd(Sn5Pd2)4
_chemical_formula_sum   'La9 Nd1 Sn20 Pd8'
_cell_volume   980.50007072
_cell_formula_units_Z   1
loop_
 _symmetry_equiv_pos_site_id
 _symmetry_equiv_pos_as_xyz
  1  'x, y, z'
loop_
 _atom_site_type_symbol
 _atom_site_label
 _atom_site_symmetry_multiplicity
 _atom_site_fract_x
 _atom_site_fract_y
 _atom_site_fract_z
 _atom_site_occupancy
  La  La0  1  0.499488  0.500007  0.000000  1
  La  La1  1  0.000168  0.999653  0.000000  1
  La  La2  1  0.320352  0.820077  0.500000  1
  La  La3  1  0.180227  0.319684  0.500000  1
  La  La4  1  0.819612  0.680256  0.500000  1
  La  La5  1  0.891096  0.391178  0.500000  1
  La  La6  1  0.107381  0.607419  0.500000  1
  La  La7  1  0.392920  0.108471  0.500000  1
  La  La8  1  0.608433  0.892966  0.500000  1
  Nd  Nd9  1  0.679488  0.179385  0.500000  1
  Sn  Sn10  1  0.570300  0.070422  0.000000  1
  Sn  Sn11  1  0.431469  0.931647  0.000000  1
  Sn  Sn12  1  0.068736  0.430327  0.000000  1
  Sn  Sn13  1  0.930221  0.568746  0.000000  1
  Sn  Sn14  1  0.652369  0.700607  0.000000  1
  Sn  Sn15  1  0.348121  0.299017  0.000000  1
  Sn  Sn16  1  0.152153  0.799107  0.000000  1
  Sn  Sn17  1  0.846376  0.200458  0.000000  1
  Sn  Sn18  1  0.299131  0.652121  0.000000  1
  Sn  Sn19  1  0.700446  0.346263  0.000000  1
  Sn  Sn20  1  0.200488  0.152286  0.000000  1
  Sn  Sn21  1  0.799102  0.848209  0.000000  1
  Sn  Sn22  1  0.662464  0.498506  0.500000  1
  Sn  Sn23  1  0.336818  0.502425  0.500000  1
  Sn  Sn24  1  0.163393  0.002574  0.500000  1
  Sn  Sn25  1  0.836638  0.000621  0.500000  1
  Sn  Sn26  1  0.502809  0.663325  0.500000  1
  Sn  Sn27  1  0.500621  0.336771  0.500000  1
  Sn  Sn28  1  0.998508  0.162549  0.500000  1
  Sn  Sn29  1  0.002424  0.836773  0.500000  1
  Pd  Pd30  1  0.743935  0.530319  0.000000  1
  Pd  Pd31  1  0.255251  0.468189  0.000000  1
  Pd  Pd32  1  0.244742  0.968391  0.000000  1
  Pd  Pd33  1  0.755296  0.031834  0.000000  1
  Pd  Pd34  1  0.468434  0.744841  0.000000  1
  Pd  Pd35  1  0.531931  0.255110  0.000000  1
  Pd  Pd36  1  0.030514  0.244330  0.000000  1
  Pd  Pd37  1  0.968147  0.755141  0.000000  1
