# generated using pymatgen
data_Dy8Er9Tm3Sn16
_symmetry_space_group_name_H-M   'P 1'
_cell_length_a   7.98817704
_cell_length_b   8.12363004
_cell_length_c   15.36195000
_cell_angle_alpha   90.00000000
_cell_angle_beta   90.00000000
_cell_angle_gamma   90.01137255
_symmetry_Int_Tables_number   1
_chemical_formula_structural   Dy8Er9Tm3Sn16
_chemical_formula_sum   'Dy8 Er9 Tm3 Sn16'
_cell_volume   996.88292431
_cell_formula_units_Z   1
loop_
 _symmetry_equiv_pos_site_id
 _symmetry_equiv_pos_as_xyz
  1  'x, y, z'
loop_
 _atom_site_type_symbol
 _atom_site_label
 _atom_site_symmetry_multiplicity
 _atom_site_fract_x
 _atom_site_fract_y
 _atom_site_fract_z
 _atom_site_occupancy
  Dy  Dy0  1  0.521381  0.320542  0.902772  1
  Dy  Dy1  1  0.021297  0.179376  0.597233  1
  Dy  Dy2  1  0.478647  0.679405  0.402761  1
  Dy  Dy3  1  0.978665  0.820577  0.097230  1
  Dy  Dy4  1  0.478647  0.679405  0.097239  1
  Dy  Dy5  1  0.978665  0.820577  0.402770  1
  Dy  Dy6  1  0.521381  0.320542  0.597228  1
  Dy  Dy7  1  0.021297  0.179376  0.902767  1
  Er  Er8  1  0.367573  0.836583  0.877493  1
  Er  Er9  1  0.867433  0.663511  0.622515  1
  Er  Er10  1  0.632516  0.163472  0.377500  1
  Er  Er11  1  0.132519  0.336528  0.122509  1
  Er  Er12  1  0.632516  0.163472  0.122500  1
  Er  Er13  1  0.132519  0.336528  0.377491  1
  Er  Er14  1  0.367573  0.836583  0.622507  1
  Er  Er15  1  0.867433  0.663511  0.877485  1
  Er  Er16  1  0.198210  0.503746  0.750000  1
  Tm  Tm17  1  0.698361  0.996266  0.750000  1
  Tm  Tm18  1  0.801648  0.496298  0.250000  1
  Tm  Tm19  1  0.301656  0.003703  0.250000  1
  Sn  Sn20  1  0.293590  0.036554  0.041753  1
  Sn  Sn21  1  0.793599  0.463466  0.458240  1
  Sn  Sn22  1  0.706400  0.963438  0.541763  1
  Sn  Sn23  1  0.206389  0.536561  0.958322  1
  Sn  Sn24  1  0.706400  0.963438  0.958237  1
  Sn  Sn25  1  0.206389  0.536561  0.541678  1
  Sn  Sn26  1  0.293590  0.036554  0.458247  1
  Sn  Sn27  1  0.793599  0.463466  0.041760  1
  Sn  Sn28  1  0.564870  0.619999  0.750000  1
  Sn  Sn29  1  0.064533  0.880273  0.750000  1
  Sn  Sn30  1  0.435462  0.380072  0.250000  1
  Sn  Sn31  1  0.935411  0.119883  0.250000  1
  Sn  Sn32  1  0.330308  0.147565  0.750000  1
  Sn  Sn33  1  0.830195  0.352109  0.750000  1
  Sn  Sn34  1  0.669690  0.852162  0.250000  1
  Sn  Sn35  1  0.169636  0.647897  0.250000  1
