# generated using pymatgen
data_Lu8Sc2Si5Sn
_symmetry_space_group_name_H-M   'P 1'
_cell_length_a   8.27112900
_cell_length_b   8.28927827
_cell_length_c   6.09717006
_cell_angle_alpha   89.87170002
_cell_angle_beta   90.00000000
_cell_angle_gamma   119.92758678
_symmetry_Int_Tables_number   1
_chemical_formula_structural   Lu8Sc2Si5Sn
_chemical_formula_sum   'Lu8 Sc2 Si5 Sn1'
_cell_volume   362.28924307
_cell_formula_units_Z   1
loop_
 _symmetry_equiv_pos_site_id
 _symmetry_equiv_pos_as_xyz
  1  'x, y, z'
loop_
 _atom_site_type_symbol
 _atom_site_label
 _atom_site_symmetry_multiplicity
 _atom_site_fract_x
 _atom_site_fract_y
 _atom_site_fract_z
 _atom_site_occupancy
  Lu  Lu0  1  0.989318  0.749091  0.749399  1
  Lu  Lu1  1  0.998612  0.242642  0.250023  1
  Lu  Lu2  1  0.755969  0.757358  0.249977  1
  Lu  Lu3  1  0.766352  0.000000  0.750000  1
  Lu  Lu4  1  0.240227  0.250909  0.750601  1
  Lu  Lu5  1  0.240037  0.000000  0.250000  1
  Lu  Lu6  1  0.331564  0.657361  0.496293  1
  Lu  Lu7  1  0.674205  0.342639  0.003707  1
  Sc  Sc8  1  0.674270  0.342978  0.497626  1
  Sc  Sc9  1  0.331291  0.657022  0.002374  1
  Si  Si10  1  0.395411  0.393971  0.249567  1
  Si  Si11  1  0.001440  0.606029  0.250433  1
  Si  Si12  1  0.998386  0.395974  0.749712  1
  Si  Si13  1  0.602412  0.604026  0.750288  1
  Si  Si14  1  0.603567  0.000000  0.250000  1
  Sn  Sn15  1  0.396939  0.000000  0.750000  1
