# generated using pymatgen
data_KAc(BIr)4
_symmetry_space_group_name_H-M   'P 1'
_cell_length_a   7.20235386
_cell_length_b   6.22641406
_cell_length_c   5.66300105
_cell_angle_alpha   74.40034867
_cell_angle_beta   56.37221234
_cell_angle_gamma   49.22744607
_symmetry_Int_Tables_number   1
_chemical_formula_structural   KAc(BIr)4
_chemical_formula_sum   'K1 Ac1 B4 Ir4'
_cell_volume   158.39679268
_cell_formula_units_Z   1
loop_
 _symmetry_equiv_pos_site_id
 _symmetry_equiv_pos_as_xyz
  1  'x, y, z'
loop_
 _atom_site_type_symbol
 _atom_site_label
 _atom_site_symmetry_multiplicity
 _atom_site_fract_x
 _atom_site_fract_y
 _atom_site_fract_z
 _atom_site_occupancy
  K  K0  1  0.750000  0.750000  0.750000  1
  Ac  Ac1  1  0.500000  0.500000  0.500000  1
  B  B2  1  0.170959  0.829041  0.170959  1
  B  B3  1  0.075886  0.424114  0.075886  1
  B  B4  1  0.829041  0.170959  0.829041  1
  B  B5  1  0.424114  0.075886  0.424114  1
  Ir  Ir6  1  0.867460  0.867460  0.132540  1
  Ir  Ir7  1  0.132540  0.132540  0.867460  1
  Ir  Ir8  1  0.380383  0.380383  0.119617  1
  Ir  Ir9  1  0.119617  0.119617  0.380383  1
