# generated using pymatgen
data_Nd2Lu4CoI10
_symmetry_space_group_name_H-M   'P 1'
_cell_length_a   7.69696462
_cell_length_b   9.67712166
_cell_length_c   9.68656896
_cell_angle_alpha   106.95236368
_cell_angle_beta   96.25973143
_cell_angle_gamma   105.30129032
_symmetry_Int_Tables_number   1
_chemical_formula_structural   Nd2Lu4CoI10
_chemical_formula_sum   'Nd2 Lu4 Co1 I10'
_cell_volume   652.01877902
_cell_formula_units_Z   1
loop_
 _symmetry_equiv_pos_site_id
 _symmetry_equiv_pos_as_xyz
  1  'x, y, z'
loop_
 _atom_site_type_symbol
 _atom_site_label
 _atom_site_symmetry_multiplicity
 _atom_site_fract_x
 _atom_site_fract_y
 _atom_site_fract_z
 _atom_site_occupancy
  Nd  Nd0  1  0.887352  0.958344  0.231719  1
  Nd  Nd1  1  0.112648  0.041656  0.768281  1
  Lu  Lu2  1  0.027226  0.722763  0.916239  1
  Lu  Lu3  1  0.972774  0.277237  0.083761  1
  Lu  Lu4  1  0.663361  0.878558  0.841078  1
  Lu  Lu5  1  0.336639  0.121442  0.158922  1
  Co  Co6  1  0.000000  0.000000  0.000000  1
  I  I7  1  0.650869  0.552400  0.730000  1
  I  I8  1  0.349131  0.447600  0.270000  1
  I  I9  1  0.728892  0.908997  0.542005  1
  I  I10  1  0.271108  0.091003  0.457995  1
  I  I11  1  0.082829  0.380358  0.825445  1
  I  I12  1  0.917171  0.619642  0.174555  1
  I  I13  1  0.446589  0.815771  0.088752  1
  I  I14  1  0.553411  0.184229  0.911248  1
  I  I15  1  0.226684  0.736620  0.658717  1
  I  I16  1  0.773316  0.263380  0.341283  1
