# generated using pymatgen
data_Er12OsPdRh2
_symmetry_space_group_name_H-M   'P 1'
_cell_length_a   6.36005086
_cell_length_b   7.15820107
_cell_length_c   9.19080100
_cell_angle_alpha   90.00000000
_cell_angle_beta   90.00000000
_cell_angle_gamma   90.21480018
_symmetry_Int_Tables_number   1
_chemical_formula_structural   Er12OsPdRh2
_chemical_formula_sum   'Er12 Os1 Pd1 Rh2'
_cell_volume   418.42227172
_cell_formula_units_Z   1
loop_
 _symmetry_equiv_pos_site_id
 _symmetry_equiv_pos_as_xyz
  1  'x, y, z'
loop_
 _atom_site_type_symbol
 _atom_site_label
 _atom_site_symmetry_multiplicity
 _atom_site_fract_x
 _atom_site_fract_y
 _atom_site_fract_z
 _atom_site_occupancy
  Er  Er0  1  0.329710  0.680051  0.058648  1
  Er  Er1  1  0.174513  0.179575  0.436252  1
  Er  Er2  1  0.668871  0.324162  0.560671  1
  Er  Er3  1  0.821607  0.814344  0.939899  1
  Er  Er4  1  0.668871  0.324162  0.939329  1
  Er  Er5  1  0.821607  0.814344  0.560101  1
  Er  Er6  1  0.329710  0.680051  0.441352  1
  Er  Er7  1  0.174513  0.179575  0.063748  1
  Er  Er8  1  0.875672  0.534135  0.250000  1
  Er  Er9  1  0.629449  0.035992  0.250000  1
  Er  Er10  1  0.126404  0.474246  0.750000  1
  Er  Er11  1  0.379678  0.963168  0.750000  1
  Os  Os12  1  0.541798  0.612326  0.750000  1
  Pd  Pd13  1  0.953769  0.110114  0.750000  1
  Rh  Rh14  1  0.046165  0.886973  0.250000  1
  Rh  Rh15  1  0.457665  0.386778  0.250000  1
