# generated using pymatgen
data_YScCo3P7Ru9
_symmetry_space_group_name_H-M   'P 1'
_cell_length_a   9.29755500
_cell_length_b   9.29755540
_cell_length_c   3.80570200
_cell_angle_alpha   90.00000000
_cell_angle_beta   90.00000000
_cell_angle_gamma   120.00000212
_symmetry_Int_Tables_number   1
_chemical_formula_structural   YScCo3P7Ru9
_chemical_formula_sum   'Y1 Sc1 Co3 P7 Ru9'
_cell_volume   284.90687682
_cell_formula_units_Z   1
loop_
 _symmetry_equiv_pos_site_id
 _symmetry_equiv_pos_as_xyz
  1  'x, y, z'
loop_
 _atom_site_type_symbol
 _atom_site_label
 _atom_site_symmetry_multiplicity
 _atom_site_fract_x
 _atom_site_fract_y
 _atom_site_fract_z
 _atom_site_occupancy
  Y  Y0  1  0.333333  0.666667  0.000000  1
  Sc  Sc1  1  0.666667  0.333333  0.500000  1
  Co  Co2  1  0.729191  0.888287  0.000000  1
  Co  Co3  1  0.111713  0.840902  0.000000  1
  Co  Co4  1  0.159098  0.270809  0.000000  1
  P  P5  1  0.600286  0.716422  0.500000  1
  P  P6  1  0.000000  0.000000  0.000000  1
  P  P7  1  0.283578  0.883863  0.500000  1
  P  P8  1  0.116137  0.399714  0.500000  1
  P  P9  1  0.887786  0.585057  0.000000  1
  P  P10  1  0.414943  0.302729  0.000000  1
  P  P11  1  0.697271  0.112214  0.000000  1
  Ru  Ru12  1  0.564954  0.950246  0.500000  1
  Ru  Ru13  1  0.385292  0.435046  0.500000  1
  Ru  Ru14  1  0.914666  0.120257  0.500000  1
  Ru  Ru15  1  0.205591  0.085334  0.500000  1
  Ru  Ru16  1  0.879743  0.794409  0.500000  1
  Ru  Ru17  1  0.427524  0.065701  0.000000  1
  Ru  Ru18  1  0.934299  0.361824  0.000000  1
  Ru  Ru19  1  0.638176  0.572476  0.000000  1
  Ru  Ru20  1  0.049754  0.614708  0.500000  1
