# generated using pymatgen
data_Tm12Th4Mg3CdCo4
_symmetry_space_group_name_H-M   'P 1'
_cell_length_a   9.51160292
_cell_length_b   9.51160356
_cell_length_c   9.51160318
_cell_angle_alpha   59.91225378
_cell_angle_beta   59.91225234
_cell_angle_gamma   59.91225031
_symmetry_Int_Tables_number   1
_chemical_formula_structural   Tm12Th4Mg3CdCo4
_chemical_formula_sum   'Tm12 Th4 Mg3 Cd1 Co4'
_cell_volume   607.26860274
_cell_formula_units_Z   1
loop_
 _symmetry_equiv_pos_site_id
 _symmetry_equiv_pos_as_xyz
  1  'x, y, z'
loop_
 _atom_site_type_symbol
 _atom_site_label
 _atom_site_symmetry_multiplicity
 _atom_site_fract_x
 _atom_site_fract_y
 _atom_site_fract_z
 _atom_site_occupancy
  Tm  Tm0  1  0.813436  0.186486  0.186486  1
  Tm  Tm1  1  0.185305  0.814451  0.814451  1
  Tm  Tm2  1  0.186486  0.813436  0.186486  1
  Tm  Tm3  1  0.814451  0.185305  0.814451  1
  Tm  Tm4  1  0.186486  0.186486  0.813436  1
  Tm  Tm5  1  0.814451  0.814451  0.185305  1
  Tm  Tm6  1  0.935477  0.565123  0.565123  1
  Tm  Tm7  1  0.564815  0.935405  0.935405  1
  Tm  Tm8  1  0.565123  0.935477  0.565123  1
  Tm  Tm9  1  0.935405  0.564815  0.935405  1
  Tm  Tm10  1  0.565123  0.565123  0.935477  1
  Tm  Tm11  1  0.935405  0.935405  0.564815  1
  Th  Th12  1  0.344886  0.344886  0.344886  1
  Th  Th13  1  0.346557  0.346557  0.961529  1
  Th  Th14  1  0.346557  0.961529  0.346557  1
  Th  Th15  1  0.961529  0.346557  0.346557  1
  Mg  Mg16  1  0.579543  0.579543  0.260622  1
  Mg  Mg17  1  0.579543  0.260622  0.579543  1
  Mg  Mg18  1  0.260622  0.579543  0.579543  1
  Cd  Cd19  1  0.582147  0.582147  0.582147  1
  Co  Co20  1  0.143997  0.143997  0.143997  1
  Co  Co21  1  0.143085  0.143085  0.566490  1
  Co  Co22  1  0.143085  0.566490  0.143085  1
  Co  Co23  1  0.566490  0.143085  0.143085  1
