# generated using pymatgen
data_LiHo6Sc(Co4P3)4
_symmetry_space_group_name_H-M   'P 1'
_cell_length_a   3.71611900
_cell_length_b   10.60849700
_cell_length_c   12.25685800
_cell_angle_alpha   90.00000000
_cell_angle_beta   90.00000000
_cell_angle_gamma   90.00000000
_symmetry_Int_Tables_number   1
_chemical_formula_structural   LiHo6Sc(Co4P3)4
_chemical_formula_sum   'Li1 Ho6 Sc1 Co16 P12'
_cell_volume   483.19521555
_cell_formula_units_Z   1
loop_
 _symmetry_equiv_pos_site_id
 _symmetry_equiv_pos_as_xyz
  1  'x, y, z'
loop_
 _atom_site_type_symbol
 _atom_site_label
 _atom_site_symmetry_multiplicity
 _atom_site_fract_x
 _atom_site_fract_y
 _atom_site_fract_z
 _atom_site_occupancy
  Li  Li0  1  0.000000  0.000000  0.843994  1
  Ho  Ho1  1  0.000000  0.500000  0.527713  1
  Ho  Ho2  1  0.500000  0.000000  0.476405  1
  Ho  Ho3  1  0.500000  0.822346  0.206889  1
  Ho  Ho4  1  0.500000  0.177654  0.206889  1
  Ho  Ho5  1  0.000000  0.679775  0.795075  1
  Ho  Ho6  1  0.000000  0.320225  0.795075  1
  Sc  Sc7  1  0.500000  0.500000  0.154852  1
  Co  Co8  1  0.000000  0.500000  0.985959  1
  Co  Co9  1  0.500000  0.000000  0.011396  1
  Co  Co10  1  0.500000  0.295275  0.433518  1
  Co  Co11  1  0.500000  0.704725  0.433518  1
  Co  Co12  1  0.000000  0.202514  0.569215  1
  Co  Co13  1  0.000000  0.797486  0.569215  1
  Co  Co14  1  0.500000  0.878824  0.705669  1
  Co  Co15  1  0.500000  0.121176  0.705669  1
  Co  Co16  1  0.000000  0.622538  0.296956  1
  Co  Co17  1  0.000000  0.377462  0.296956  1
  Co  Co18  1  0.500000  0.328902  0.992140  1
  Co  Co19  1  0.500000  0.671098  0.992140  1
  Co  Co20  1  0.000000  0.164859  0.000792  1
  Co  Co21  1  0.000000  0.835141  0.000792  1
  Co  Co22  1  0.500000  0.500000  0.703799  1
  Co  Co23  1  0.000000  0.000000  0.294393  1
  P  P24  1  0.500000  0.309038  0.616909  1
  P  P25  1  0.500000  0.690962  0.616909  1
  P  P26  1  0.000000  0.189156  0.385387  1
  P  P27  1  0.000000  0.810844  0.385387  1
  P  P28  1  0.500000  0.500000  0.883969  1
  P  P29  1  0.000000  0.000000  0.113603  1
  P  P30  1  0.500000  0.845524  0.889664  1
  P  P31  1  0.500000  0.154476  0.889664  1
  P  P32  1  0.000000  0.662945  0.103914  1
  P  P33  1  0.000000  0.337055  0.103914  1
  P  P34  1  0.500000  0.500000  0.359402  1
  P  P35  1  0.000000  0.000000  0.652255  1
