# generated using pymatgen
data_SnB5PbBrO9
_symmetry_space_group_name_H-M   'P 1'
_cell_length_a   11.56850480
_cell_length_b   11.63628889
_cell_length_c   6.60792400
_cell_angle_alpha   90.00001848
_cell_angle_beta   90.00003218
_cell_angle_gamma   90.22237572
_symmetry_Int_Tables_number   1
_chemical_formula_structural   SnB5PbBrO9
_chemical_formula_sum   'Sn4 B20 Pb4 Br4 O36'
_cell_volume   889.51544716
_cell_formula_units_Z   4
loop_
 _symmetry_equiv_pos_site_id
 _symmetry_equiv_pos_as_xyz
  1  'x, y, z'
loop_
 _atom_site_type_symbol
 _atom_site_label
 _atom_site_symmetry_multiplicity
 _atom_site_fract_x
 _atom_site_fract_y
 _atom_site_fract_z
 _atom_site_occupancy
  Sn  Sn0  1  0.031835  0.255676  0.340847  1
  Sn  Sn1  1  0.968165  0.744324  0.340847  1
  Sn  Sn2  1  0.742281  0.473834  0.526775  1
  Sn  Sn3  1  0.257719  0.526166  0.526776  1
  B  B4  1  0.232890  0.459415  0.021567  1
  B  B5  1  0.767110  0.540585  0.021567  1
  B  B6  1  0.322504  0.273448  0.131243  1
  B  B7  1  0.677496  0.726553  0.131243  1
  B  B8  1  0.718327  0.212411  0.295044  1
  B  B9  1  0.281673  0.787590  0.295044  1
  B  B10  1  0.497233  0.251427  0.353702  1
  B  B11  1  0.502767  0.748574  0.353702  1
  B  B12  1  0.299699  0.182349  0.479668  1
  B  B13  1  0.700301  0.817651  0.479669  1
  B  B14  1  0.733726  0.041409  0.518232  1
  B  B15  1  0.266274  0.958591  0.518232  1
  B  B16  1  0.823291  0.228187  0.628897  1
  B  B17  1  0.176710  0.771813  0.628897  1
  B  B18  1  0.219250  0.287650  0.795537  1
  B  B19  1  0.780750  0.712350  0.795537  1
  B  B20  1  0.998042  0.249646  0.854442  1
  B  B21  1  0.001958  0.750354  0.854442  1
  B  B22  1  0.801118  0.318590  0.982283  1
  B  B23  1  0.198883  0.681411  0.982282  1
  Pb  Pb24  1  0.538839  0.243976  0.833800  1
  Pb  Pb25  1  0.461164  0.756024  0.833798  1
  Pb  Pb26  1  0.236837  0.029879  0.003250  1
  Pb  Pb27  1  0.763163  0.970121  0.003250  1
  Br  Br28  1  0.000000  0.000000  0.239220  1
  Br  Br29  1  0.000000  0.500000  0.479340  1
  Br  Br30  1  0.500000  0.500000  0.727254  1
  Br  Br31  1  0.500000  0.000000  0.983084  1
  O  O32  1  0.927375  0.288237  0.007424  1
  O  O33  1  0.072625  0.711763  0.007424  1
  O  O34  1  0.728222  0.230767  0.078944  1
  O  O35  1  0.271778  0.769233  0.078945  1
  O  O36  1  0.780270  0.429259  0.075746  1
  O  O37  1  0.219730  0.570741  0.075745  1
  O  O38  1  0.450009  0.284514  0.171362  1
  O  O39  1  0.549991  0.715487  0.171361  1
  O  O40  1  0.265250  0.383576  0.171189  1
  O  O41  1  0.734751  0.616425  0.171189  1
  O  O42  1  0.273121  0.181706  0.260004  1
  O  O43  1  0.726879  0.818295  0.260004  1
  O  O44  1  0.713800  0.083303  0.326004  1
  O  O45  1  0.286200  0.916697  0.326004  1
  O  O46  1  0.613370  0.263257  0.392156  1
  O  O47  1  0.386630  0.736743  0.392156  1
  O  O48  1  0.817820  0.260356  0.413523  1
  O  O49  1  0.182180  0.739644  0.413523  1
  O  O50  1  0.426618  0.210701  0.506217  1
  O  O51  1  0.573382  0.789299  0.506218  1
  O  O52  1  0.227503  0.269762  0.580028  1
  O  O53  1  0.772496  0.730238  0.580028  1
  O  O54  1  0.276763  0.070353  0.575153  1
  O  O55  1  0.723237  0.929647  0.575153  1
  O  O56  1  0.950993  0.219088  0.669465  1
  O  O57  1  0.049008  0.780912  0.669465  1
  O  O58  1  0.766112  0.117762  0.670718  1
  O  O59  1  0.233887  0.882238  0.670718  1
  O  O60  1  0.774521  0.320662  0.758508  1
  O  O61  1  0.225479  0.679339  0.758508  1
  O  O62  1  0.214447  0.418067  0.825923  1
  O  O63  1  0.785552  0.581933  0.825923  1
  O  O64  1  0.113442  0.236413  0.891899  1
  O  O65  1  0.886558  0.763588  0.891899  1
  O  O66  1  0.316168  0.240283  0.914909  1
  O  O67  1  0.683832  0.759718  0.914910  1
