# generated using pymatgen
data_Tb6HgAu7
_symmetry_space_group_name_H-M   'P 1'
_cell_length_a   8.09845051
_cell_length_b   8.09844982
_cell_length_c   8.09845034
_cell_angle_alpha   113.85169675
_cell_angle_beta   113.85170203
_cell_angle_gamma   113.85170226
_symmetry_Int_Tables_number   1
_chemical_formula_structural   Tb6HgAu7
_chemical_formula_sum   'Tb6 Hg1 Au7'
_cell_volume   326.21049076
_cell_formula_units_Z   1
loop_
 _symmetry_equiv_pos_site_id
 _symmetry_equiv_pos_as_xyz
  1  'x, y, z'
loop_
 _atom_site_type_symbol
 _atom_site_label
 _atom_site_symmetry_multiplicity
 _atom_site_fract_x
 _atom_site_fract_y
 _atom_site_fract_z
 _atom_site_occupancy
  Tb  Tb0  1  0.993875  0.257924  0.390306  1
  Tb  Tb1  1  0.257924  0.390306  0.993875  1
  Tb  Tb2  1  0.390306  0.993875  0.257924  1
  Tb  Tb3  1  0.006125  0.742076  0.609694  1
  Tb  Tb4  1  0.742076  0.609694  0.006125  1
  Tb  Tb5  1  0.609694  0.006125  0.742076  1
  Hg  Hg6  1  0.500000  0.500000  0.500000  1
  Au  Au7  1  0.000000  0.000000  0.000000  1
  Au  Au8  1  0.081058  0.562624  0.242158  1
  Au  Au9  1  0.562624  0.242158  0.081058  1
  Au  Au10  1  0.242158  0.081058  0.562624  1
  Au  Au11  1  0.918942  0.437376  0.757842  1
  Au  Au12  1  0.437376  0.757842  0.918942  1
  Au  Au13  1  0.757842  0.918942  0.437376  1
