# generated using pymatgen
data_K6ErInAs4
_symmetry_space_group_name_H-M   'P 1'
_cell_length_a   9.37385672
_cell_length_b   9.37385679
_cell_length_c   9.37385680
_cell_angle_alpha   129.34733304
_cell_angle_beta   68.66281673
_cell_angle_gamma   136.87263345
_symmetry_Int_Tables_number   1
_chemical_formula_structural   K6ErInAs4
_chemical_formula_sum   'K6 Er1 In1 As4'
_cell_volume   427.75662719
_cell_formula_units_Z   1
loop_
 _symmetry_equiv_pos_site_id
 _symmetry_equiv_pos_as_xyz
  1  'x, y, z'
loop_
 _atom_site_type_symbol
 _atom_site_label
 _atom_site_symmetry_multiplicity
 _atom_site_fract_x
 _atom_site_fract_y
 _atom_site_fract_z
 _atom_site_occupancy
  K  K0  1  0.250000  0.250000  0.000000  1
  K  K1  1  0.750000  0.750000  0.000000  1
  K  K2  1  0.299408  0.796072  0.119076  1
  K  K3  1  0.200592  0.319668  0.496664  1
  K  K4  1  0.823005  0.703928  0.503336  1
  K  K5  1  0.676996  0.180332  0.880923  1
  Er  Er6  1  0.750000  0.250000  0.500000  1
  In  In7  1  0.250000  0.750000  0.500000  1
  As  As8  1  0.903276  0.309954  0.204494  1
  As  As9  1  0.596725  0.801219  0.406679  1
  As  As10  1  0.394539  0.190046  0.593320  1
  As  As11  1  0.105460  0.698781  0.795505  1
