# generated using pymatgen
data_Zr9Re3NiW
_symmetry_space_group_name_H-M   'P 1'
_cell_length_a   8.74917600
_cell_length_b   8.74917678
_cell_length_c   8.50939300
_cell_angle_alpha   90.00000000
_cell_angle_beta   90.00000000
_cell_angle_gamma   120.00000462
_symmetry_Int_Tables_number   1
_chemical_formula_structural   Zr9Re3NiW
_chemical_formula_sum   'Zr18 Re6 Ni2 W2'
_cell_volume   564.10966126
_cell_formula_units_Z   2
loop_
 _symmetry_equiv_pos_site_id
 _symmetry_equiv_pos_as_xyz
  1  'x, y, z'
loop_
 _atom_site_type_symbol
 _atom_site_label
 _atom_site_symmetry_multiplicity
 _atom_site_fract_x
 _atom_site_fract_y
 _atom_site_fract_z
 _atom_site_occupancy
  Zr  Zr0  1  0.198306  0.801694  0.443413  1
  Zr  Zr1  1  0.198306  0.396611  0.443413  1
  Zr  Zr2  1  0.603389  0.801694  0.443413  1
  Zr  Zr3  1  0.801694  0.198306  0.556587  1
  Zr  Zr4  1  0.801694  0.603389  0.556587  1
  Zr  Zr5  1  0.396611  0.198306  0.556587  1
  Zr  Zr6  1  0.801694  0.198306  0.943413  1
  Zr  Zr7  1  0.801694  0.603389  0.943413  1
  Zr  Zr8  1  0.396611  0.198306  0.943413  1
  Zr  Zr9  1  0.198306  0.801694  0.056587  1
  Zr  Zr10  1  0.198306  0.396611  0.056587  1
  Zr  Zr11  1  0.603389  0.801694  0.056587  1
  Zr  Zr12  1  0.541860  0.458140  0.250000  1
  Zr  Zr13  1  0.541860  0.083723  0.250000  1
  Zr  Zr14  1  0.916277  0.458140  0.250000  1
  Zr  Zr15  1  0.458140  0.541860  0.750000  1
  Zr  Zr16  1  0.458140  0.916277  0.750000  1
  Zr  Zr17  1  0.083723  0.541860  0.750000  1
  Re  Re18  1  0.891000  0.109000  0.250000  1
  Re  Re19  1  0.891000  0.781999  0.250000  1
  Re  Re20  1  0.218001  0.109000  0.250000  1
  Re  Re21  1  0.109000  0.891000  0.750000  1
  Re  Re22  1  0.109000  0.218001  0.750000  1
  Re  Re23  1  0.781999  0.891000  0.750000  1
  Ni  Ni24  1  0.333333  0.666667  0.250000  1
  Ni  Ni25  1  0.666667  0.333333  0.750000  1
  W  W26  1  0.000000  0.000000  0.500000  1
  W  W27  1  0.000000  0.000000  0.000000  1
