# generated using pymatgen
data_Pr3Y2P12Pd2Ru17
_symmetry_space_group_name_H-M   'P 1'
_cell_length_a   12.74195300
_cell_length_b   12.62006376
_cell_length_c   4.01116700
_cell_angle_alpha   90.00000000
_cell_angle_beta   90.00000000
_cell_angle_gamma   120.32000604
_symmetry_Int_Tables_number   1
_chemical_formula_structural   Pr3Y2P12Pd2Ru17
_chemical_formula_sum   'Pr3 Y2 P12 Pd2 Ru17'
_cell_volume   556.78746465
_cell_formula_units_Z   1
loop_
 _symmetry_equiv_pos_site_id
 _symmetry_equiv_pos_as_xyz
  1  'x, y, z'
loop_
 _atom_site_type_symbol
 _atom_site_label
 _atom_site_symmetry_multiplicity
 _atom_site_fract_x
 _atom_site_fract_y
 _atom_site_fract_z
 _atom_site_occupancy
  Pr  Pr0  1  0.001477  0.183468  0.500000  1
  Pr  Pr1  1  0.818009  0.816532  0.500000  1
  Pr  Pr2  1  0.184431  0.000000  0.500000  1
  Y  Y3  1  0.664014  0.327324  0.000000  1
  Y  Y4  1  0.336688  0.672676  0.000000  1
  P  P5  1  0.998607  0.807887  0.000000  1
  P  P6  1  0.190720  0.192113  0.000000  1
  P  P7  1  0.813421  0.000000  0.000000  1
  P  P8  1  0.693680  0.171613  0.500000  1
  P  P9  1  0.815776  0.515730  0.500000  1
  P  P10  1  0.477960  0.298685  0.500000  1
  P  P11  1  0.179276  0.701315  0.500000  1
  P  P12  1  0.522067  0.828387  0.500000  1
  P  P13  1  0.300046  0.484270  0.500000  1
  P  P14  1  0.000409  0.368637  0.000000  1
  P  P15  1  0.631772  0.631363  0.000000  1
  P  P16  1  0.376396  0.000000  0.000000  1
  Pd  Pd17  1  0.998798  0.551858  0.000000  1
  Pd  Pd18  1  0.446939  0.448142  0.000000  1
  Ru  Ru19  1  0.555224  0.000000  0.000000  1
  Ru  Ru20  1  0.997687  0.707328  0.500000  1
  Ru  Ru21  1  0.290359  0.292672  0.500000  1
  Ru  Ru22  1  0.714519  0.000000  0.500000  1
  Ru  Ru23  1  0.805469  0.185636  0.000000  1
  Ru  Ru24  1  0.811649  0.614072  0.000000  1
  Ru  Ru25  1  0.380332  0.195035  0.000000  1
  Ru  Ru26  1  0.185298  0.804965  0.000000  1
  Ru  Ru27  1  0.619834  0.814364  0.000000  1
  Ru  Ru28  1  0.197580  0.385928  0.000000  1
  Ru  Ru29  1  0.871484  0.366647  0.500000  1
  Ru  Ru30  1  0.628163  0.505856  0.500000  1
  Ru  Ru31  1  0.493117  0.123950  0.500000  1
  Ru  Ru32  1  0.369167  0.876050  0.500000  1
  Ru  Ru33  1  0.504837  0.633353  0.500000  1
  Ru  Ru34  1  0.122308  0.494144  0.500000  1
  Ru  Ru35  1  0.002489  0.000000  0.000000  1
