# generated using pymatgen
data_DyNp(ZnP)6
_symmetry_space_group_name_H-M   'P 1'
_cell_length_a   4.00312400
_cell_length_b   4.00312343
_cell_length_c   19.53094800
_cell_angle_alpha   90.00000000
_cell_angle_beta   90.00000000
_cell_angle_gamma   119.99998817
_symmetry_Int_Tables_number   1
_chemical_formula_structural   DyNp(ZnP)6
_chemical_formula_sum   'Dy1 Np1 Zn6 P6'
_cell_volume   271.05163510
_cell_formula_units_Z   1
loop_
 _symmetry_equiv_pos_site_id
 _symmetry_equiv_pos_as_xyz
  1  'x, y, z'
loop_
 _atom_site_type_symbol
 _atom_site_label
 _atom_site_symmetry_multiplicity
 _atom_site_fract_x
 _atom_site_fract_y
 _atom_site_fract_z
 _atom_site_occupancy
  Dy  Dy0  1  0.000000  0.000000  0.500000  1
  Np  Np1  1  0.000000  0.000000  0.000000  1
  Zn  Zn2  1  0.333333  0.666667  0.749993  1
  Zn  Zn3  1  0.666667  0.333333  0.250007  1
  Zn  Zn4  1  0.333333  0.666667  0.123284  1
  Zn  Zn5  1  0.666667  0.333333  0.876716  1
  Zn  Zn6  1  0.666667  0.333333  0.629637  1
  Zn  Zn7  1  0.333333  0.666667  0.370363  1
  P  P8  1  0.333333  0.666667  0.585280  1
  P  P9  1  0.666667  0.333333  0.414720  1
  P  P10  1  0.666667  0.333333  0.077635  1
  P  P11  1  0.333333  0.666667  0.922365  1
  P  P12  1  0.333333  0.666667  0.246223  1
  P  P13  1  0.666667  0.333333  0.753777  1
