# generated using pymatgen
data_Zr4SiP3Ir4
_symmetry_space_group_name_H-M   'P 1'
_cell_length_a   3.87832600
_cell_length_b   6.56918162
_cell_length_c   7.45613202
_cell_angle_alpha   90.25829548
_cell_angle_beta   90.00000000
_cell_angle_gamma   90.00000000
_symmetry_Int_Tables_number   1
_chemical_formula_structural   Zr4SiP3Ir4
_chemical_formula_sum   'Zr4 Si1 P3 Ir4'
_cell_volume   189.96113544
_cell_formula_units_Z   1
loop_
 _symmetry_equiv_pos_site_id
 _symmetry_equiv_pos_as_xyz
  1  'x, y, z'
loop_
 _atom_site_type_symbol
 _atom_site_label
 _atom_site_symmetry_multiplicity
 _atom_site_fract_x
 _atom_site_fract_y
 _atom_site_fract_z
 _atom_site_occupancy
  Zr  Zr0  1  0.250000  0.021774  0.325486  1
  Zr  Zr1  1  0.250000  0.526076  0.177449  1
  Zr  Zr2  1  0.750000  0.976942  0.676882  1
  Zr  Zr3  1  0.750000  0.477501  0.820630  1
  Si  Si4  1  0.750000  0.229836  0.120521  1
  P  P5  1  0.250000  0.265067  0.622051  1
  P  P6  1  0.250000  0.769039  0.879033  1
  P  P7  1  0.750000  0.734171  0.378264  1
  Ir  Ir8  1  0.250000  0.144278  0.936115  1
  Ir  Ir9  1  0.250000  0.645773  0.564050  1
  Ir  Ir10  1  0.750000  0.853713  0.062456  1
  Ir  Ir11  1  0.750000  0.355830  0.437063  1
