# generated using pymatgen
data_Pr3SOF5
_symmetry_space_group_name_H-M   'P 1'
_cell_length_a   3.89285000
_cell_length_b   9.80628062
_cell_length_c   9.85767482
_cell_angle_alpha   60.46230163
_cell_angle_beta   90.00000000
_cell_angle_gamma   90.00000000
_symmetry_Int_Tables_number   1
_chemical_formula_structural   Pr3SOF5
_chemical_formula_sum   'Pr6 S2 O2 F10'
_cell_volume   327.40209747
_cell_formula_units_Z   2
loop_
 _symmetry_equiv_pos_site_id
 _symmetry_equiv_pos_as_xyz
  1  'x, y, z'
loop_
 _atom_site_type_symbol
 _atom_site_label
 _atom_site_symmetry_multiplicity
 _atom_site_fract_x
 _atom_site_fract_y
 _atom_site_fract_z
 _atom_site_occupancy
  Pr  Pr0  1  0.000000  0.583232  0.132971  1
  Pr  Pr1  1  0.000000  0.131769  0.272558  1
  Pr  Pr2  1  0.000000  0.298564  0.584916  1
  Pr  Pr3  1  0.500000  0.405366  0.895143  1
  Pr  Pr4  1  0.500000  0.877377  0.713716  1
  Pr  Pr5  1  0.500000  0.704547  0.404268  1
  S  S6  1  0.000000  0.671601  0.667484  1
  S  S7  1  0.500000  0.326988  0.338233  1
  O  O8  1  0.000000  0.563580  0.387627  1
  O  O9  1  0.000000  0.383097  0.052095  1
  F  F10  1  0.000000  0.840614  0.878903  1
  F  F11  1  0.000000  0.886153  0.274895  1
  F  F12  1  0.000000  0.276587  0.837656  1
  F  F13  1  0.500000  0.145497  0.119075  1
  F  F14  1  0.500000  0.122323  0.713854  1
  F  F15  1  0.500000  0.726736  0.149690  1
  F  F16  1  0.000000  0.047513  0.566029  1
  F  F17  1  0.500000  0.431028  0.625584  1
  F  F18  1  0.500000  0.622270  0.952831  1
  F  F19  1  0.500000  0.955158  0.432472  1
