# generated using pymatgen
data_Y6Al41Cr6
_symmetry_space_group_name_H-M   'P 1'
_cell_length_a   10.84593400
_cell_length_b   10.84593368
_cell_length_c   17.42144800
_cell_angle_alpha   90.00000000
_cell_angle_beta   90.00000000
_cell_angle_gamma   120.00000098
_symmetry_Int_Tables_number   1
_chemical_formula_structural   Y6Al41Cr6
_chemical_formula_sum   'Y12 Al82 Cr12'
_cell_volume   1774.79737671
_cell_formula_units_Z   2
loop_
 _symmetry_equiv_pos_site_id
 _symmetry_equiv_pos_as_xyz
  1  'x, y, z'
loop_
 _atom_site_type_symbol
 _atom_site_label
 _atom_site_symmetry_multiplicity
 _atom_site_fract_x
 _atom_site_fract_y
 _atom_site_fract_z
 _atom_site_occupancy
  Y  Y0  1  0.000000  0.532936  0.402366  1
  Y  Y1  1  0.467064  0.467064  0.402366  1
  Y  Y2  1  0.532936  0.000000  0.402366  1
  Y  Y3  1  0.000000  0.467064  0.597634  1
  Y  Y4  1  0.532936  0.532936  0.597634  1
  Y  Y5  1  0.467064  0.000000  0.597634  1
  Y  Y6  1  0.000000  0.464611  0.904257  1
  Y  Y7  1  0.535389  0.535389  0.904257  1
  Y  Y8  1  0.464611  0.000000  0.904257  1
  Y  Y9  1  0.000000  0.535389  0.095743  1
  Y  Y10  1  0.464611  0.464611  0.095743  1
  Y  Y11  1  0.535389  0.000000  0.095743  1
  Al  Al12  1  0.000000  0.749919  0.971733  1
  Al  Al13  1  0.250081  0.250081  0.971733  1
  Al  Al14  1  0.749919  0.000000  0.971733  1
  Al  Al15  1  0.000000  0.250081  0.028267  1
  Al  Al16  1  0.749919  0.749919  0.028267  1
  Al  Al17  1  0.250081  0.000000  0.028267  1
  Al  Al18  1  0.000000  0.251131  0.469493  1
  Al  Al19  1  0.748869  0.748869  0.469493  1
  Al  Al20  1  0.251131  0.000000  0.469493  1
  Al  Al21  1  0.000000  0.748869  0.530507  1
  Al  Al22  1  0.251131  0.251131  0.530507  1
  Al  Al23  1  0.748869  0.000000  0.530507  1
  Al  Al24  1  0.608528  0.767438  0.334804  1
  Al  Al25  1  0.232562  0.841091  0.334804  1
  Al  Al26  1  0.158909  0.391472  0.334804  1
  Al  Al27  1  0.391472  0.158909  0.334804  1
  Al  Al28  1  0.767438  0.608528  0.334804  1
  Al  Al29  1  0.841091  0.232562  0.334804  1
  Al  Al30  1  0.391472  0.232562  0.665196  1
  Al  Al31  1  0.767438  0.158909  0.665196  1
  Al  Al32  1  0.841091  0.608528  0.665196  1
  Al  Al33  1  0.608528  0.841091  0.665196  1
  Al  Al34  1  0.232562  0.391472  0.665196  1
  Al  Al35  1  0.158909  0.767438  0.665196  1
  Al  Al36  1  0.399386  0.234250  0.839025  1
  Al  Al37  1  0.765750  0.165137  0.839025  1
  Al  Al38  1  0.834863  0.600614  0.839025  1
  Al  Al39  1  0.600614  0.834863  0.839025  1
  Al  Al40  1  0.234250  0.399386  0.839025  1
  Al  Al41  1  0.165137  0.765750  0.839025  1
  Al  Al42  1  0.600614  0.765750  0.160975  1
  Al  Al43  1  0.234250  0.834863  0.160975  1
  Al  Al44  1  0.165137  0.399386  0.160975  1
  Al  Al45  1  0.399386  0.165137  0.160975  1
  Al  Al46  1  0.765750  0.600614  0.160975  1
  Al  Al47  1  0.834863  0.234250  0.160975  1
  Al  Al48  1  0.000000  0.149972  0.248389  1
  Al  Al49  1  0.850028  0.850028  0.248389  1
  Al  Al50  1  0.149972  0.000000  0.248389  1
  Al  Al51  1  0.000000  0.850028  0.751611  1
  Al  Al52  1  0.149972  0.149972  0.751611  1
  Al  Al53  1  0.850028  0.000000  0.751611  1
  Al  Al54  1  0.453037  0.849762  0.246591  1
  Al  Al55  1  0.150238  0.603274  0.246591  1
  Al  Al56  1  0.396726  0.546963  0.246591  1
  Al  Al57  1  0.546963  0.396726  0.246591  1
  Al  Al58  1  0.849762  0.453037  0.246591  1
  Al  Al59  1  0.603274  0.150238  0.246591  1
  Al  Al60  1  0.546963  0.150238  0.753409  1
  Al  Al61  1  0.849762  0.396726  0.753409  1
  Al  Al62  1  0.603274  0.453037  0.753409  1
  Al  Al63  1  0.453037  0.603274  0.753409  1
  Al  Al64  1  0.150238  0.546963  0.753409  1
  Al  Al65  1  0.396726  0.849762  0.753409  1
  Al  Al66  1  0.505572  0.752786  0.500000  1
  Al  Al67  1  0.247214  0.752786  0.500000  1
  Al  Al68  1  0.247214  0.494428  0.500000  1
  Al  Al69  1  0.494428  0.247214  0.500000  1
  Al  Al70  1  0.752786  0.505572  0.500000  1
  Al  Al71  1  0.752786  0.247214  0.500000  1
  Al  Al72  1  0.504084  0.252042  0.000000  1
  Al  Al73  1  0.747958  0.252042  0.000000  1
  Al  Al74  1  0.747958  0.495916  0.000000  1
  Al  Al75  1  0.495916  0.747958  0.000000  1
  Al  Al76  1  0.252042  0.504084  0.000000  1
  Al  Al77  1  0.252042  0.747958  0.000000  1
  Al  Al78  1  0.000000  0.845166  0.384252  1
  Al  Al79  1  0.154834  0.154834  0.384252  1
  Al  Al80  1  0.845166  0.000000  0.384252  1
  Al  Al81  1  0.000000  0.154834  0.615748  1
  Al  Al82  1  0.845166  0.845166  0.615748  1
  Al  Al83  1  0.154834  0.000000  0.615748  1
  Al  Al84  1  0.000000  0.154654  0.884227  1
  Al  Al85  1  0.845346  0.845346  0.884227  1
  Al  Al86  1  0.154654  0.000000  0.884227  1
  Al  Al87  1  0.000000  0.845346  0.115773  1
  Al  Al88  1  0.154654  0.154654  0.115773  1
  Al  Al89  1  0.845346  0.000000  0.115773  1
  Al  Al90  1  0.333333  0.666667  0.373104  1
  Al  Al91  1  0.666667  0.333333  0.373104  1
  Al  Al92  1  0.666667  0.333333  0.626896  1
  Al  Al93  1  0.333333  0.666667  0.626896  1
  Cr  Cr94  1  0.000000  0.000000  0.500000  1
  Cr  Cr95  1  0.000000  0.000000  0.000000  1
  Cr  Cr96  1  0.000000  0.738123  0.251229  1
  Cr  Cr97  1  0.261877  0.261877  0.251229  1
  Cr  Cr98  1  0.738123  0.000000  0.251229  1
  Cr  Cr99  1  0.000000  0.261877  0.748771  1
  Cr  Cr100  1  0.738123  0.738123  0.748771  1
  Cr  Cr101  1  0.261877  0.000000  0.748771  1
  Cr  Cr102  1  0.666667  0.333333  0.865301  1
  Cr  Cr103  1  0.333333  0.666667  0.865301  1
  Cr  Cr104  1  0.333333  0.666667  0.134699  1
  Cr  Cr105  1  0.666667  0.333333  0.134699  1
