# generated using pymatgen
data_La8Y11TmSi16
_symmetry_space_group_name_H-M   'P 1'
_cell_length_a   7.56419807
_cell_length_b   7.87085407
_cell_length_c   14.99258500
_cell_angle_alpha   90.00000000
_cell_angle_beta   90.00000000
_cell_angle_gamma   90.01546448
_symmetry_Int_Tables_number   1
_chemical_formula_structural   La8Y11TmSi16
_chemical_formula_sum   'La8 Y11 Tm1 Si16'
_cell_volume   892.60899040
_cell_formula_units_Z   1
loop_
 _symmetry_equiv_pos_site_id
 _symmetry_equiv_pos_as_xyz
  1  'x, y, z'
loop_
 _atom_site_type_symbol
 _atom_site_label
 _atom_site_symmetry_multiplicity
 _atom_site_fract_x
 _atom_site_fract_y
 _atom_site_fract_z
 _atom_site_occupancy
  La  La0  1  0.019840  0.178115  0.401958  1
  La  La1  1  0.519741  0.321866  0.402040  1
  La  La2  1  0.480360  0.678179  0.901638  1
  La  La3  1  0.480360  0.678179  0.598362  1
  La  La4  1  0.979945  0.822178  0.598423  1
  La  La5  1  0.979945  0.822178  0.901577  1
  La  La6  1  0.519741  0.321866  0.097960  1
  La  La7  1  0.019840  0.178115  0.098042  1
  Y  Y8  1  0.323940  0.178114  0.623430  1
  Y  Y9  1  0.676371  0.821709  0.376879  1
  Y  Y10  1  0.176455  0.678341  0.376823  1
  Y  Y11  1  0.823088  0.321365  0.876655  1
  Y  Y12  1  0.823088  0.321365  0.623345  1
  Y  Y13  1  0.843614  0.489799  0.250000  1
  Y  Y14  1  0.343667  0.010189  0.250000  1
  Y  Y15  1  0.323940  0.178114  0.876570  1
  Y  Y16  1  0.176455  0.678341  0.123177  1
  Y  Y17  1  0.676371  0.821709  0.123121  1
  Y  Y18  1  0.156339  0.509946  0.750000  1
  Tm  Tm19  1  0.656596  0.989866  0.750000  1
  Si  Si20  1  0.276649  0.880878  0.750000  1
  Si  Si21  1  0.469199  0.613808  0.250000  1
  Si  Si22  1  0.029267  0.113556  0.750000  1
  Si  Si23  1  0.530671  0.385781  0.750000  1
  Si  Si24  1  0.145561  0.468911  0.538969  1
  Si  Si25  1  0.969166  0.886154  0.250000  1
  Si  Si26  1  0.725012  0.119105  0.250000  1
  Si  Si27  1  0.854478  0.531102  0.038855  1
  Si  Si28  1  0.354374  0.968891  0.038803  1
  Si  Si29  1  0.145561  0.468911  0.961031  1
  Si  Si30  1  0.645690  0.030863  0.539392  1
  Si  Si31  1  0.354374  0.968891  0.461197  1
  Si  Si32  1  0.854478  0.531102  0.461145  1
  Si  Si33  1  0.775061  0.620790  0.750000  1
  Si  Si34  1  0.225072  0.380859  0.250000  1
  Si  Si35  1  0.645690  0.030863  0.960608  1
