# generated using pymatgen
data_Ti10ZnCu(BiPb)3
_symmetry_space_group_name_H-M   'P 1'
_cell_length_a   8.37387813
_cell_length_b   8.38283502
_cell_length_c   5.65296221
_cell_angle_alpha   90.00645107
_cell_angle_beta   89.96992252
_cell_angle_gamma   119.88879846
_symmetry_Int_Tables_number   1
_chemical_formula_structural   Ti10ZnCu(BiPb)3
_chemical_formula_sum   'Ti10 Zn1 Cu1 Bi3 Pb3'
_cell_volume   344.04064871
_cell_formula_units_Z   1
loop_
 _symmetry_equiv_pos_site_id
 _symmetry_equiv_pos_as_xyz
  1  'x, y, z'
loop_
 _atom_site_type_symbol
 _atom_site_label
 _atom_site_symmetry_multiplicity
 _atom_site_fract_x
 _atom_site_fract_y
 _atom_site_fract_z
 _atom_site_occupancy
  Ti  Ti0  1  0.266363  0.998479  0.752657  1
  Ti  Ti1  1  0.734095  0.000599  0.247384  1
  Ti  Ti2  1  0.998322  0.266301  0.752368  1
  Ti  Ti3  1  0.001600  0.734740  0.247302  1
  Ti  Ti4  1  0.732592  0.732990  0.752547  1
  Ti  Ti5  1  0.267022  0.266256  0.247580  1
  Ti  Ti6  1  0.333284  0.666825  0.500802  1
  Ti  Ti7  1  0.666756  0.333383  0.500762  1
  Ti  Ti8  1  0.666696  0.333116  0.999137  1
  Ti  Ti9  1  0.333365  0.667027  0.999112  1
  Zn  Zn10  1  0.000009  0.999312  0.501141  1
  Cu  Cu11  1  0.000004  0.999025  0.999103  1
  Bi  Bi12  1  0.999656  0.384223  0.250568  1
  Bi  Bi13  1  0.382398  0.381976  0.749527  1
  Bi  Bi14  1  0.617601  0.617688  0.250619  1
  Pb  Pb15  1  0.616181  0.999849  0.749311  1
  Pb  Pb16  1  0.384144  0.000013  0.250681  1
  Pb  Pb17  1  0.999913  0.618196  0.749399  1
