# generated using pymatgen
data_Li4Ac3LuSi8
_symmetry_space_group_name_H-M   'P 1'
_cell_length_a   3.94949800
_cell_length_b   7.87618113
_cell_length_c   10.85814911
_cell_angle_alpha   90.06024485
_cell_angle_beta   90.00000000
_cell_angle_gamma   90.00000000
_symmetry_Int_Tables_number   1
_chemical_formula_structural   Li4Ac3LuSi8
_chemical_formula_sum   'Li4 Ac3 Lu1 Si8'
_cell_volume   337.76384089
_cell_formula_units_Z   1
loop_
 _symmetry_equiv_pos_site_id
 _symmetry_equiv_pos_as_xyz
  1  'x, y, z'
loop_
 _atom_site_type_symbol
 _atom_site_label
 _atom_site_symmetry_multiplicity
 _atom_site_fract_x
 _atom_site_fract_y
 _atom_site_fract_z
 _atom_site_occupancy
  Li  Li0  1  0.250000  0.992666  0.389724  1
  Li  Li1  1  0.250000  0.501007  0.113651  1
  Li  Li2  1  0.750000  0.001043  0.605031  1
  Li  Li3  1  0.750000  0.503959  0.888731  1
  Ac  Ac4  1  0.250000  0.145063  0.868270  1
  Ac  Ac5  1  0.250000  0.636027  0.631358  1
  Ac  Ac6  1  0.750000  0.862651  0.136346  1
  Lu  Lu7  1  0.750000  0.370080  0.366903  1
  Si  Si8  1  0.250000  0.222982  0.560171  1
  Si  Si9  1  0.250000  0.718904  0.924772  1
  Si  Si10  1  0.750000  0.762932  0.423724  1
  Si  Si11  1  0.750000  0.292182  0.088622  1
  Si  Si12  1  0.250000  0.650346  0.322544  1
  Si  Si13  1  0.250000  0.179266  0.190629  1
  Si  Si14  1  0.750000  0.328331  0.665748  1
  Si  Si15  1  0.750000  0.832561  0.823778  1
