# generated using pymatgen
data_AcYb3(PIr)4
_symmetry_space_group_name_H-M   'P 1'
_cell_length_a   6.23608687
_cell_length_b   6.23608673
_cell_length_c   6.23608700
_cell_angle_alpha   90.07161875
_cell_angle_beta   90.07161875
_cell_angle_gamma   89.92838366
_symmetry_Int_Tables_number   1
_chemical_formula_structural   AcYb3(PIr)4
_chemical_formula_sum   'Ac1 Yb3 P4 Ir4'
_cell_volume   242.51323875
_cell_formula_units_Z   1
loop_
 _symmetry_equiv_pos_site_id
 _symmetry_equiv_pos_as_xyz
  1  'x, y, z'
loop_
 _atom_site_type_symbol
 _atom_site_label
 _atom_site_symmetry_multiplicity
 _atom_site_fract_x
 _atom_site_fract_y
 _atom_site_fract_z
 _atom_site_occupancy
  Ac  Ac0  1  0.382452  0.882452  0.617548  1
  Yb  Yb1  1  0.886054  0.606683  0.386055  1
  Yb  Yb2  1  0.613945  0.386054  0.893317  1
  Yb  Yb3  1  0.106683  0.113945  0.113946  1
  P  P4  1  0.675942  0.175942  0.324058  1
  P  P5  1  0.168007  0.336555  0.667689  1
  P  P6  1  0.332311  0.668007  0.163445  1
  P  P7  1  0.836555  0.832311  0.831993  1
  Ir  Ir8  1  0.076903  0.576903  0.923097  1
  Ir  Ir9  1  0.584804  0.918769  0.082425  1
  Ir  Ir10  1  0.917575  0.084804  0.581231  1
  Ir  Ir11  1  0.418769  0.417575  0.415196  1
