# generated using pymatgen
data_Ca10Si5Sn
_symmetry_space_group_name_H-M   'P 1'
_cell_length_a   9.28816508
_cell_length_b   9.28816542
_cell_length_c   9.28816470
_cell_angle_alpha   131.00192480
_cell_angle_beta   131.00192886
_cell_angle_gamma   71.81001974
_symmetry_Int_Tables_number   1
_chemical_formula_structural   Ca10Si5Sn
_chemical_formula_sum   'Ca10 Si5 Sn1'
_cell_volume   446.42806376
_cell_formula_units_Z   1
loop_
 _symmetry_equiv_pos_site_id
 _symmetry_equiv_pos_as_xyz
  1  'x, y, z'
loop_
 _atom_site_type_symbol
 _atom_site_label
 _atom_site_symmetry_multiplicity
 _atom_site_fract_x
 _atom_site_fract_y
 _atom_site_fract_z
 _atom_site_occupancy
  Ca  Ca0  1  0.824853  0.308787  0.857426  1
  Ca  Ca1  1  0.191213  0.675147  0.142574  1
  Ca  Ca2  1  0.451362  0.967427  0.142574  1
  Ca  Ca3  1  0.308787  0.451362  0.483934  1
  Ca  Ca4  1  0.048638  0.191213  0.516066  1
  Ca  Ca5  1  0.532573  0.048638  0.857426  1
  Ca  Ca6  1  0.675147  0.532573  0.483934  1
  Ca  Ca7  1  0.967427  0.824853  0.516066  1
  Ca  Ca8  1  0.991824  0.991824  0.000000  1
  Ca  Ca9  1  0.508176  0.508176  0.000000  1
  Si  Si10  1  0.112203  0.612203  0.724407  1
  Si  Si11  1  0.887797  0.387797  0.275593  1
  Si  Si12  1  0.612203  0.887797  0.500000  1
  Si  Si13  1  0.387797  0.112203  0.500000  1
  Si  Si14  1  0.250000  0.250000  0.000000  1
  Sn  Sn15  1  0.750000  0.750000  0.000000  1
