# generated using pymatgen
data_Tb7Ho2Tm3Ru4
_symmetry_space_group_name_H-M   'P 1'
_cell_length_a   6.30407103
_cell_length_b   7.30479859
_cell_length_c   9.17087442
_cell_angle_alpha   89.88331907
_cell_angle_beta   89.81693772
_cell_angle_gamma   89.95095095
_symmetry_Int_Tables_number   1
_chemical_formula_structural   Tb7Ho2Tm3Ru4
_chemical_formula_sum   'Tb7 Ho2 Tm3 Ru4'
_cell_volume   422.31530026
_cell_formula_units_Z   1
loop_
 _symmetry_equiv_pos_site_id
 _symmetry_equiv_pos_as_xyz
  1  'x, y, z'
loop_
 _atom_site_type_symbol
 _atom_site_label
 _atom_site_symmetry_multiplicity
 _atom_site_fract_x
 _atom_site_fract_y
 _atom_site_fract_z
 _atom_site_occupancy
  Tb  Tb0  1  0.633001  0.040137  0.252768  1
  Tb  Tb1  1  0.365772  0.959378  0.747467  1
  Tb  Tb2  1  0.133979  0.459636  0.747513  1
  Tb  Tb3  1  0.867134  0.540982  0.252264  1
  Tb  Tb4  1  0.170509  0.177387  0.066082  1
  Tb  Tb5  1  0.829974  0.822593  0.934549  1
  Tb  Tb6  1  0.669091  0.323319  0.934619  1
  Ho  Ho7  1  0.830435  0.823611  0.563477  1
  Ho  Ho8  1  0.330784  0.676671  0.066443  1
  Tm  Tm9  1  0.169295  0.175728  0.436351  1
  Tm  Tm10  1  0.331157  0.676260  0.435375  1
  Tm  Tm11  1  0.668604  0.324295  0.563734  1
  Ru  Ru12  1  0.459296  0.386192  0.252780  1
  Ru  Ru13  1  0.539647  0.614241  0.748083  1
  Ru  Ru14  1  0.959083  0.114224  0.745722  1
  Ru  Ru15  1  0.042239  0.885348  0.252774  1
