# generated using pymatgen
data_Sc4Mn2B11C
_symmetry_space_group_name_H-M   'P 1'
_cell_length_a   8.73169301
_cell_length_b   10.94988501
_cell_length_c   3.38029000
_cell_angle_alpha   90.00000000
_cell_angle_beta   90.00000000
_cell_angle_gamma   89.99619492
_symmetry_Int_Tables_number   1
_chemical_formula_structural   Sc4Mn2B11C
_chemical_formula_sum   'Sc8 Mn4 B22 C2'
_cell_volume   323.19302246
_cell_formula_units_Z   2
loop_
 _symmetry_equiv_pos_site_id
 _symmetry_equiv_pos_as_xyz
  1  'x, y, z'
loop_
 _atom_site_type_symbol
 _atom_site_label
 _atom_site_symmetry_multiplicity
 _atom_site_fract_x
 _atom_site_fract_y
 _atom_site_fract_z
 _atom_site_occupancy
  Sc  Sc0  1  0.319961  0.088188  0.000000  1
  Sc  Sc1  1  0.941480  0.127521  0.000000  1
  Sc  Sc2  1  0.442203  0.368240  0.000000  1
  Sc  Sc3  1  0.822733  0.414059  0.000000  1
  Sc  Sc4  1  0.178164  0.586193  0.000000  1
  Sc  Sc5  1  0.556861  0.632057  0.000000  1
  Sc  Sc6  1  0.057130  0.872406  0.000000  1
  Sc  Sc7  1  0.681946  0.912244  0.000000  1
  Mn  Mn8  1  0.637903  0.177349  0.000000  1
  Mn  Mn9  1  0.139124  0.313964  0.000000  1
  Mn  Mn10  1  0.862341  0.680529  0.000000  1
  Mn  Mn11  1  0.361181  0.827924  0.000000  1
  B  B12  1  0.745710  0.079291  0.499999  1
  B  B13  1  0.128142  0.176838  0.499999  1
  B  B14  1  0.483730  0.205773  0.499999  1
  B  B15  1  0.791258  0.234344  0.499999  1
  B  B16  1  0.293170  0.258198  0.499999  1
  B  B17  1  0.980543  0.284764  0.499999  1
  B  B18  1  0.629272  0.314892  0.499999  1
  B  B19  1  0.250534  0.416222  0.499999  1
  B  B20  1  0.053677  0.430930  0.499999  1
  B  B21  1  0.599152  0.472394  0.499999  1
  B  B22  1  0.398829  0.527986  0.499999  1
  B  B23  1  0.947620  0.565164  0.499999  1
  B  B24  1  0.749861  0.580556  0.499999  1
  B  B25  1  0.370257  0.687526  0.499999  1
  B  B26  1  0.020887  0.711910  0.499999  1
  B  B27  1  0.707488  0.737583  0.499999  1
  B  B28  1  0.207880  0.768825  0.499999  1
  B  B29  1  0.519324  0.793264  0.499999  1
  B  B30  1  0.872321  0.816284  0.499999  1
  B  B31  1  0.246232  0.926870  0.499999  1
  B  B32  1  0.449302  0.942643  0.499999  1
  B  B33  1  0.899346  0.972083  0.499999  1
  C  C34  1  0.097642  0.027890  0.499999  1
  C  C35  1  0.556789  0.067092  0.499999  1
