# generated using pymatgen
data_CeSm2Sn2Rh3Pb
_symmetry_space_group_name_H-M   'P 1'
_cell_length_a   7.62537659
_cell_length_b   7.73727686
_cell_length_c   3.96500600
_cell_angle_alpha   90.00000000
_cell_angle_beta   90.00000000
_cell_angle_gamma   120.48661687
_symmetry_Int_Tables_number   1
_chemical_formula_structural   CeSm2Sn2Rh3Pb
_chemical_formula_sum   'Ce1 Sm2 Sn2 Rh3 Pb1'
_cell_volume   201.59205391
_cell_formula_units_Z   1
loop_
 _symmetry_equiv_pos_site_id
 _symmetry_equiv_pos_as_xyz
  1  'x, y, z'
loop_
 _atom_site_type_symbol
 _atom_site_label
 _atom_site_symmetry_multiplicity
 _atom_site_fract_x
 _atom_site_fract_y
 _atom_site_fract_z
 _atom_site_occupancy
  Ce  Ce0  1  0.000000  0.590347  0.500000  1
  Sm  Sm1  1  0.410152  0.407471  0.500000  1
  Sm  Sm2  1  0.589848  0.997319  0.500000  1
  Sn  Sn3  1  0.736466  0.742148  0.000000  1
  Sn  Sn4  1  0.263534  0.005682  0.000000  1
  Rh  Rh5  1  0.000000  0.980029  0.500000  1
  Rh  Rh6  1  0.678278  0.351748  0.000000  1
  Rh  Rh7  1  0.321722  0.673471  0.000000  1
  Pb  Pb8  1  0.000000  0.251785  0.000000  1
