# generated using pymatgen
data_Mg3TcN4
_symmetry_space_group_name_H-M   'P 1'
_cell_length_a   6.75806100
_cell_length_b   5.85703600
_cell_length_c   5.30887400
_cell_angle_alpha   90.00000000
_cell_angle_beta   90.00000000
_cell_angle_gamma   90.00000000
_symmetry_Int_Tables_number   1
_chemical_formula_structural   Mg3TcN4
_chemical_formula_sum   'Mg6 Tc2 N8'
_cell_volume   210.13694731
_cell_formula_units_Z   2
loop_
 _symmetry_equiv_pos_site_id
 _symmetry_equiv_pos_as_xyz
  1  'x, y, z'
loop_
 _atom_site_type_symbol
 _atom_site_label
 _atom_site_symmetry_multiplicity
 _atom_site_fract_x
 _atom_site_fract_y
 _atom_site_fract_z
 _atom_site_occupancy
  Mg  Mg0  1  0.251641  0.169279  0.857213  1
  Mg  Mg1  1  0.748359  0.169279  0.857213  1
  Mg  Mg2  1  0.248359  0.830721  0.357213  1
  Mg  Mg3  1  0.751641  0.830721  0.357213  1
  Mg  Mg4  1  0.000000  0.658583  0.857907  1
  Mg  Mg5  1  0.500000  0.341417  0.357907  1
  Tc  Tc6  1  0.000000  0.329734  0.349481  1
  Tc  Tc7  1  0.500000  0.670266  0.849481  1
  N  N8  1  0.000000  0.634331  0.455985  1
  N  N9  1  0.500000  0.365669  0.955985  1
  N  N10  1  0.000000  0.324951  0.998451  1
  N  N11  1  0.500000  0.675049  0.498451  1
  N  N12  1  0.770109  0.177935  0.456685  1
  N  N13  1  0.229891  0.177935  0.456685  1
  N  N14  1  0.729891  0.822065  0.956685  1
  N  N15  1  0.270109  0.822065  0.956685  1
