# generated using pymatgen
data_Er12TcOsPd2
_symmetry_space_group_name_H-M   'P 1'
_cell_length_a   6.29540331
_cell_length_b   7.31832940
_cell_length_c   9.15772500
_cell_angle_alpha   90.00000000
_cell_angle_beta   90.00000000
_cell_angle_gamma   90.40874595
_symmetry_Int_Tables_number   1
_chemical_formula_structural   Er12TcOsPd2
_chemical_formula_sum   'Er12 Tc1 Os1 Pd2'
_cell_volume   421.90246005
_cell_formula_units_Z   1
loop_
 _symmetry_equiv_pos_site_id
 _symmetry_equiv_pos_as_xyz
  1  'x, y, z'
loop_
 _atom_site_type_symbol
 _atom_site_label
 _atom_site_symmetry_multiplicity
 _atom_site_fract_x
 _atom_site_fract_y
 _atom_site_fract_z
 _atom_site_occupancy
  Er  Er0  1  0.337653  0.674120  0.059140  1
  Er  Er1  1  0.174263  0.184468  0.437478  1
  Er  Er2  1  0.660843  0.327027  0.559127  1
  Er  Er3  1  0.825135  0.813622  0.937374  1
  Er  Er4  1  0.660843  0.327027  0.940873  1
  Er  Er5  1  0.825135  0.813622  0.562626  1
  Er  Er6  1  0.337653  0.674120  0.440860  1
  Er  Er7  1  0.174263  0.184468  0.062522  1
  Er  Er8  1  0.876028  0.527624  0.250000  1
  Er  Er9  1  0.623141  0.040824  0.250000  1
  Er  Er10  1  0.128652  0.472592  0.750000  1
  Er  Er11  1  0.376173  0.959567  0.750000  1
  Tc  Tc12  1  0.458251  0.383848  0.250000  1
  Os  Os13  1  0.543552  0.617905  0.750000  1
  Pd  Pd14  1  0.048100  0.884579  0.250000  1
  Pd  Pd15  1  0.950315  0.114584  0.750000  1
