# generated using pymatgen
data_TmPa2(ZnPd)3
_symmetry_space_group_name_H-M   'P 1'
_cell_length_a   7.35267655
_cell_length_b   7.46771347
_cell_length_c   3.74693000
_cell_angle_alpha   90.00000000
_cell_angle_beta   90.00000000
_cell_angle_gamma   120.51891137
_symmetry_Int_Tables_number   1
_chemical_formula_structural   TmPa2(ZnPd)3
_chemical_formula_sum   'Tm1 Pa2 Zn3 Pd3'
_cell_volume   177.23300749
_cell_formula_units_Z   1
loop_
 _symmetry_equiv_pos_site_id
 _symmetry_equiv_pos_as_xyz
  1  'x, y, z'
loop_
 _atom_site_type_symbol
 _atom_site_label
 _atom_site_symmetry_multiplicity
 _atom_site_fract_x
 _atom_site_fract_y
 _atom_site_fract_z
 _atom_site_occupancy
  Tm  Tm0  1  0.000000  0.599467  0.000000  1
  Pa  Pa1  1  0.408561  0.405316  0.000000  1
  Pa  Pa2  1  0.591439  0.996755  0.000000  1
  Zn  Zn3  1  0.754898  0.743763  0.500000  1
  Zn  Zn4  1  0.245102  0.988865  0.500000  1
  Zn  Zn5  1  0.000000  0.265633  0.500000  1
  Pd  Pd6  1  0.000000  0.009478  0.000000  1
  Pd  Pd7  1  0.655233  0.322977  0.500000  1
  Pd  Pd8  1  0.344767  0.667745  0.500000  1
