# generated using pymatgen
data_Ba3P4W
_symmetry_space_group_name_H-M   'P 1'
_cell_length_a   9.28757900
_cell_length_b   9.48684600
_cell_length_c   10.82403800
_cell_angle_alpha   90.00000000
_cell_angle_beta   90.00000000
_cell_angle_gamma   90.00000000
_symmetry_Int_Tables_number   1
_chemical_formula_structural   Ba3P4W
_chemical_formula_sum   'Ba12 P16 W4'
_cell_volume   953.70416634
_cell_formula_units_Z   4
loop_
 _symmetry_equiv_pos_site_id
 _symmetry_equiv_pos_as_xyz
  1  'x, y, z'
loop_
 _atom_site_type_symbol
 _atom_site_label
 _atom_site_symmetry_multiplicity
 _atom_site_fract_x
 _atom_site_fract_y
 _atom_site_fract_z
 _atom_site_occupancy
  Ba  Ba0  1  0.860397  0.918135  0.750000  1
  Ba  Ba1  1  0.360397  0.581865  0.750000  1
  Ba  Ba2  1  0.139603  0.081865  0.250000  1
  Ba  Ba3  1  0.639603  0.418135  0.250000  1
  Ba  Ba4  1  0.052748  0.293259  0.547360  1
  Ba  Ba5  1  0.552748  0.206741  0.952640  1
  Ba  Ba6  1  0.947252  0.706741  0.047360  1
  Ba  Ba7  1  0.447252  0.793259  0.452640  1
  Ba  Ba8  1  0.947252  0.706741  0.452640  1
  Ba  Ba9  1  0.447252  0.793259  0.047360  1
  Ba  Ba10  1  0.052748  0.293259  0.952640  1
  Ba  Ba11  1  0.552748  0.206741  0.547360  1
  P  P12  1  0.799724  0.243472  0.750000  1
  P  P13  1  0.299724  0.256528  0.750000  1
  P  P14  1  0.200276  0.756528  0.250000  1
  P  P15  1  0.700276  0.743472  0.250000  1
  P  P16  1  0.007588  0.580398  0.750000  1
  P  P17  1  0.507588  0.919602  0.750000  1
  P  P18  1  0.992412  0.419602  0.250000  1
  P  P19  1  0.492412  0.080398  0.250000  1
  P  P20  1  0.840448  0.048468  0.428066  1
  P  P21  1  0.340448  0.451532  0.071934  1
  P  P22  1  0.159552  0.951532  0.928066  1
  P  P23  1  0.659552  0.548468  0.571934  1
  P  P24  1  0.159552  0.951532  0.571934  1
  P  P25  1  0.659552  0.548468  0.928066  1
  P  P26  1  0.840448  0.048468  0.071934  1
  P  P27  1  0.340448  0.451532  0.428066  1
  W  W28  1  0.779120  0.484930  0.750000  1
  W  W29  1  0.279120  0.015070  0.750000  1
  W  W30  1  0.220880  0.515070  0.250000  1
  W  W31  1  0.720880  0.984930  0.250000  1
