# generated using pymatgen
data_Nd3Th5(Si3Ir)4
_symmetry_space_group_name_H-M   'P 1'
_cell_length_a   8.21775300
_cell_length_b   8.25840536
_cell_length_c   8.46297200
_cell_angle_alpha   90.00000000
_cell_angle_beta   90.00000000
_cell_angle_gamma   119.83729273
_symmetry_Int_Tables_number   1
_chemical_formula_structural   Nd3Th5(Si3Ir)4
_chemical_formula_sum   'Nd3 Th5 Si12 Ir4'
_cell_volume   498.21010178
_cell_formula_units_Z   1
loop_
 _symmetry_equiv_pos_site_id
 _symmetry_equiv_pos_as_xyz
  1  'x, y, z'
loop_
 _atom_site_type_symbol
 _atom_site_label
 _atom_site_symmetry_multiplicity
 _atom_site_fract_x
 _atom_site_fract_y
 _atom_site_fract_z
 _atom_site_occupancy
  Nd  Nd0  1  0.500238  0.000476  0.250000  1
  Nd  Nd1  1  0.999991  0.999982  0.750000  1
  Nd  Nd2  1  0.000018  0.000035  0.250000  1
  Th  Th3  1  0.499869  0.500209  0.750000  1
  Th  Th4  1  0.500140  0.499849  0.250000  1
  Th  Th5  1  0.000340  0.500209  0.750000  1
  Th  Th6  1  0.999709  0.499849  0.250000  1
  Th  Th7  1  0.499879  0.999757  0.750000  1
  Si  Si8  1  0.832276  0.165895  0.999469  1
  Si  Si9  1  0.167752  0.834089  0.999583  1
  Si  Si10  1  0.333618  0.165895  0.999469  1
  Si  Si11  1  0.167752  0.834089  0.500417  1
  Si  Si12  1  0.666337  0.834089  0.999583  1
  Si  Si13  1  0.832276  0.165895  0.500531  1
  Si  Si14  1  0.835398  0.670796  0.999405  1
  Si  Si15  1  0.666337  0.834089  0.500417  1
  Si  Si16  1  0.164583  0.329165  0.999482  1
  Si  Si17  1  0.333618  0.165895  0.500531  1
  Si  Si18  1  0.164583  0.329165  0.500518  1
  Si  Si19  1  0.835398  0.670796  0.500595  1
  Ir  Ir20  1  0.669211  0.338422  0.997751  1
  Ir  Ir21  1  0.330732  0.661466  0.999335  1
  Ir  Ir22  1  0.330732  0.661466  0.500665  1
  Ir  Ir23  1  0.669211  0.338422  0.502249  1
