# generated using pymatgen
data_Er3Lu2ZnIn3
_symmetry_space_group_name_H-M   'P 1'
_cell_length_a   9.05106500
_cell_length_b   9.05106506
_cell_length_c   6.60452100
_cell_angle_alpha   90.00000000
_cell_angle_beta   90.00000000
_cell_angle_gamma   120.00000344
_symmetry_Int_Tables_number   1
_chemical_formula_structural   Er3Lu2ZnIn3
_chemical_formula_sum   'Er6 Lu4 Zn2 In6'
_cell_volume   468.56658284
_cell_formula_units_Z   2
loop_
 _symmetry_equiv_pos_site_id
 _symmetry_equiv_pos_as_xyz
  1  'x, y, z'
loop_
 _atom_site_type_symbol
 _atom_site_label
 _atom_site_symmetry_multiplicity
 _atom_site_fract_x
 _atom_site_fract_y
 _atom_site_fract_z
 _atom_site_occupancy
  Er  Er0  1  0.277604  0.000000  0.750000  1
  Er  Er1  1  0.722396  0.000000  0.250000  1
  Er  Er2  1  0.000000  0.277604  0.750000  1
  Er  Er3  1  0.000000  0.722396  0.250000  1
  Er  Er4  1  0.722396  0.722396  0.750000  1
  Er  Er5  1  0.277604  0.277604  0.250000  1
  Lu  Lu6  1  0.333333  0.666667  0.500000  1
  Lu  Lu7  1  0.666667  0.333333  0.500000  1
  Lu  Lu8  1  0.666667  0.333333  0.000000  1
  Lu  Lu9  1  0.333333  0.666667  0.000000  1
  Zn  Zn10  1  0.000000  0.000000  0.500000  1
  Zn  Zn11  1  0.000000  0.000000  0.000000  1
  In  In12  1  0.623262  0.000000  0.750000  1
  In  In13  1  0.376738  0.000000  0.250000  1
  In  In14  1  0.000000  0.623262  0.750000  1
  In  In15  1  0.000000  0.376738  0.250000  1
  In  In16  1  0.376738  0.376738  0.750000  1
  In  In17  1  0.623262  0.623262  0.250000  1
