# generated using pymatgen
data_Tm4V2CoNiB16
_symmetry_space_group_name_H-M   'P 1'
_cell_length_a   3.39015200
_cell_length_b   5.91924000
_cell_length_c   11.44149183
_cell_angle_alpha   90.17347796
_cell_angle_beta   90.00000000
_cell_angle_gamma   90.00000000
_symmetry_Int_Tables_number   1
_chemical_formula_structural   Tm4V2CoNiB16
_chemical_formula_sum   'Tm4 V2 Co1 Ni1 B16'
_cell_volume   229.59677494
_cell_formula_units_Z   1
loop_
 _symmetry_equiv_pos_site_id
 _symmetry_equiv_pos_as_xyz
  1  'x, y, z'
loop_
 _atom_site_type_symbol
 _atom_site_label
 _atom_site_symmetry_multiplicity
 _atom_site_fract_x
 _atom_site_fract_y
 _atom_site_fract_z
 _atom_site_occupancy
  Tm  Tm0  1  0.000000  0.627678  0.351402  1
  Tm  Tm1  1  0.000000  0.371040  0.647911  1
  Tm  Tm2  1  0.000000  0.125496  0.152837  1
  Tm  Tm3  1  0.000000  0.875405  0.848137  1
  V  V4  1  0.000000  0.627889  0.086149  1
  V  V5  1  0.000000  0.372667  0.914183  1
  Co  Co6  1  0.000000  0.133673  0.413505  1
  Ni  Ni7  1  0.000000  0.861512  0.588813  1
  B  B8  1  0.500000  0.789397  0.188605  1
  B  B9  1  0.500000  0.210959  0.811315  1
  B  B10  1  0.500000  0.283382  0.316845  1
  B  B11  1  0.500000  0.715828  0.683422  1
  B  B12  1  0.500000  0.866897  0.033189  1
  B  B13  1  0.500000  0.133559  0.966866  1
  B  B14  1  0.500000  0.361569  0.467903  1
  B  B15  1  0.500000  0.638042  0.531082  1
  B  B16  1  0.500000  0.888432  0.452432  1
  B  B17  1  0.500000  0.113947  0.545504  1
  B  B18  1  0.500000  0.384750  0.047497  1
  B  B19  1  0.500000  0.615673  0.952469  1
  B  B20  1  0.500000  0.981239  0.309953  1
  B  B21  1  0.500000  0.020364  0.689970  1
  B  B22  1  0.500000  0.474704  0.195145  1
  B  B23  1  0.500000  0.525899  0.804864  1
