# generated using pymatgen
data_Cu2B3Rh4
_symmetry_space_group_name_H-M   'P 1'
_cell_length_a   12.73835168
_cell_length_b   12.73835119
_cell_length_c   2.76394500
_cell_angle_alpha   90.00000000
_cell_angle_beta   90.00000000
_cell_angle_gamma   166.94853900
_symmetry_Int_Tables_number   1
_chemical_formula_structural   Cu2B3Rh4
_chemical_formula_sum   'Cu2 B3 Rh4'
_cell_volume   101.28147051
_cell_formula_units_Z   1
loop_
 _symmetry_equiv_pos_site_id
 _symmetry_equiv_pos_as_xyz
  1  'x, y, z'
loop_
 _atom_site_type_symbol
 _atom_site_label
 _atom_site_symmetry_multiplicity
 _atom_site_fract_x
 _atom_site_fract_y
 _atom_site_fract_z
 _atom_site_occupancy
  Cu  Cu0  1  0.278010  0.721990  0.500000  1
  Cu  Cu1  1  0.720276  0.279724  0.000000  1
  B  B2  1  0.382225  0.617775  0.500000  1
  B  B3  1  0.614382  0.385618  0.000000  1
  B  B4  1  0.990360  0.009640  0.500000  1
  Rh  Rh5  1  0.148691  0.851309  0.500000  1
  Rh  Rh6  1  0.849893  0.150107  0.000000  1
  Rh  Rh7  1  0.549333  0.450667  0.500000  1
  Rh  Rh8  1  0.450831  0.549169  0.000000  1
