# generated using pymatgen
data_Ho16Cd4Os2PtRh
_symmetry_space_group_name_H-M   'P 1'
_cell_length_a   9.61182945
_cell_length_b   9.60101371
_cell_length_c   9.67771500
_cell_angle_alpha   59.73537989
_cell_angle_beta   59.77299384
_cell_angle_gamma   59.53440784
_symmetry_Int_Tables_number   1
_chemical_formula_structural   Ho16Cd4Os2PtRh
_chemical_formula_sum   'Ho16 Cd4 Os2 Pt1 Rh1'
_cell_volume   626.92720232
_cell_formula_units_Z   1
loop_
 _symmetry_equiv_pos_site_id
 _symmetry_equiv_pos_as_xyz
  1  'x, y, z'
loop_
 _atom_site_type_symbol
 _atom_site_label
 _atom_site_symmetry_multiplicity
 _atom_site_fract_x
 _atom_site_fract_y
 _atom_site_fract_z
 _atom_site_occupancy
  Ho  Ho0  1  0.598664  0.601627  0.599609  1
  Ho  Ho1  1  0.598664  0.601627  0.200099  1
  Ho  Ho2  1  0.596873  0.204780  0.599174  1
  Ho  Ho3  1  0.206360  0.597491  0.598075  1
  Ho  Ho4  1  0.064235  0.437784  0.441224  1
  Ho  Ho5  1  0.437255  0.062417  0.060221  1
  Ho  Ho6  1  0.437255  0.062417  0.440107  1
  Ho  Ho7  1  0.064235  0.437784  0.056757  1
  Ho  Ho8  1  0.438846  0.438248  0.061453  1
  Ho  Ho9  1  0.061859  0.056044  0.441048  1
  Ho  Ho10  1  0.188270  0.807038  0.815272  1
  Ho  Ho11  1  0.805930  0.188250  0.188804  1
  Ho  Ho12  1  0.805930  0.188250  0.817015  1
  Ho  Ho13  1  0.188270  0.807038  0.189420  1
  Ho  Ho14  1  0.812508  0.814813  0.186339  1
  Ho  Ho15  1  0.189550  0.189588  0.810431  1
  Cd  Cd16  1  0.830069  0.830032  0.831500  1
  Cd  Cd17  1  0.830069  0.830032  0.508399  1
  Cd  Cd18  1  0.830788  0.506098  0.831557  1
  Cd  Cd19  1  0.505740  0.830915  0.831673  1
  Os  Os20  1  0.394708  0.393596  0.387115  1
  Os  Os21  1  0.394708  0.393596  0.824581  1
  Pt  Pt22  1  0.825317  0.394586  0.390048  1
  Rh  Rh23  1  0.393892  0.825948  0.390080  1
