# generated using pymatgen
data_Er4Re7W
_symmetry_space_group_name_H-M   'P 1'
_cell_length_a   5.43487200
_cell_length_b   5.43487181
_cell_length_c   8.79036100
_cell_angle_alpha   90.00000000
_cell_angle_beta   90.00000000
_cell_angle_gamma   120.00000115
_symmetry_Int_Tables_number   1
_chemical_formula_structural   Er4Re7W
_chemical_formula_sum   'Er4 Re7 W1'
_cell_volume   224.86194500
_cell_formula_units_Z   1
loop_
 _symmetry_equiv_pos_site_id
 _symmetry_equiv_pos_as_xyz
  1  'x, y, z'
loop_
 _atom_site_type_symbol
 _atom_site_label
 _atom_site_symmetry_multiplicity
 _atom_site_fract_x
 _atom_site_fract_y
 _atom_site_fract_z
 _atom_site_occupancy
  Er  Er0  1  0.333333  0.666667  0.436518  1
  Er  Er1  1  0.666667  0.333333  0.563482  1
  Er  Er2  1  0.666667  0.333333  0.937575  1
  Er  Er3  1  0.333333  0.666667  0.062425  1
  Re  Re4  1  0.000000  0.000000  0.000000  1
  Re  Re5  1  0.828138  0.171862  0.249496  1
  Re  Re6  1  0.828138  0.656276  0.249496  1
  Re  Re7  1  0.343724  0.171862  0.249496  1
  Re  Re8  1  0.171862  0.828138  0.750504  1
  Re  Re9  1  0.171862  0.343724  0.750504  1
  Re  Re10  1  0.656276  0.828138  0.750504  1
  W  W11  1  0.000000  0.000000  0.500000  1
