# generated using pymatgen
data_In9Sn4BiRh6
_symmetry_space_group_name_H-M   'P 1'
_cell_length_a   8.23515461
_cell_length_b   8.24149782
_cell_length_c   8.27565100
_cell_angle_alpha   110.77538430
_cell_angle_beta   109.00112519
_cell_angle_gamma   108.75317818
_symmetry_Int_Tables_number   1
_chemical_formula_structural   In9Sn4BiRh6
_chemical_formula_sum   'In9 Sn4 Bi1 Rh6'
_cell_volume   431.63185900
_cell_formula_units_Z   1
loop_
 _symmetry_equiv_pos_site_id
 _symmetry_equiv_pos_as_xyz
  1  'x, y, z'
loop_
 _atom_site_type_symbol
 _atom_site_label
 _atom_site_symmetry_multiplicity
 _atom_site_fract_x
 _atom_site_fract_y
 _atom_site_fract_z
 _atom_site_occupancy
  In  In0  1  0.326805  0.999174  0.007111  1
  In  In1  1  0.673458  0.668735  0.676541  1
  In  In2  1  0.002970  0.331852  0.010628  1
  In  In3  1  0.320877  0.321910  0.317539  1
  In  In4  1  0.000818  0.677401  0.993167  1
  In  In5  1  0.250198  0.742842  0.497562  1
  In  In6  1  0.746774  0.254232  0.501635  1
  In  In7  1  0.747552  0.494772  0.247134  1
  In  In8  1  0.250982  0.504925  0.750259  1
  Sn  Sn9  1  0.492899  0.747024  0.248601  1
  Sn  Sn10  1  0.507498  0.256577  0.753766  1
  Sn  Sn11  1  0.003090  0.000069  0.315214  1
  Sn  Sn12  1  0.677341  0.000463  0.996716  1
  Bi  Bi13  1  0.000691  0.000072  0.676450  1
  Rh  Rh14  1  0.653171  0.999939  0.654230  1
  Rh  Rh15  1  0.656353  0.662084  0.009525  1
  Rh  Rh16  1  0.348668  0.348371  0.995323  1
  Rh  Rh17  1  0.000545  0.653701  0.648136  1
  Rh  Rh18  1  0.993839  0.335922  0.346227  1
  Rh  Rh19  1  0.345471  0.999937  0.354237  1
