# generated using pymatgen
data_LiTaNb2(CoAs)4
_symmetry_space_group_name_H-M   'P 1'
_cell_length_a   3.73483200
_cell_length_b   6.31332150
_cell_length_c   7.15170711
_cell_angle_alpha   90.66387175
_cell_angle_beta   90.00000000
_cell_angle_gamma   90.00000000
_symmetry_Int_Tables_number   1
_chemical_formula_structural   LiTaNb2(CoAs)4
_chemical_formula_sum   'Li1 Ta1 Nb2 Co4 As4'
_cell_volume   168.62017819
_cell_formula_units_Z   1
loop_
 _symmetry_equiv_pos_site_id
 _symmetry_equiv_pos_as_xyz
  1  'x, y, z'
loop_
 _atom_site_type_symbol
 _atom_site_label
 _atom_site_symmetry_multiplicity
 _atom_site_fract_x
 _atom_site_fract_y
 _atom_site_fract_z
 _atom_site_occupancy
  Li  Li0  1  0.250000  0.022311  0.317938  1
  Ta  Ta1  1  0.250000  0.521906  0.178739  1
  Nb  Nb2  1  0.750000  0.977325  0.683546  1
  Nb  Nb3  1  0.750000  0.469266  0.821927  1
  Co  Co4  1  0.250000  0.148280  0.940799  1
  Co  Co5  1  0.250000  0.634274  0.559613  1
  Co  Co6  1  0.750000  0.849729  0.063945  1
  Co  Co7  1  0.750000  0.373353  0.436019  1
  As  As8  1  0.250000  0.263228  0.609181  1
  As  As9  1  0.250000  0.771016  0.877755  1
  As  As10  1  0.750000  0.748950  0.379895  1
  As  As11  1  0.750000  0.220362  0.130644  1
