# generated using pymatgen
data_Lu2Sc(Ni10P3)2
_symmetry_space_group_name_H-M   'P 1'
_cell_length_a   7.92226634
_cell_length_b   7.92226586
_cell_length_c   7.92226600
_cell_angle_alpha   59.99999941
_cell_angle_beta   60.00000140
_cell_angle_gamma   60.00000135
_symmetry_Int_Tables_number   1
_chemical_formula_structural   Lu2Sc(Ni10P3)2
_chemical_formula_sum   'Lu2 Sc1 Ni20 P6'
_cell_volume   351.58738228
_cell_formula_units_Z   1
loop_
 _symmetry_equiv_pos_site_id
 _symmetry_equiv_pos_as_xyz
  1  'x, y, z'
loop_
 _atom_site_type_symbol
 _atom_site_label
 _atom_site_symmetry_multiplicity
 _atom_site_fract_x
 _atom_site_fract_y
 _atom_site_fract_z
 _atom_site_occupancy
  Lu  Lu0  1  0.750000  0.750000  0.750000  1
  Lu  Lu1  1  0.250000  0.250000  0.250000  1
  Sc  Sc2  1  0.000000  0.000000  0.000000  1
  Ni  Ni3  1  0.000000  0.649221  0.000000  1
  Ni  Ni4  1  0.158866  0.613711  0.613711  1
  Ni  Ni5  1  0.000000  0.000000  0.649221  1
  Ni  Ni6  1  0.000000  0.000000  0.350779  1
  Ni  Ni7  1  0.649221  0.000000  0.350779  1
  Ni  Ni8  1  0.350779  0.000000  0.000000  1
  Ni  Ni9  1  0.841134  0.386289  0.386289  1
  Ni  Ni10  1  0.000000  0.649221  0.350779  1
  Ni  Ni11  1  0.613711  0.613711  0.613711  1
  Ni  Ni12  1  0.386289  0.841134  0.386289  1
  Ni  Ni13  1  0.649221  0.350779  0.000000  1
  Ni  Ni14  1  0.000000  0.350779  0.649221  1
  Ni  Ni15  1  0.350779  0.649221  0.000000  1
  Ni  Ni16  1  0.350779  0.000000  0.649221  1
  Ni  Ni17  1  0.386289  0.386289  0.386289  1
  Ni  Ni18  1  0.649221  0.000000  0.000000  1
  Ni  Ni19  1  0.000000  0.350779  0.000000  1
  Ni  Ni20  1  0.613711  0.613711  0.158866  1
  Ni  Ni21  1  0.386289  0.386289  0.841134  1
  Ni  Ni22  1  0.613711  0.158866  0.613711  1
  P  P23  1  0.261553  0.738447  0.261553  1
  P  P24  1  0.738447  0.738447  0.261553  1
  P  P25  1  0.738447  0.261553  0.261553  1
  P  P26  1  0.261553  0.738447  0.738447  1
  P  P27  1  0.261553  0.261553  0.738447  1
  P  P28  1  0.738447  0.261553  0.738447  1
