# generated using pymatgen
data_Zr3Ga3Co3H2
_symmetry_space_group_name_H-M   'P 1'
_cell_length_a   7.00481900
_cell_length_b   7.00482044
_cell_length_c   3.43921400
_cell_angle_alpha   90.00000000
_cell_angle_beta   90.00000000
_cell_angle_gamma   120.00000737
_symmetry_Int_Tables_number   1
_chemical_formula_structural   Zr3Ga3Co3H2
_chemical_formula_sum   'Zr3 Ga3 Co3 H2'
_cell_volume   146.14492021
_cell_formula_units_Z   1
loop_
 _symmetry_equiv_pos_site_id
 _symmetry_equiv_pos_as_xyz
  1  'x, y, z'
loop_
 _atom_site_type_symbol
 _atom_site_label
 _atom_site_symmetry_multiplicity
 _atom_site_fract_x
 _atom_site_fract_y
 _atom_site_fract_z
 _atom_site_occupancy
  Zr  Zr0  1  0.395741  0.395741  0.500000  1
  Zr  Zr1  1  0.604259  0.000000  0.500000  1
  Zr  Zr2  1  0.000000  0.604259  0.500000  1
  Ga  Ga3  1  0.737518  0.737518  0.000000  1
  Ga  Ga4  1  0.262482  0.000000  0.000000  1
  Ga  Ga5  1  0.000000  0.262482  0.000000  1
  Co  Co6  1  0.000000  0.000000  0.500000  1
  Co  Co7  1  0.666667  0.333333  0.000000  1
  Co  Co8  1  0.333333  0.666667  0.000000  1
  H  H9  1  0.333333  0.666667  0.500000  1
  H  H10  1  0.666667  0.333333  0.500000  1
