# generated using pymatgen
data_Li2Dy5Nb2(P4Ir5)3
_symmetry_space_group_name_H-M   'P 1'
_cell_length_a   12.63825522
_cell_length_b   12.73546847
_cell_length_c   3.97685000
_cell_angle_alpha   90.00000000
_cell_angle_beta   90.00000000
_cell_angle_gamma   118.88502416
_symmetry_Int_Tables_number   1
_chemical_formula_structural   Li2Dy5Nb2(P4Ir5)3
_chemical_formula_sum   'Li2 Dy5 Nb2 P12 Ir15'
_cell_volume   560.45720202
_cell_formula_units_Z   1
loop_
 _symmetry_equiv_pos_site_id
 _symmetry_equiv_pos_as_xyz
  1  'x, y, z'
loop_
 _atom_site_type_symbol
 _atom_site_label
 _atom_site_symmetry_multiplicity
 _atom_site_fract_x
 _atom_site_fract_y
 _atom_site_fract_z
 _atom_site_occupancy
  Li  Li0  1  0.524170  0.882897  0.000000  1
  Li  Li1  1  0.450349  0.010043  0.500000  1
  Dy  Dy2  1  0.326727  0.659654  0.500000  1
  Dy  Dy3  1  0.664983  0.334193  0.500000  1
  Dy  Dy4  1  0.998722  0.811419  0.000000  1
  Dy  Dy5  1  0.191036  0.191261  0.000000  1
  Dy  Dy6  1  0.815703  0.000879  0.000000  1
  Nb  Nb7  1  0.998061  0.448934  0.500000  1
  Nb  Nb8  1  0.549379  0.550499  0.500000  1
  P  P9  1  0.000706  0.640278  0.500000  1
  P  P10  1  0.363377  0.359279  0.500000  1
  P  P11  1  0.644844  0.007795  0.500000  1
  P  P12  1  0.517407  0.686453  0.000000  1
  P  P13  1  0.303577  0.819702  0.000000  1
  P  P14  1  0.163807  0.480754  0.000000  1
  P  P15  1  0.486711  0.167289  0.000000  1
  P  P16  1  0.681821  0.517702  0.000000  1
  P  P17  1  0.831201  0.313466  0.000000  1
  P  P18  1  0.003112  0.176444  0.500000  1
  P  P19  1  0.821205  0.823724  0.500000  1
  P  P20  1  0.181792  0.000380  0.500000  1
  Ir  Ir21  1  0.120710  0.638253  0.000000  1
  Ir  Ir22  1  0.357108  0.494896  0.000000  1
  Ir  Ir23  1  0.488508  0.356385  0.000000  1
  Ir  Ir24  1  0.858712  0.502942  0.000000  1
  Ir  Ir25  1  0.646871  0.124691  0.000000  1
  Ir  Ir26  1  0.002059  0.280844  0.000000  1
  Ir  Ir27  1  0.719106  0.721334  0.000000  1
  Ir  Ir28  1  0.281357  0.999005  0.000000  1
  Ir  Ir29  1  0.612346  0.802965  0.500000  1
  Ir  Ir30  1  0.201148  0.821202  0.500000  1
  Ir  Ir31  1  0.179909  0.370708  0.500000  1
  Ir  Ir32  1  0.377429  0.176963  0.500000  1
  Ir  Ir33  1  0.809335  0.631023  0.500000  1
  Ir  Ir34  1  0.824829  0.197758  0.500000  1
  Ir  Ir35  1  0.001882  0.997984  0.500000  1
