# generated using pymatgen
data_Pr8Dy11LuSn16
_symmetry_space_group_name_H-M   'P 1'
_cell_length_a   8.11531900
_cell_length_b   8.34362012
_cell_length_c   15.71822100
_cell_angle_alpha   90.00000000
_cell_angle_beta   90.00000000
_cell_angle_gamma   89.99033811
_symmetry_Int_Tables_number   1
_chemical_formula_structural   Pr8Dy11LuSn16
_chemical_formula_sum   'Pr8 Dy11 Lu1 Sn16'
_cell_volume   1064.29862991
_cell_formula_units_Z   1
loop_
 _symmetry_equiv_pos_site_id
 _symmetry_equiv_pos_as_xyz
  1  'x, y, z'
loop_
 _atom_site_type_symbol
 _atom_site_label
 _atom_site_symmetry_multiplicity
 _atom_site_fract_x
 _atom_site_fract_y
 _atom_site_fract_z
 _atom_site_occupancy
  Pr  Pr0  1  0.508116  0.323437  0.903819  1
  Pr  Pr1  1  0.007843  0.176686  0.596124  1
  Pr  Pr2  1  0.491645  0.676837  0.403348  1
  Pr  Pr3  1  0.992268  0.823712  0.096663  1
  Pr  Pr4  1  0.491645  0.676837  0.096652  1
  Pr  Pr5  1  0.992268  0.823712  0.403337  1
  Pr  Pr6  1  0.508116  0.323437  0.596181  1
  Pr  Pr7  1  0.007843  0.176686  0.903876  1
  Dy  Dy8  1  0.349037  0.834944  0.875819  1
  Dy  Dy9  1  0.848646  0.664838  0.624351  1
  Dy  Dy10  1  0.650843  0.164690  0.375255  1
  Dy  Dy11  1  0.151603  0.335003  0.124671  1
  Dy  Dy12  1  0.650843  0.164690  0.124745  1
  Dy  Dy13  1  0.151603  0.335003  0.375329  1
  Dy  Dy14  1  0.349037  0.834944  0.624181  1
  Dy  Dy15  1  0.848646  0.664838  0.875649  1
  Dy  Dy16  1  0.182034  0.501040  0.750000  1
  Dy  Dy17  1  0.681852  0.998913  0.750000  1
  Dy  Dy18  1  0.818311  0.499199  0.250000  1
  Lu  Lu19  1  0.318042  0.001687  0.250000  1
  Sn  Sn20  1  0.313819  0.040604  0.042560  1
  Sn  Sn21  1  0.813759  0.458969  0.458069  1
  Sn  Sn22  1  0.686090  0.958709  0.541356  1
  Sn  Sn23  1  0.185926  0.541014  0.958551  1
  Sn  Sn24  1  0.686090  0.958709  0.958644  1
  Sn  Sn25  1  0.185926  0.541014  0.541449  1
  Sn  Sn26  1  0.313819  0.040604  0.457440  1
  Sn  Sn27  1  0.813759  0.458969  0.041931  1
  Sn  Sn28  1  0.546635  0.623206  0.750000  1
  Sn  Sn29  1  0.046788  0.877070  0.750000  1
  Sn  Sn30  1  0.453004  0.376114  0.250000  1
  Sn  Sn31  1  0.955387  0.122216  0.250000  1
  Sn  Sn32  1  0.314559  0.143592  0.750000  1
  Sn  Sn33  1  0.814619  0.355981  0.750000  1
  Sn  Sn34  1  0.684336  0.856452  0.250000  1
  Sn  Sn35  1  0.185244  0.645646  0.250000  1
