# generated using pymatgen
data_Dy4Al18Ru2Pt3Rh
_symmetry_space_group_name_H-M   'P 1'
_cell_length_a   7.58499850
_cell_length_b   7.58499901
_cell_length_c   9.47520689
_cell_angle_alpha   89.89390902
_cell_angle_beta   89.89391773
_cell_angle_gamma   119.61580908
_symmetry_Int_Tables_number   1
_chemical_formula_structural   Dy4Al18Ru2Pt3Rh
_chemical_formula_sum   'Dy4 Al18 Ru2 Pt3 Rh1'
_cell_volume   473.90985970
_cell_formula_units_Z   1
loop_
 _symmetry_equiv_pos_site_id
 _symmetry_equiv_pos_as_xyz
  1  'x, y, z'
loop_
 _atom_site_type_symbol
 _atom_site_label
 _atom_site_symmetry_multiplicity
 _atom_site_fract_x
 _atom_site_fract_y
 _atom_site_fract_z
 _atom_site_occupancy
  Dy  Dy0  1  0.995462  0.669823  0.750061  1
  Dy  Dy1  1  0.005640  0.331456  0.250293  1
  Dy  Dy2  1  0.668544  0.994360  0.749707  1
  Dy  Dy3  1  0.330177  0.004538  0.249939  1
  Al  Al4  1  0.123509  0.124698  0.749419  1
  Al  Al5  1  0.875302  0.876491  0.250581  1
  Al  Al6  1  0.000115  0.329393  0.575757  1
  Al  Al7  1  0.998591  0.671452  0.423509  1
  Al  Al8  1  0.994532  0.663179  0.075043  1
  Al  Al9  1  0.336821  0.005468  0.924957  1
  Al  Al10  1  0.995257  0.330853  0.924897  1
  Al  Al11  1  0.669147  0.004743  0.075103  1
  Al  Al12  1  0.670607  0.999885  0.424243  1
  Al  Al13  1  0.328548  0.001409  0.576491  1
  Al  Al14  1  0.334769  0.329229  0.051718  1
  Al  Al15  1  0.670771  0.665231  0.948282  1
  Al  Al16  1  0.671231  0.671605  0.555024  1
  Al  Al17  1  0.328395  0.328769  0.444976  1
  Al  Al18  1  0.340040  0.543820  0.750147  1
  Al  Al19  1  0.659163  0.451189  0.246046  1
  Al  Al20  1  0.548811  0.340837  0.753954  1
  Al  Al21  1  0.456180  0.659960  0.249853  1
  Ru  Ru22  1  0.671804  0.328196  0.000000  1
  Ru  Ru23  1  0.999476  0.000524  0.500000  1
  Pt  Pt24  1  0.671760  0.328240  0.500000  1
  Pt  Pt25  1  0.327318  0.672682  0.500000  1
  Pt  Pt26  1  0.327829  0.672171  0.000000  1
  Rh  Rh27  1  0.000203  0.999797  0.000000  1
