# generated using pymatgen
data_Pr2Ta2Bi2O11
_symmetry_space_group_name_H-M   'P 1'
_cell_length_a   6.70749267
_cell_length_b   7.77052144
_cell_length_c   9.96533482
_cell_angle_alpha   101.19988189
_cell_angle_beta   90.70953041
_cell_angle_gamma   89.98607547
_symmetry_Int_Tables_number   1
_chemical_formula_structural   Pr2Ta2Bi2O11
_chemical_formula_sum   'Pr4 Ta4 Bi4 O22'
_cell_volume   509.46838564
_cell_formula_units_Z   2
loop_
 _symmetry_equiv_pos_site_id
 _symmetry_equiv_pos_as_xyz
  1  'x, y, z'
loop_
 _atom_site_type_symbol
 _atom_site_label
 _atom_site_symmetry_multiplicity
 _atom_site_fract_x
 _atom_site_fract_y
 _atom_site_fract_z
 _atom_site_occupancy
  Pr  Pr0  1  0.749914  0.370326  0.482701  1
  Pr  Pr1  1  0.250086  0.629674  0.517299  1
  Pr  Pr2  1  0.759145  0.872979  0.488041  1
  Pr  Pr3  1  0.240855  0.127021  0.511959  1
  Ta  Ta4  1  0.915244  0.701686  0.808413  1
  Ta  Ta5  1  0.084756  0.298314  0.191587  1
  Ta  Ta6  1  0.915799  0.201305  0.810245  1
  Ta  Ta7  1  0.084201  0.798695  0.189755  1
  Bi  Bi8  1  0.429980  0.954032  0.816892  1
  Bi  Bi9  1  0.570020  0.045968  0.183108  1
  Bi  Bi10  1  0.396925  0.455073  0.827359  1
  Bi  Bi11  1  0.603075  0.544927  0.172641  1
  O  O12  1  0.217440  0.726897  0.764337  1
  O  O13  1  0.782560  0.273103  0.235663  1
  O  O14  1  0.635342  0.662477  0.839087  1
  O  O15  1  0.364658  0.337523  0.160913  1
  O  O16  1  0.635663  0.255680  0.843600  1
  O  O17  1  0.364337  0.744320  0.156400  1
  O  O18  1  0.893816  0.156454  0.597592  1
  O  O19  1  0.106184  0.843546  0.402408  1
  O  O20  1  0.215778  0.152136  0.762836  1
  O  O21  1  0.784222  0.847864  0.237164  1
  O  O22  1  0.898650  0.642868  0.598124  1
  O  O23  1  0.101350  0.357132  0.401876  1
  O  O24  1  0.024268  0.549784  0.195787  1
  O  O25  1  0.975732  0.450216  0.804213  1
  O  O26  1  0.998259  0.780026  0.999961  1
  O  O27  1  0.001741  0.219974  0.000039  1
  O  O28  1  0.571403  0.598766  0.388822  1
  O  O29  1  0.428597  0.401234  0.611178  1
  O  O30  1  0.157059  0.054181  0.215180  1
  O  O31  1  0.842941  0.945819  0.784820  1
  O  O32  1  0.547615  0.100125  0.397244  1
  O  O33  1  0.452385  0.899875  0.602756  1
