# generated using pymatgen
data_Ca3La8Ho9Pb16
_symmetry_space_group_name_H-M   'P 1'
_cell_length_a   8.21231200
_cell_length_b   8.44454818
_cell_length_c   15.98228200
_cell_angle_alpha   90.00000000
_cell_angle_beta   90.00000000
_cell_angle_gamma   90.07470225
_symmetry_Int_Tables_number   1
_chemical_formula_structural   Ca3La8Ho9Pb16
_chemical_formula_sum   'Ca3 La8 Ho9 Pb16'
_cell_volume   1108.35855700
_cell_formula_units_Z   1
loop_
 _symmetry_equiv_pos_site_id
 _symmetry_equiv_pos_as_xyz
  1  'x, y, z'
loop_
 _atom_site_type_symbol
 _atom_site_label
 _atom_site_symmetry_multiplicity
 _atom_site_fract_x
 _atom_site_fract_y
 _atom_site_fract_z
 _atom_site_occupancy
  Ca  Ca0  1  0.806479  0.497024  0.750000  1
  Ca  Ca1  1  0.305878  0.002421  0.750000  1
  Ca  Ca2  1  0.192993  0.501631  0.250000  1
  La  La3  1  0.487313  0.681263  0.594425  1
  La  La4  1  0.986153  0.820192  0.905414  1
  La  La5  1  0.513567  0.321324  0.095997  1
  La  La6  1  0.016515  0.179633  0.402931  1
  La  La7  1  0.513567  0.321324  0.404003  1
  La  La8  1  0.016515  0.179633  0.097069  1
  La  La9  1  0.487313  0.681263  0.905575  1
  La  La10  1  0.986153  0.820192  0.594586  1
  Ho  Ho11  1  0.639917  0.161701  0.619944  1
  Ho  Ho12  1  0.140041  0.335832  0.878362  1
  Ho  Ho13  1  0.357812  0.838117  0.122041  1
  Ho  Ho14  1  0.858836  0.662637  0.376651  1
  Ho  Ho15  1  0.357812  0.838117  0.377959  1
  Ho  Ho16  1  0.858836  0.662637  0.123349  1
  Ho  Ho17  1  0.639917  0.161701  0.880056  1
  Ho  Ho18  1  0.140041  0.335832  0.621638  1
  Ho  Ho19  1  0.692899  0.995557  0.250000  1
  Pb  Pb20  1  0.699674  0.958943  0.456161  1
  Pb  Pb21  1  0.196260  0.543960  0.040036  1
  Pb  Pb22  1  0.300907  0.043159  0.959948  1
  Pb  Pb23  1  0.803337  0.456774  0.539360  1
  Pb  Pb24  1  0.300907  0.043159  0.540052  1
  Pb  Pb25  1  0.803337  0.456774  0.960640  1
  Pb  Pb26  1  0.699674  0.958943  0.043839  1
  Pb  Pb27  1  0.196260  0.543960  0.459964  1
  Pb  Pb28  1  0.442137  0.374865  0.750000  1
  Pb  Pb29  1  0.940642  0.124066  0.750000  1
  Pb  Pb30  1  0.556414  0.628569  0.250000  1
  Pb  Pb31  1  0.056113  0.876556  0.250000  1
  Pb  Pb32  1  0.677011  0.860511  0.750000  1
  Pb  Pb33  1  0.179185  0.639220  0.750000  1
  Pb  Pb34  1  0.330678  0.140236  0.250000  1
  Pb  Pb35  1  0.818912  0.352272  0.250000  1
