# generated using pymatgen
data_Pr8In3Pd8Pb
_symmetry_space_group_name_H-M   'P 1'
_cell_length_a   7.98070900
_cell_length_b   7.98070900
_cell_length_c   7.77197400
_cell_angle_alpha   90.00000000
_cell_angle_beta   90.00000000
_cell_angle_gamma   90.00000000
_symmetry_Int_Tables_number   1
_chemical_formula_structural   Pr8In3Pd8Pb
_chemical_formula_sum   'Pr8 In3 Pd8 Pb1'
_cell_volume   495.01036188
_cell_formula_units_Z   1
loop_
 _symmetry_equiv_pos_site_id
 _symmetry_equiv_pos_as_xyz
  1  'x, y, z'
loop_
 _atom_site_type_symbol
 _atom_site_label
 _atom_site_symmetry_multiplicity
 _atom_site_fract_x
 _atom_site_fract_y
 _atom_site_fract_z
 _atom_site_occupancy
  Pr  Pr0  1  0.174608  0.177361  0.999450  1
  Pr  Pr1  1  0.825392  0.822639  0.999450  1
  Pr  Pr2  1  0.677361  0.325392  0.500550  1
  Pr  Pr3  1  0.322639  0.674608  0.500550  1
  Pr  Pr4  1  0.676604  0.326261  0.999476  1
  Pr  Pr5  1  0.323396  0.673739  0.999476  1
  Pr  Pr6  1  0.826261  0.823396  0.500524  1
  Pr  Pr7  1  0.173739  0.176604  0.500524  1
  In  In8  1  0.500000  0.000000  0.750000  1
  In  In9  1  0.000000  0.500000  0.250000  1
  In  In10  1  0.000000  0.500000  0.750000  1
  Pd  Pd11  1  0.370859  0.381182  0.251292  1
  Pd  Pd12  1  0.624482  0.625654  0.748683  1
  Pd  Pd13  1  0.629141  0.618818  0.251292  1
  Pd  Pd14  1  0.874346  0.124482  0.751317  1
  Pd  Pd15  1  0.881182  0.129141  0.248708  1
  Pd  Pd16  1  0.375518  0.374346  0.748683  1
  Pd  Pd17  1  0.118818  0.870859  0.248708  1
  Pd  Pd18  1  0.125654  0.875518  0.751317  1
  Pb  Pb19  1  0.500000  0.000000  0.250000  1
