# generated using pymatgen
data_Rb4Na2YGaSb4
_symmetry_space_group_name_H-M   'P 1'
_cell_length_a   9.93832379
_cell_length_b   9.93832403
_cell_length_c   9.93832315
_cell_angle_alpha   136.03013859
_cell_angle_beta   62.81365844
_cell_angle_gamma   137.49181720
_symmetry_Int_Tables_number   1
_chemical_formula_structural   Rb4Na2YGaSb4
_chemical_formula_sum   'Rb4 Na2 Y1 Ga1 Sb4'
_cell_volume   454.78201134
_cell_formula_units_Z   1
loop_
 _symmetry_equiv_pos_site_id
 _symmetry_equiv_pos_as_xyz
  1  'x, y, z'
loop_
 _atom_site_type_symbol
 _atom_site_label
 _atom_site_symmetry_multiplicity
 _atom_site_fract_x
 _atom_site_fract_y
 _atom_site_fract_z
 _atom_site_occupancy
  Rb  Rb0  1  0.332473  0.773779  0.093709  1
  Rb  Rb1  1  0.167527  0.261237  0.441307  1
  Rb  Rb2  1  0.819931  0.726221  0.558694  1
  Rb  Rb3  1  0.680070  0.238763  0.906291  1
  Na  Na4  1  0.750000  0.250000  0.500000  1
  Na  Na5  1  0.250000  0.750000  0.500000  1
  Y  Y6  1  0.250000  0.250000  0.000000  1
  Ga  Ga7  1  0.750000  0.750000  0.000000  1
  Sb  Sb8  1  0.885342  0.199919  0.119112  1
  Sb  Sb9  1  0.614658  0.733771  0.314578  1
  Sb  Sb10  1  0.419194  0.300081  0.685423  1
  Sb  Sb11  1  0.080806  0.766229  0.880888  1
