# generated using pymatgen
data_HoScInB2Ir5
_symmetry_space_group_name_H-M   'P 1'
_cell_length_a   3.16351600
_cell_length_b   9.67183079
_cell_length_c   9.67183079
_cell_angle_alpha   88.42736961
_cell_angle_beta   90.00000000
_cell_angle_gamma   90.00000000
_symmetry_Int_Tables_number   1
_chemical_formula_structural   HoScInB2Ir5
_chemical_formula_sum   'Ho2 Sc2 In2 B4 Ir10'
_cell_volume   295.81745932
_cell_formula_units_Z   2
loop_
 _symmetry_equiv_pos_site_id
 _symmetry_equiv_pos_as_xyz
  1  'x, y, z'
loop_
 _atom_site_type_symbol
 _atom_site_label
 _atom_site_symmetry_multiplicity
 _atom_site_fract_x
 _atom_site_fract_y
 _atom_site_fract_z
 _atom_site_occupancy
  Ho  Ho0  1  0.000000  0.178323  0.678323  1
  Ho  Ho1  1  0.000000  0.821677  0.321677  1
  Sc  Sc2  1  0.000000  0.324147  0.175853  1
  Sc  Sc3  1  0.000000  0.675853  0.824147  1
  In  In4  1  0.000000  0.000000  0.000000  1
  In  In5  1  0.000000  0.500000  0.500000  1
  B  B6  1  0.000000  0.619533  0.119533  1
  B  B7  1  0.000000  0.380467  0.880467  1
  B  B8  1  0.000000  0.876174  0.623826  1
  B  B9  1  0.000000  0.123826  0.376174  1
  Ir  Ir10  1  0.500000  0.077267  0.223136  1
  Ir  Ir11  1  0.500000  0.922733  0.776864  1
  Ir  Ir12  1  0.500000  0.770853  0.062983  1
  Ir  Ir13  1  0.500000  0.437017  0.729147  1
  Ir  Ir14  1  0.500000  0.229147  0.937017  1
  Ir  Ir15  1  0.500000  0.562983  0.270853  1
  Ir  Ir16  1  0.500000  0.723136  0.577267  1
  Ir  Ir17  1  0.500000  0.276864  0.422733  1
  Ir  Ir18  1  0.500000  0.000000  0.500000  1
  Ir  Ir19  1  0.500000  0.500000  0.000000  1
