# generated using pymatgen
data_Sm2ErTm3(RuI3)2
_symmetry_space_group_name_H-M   'P 1'
_cell_length_a   4.22215800
_cell_length_b   8.93807510
_cell_length_c   12.28831810
_cell_angle_alpha   94.82328141
_cell_angle_beta   90.00000000
_cell_angle_gamma   90.00000000
_symmetry_Int_Tables_number   1
_chemical_formula_structural   Sm2ErTm3(RuI3)2
_chemical_formula_sum   'Sm2 Er1 Tm3 Ru2 I6'
_cell_volume   462.09392823
_cell_formula_units_Z   1
loop_
 _symmetry_equiv_pos_site_id
 _symmetry_equiv_pos_as_xyz
  1  'x, y, z'
loop_
 _atom_site_type_symbol
 _atom_site_label
 _atom_site_symmetry_multiplicity
 _atom_site_fract_x
 _atom_site_fract_y
 _atom_site_fract_z
 _atom_site_occupancy
  Sm  Sm0  1  0.750000  0.271347  0.604236  1
  Sm  Sm1  1  0.250000  0.728707  0.395241  1
  Er  Er2  1  0.250000  0.104431  0.815686  1
  Tm  Tm3  1  0.750000  0.880976  0.625798  1
  Tm  Tm4  1  0.250000  0.118930  0.373907  1
  Tm  Tm5  1  0.750000  0.895404  0.185490  1
  Ru  Ru6  1  0.750000  0.941137  0.405728  1
  Ru  Ru7  1  0.250000  0.058819  0.594163  1
  I  I8  1  0.750000  0.415137  0.362674  1
  I  I9  1  0.250000  0.585010  0.637141  1
  I  I10  1  0.750000  0.866885  0.889488  1
  I  I11  1  0.250000  0.132125  0.110621  1
  I  I12  1  0.750000  0.355531  0.870362  1
  I  I13  1  0.250000  0.645561  0.129466  1
