# generated using pymatgen
data_PrTh3(Al3Ir)6
_symmetry_space_group_name_H-M   'P 1'
_cell_length_a   7.65856672
_cell_length_b   7.65839229
_cell_length_c   9.56318100
_cell_angle_alpha   90.00000000
_cell_angle_beta   90.00000000
_cell_angle_gamma   119.48358667
_symmetry_Int_Tables_number   1
_chemical_formula_structural   PrTh3(Al3Ir)6
_chemical_formula_sum   'Pr1 Th3 Al18 Ir6'
_cell_volume   488.26391045
_cell_formula_units_Z   1
loop_
 _symmetry_equiv_pos_site_id
 _symmetry_equiv_pos_as_xyz
  1  'x, y, z'
loop_
 _atom_site_type_symbol
 _atom_site_label
 _atom_site_symmetry_multiplicity
 _atom_site_fract_x
 _atom_site_fract_y
 _atom_site_fract_z
 _atom_site_occupancy
  Pr  Pr0  1  0.330195  0.005576  0.750000  1
  Th  Th1  1  0.995112  0.670470  0.250000  1
  Th  Th2  1  0.004745  0.330067  0.750000  1
  Th  Th3  1  0.669747  0.994875  0.250000  1
  Al  Al4  1  0.133232  0.132636  0.250000  1
  Al  Al5  1  0.869405  0.869217  0.750000  1
  Al  Al6  1  0.004776  0.335112  0.073806  1
  Al  Al7  1  0.997936  0.667359  0.925564  1
  Al  Al8  1  0.997936  0.667359  0.574436  1
  Al  Al9  1  0.334900  0.004419  0.428492  1
  Al  Al10  1  0.004776  0.335112  0.426194  1
  Al  Al11  1  0.662817  0.995520  0.574440  1
  Al  Al12  1  0.662817  0.995520  0.925560  1
  Al  Al13  1  0.334900  0.004419  0.071508  1
  Al  Al14  1  0.336388  0.334574  0.549510  1
  Al  Al15  1  0.663303  0.663314  0.452106  1
  Al  Al16  1  0.663303  0.663314  0.047894  1
  Al  Al17  1  0.336388  0.334574  0.950490  1
  Al  Al18  1  0.339712  0.543487  0.250000  1
  Al  Al19  1  0.659968  0.453703  0.750000  1
  Al  Al20  1  0.543496  0.339237  0.250000  1
  Al  Al21  1  0.454730  0.660529  0.750000  1
  Ir  Ir22  1  0.674505  0.329310  0.001673  1
  Ir  Ir23  1  0.327656  0.671066  0.001617  1
  Ir  Ir24  1  0.327656  0.671066  0.498383  1
  Ir  Ir25  1  0.674505  0.329310  0.498327  1
  Ir  Ir26  1  0.997548  0.999429  0.002021  1
  Ir  Ir27  1  0.997548  0.999429  0.497979  1
