# generated using pymatgen
data_LiNd3Al2Si2Rh
_symmetry_space_group_name_H-M   'P 1'
_cell_length_a   7.13187800
_cell_length_b   7.02382491
_cell_length_c   4.43118200
_cell_angle_alpha   90.00000000
_cell_angle_beta   90.00000000
_cell_angle_gamma   120.51021017
_symmetry_Int_Tables_number   1
_chemical_formula_structural   LiNd3Al2Si2Rh
_chemical_formula_sum   'Li1 Nd3 Al2 Si2 Rh1'
_cell_volume   191.23701763
_cell_formula_units_Z   1
loop_
 _symmetry_equiv_pos_site_id
 _symmetry_equiv_pos_as_xyz
  1  'x, y, z'
loop_
 _atom_site_type_symbol
 _atom_site_label
 _atom_site_symmetry_multiplicity
 _atom_site_fract_x
 _atom_site_fract_y
 _atom_site_fract_z
 _atom_site_occupancy
  Li  Li0  1  0.765876  0.000000  0.500001  1
  Nd  Nd1  1  0.413597  0.000000  0.000000  1
  Nd  Nd2  1  0.992612  0.405109  0.000000  1
  Nd  Nd3  1  0.587503  0.594891  0.000000  1
  Al  Al4  1  0.227929  0.234008  0.500001  1
  Al  Al5  1  0.993922  0.765992  0.500001  1
  Si  Si6  1  0.661627  0.339614  0.500001  1
  Si  Si7  1  0.322013  0.660386  0.500001  1
  Rh  Rh8  1  0.034919  0.000000  0.000000  1
