# generated using pymatgen
data_Zr(S4I)4
_symmetry_space_group_name_H-M   'P 1'
_cell_length_a   12.39756660
_cell_length_b   13.14670785
_cell_length_c   13.46594975
_cell_angle_alpha   102.53580386
_cell_angle_beta   62.59157553
_cell_angle_gamma   118.13225858
_symmetry_Int_Tables_number   1
_chemical_formula_structural   Zr(S4I)4
_chemical_formula_sum   'Zr2 S32 I8'
_cell_volume   1718.22650312
_cell_formula_units_Z   2
loop_
 _symmetry_equiv_pos_site_id
 _symmetry_equiv_pos_as_xyz
  1  'x, y, z'
loop_
 _atom_site_type_symbol
 _atom_site_label
 _atom_site_symmetry_multiplicity
 _atom_site_fract_x
 _atom_site_fract_y
 _atom_site_fract_z
 _atom_site_occupancy
  Zr  Zr0  1  0.000420  0.000000  0.000000  1
  Zr  Zr1  1  0.250419  0.500000  0.500001  1
  S  S2  1  0.476527  0.222553  0.001693  1
  S  S3  1  0.397239  0.330424  0.003449  1
  S  S4  1  0.657547  0.319071  0.014741  1
  S  S5  1  0.322902  0.653171  0.142994  1
  S  S6  1  0.924523  0.638526  0.158921  1
  S  S7  1  0.543151  0.012098  0.198295  1
  S  S8  1  0.165990  0.492938  0.198983  1
  S  S9  1  0.883128  0.482566  0.211185  1
  S  S10  1  0.344315  0.982566  0.288815  1
  S  S11  1  0.614973  0.992938  0.301017  1
  S  S12  1  0.991448  0.512099  0.301705  1
  S  S13  1  0.333443  0.138525  0.341079  1
  S  S14  1  0.715898  0.153172  0.357006  1
  S  S15  1  0.922290  0.819072  0.485259  1
  S  S16  1  0.650687  0.830423  0.496552  1
  S  S17  1  0.728221  0.722553  0.498307  1
  S  S18  1  0.503976  0.277447  0.501693  1
  S  S19  1  0.316815  0.169576  0.503448  1
  S  S20  1  0.588476  0.180928  0.514741  1
  S  S21  1  0.919732  0.846829  0.642994  1
  S  S22  1  0.535997  0.861474  0.658920  1
  S  S23  1  0.781054  0.487902  0.698295  1
  S  S24  1  0.923054  0.007062  0.698982  1
  S  S25  1  0.650561  0.017433  0.711186  1
  S  S26  1  0.611749  0.517434  0.788815  1
  S  S27  1  0.872036  0.507062  0.801017  1
  S  S28  1  0.729348  0.987902  0.801705  1
  S  S29  1  0.444919  0.361475  0.841079  1
  S  S30  1  0.812726  0.346828  0.857006  1
  S  S31  1  0.353218  0.680928  0.985259  1
  S  S32  1  0.070264  0.669576  0.996552  1
  S  S33  1  0.255667  0.777447  0.998307  1
  I  I34  1  0.778801  0.807582  0.004488  1
  I  I35  1  0.036676  0.004995  0.184379  1
  I  I36  1  0.471054  0.504995  0.315622  1
  I  I37  1  0.033288  0.307582  0.495513  1
  I  I38  1  0.221218  0.692418  0.504488  1
  I  I39  1  0.281681  0.495005  0.684378  1
  I  I40  1  0.216060  0.995005  0.815622  1
  I  I41  1  0.975706  0.192418  0.995512  1
