# generated using pymatgen
data_Ca5Si12Rh19
_symmetry_space_group_name_H-M   'P 1'
_cell_length_a   12.79766100
_cell_length_b   12.79766029
_cell_length_c   4.00614300
_cell_angle_alpha   90.00000000
_cell_angle_beta   90.00000000
_cell_angle_gamma   119.99999926
_symmetry_Int_Tables_number   1
_chemical_formula_structural   Ca5Si12Rh19
_chemical_formula_sum   'Ca5 Si12 Rh19'
_cell_volume   568.22228459
_cell_formula_units_Z   1
loop_
 _symmetry_equiv_pos_site_id
 _symmetry_equiv_pos_as_xyz
  1  'x, y, z'
loop_
 _atom_site_type_symbol
 _atom_site_label
 _atom_site_symmetry_multiplicity
 _atom_site_fract_x
 _atom_site_fract_y
 _atom_site_fract_z
 _atom_site_occupancy
  Ca  Ca0  1  0.000000  0.182959  0.500000  1
  Ca  Ca1  1  0.817041  0.817041  0.500000  1
  Ca  Ca2  1  0.182959  0.000000  0.500000  1
  Ca  Ca3  1  0.666667  0.333333  0.000000  1
  Ca  Ca4  1  0.333333  0.666667  0.000000  1
  Si  Si5  1  0.475792  0.314160  0.500000  1
  Si  Si6  1  0.816302  0.000000  0.000000  1
  Si  Si7  1  0.183698  0.183698  0.000000  1
  Si  Si8  1  0.000000  0.816302  0.000000  1
  Si  Si9  1  0.373260  0.000000  0.000000  1
  Si  Si10  1  0.685840  0.161632  0.500000  1
  Si  Si11  1  0.838368  0.524208  0.500000  1
  Si  Si12  1  0.524208  0.838368  0.500000  1
  Si  Si13  1  0.161632  0.685840  0.500000  1
  Si  Si14  1  0.314160  0.475792  0.500000  1
  Si  Si15  1  0.000000  0.373260  0.000000  1
  Si  Si16  1  0.626740  0.626740  0.000000  1
  Rh  Rh17  1  0.806128  0.184006  0.000000  1
  Rh  Rh18  1  0.377878  0.193872  0.000000  1
  Rh  Rh19  1  0.640428  0.514009  0.500000  1
  Rh  Rh20  1  0.873581  0.359572  0.500000  1
  Rh  Rh21  1  0.359572  0.873581  0.500000  1
  Rh  Rh22  1  0.514009  0.640428  0.500000  1
  Rh  Rh23  1  0.126419  0.485991  0.500000  1
  Rh  Rh24  1  0.815994  0.622122  0.000000  1
  Rh  Rh25  1  0.622122  0.815994  0.000000  1
  Rh  Rh26  1  0.184006  0.806128  0.000000  1
  Rh  Rh27  1  0.193872  0.377878  0.000000  1
  Rh  Rh28  1  0.000000  0.721554  0.500000  1
  Rh  Rh29  1  0.278446  0.278446  0.500000  1
  Rh  Rh30  1  0.721554  0.000000  0.500000  1
  Rh  Rh31  1  0.000000  0.555173  0.000000  1
  Rh  Rh32  1  0.444827  0.444827  0.000000  1
  Rh  Rh33  1  0.555173  0.000000  0.000000  1
  Rh  Rh34  1  0.000000  0.000000  0.000000  1
  Rh  Rh35  1  0.485991  0.126419  0.500000  1
