# generated using pymatgen
data_Y5Fe3(Ni4As3)4
_symmetry_space_group_name_H-M   'P 1'
_cell_length_a   12.52854100
_cell_length_b   12.52854058
_cell_length_c   3.85951500
_cell_angle_alpha   90.00000000
_cell_angle_beta   90.00000000
_cell_angle_gamma   120.00000376
_symmetry_Int_Tables_number   1
_chemical_formula_structural   Y5Fe3(Ni4As3)4
_chemical_formula_sum   'Y5 Fe3 Ni16 As12'
_cell_volume   524.64354135
_cell_formula_units_Z   1
loop_
 _symmetry_equiv_pos_site_id
 _symmetry_equiv_pos_as_xyz
  1  'x, y, z'
loop_
 _atom_site_type_symbol
 _atom_site_label
 _atom_site_symmetry_multiplicity
 _atom_site_fract_x
 _atom_site_fract_y
 _atom_site_fract_z
 _atom_site_occupancy
  Y  Y0  1  0.188046  0.188046  0.500000  1
  Y  Y1  1  0.811954  0.000000  0.500000  1
  Y  Y2  1  0.000000  0.811954  0.500000  1
  Y  Y3  1  0.333333  0.666667  0.000000  1
  Y  Y4  1  0.666667  0.333333  0.000000  1
  Fe  Fe5  1  0.560435  0.560435  0.000000  1
  Fe  Fe6  1  0.439565  0.000000  0.000000  1
  Fe  Fe7  1  0.000000  0.439565  0.000000  1
  Ni  Ni8  1  0.717216  0.717216  0.500000  1
  Ni  Ni9  1  0.282784  0.000000  0.500000  1
  Ni  Ni10  1  0.000000  0.282784  0.500000  1
  Ni  Ni11  1  0.182274  0.379346  0.000000  1
  Ni  Ni12  1  0.620654  0.802928  0.000000  1
  Ni  Ni13  1  0.197072  0.817726  0.000000  1
  Ni  Ni14  1  0.802928  0.620654  0.000000  1
  Ni  Ni15  1  0.817726  0.197072  0.000000  1
  Ni  Ni16  1  0.379346  0.182274  0.000000  1
  Ni  Ni17  1  0.358732  0.481609  0.500000  1
  Ni  Ni18  1  0.518391  0.877125  0.500000  1
  Ni  Ni19  1  0.122875  0.641268  0.500000  1
  Ni  Ni20  1  0.877125  0.518391  0.500000  1
  Ni  Ni21  1  0.641268  0.122875  0.500000  1
  Ni  Ni22  1  0.481609  0.358732  0.500000  1
  Ni  Ni23  1  0.000000  0.000000  0.000000  1
  As  As24  1  0.821864  0.821864  0.000000  1
  As  As25  1  0.178136  0.000000  0.000000  1
  As  As26  1  0.000000  0.178136  0.000000  1
  As  As27  1  0.165806  0.480875  0.500000  1
  As  As28  1  0.519125  0.684931  0.500000  1
  As  As29  1  0.315069  0.834194  0.500000  1
  As  As30  1  0.684931  0.519125  0.500000  1
  As  As31  1  0.834194  0.315069  0.500000  1
  As  As32  1  0.480875  0.165806  0.500000  1
  As  As33  1  0.367350  0.367350  0.000000  1
  As  As34  1  0.632650  0.000000  0.000000  1
  As  As35  1  0.000000  0.632650  0.000000  1
