# generated using pymatgen
data_Dy12TcOs2Rh
_symmetry_space_group_name_H-M   'P 1'
_cell_length_a   6.33758615
_cell_length_b   7.35854596
_cell_length_c   9.16342200
_cell_angle_alpha   90.00000000
_cell_angle_beta   90.00000000
_cell_angle_gamma   90.19637032
_symmetry_Int_Tables_number   1
_chemical_formula_structural   Dy12TcOs2Rh
_chemical_formula_sum   'Dy12 Tc1 Os2 Rh1'
_cell_volume   427.33751428
_cell_formula_units_Z   1
loop_
 _symmetry_equiv_pos_site_id
 _symmetry_equiv_pos_as_xyz
  1  'x, y, z'
loop_
 _atom_site_type_symbol
 _atom_site_label
 _atom_site_symmetry_multiplicity
 _atom_site_fract_x
 _atom_site_fract_y
 _atom_site_fract_z
 _atom_site_occupancy
  Dy  Dy0  1  0.333066  0.673518  0.061124  1
  Dy  Dy1  1  0.169093  0.178002  0.438130  1
  Dy  Dy2  1  0.670092  0.324119  0.563496  1
  Dy  Dy3  1  0.826611  0.823655  0.933170  1
  Dy  Dy4  1  0.670092  0.324119  0.936504  1
  Dy  Dy5  1  0.826611  0.823655  0.566830  1
  Dy  Dy6  1  0.333066  0.673518  0.438876  1
  Dy  Dy7  1  0.169093  0.178002  0.061870  1
  Dy  Dy8  1  0.867390  0.538207  0.250000  1
  Dy  Dy9  1  0.632445  0.040066  0.250000  1
  Dy  Dy10  1  0.130523  0.462457  0.750000  1
  Dy  Dy11  1  0.369407  0.961824  0.750000  1
  Tc  Tc12  1  0.962948  0.113999  0.750000  1
  Os  Os13  1  0.459078  0.384644  0.250000  1
  Os  Os14  1  0.538454  0.616113  0.750000  1
  Rh  Rh15  1  0.042032  0.884101  0.250000  1
