# generated using pymatgen
data_Sr6YB6RhO18
_symmetry_space_group_name_H-M   'P 1'
_cell_length_a   7.79919058
_cell_length_b   7.79918982
_cell_length_c   7.79918999
_cell_angle_alpha   105.46215033
_cell_angle_beta   105.46214982
_cell_angle_gamma   105.46214758
_symmetry_Int_Tables_number   1
_chemical_formula_structural   Sr6YB6RhO18
_chemical_formula_sum   'Sr6 Y1 B6 Rh1 O18'
_cell_volume   410.53710760
_cell_formula_units_Z   1
loop_
 _symmetry_equiv_pos_site_id
 _symmetry_equiv_pos_as_xyz
  1  'x, y, z'
loop_
 _atom_site_type_symbol
 _atom_site_label
 _atom_site_symmetry_multiplicity
 _atom_site_fract_x
 _atom_site_fract_y
 _atom_site_fract_z
 _atom_site_occupancy
  Sr  Sr0  1  0.351227  0.729391  0.837805  1
  Sr  Sr1  1  0.837805  0.351227  0.729391  1
  Sr  Sr2  1  0.729391  0.837805  0.351227  1
  Sr  Sr3  1  0.648773  0.270609  0.162195  1
  Sr  Sr4  1  0.162195  0.648773  0.270609  1
  Sr  Sr5  1  0.270609  0.162195  0.648773  1
  Y  Y6  1  0.000000  0.000000  0.000000  1
  B  B7  1  0.383906  0.048610  0.293870  1
  B  B8  1  0.293870  0.383906  0.048610  1
  B  B9  1  0.048610  0.293870  0.383906  1
  B  B10  1  0.706130  0.616094  0.951390  1
  B  B11  1  0.951390  0.706130  0.616094  1
  B  B12  1  0.616094  0.951390  0.706130  1
  Rh  Rh13  1  0.500000  0.500000  0.500000  1
  O  O14  1  0.433242  0.511997  0.226297  1
  O  O15  1  0.226297  0.433242  0.511997  1
  O  O16  1  0.807643  0.013076  0.727654  1
  O  O17  1  0.013076  0.727654  0.807643  1
  O  O18  1  0.727654  0.807643  0.013076  1
  O  O19  1  0.272346  0.192357  0.986924  1
  O  O20  1  0.192357  0.986924  0.272346  1
  O  O21  1  0.986924  0.272346  0.192357  1
  O  O22  1  0.541998  0.063479  0.808271  1
  O  O23  1  0.063479  0.808271  0.541998  1
  O  O24  1  0.808271  0.541998  0.063479  1
  O  O25  1  0.458002  0.936521  0.191729  1
  O  O26  1  0.936521  0.191729  0.458002  1
  O  O27  1  0.191729  0.458002  0.936521  1
  O  O28  1  0.488003  0.773703  0.566758  1
  O  O29  1  0.773703  0.566758  0.488003  1
  O  O30  1  0.566758  0.488003  0.773703  1
  O  O31  1  0.511997  0.226297  0.433242  1
