# generated using pymatgen
data_Sr4Sb4Pd3Pt
_symmetry_space_group_name_H-M   'P 1'
_cell_length_a   4.79500500
_cell_length_b   7.58419268
_cell_length_c   8.16503100
_cell_angle_alpha   89.48055910
_cell_angle_beta   90.00000000
_cell_angle_gamma   90.00000000
_symmetry_Int_Tables_number   1
_chemical_formula_structural   Sr4Sb4Pd3Pt
_chemical_formula_sum   'Sr4 Sb4 Pd3 Pt1'
_cell_volume   296.91928913
_cell_formula_units_Z   1
loop_
 _symmetry_equiv_pos_site_id
 _symmetry_equiv_pos_as_xyz
  1  'x, y, z'
loop_
 _atom_site_type_symbol
 _atom_site_label
 _atom_site_symmetry_multiplicity
 _atom_site_fract_x
 _atom_site_fract_y
 _atom_site_fract_z
 _atom_site_occupancy
  Sr  Sr0  1  0.250000  0.492417  0.200322  1
  Sr  Sr1  1  0.750000  0.506760  0.800204  1
  Sr  Sr2  1  0.750000  0.005431  0.699199  1
  Sr  Sr3  1  0.250000  0.993326  0.300698  1
  Sb  Sb4  1  0.250000  0.807157  0.907164  1
  Sb  Sb5  1  0.750000  0.192047  0.091142  1
  Sb  Sb6  1  0.750000  0.688150  0.410776  1
  Sb  Sb7  1  0.250000  0.312072  0.590729  1
  Pd  Pd8  1  0.750000  0.311630  0.418848  1
  Pd  Pd9  1  0.750000  0.815353  0.081228  1
  Pd  Pd10  1  0.250000  0.184915  0.919091  1
  Pt  Pt11  1  0.250000  0.690743  0.580597  1
