# generated using pymatgen
data_Dy10SiSn6Hg
_symmetry_space_group_name_H-M   'P 1'
_cell_length_a   9.16244100
_cell_length_b   9.16244104
_cell_length_c   6.70287500
_cell_angle_alpha   90.00000000
_cell_angle_beta   90.00000000
_cell_angle_gamma   119.99999625
_symmetry_Int_Tables_number   1
_chemical_formula_structural   Dy10SiSn6Hg
_chemical_formula_sum   'Dy10 Si1 Sn6 Hg1'
_cell_volume   487.31990689
_cell_formula_units_Z   1
loop_
 _symmetry_equiv_pos_site_id
 _symmetry_equiv_pos_as_xyz
  1  'x, y, z'
loop_
 _atom_site_type_symbol
 _atom_site_label
 _atom_site_symmetry_multiplicity
 _atom_site_fract_x
 _atom_site_fract_y
 _atom_site_fract_z
 _atom_site_occupancy
  Dy  Dy0  1  0.666667  0.333333  0.000000  1
  Dy  Dy1  1  0.333333  0.666667  0.000000  1
  Dy  Dy2  1  0.333333  0.666667  0.500000  1
  Dy  Dy3  1  0.666667  0.333333  0.500000  1
  Dy  Dy4  1  0.738808  0.738808  0.724872  1
  Dy  Dy5  1  0.261192  0.000000  0.724872  1
  Dy  Dy6  1  0.000000  0.261192  0.724872  1
  Dy  Dy7  1  0.261192  0.261192  0.275128  1
  Dy  Dy8  1  0.738808  0.000000  0.275128  1
  Dy  Dy9  1  0.000000  0.738808  0.275128  1
  Si  Si10  1  0.000000  0.000000  0.500000  1
  Sn  Sn11  1  0.388998  0.388998  0.752196  1
  Sn  Sn12  1  0.611002  0.000000  0.752196  1
  Sn  Sn13  1  0.000000  0.611002  0.752196  1
  Sn  Sn14  1  0.611002  0.611002  0.247804  1
  Sn  Sn15  1  0.388998  0.000000  0.247804  1
  Sn  Sn16  1  0.000000  0.388998  0.247804  1
  Hg  Hg17  1  0.000000  0.000000  0.000000  1
