# generated using pymatgen
data_NaNdSiS4
_symmetry_space_group_name_H-M   'P 1'
_cell_length_a   6.67779900
_cell_length_b   6.53263155
_cell_length_c   8.05165453
_cell_angle_alpha   73.95871739
_cell_angle_beta   90.00000000
_cell_angle_gamma   90.00000000
_symmetry_Int_Tables_number   1
_chemical_formula_structural   NaNdSiS4
_chemical_formula_sum   'Na2 Nd2 Si2 S8'
_cell_volume   337.56578973
_cell_formula_units_Z   2
loop_
 _symmetry_equiv_pos_site_id
 _symmetry_equiv_pos_as_xyz
  1  'x, y, z'
loop_
 _atom_site_type_symbol
 _atom_site_label
 _atom_site_symmetry_multiplicity
 _atom_site_fract_x
 _atom_site_fract_y
 _atom_site_fract_z
 _atom_site_occupancy
  Na  Na0  1  0.996155  0.738450  0.064882  1
  Na  Na1  1  0.496155  0.261550  0.935118  1
  Nd  Nd2  1  0.493313  0.225852  0.446546  1
  Nd  Nd3  1  0.993313  0.774148  0.553454  1
  Si  Si4  1  0.460233  0.770867  0.308077  1
  Si  Si5  1  0.960233  0.229133  0.691923  1
  S  S6  1  0.445153  0.569701  0.144683  1
  S  S7  1  0.231365  0.009592  0.253254  1
  S  S8  1  0.725749  0.962531  0.271837  1
  S  S9  1  0.915033  0.405186  0.427823  1
  S  S10  1  0.415033  0.594814  0.572177  1
  S  S11  1  0.225749  0.037469  0.728163  1
  S  S12  1  0.731365  0.990408  0.746746  1
  S  S13  1  0.945153  0.430299  0.855317  1
