# generated using pymatgen
data_Zr10InGaCuBi5
_symmetry_space_group_name_H-M   'P 1'
_cell_length_a   8.81002994
_cell_length_b   8.83910966
_cell_length_c   5.94288406
_cell_angle_alpha   90.03417079
_cell_angle_beta   89.93143283
_cell_angle_gamma   119.89122705
_symmetry_Int_Tables_number   1
_chemical_formula_structural   Zr10InGaCuBi5
_chemical_formula_sum   'Zr10 In1 Ga1 Cu1 Bi5'
_cell_volume   401.22543647
_cell_formula_units_Z   1
loop_
 _symmetry_equiv_pos_site_id
 _symmetry_equiv_pos_as_xyz
  1  'x, y, z'
loop_
 _atom_site_type_symbol
 _atom_site_label
 _atom_site_symmetry_multiplicity
 _atom_site_fract_x
 _atom_site_fract_y
 _atom_site_fract_z
 _atom_site_occupancy
  Zr  Zr0  1  0.734276  0.000000  0.247188  1
  Zr  Zr1  1  0.005230  0.740793  0.246852  1
  Zr  Zr2  1  0.264438  0.259207  0.246852  1
  Zr  Zr3  1  0.262277  0.000000  0.753928  1
  Zr  Zr4  1  0.999609  0.261619  0.752760  1
  Zr  Zr5  1  0.737989  0.738381  0.752760  1
  Zr  Zr6  1  0.334182  0.670109  0.498342  1
  Zr  Zr7  1  0.664075  0.329891  0.498342  1
  Zr  Zr8  1  0.664162  0.330080  0.001587  1
  Zr  Zr9  1  0.334082  0.669920  0.001587  1
  In  In10  1  0.386744  0.000000  0.249681  1
  Ga  Ga11  1  0.000023  0.000000  0.498589  1
  Cu  Cu12  1  0.000230  0.000000  0.001246  1
  Bi  Bi13  1  0.000645  0.386393  0.249894  1
  Bi  Bi14  1  0.614251  0.613607  0.249894  1
  Bi  Bi15  1  0.611368  0.000000  0.750623  1
  Bi  Bi16  1  0.999495  0.612572  0.749936  1
  Bi  Bi17  1  0.386924  0.387428  0.749936  1
