# generated using pymatgen
data_Li2Lu3AgSnGe2
_symmetry_space_group_name_H-M   'P 1'
_cell_length_a   7.00269381
_cell_length_b   7.03265308
_cell_length_c   4.30124600
_cell_angle_alpha   90.00000000
_cell_angle_beta   90.00000000
_cell_angle_gamma   120.14163342
_symmetry_Int_Tables_number   1
_chemical_formula_structural   Li2Lu3AgSnGe2
_chemical_formula_sum   'Li2 Lu3 Ag1 Sn1 Ge2'
_cell_volume   183.18404836
_cell_formula_units_Z   1
loop_
 _symmetry_equiv_pos_site_id
 _symmetry_equiv_pos_as_xyz
  1  'x, y, z'
loop_
 _atom_site_type_symbol
 _atom_site_label
 _atom_site_symmetry_multiplicity
 _atom_site_fract_x
 _atom_site_fract_y
 _atom_site_fract_z
 _atom_site_occupancy
  Li  Li0  1  0.242254  0.238438  0.500000  1
  Li  Li1  1  0.757746  0.996184  0.500000  1
  Lu  Lu2  1  0.000000  0.449776  0.000000  1
  Lu  Lu3  1  0.557927  0.556452  0.000000  1
  Lu  Lu4  1  0.442073  0.998525  0.000000  1
  Ag  Ag5  1  0.000000  0.755471  0.500000  1
  Sn  Sn6  1  0.000000  0.013118  0.000000  1
  Ge  Ge7  1  0.339954  0.665996  0.500000  1
  Ge  Ge8  1  0.660046  0.326041  0.500000  1
