# generated using pymatgen
data_Ho20Ir6PdRh5
_symmetry_space_group_name_H-M   'P 1'
_cell_length_a   10.86870986
_cell_length_b   10.86870929
_cell_length_c   6.36151106
_cell_angle_alpha   89.98022844
_cell_angle_beta   89.98022436
_cell_angle_gamma   89.58669477
_symmetry_Int_Tables_number   1
_chemical_formula_structural   Ho20Ir6PdRh5
_chemical_formula_sum   'Ho20 Ir6 Pd1 Rh5'
_cell_volume   751.45833134
_cell_formula_units_Z   1
loop_
 _symmetry_equiv_pos_site_id
 _symmetry_equiv_pos_as_xyz
  1  'x, y, z'
loop_
 _atom_site_type_symbol
 _atom_site_label
 _atom_site_symmetry_multiplicity
 _atom_site_fract_x
 _atom_site_fract_y
 _atom_site_fract_z
 _atom_site_occupancy
  Ho  Ho0  1  0.289827  0.088712  0.380571  1
  Ho  Ho1  1  0.290485  0.910279  0.879837  1
  Ho  Ho2  1  0.709914  0.082464  0.878742  1
  Ho  Ho3  1  0.708689  0.908440  0.379841  1
  Ho  Ho4  1  0.589146  0.789426  0.880017  1
  Ho  Ho5  1  0.585214  0.206787  0.372432  1
  Ho  Ho6  1  0.410158  0.791147  0.378861  1
  Ho  Ho7  1  0.405727  0.207285  0.881131  1
  Ho  Ho8  1  0.210574  0.410854  0.619983  1
  Ho  Ho9  1  0.208853  0.589842  0.121139  1
  Ho  Ho10  1  0.793213  0.414786  0.127568  1
  Ho  Ho11  1  0.792715  0.594273  0.618869  1
  Ho  Ho12  1  0.911288  0.710173  0.119429  1
  Ho  Ho13  1  0.917536  0.290086  0.621258  1
  Ho  Ho14  1  0.089721  0.709515  0.620163  1
  Ho  Ho15  1  0.091560  0.291311  0.120159  1
  Ho  Ho16  1  0.999285  0.999401  0.499356  1
  Ho  Ho17  1  0.000599  0.000715  0.000644  1
  Ho  Ho18  1  0.497749  0.501270  0.000671  1
  Ho  Ho19  1  0.498730  0.502251  0.499329  1
  Ir  Ir20  1  0.845604  0.847462  0.750992  1
  Ir  Ir21  1  0.152538  0.154396  0.749008  1
  Ir  Ir22  1  0.154203  0.845797  0.250000  1
  Ir  Ir23  1  0.654500  0.652204  0.249986  1
  Ir  Ir24  1  0.347796  0.345500  0.250014  1
  Ir  Ir25  1  0.345193  0.654807  0.750000  1
  Pd  Pd26  1  0.655465  0.344535  0.750000  1
  Rh  Rh27  1  0.843840  0.156160  0.250000  1
  Rh  Rh28  1  0.501326  0.001055  0.123518  1
  Rh  Rh29  1  0.500943  0.001336  0.625049  1
  Rh  Rh30  1  0.998664  0.499057  0.874951  1
  Rh  Rh31  1  0.998945  0.498674  0.376482  1
