# generated using pymatgen
data_Er2Ga9CoRh2
_symmetry_space_group_name_H-M   'P 1'
_cell_length_a   7.50304546
_cell_length_b   7.50304432
_cell_length_c   9.47265400
_cell_angle_alpha   90.00000000
_cell_angle_beta   90.00000000
_cell_angle_gamma   120.33104120
_symmetry_Int_Tables_number   1
_chemical_formula_structural   Er2Ga9CoRh2
_chemical_formula_sum   'Er4 Ga18 Co2 Rh4'
_cell_volume   460.27670322
_cell_formula_units_Z   2
loop_
 _symmetry_equiv_pos_site_id
 _symmetry_equiv_pos_as_xyz
  1  'x, y, z'
loop_
 _atom_site_type_symbol
 _atom_site_label
 _atom_site_symmetry_multiplicity
 _atom_site_fract_x
 _atom_site_fract_y
 _atom_site_fract_z
 _atom_site_occupancy
  Er  Er0  1  0.997086  0.659644  0.250000  1
  Er  Er1  1  0.002914  0.340356  0.750000  1
  Er  Er2  1  0.659644  0.997086  0.250000  1
  Er  Er3  1  0.340356  0.002914  0.750000  1
  Ga  Ga4  1  0.107834  0.107834  0.250000  1
  Ga  Ga5  1  0.892166  0.892166  0.750000  1
  Ga  Ga6  1  0.999470  0.324416  0.077400  1
  Ga  Ga7  1  0.000530  0.675584  0.922600  1
  Ga  Ga8  1  0.000530  0.675584  0.577400  1
  Ga  Ga9  1  0.324416  0.999470  0.422600  1
  Ga  Ga10  1  0.999470  0.324416  0.422600  1
  Ga  Ga11  1  0.675584  0.000530  0.577400  1
  Ga  Ga12  1  0.675584  0.000530  0.922600  1
  Ga  Ga13  1  0.324416  0.999470  0.077400  1
  Ga  Ga14  1  0.325480  0.325480  0.563119  1
  Ga  Ga15  1  0.674520  0.674520  0.436881  1
  Ga  Ga16  1  0.674520  0.674520  0.063119  1
  Ga  Ga17  1  0.325480  0.325480  0.936881  1
  Ga  Ga18  1  0.337653  0.541650  0.250000  1
  Ga  Ga19  1  0.662347  0.458350  0.750000  1
  Ga  Ga20  1  0.541650  0.337653  0.250000  1
  Ga  Ga21  1  0.458350  0.662347  0.750000  1
  Co  Co22  1  0.000000  0.000000  0.000000  1
  Co  Co23  1  0.000000  0.000000  0.500000  1
  Rh  Rh24  1  0.672041  0.327959  0.000000  1
  Rh  Rh25  1  0.327959  0.672041  0.000000  1
  Rh  Rh26  1  0.327959  0.672041  0.500000  1
  Rh  Rh27  1  0.672041  0.327959  0.500000  1
