# generated using pymatgen
data_Tb5SmPtBr10
_symmetry_space_group_name_H-M   'P 1'
_cell_length_a   7.42619498
_cell_length_b   9.29265580
_cell_length_c   9.40128343
_cell_angle_alpha   107.76003890
_cell_angle_beta   96.61612886
_cell_angle_gamma   105.24831927
_symmetry_Int_Tables_number   1
_chemical_formula_structural   Tb5SmPtBr10
_chemical_formula_sum   'Tb5 Sm1 Pt1 Br10'
_cell_volume   582.46172569
_cell_formula_units_Z   1
loop_
 _symmetry_equiv_pos_site_id
 _symmetry_equiv_pos_as_xyz
  1  'x, y, z'
loop_
 _atom_site_type_symbol
 _atom_site_label
 _atom_site_symmetry_multiplicity
 _atom_site_fract_x
 _atom_site_fract_y
 _atom_site_fract_z
 _atom_site_occupancy
  Tb  Tb0  1  0.872204  0.952196  0.245968  1
  Tb  Tb1  1  0.969879  0.300297  0.095475  1
  Tb  Tb2  1  0.030252  0.700331  0.907119  1
  Tb  Tb3  1  0.360218  0.134361  0.177600  1
  Tb  Tb4  1  0.639952  0.865342  0.821498  1
  Sm  Sm5  1  0.128874  0.048275  0.749385  1
  Pt  Pt6  1  0.999922  0.000368  0.999913  1
  Br  Br7  1  0.550896  0.179871  0.917496  1
  Br  Br8  1  0.453178  0.821611  0.084686  1
  Br  Br9  1  0.349311  0.450265  0.269924  1
  Br  Br10  1  0.651424  0.549627  0.731526  1
  Br  Br11  1  0.248256  0.080934  0.450382  1
  Br  Br12  1  0.746148  0.916912  0.543017  1
  Br  Br13  1  0.779232  0.252347  0.343087  1
  Br  Br14  1  0.221737  0.742376  0.658234  1
  Br  Br15  1  0.083967  0.374236  0.831029  1
  Br  Br16  1  0.914548  0.630653  0.173661  1
