# generated using pymatgen
data_HoTm9(ZnIn3)2
_symmetry_space_group_name_H-M   'P 1'
_cell_length_a   9.04252600
_cell_length_b   9.05187096
_cell_length_c   6.64827700
_cell_angle_alpha   90.00000000
_cell_angle_beta   90.00000000
_cell_angle_gamma   119.96585507
_symmetry_Int_Tables_number   1
_chemical_formula_structural   HoTm9(ZnIn3)2
_chemical_formula_sum   'Ho1 Tm9 Zn2 In6'
_cell_volume   471.42996258
_cell_formula_units_Z   1
loop_
 _symmetry_equiv_pos_site_id
 _symmetry_equiv_pos_as_xyz
  1  'x, y, z'
loop_
 _atom_site_type_symbol
 _atom_site_label
 _atom_site_symmetry_multiplicity
 _atom_site_fract_x
 _atom_site_fract_y
 _atom_site_fract_z
 _atom_site_occupancy
  Ho  Ho0  1  0.274866  0.000000  0.750000  1
  Tm  Tm1  1  0.333421  0.666080  0.499906  1
  Tm  Tm2  1  0.667341  0.333920  0.499906  1
  Tm  Tm3  1  0.667341  0.333920  0.000094  1
  Tm  Tm4  1  0.333421  0.666080  0.000094  1
  Tm  Tm5  1  0.723636  0.000000  0.250000  1
  Tm  Tm6  1  0.000386  0.275266  0.750000  1
  Tm  Tm7  1  0.999951  0.724899  0.250000  1
  Tm  Tm8  1  0.725119  0.724734  0.750000  1
  Tm  Tm9  1  0.275052  0.275101  0.250000  1
  Zn  Zn10  1  0.999116  0.000000  0.499648  1
  Zn  Zn11  1  0.999116  0.000000  0.000352  1
  In  In12  1  0.622341  0.000000  0.750000  1
  In  In13  1  0.379743  0.000000  0.250000  1
  In  In14  1  0.998966  0.619611  0.750000  1
  In  In15  1  0.999803  0.378777  0.250000  1
  In  In16  1  0.379355  0.380389  0.750000  1
  In  In17  1  0.621026  0.621223  0.250000  1
