# generated using pymatgen
data_EuGa2Pd2Pt
_symmetry_space_group_name_H-M   'P 1'
_cell_length_a   5.66852500
_cell_length_b   5.67574490
_cell_length_c   4.05123800
_cell_angle_alpha   90.00000000
_cell_angle_beta   90.00000000
_cell_angle_gamma   119.95792359
_symmetry_Int_Tables_number   1
_chemical_formula_structural   EuGa2Pd2Pt
_chemical_formula_sum   'Eu1 Ga2 Pd2 Pt1'
_cell_volume   112.92635331
_cell_formula_units_Z   1
loop_
 _symmetry_equiv_pos_site_id
 _symmetry_equiv_pos_as_xyz
  1  'x, y, z'
loop_
 _atom_site_type_symbol
 _atom_site_label
 _atom_site_symmetry_multiplicity
 _atom_site_fract_x
 _atom_site_fract_y
 _atom_site_fract_z
 _atom_site_occupancy
  Eu  Eu0  1  0.000000  0.000000  0.000000  1
  Ga  Ga1  1  0.666417  0.332834  0.000000  1
  Ga  Ga2  1  0.333584  0.667166  0.000000  1
  Pd  Pd3  1  0.000000  0.500000  0.500000  1
  Pd  Pd4  1  0.499999  0.500000  0.500000  1
  Pt  Pt5  1  0.500001  0.000000  0.500000  1
