# generated using pymatgen
data_YEr3Tm4(B6Rh)4
_symmetry_space_group_name_H-M   'P 1'
_cell_length_a   3.63147000
_cell_length_b   9.12679400
_cell_length_c   11.46227200
_cell_angle_alpha   90.00024552
_cell_angle_beta   90.00000000
_cell_angle_gamma   90.00000000
_symmetry_Int_Tables_number   1
_chemical_formula_structural   YEr3Tm4(B6Rh)4
_chemical_formula_sum   'Y1 Er3 Tm4 B24 Rh4'
_cell_volume   379.90185927
_cell_formula_units_Z   1
loop_
 _symmetry_equiv_pos_site_id
 _symmetry_equiv_pos_as_xyz
  1  'x, y, z'
loop_
 _atom_site_type_symbol
 _atom_site_label
 _atom_site_symmetry_multiplicity
 _atom_site_fract_x
 _atom_site_fract_y
 _atom_site_fract_z
 _atom_site_occupancy
  Y  Y0  1  0.500000  0.321897  0.413812  1
  Er  Er1  1  0.500000  0.678358  0.586198  1
  Er  Er2  1  0.500000  0.178266  0.913883  1
  Er  Er3  1  0.500000  0.821576  0.086125  1
  Tm  Tm4  1  0.500000  0.444177  0.126704  1
  Tm  Tm5  1  0.500000  0.555889  0.873197  1
  Tm  Tm6  1  0.500000  0.055693  0.627192  1
  Tm  Tm7  1  0.500000  0.944056  0.373024  1
  B  B8  1  0.000000  0.106989  0.471173  1
  B  B9  1  0.000000  0.892281  0.529165  1
  B  B10  1  0.000000  0.391878  0.970745  1
  B  B11  1  0.000000  0.608194  0.029147  1
  B  B12  1  0.000000  0.132200  0.316306  1
  B  B13  1  0.000000  0.867199  0.683408  1
  B  B14  1  0.000000  0.367253  0.816847  1
  B  B15  1  0.000000  0.632875  0.183074  1
  B  B16  1  0.000000  0.053976  0.065020  1
  B  B17  1  0.000000  0.945769  0.934805  1
  B  B18  1  0.000000  0.446362  0.565855  1
  B  B19  1  0.000000  0.554801  0.434825  1
  B  B20  1  0.000000  0.483151  0.286190  1
  B  B21  1  0.000000  0.517673  0.713482  1
  B  B22  1  0.000000  0.017376  0.786842  1
  B  B23  1  0.000000  0.982310  0.213181  1
  B  B24  1  0.000000  0.249935  0.079244  1
  B  B25  1  0.000000  0.749989  0.920499  1
  B  B26  1  0.000000  0.249747  0.580323  1
  B  B27  1  0.000000  0.750183  0.420581  1
  B  B28  1  0.000000  0.294214  0.235635  1
  B  B29  1  0.000000  0.705565  0.763828  1
  B  B30  1  0.000000  0.205400  0.736662  1
  B  B31  1  0.000000  0.794581  0.263512  1
  Rh  Rh32  1  0.500000  0.139113  0.178688  1
  Rh  Rh33  1  0.500000  0.860329  0.820752  1
  Rh  Rh34  1  0.500000  0.360169  0.679811  1
  Rh  Rh35  1  0.500000  0.640574  0.320269  1
