# generated using pymatgen
data_Ba2Li4Bi3Sb
_symmetry_space_group_name_H-M   'P 1'
_cell_length_a   4.84130100
_cell_length_b   4.85519091
_cell_length_c   12.09756839
_cell_angle_alpha   90.07468473
_cell_angle_beta   90.00000000
_cell_angle_gamma   90.00000000
_symmetry_Int_Tables_number   1
_chemical_formula_structural   Ba2Li4Bi3Sb
_chemical_formula_sum   'Ba2 Li4 Bi3 Sb1'
_cell_volume   284.35843390
_cell_formula_units_Z   1
loop_
 _symmetry_equiv_pos_site_id
 _symmetry_equiv_pos_as_xyz
  1  'x, y, z'
loop_
 _atom_site_type_symbol
 _atom_site_label
 _atom_site_symmetry_multiplicity
 _atom_site_fract_x
 _atom_site_fract_y
 _atom_site_fract_z
 _atom_site_occupancy
  Ba  Ba0  1  0.250000  0.746728  0.761920  1
  Ba  Ba1  1  0.750000  0.252759  0.241487  1
  Li  Li2  1  0.750000  0.750543  0.994418  1
  Li  Li3  1  0.750000  0.247391  0.643711  1
  Li  Li4  1  0.250000  0.752730  0.361480  1
  Li  Li5  1  0.250000  0.249540  0.994445  1
  Bi  Bi6  1  0.750000  0.749162  0.501490  1
  Bi  Bi7  1  0.250000  0.252172  0.500887  1
  Bi  Bi8  1  0.250000  0.749699  0.131343  1
  Sb  Sb9  1  0.750000  0.249274  0.868819  1
