# generated using pymatgen
data_Hf2Si4Rh3
_symmetry_space_group_name_H-M   'P 1'
_cell_length_a   5.46280500
_cell_length_b   6.98303300
_cell_length_c   14.20585700
_cell_angle_alpha   90.00000000
_cell_angle_beta   90.00000000
_cell_angle_gamma   90.00000000
_symmetry_Int_Tables_number   1
_chemical_formula_structural   Hf2Si4Rh3
_chemical_formula_sum   'Hf8 Si16 Rh12'
_cell_volume   541.91008242
_cell_formula_units_Z   4
loop_
 _symmetry_equiv_pos_site_id
 _symmetry_equiv_pos_as_xyz
  1  'x, y, z'
loop_
 _atom_site_type_symbol
 _atom_site_label
 _atom_site_symmetry_multiplicity
 _atom_site_fract_x
 _atom_site_fract_y
 _atom_site_fract_z
 _atom_site_occupancy
  Hf  Hf0  1  0.234214  0.400754  0.152033  1
  Hf  Hf1  1  0.734214  0.099246  0.152033  1
  Hf  Hf2  1  0.265786  0.099246  0.652033  1
  Hf  Hf3  1  0.765786  0.400754  0.652033  1
  Hf  Hf4  1  0.234214  0.599246  0.347967  1
  Hf  Hf5  1  0.734214  0.900754  0.347967  1
  Hf  Hf6  1  0.265786  0.900754  0.847967  1
  Hf  Hf7  1  0.765786  0.599246  0.847967  1
  Si  Si8  1  0.209314  0.023154  0.069249  1
  Si  Si9  1  0.709314  0.523154  0.430751  1
  Si  Si10  1  0.790686  0.023154  0.569249  1
  Si  Si11  1  0.482654  0.754914  0.187982  1
  Si  Si12  1  0.017346  0.254914  0.812018  1
  Si  Si13  1  0.517346  0.245086  0.812018  1
  Si  Si14  1  0.209314  0.976846  0.430751  1
  Si  Si15  1  0.290686  0.523154  0.930751  1
  Si  Si16  1  0.982654  0.745086  0.187982  1
  Si  Si17  1  0.709314  0.476846  0.069249  1
  Si  Si18  1  0.290686  0.476846  0.569249  1
  Si  Si19  1  0.482654  0.245086  0.312018  1
  Si  Si20  1  0.017346  0.745086  0.687982  1
  Si  Si21  1  0.790686  0.976846  0.930751  1
  Si  Si22  1  0.517346  0.754914  0.687982  1
  Si  Si23  1  0.982654  0.254914  0.312018  1
  Rh  Rh24  1  0.991638  0.280725  0.981792  1
  Rh  Rh25  1  0.508362  0.219275  0.481792  1
  Rh  Rh26  1  0.774797  0.000000  0.750000  1
  Rh  Rh27  1  0.491638  0.219275  0.981792  1
  Rh  Rh28  1  0.725203  0.500000  0.250000  1
  Rh  Rh29  1  0.491638  0.780725  0.518208  1
  Rh  Rh30  1  0.008362  0.280725  0.481792  1
  Rh  Rh31  1  0.008362  0.719275  0.018208  1
  Rh  Rh32  1  0.225203  0.000000  0.250000  1
  Rh  Rh33  1  0.274797  0.500000  0.750000  1
  Rh  Rh34  1  0.508362  0.780725  0.018208  1
  Rh  Rh35  1  0.991638  0.719275  0.518208  1
