# generated using pymatgen
data_CePr5SmCoI12
_symmetry_space_group_name_H-M   'P 1'
_cell_length_a   10.19970587
_cell_length_b   10.19579462
_cell_length_c   10.18725913
_cell_angle_alpha   107.04501018
_cell_angle_beta   107.27674095
_cell_angle_gamma   106.81221167
_symmetry_Int_Tables_number   1
_chemical_formula_structural   CePr5SmCoI12
_chemical_formula_sum   'Ce1 Pr5 Sm1 Co1 I12'
_cell_volume   881.20273432
_cell_formula_units_Z   1
loop_
 _symmetry_equiv_pos_site_id
 _symmetry_equiv_pos_as_xyz
  1  'x, y, z'
loop_
 _atom_site_type_symbol
 _atom_site_label
 _atom_site_symmetry_multiplicity
 _atom_site_fract_x
 _atom_site_fract_y
 _atom_site_fract_z
 _atom_site_occupancy
  Ce  Ce0  1  0.977208  0.903062  0.705248  1
  Pr  Pr1  1  0.023013  0.096428  0.291379  1
  Pr  Pr2  1  0.095607  0.292775  0.021445  1
  Pr  Pr3  1  0.293285  0.021429  0.096301  1
  Pr  Pr4  1  0.904175  0.706004  0.977224  1
  Pr  Pr5  1  0.706520  0.978314  0.902947  1
  Sm  Sm6  1  0.499868  0.500256  0.500838  1
  Co  Co7  1  0.999851  0.999048  0.997738  1
  I  I8  1  0.538080  0.615974  0.833967  1
  I  I9  1  0.461905  0.384583  0.168043  1
  I  I10  1  0.318093  0.928425  0.778615  1
  I  I11  1  0.385313  0.167326  0.462794  1
  I  I12  1  0.928828  0.779677  0.320532  1
  I  I13  1  0.681708  0.071502  0.221200  1
  I  I14  1  0.071496  0.220910  0.680545  1
  I  I15  1  0.778394  0.320697  0.929820  1
  I  I16  1  0.222241  0.680494  0.073028  1
  I  I17  1  0.832988  0.537059  0.615847  1
  I  I18  1  0.167213  0.462713  0.384848  1
  I  I19  1  0.614212  0.833322  0.537642  1
