# generated using pymatgen
data_Sr2ZnSi4Pt3
_symmetry_space_group_name_H-M   'P 1'
_cell_length_a   8.50929723
_cell_length_b   8.50929800
_cell_length_c   8.48075700
_cell_angle_alpha   138.20673413
_cell_angle_beta   106.27562023
_cell_angle_gamma   88.71807240
_symmetry_Int_Tables_number   1
_chemical_formula_structural   Sr2ZnSi4Pt3
_chemical_formula_sum   'Sr4 Zn2 Si8 Pt6'
_cell_volume   375.76862757
_cell_formula_units_Z   2
loop_
 _symmetry_equiv_pos_site_id
 _symmetry_equiv_pos_as_xyz
  1  'x, y, z'
loop_
 _atom_site_type_symbol
 _atom_site_label
 _atom_site_symmetry_multiplicity
 _atom_site_fract_x
 _atom_site_fract_y
 _atom_site_fract_z
 _atom_site_occupancy
  Sr  Sr0  1  0.631620  0.370755  0.263111  1
  Sr  Sr1  1  0.368380  0.629245  0.736889  1
  Sr  Sr2  1  0.107644  0.868509  0.236889  1
  Sr  Sr3  1  0.892356  0.131491  0.763111  1
  Zn  Zn4  1  0.271341  0.521341  0.250000  1
  Zn  Zn5  1  0.728659  0.478659  0.750000  1
  Si  Si6  1  0.734358  0.984358  0.250000  1
  Si  Si7  1  0.265642  0.015642  0.750000  1
  Si  Si8  1  0.466732  0.104733  0.349620  1
  Si  Si9  1  0.533268  0.895267  0.650380  1
  Si  Si10  1  0.755113  0.617112  0.150380  1
  Si  Si11  1  0.244887  0.382888  0.849620  1
  Si  Si12  1  0.007647  0.257647  0.250000  1
  Si  Si13  1  0.992353  0.742353  0.750000  1
  Pt  Pt14  1  0.243839  0.115871  0.104090  1
  Pt  Pt15  1  0.756161  0.884129  0.895910  1
  Pt  Pt16  1  0.011780  0.639748  0.395910  1
  Pt  Pt17  1  0.988220  0.360252  0.604090  1
  Pt  Pt18  1  0.498586  0.248586  0.750000  1
  Pt  Pt19  1  0.501414  0.751414  0.250000  1
