# generated using pymatgen
data_Pr2Ga4GeIr3
_symmetry_space_group_name_H-M   'P 1'
_cell_length_a   8.61630422
_cell_length_b   8.73052306
_cell_length_c   8.73052323
_cell_angle_alpha   140.81975708
_cell_angle_beta   108.24386933
_cell_angle_gamma   85.10993929
_symmetry_Int_Tables_number   1
_chemical_formula_structural   Pr2Ga4GeIr3
_chemical_formula_sum   'Pr4 Ga8 Ge2 Ir6'
_cell_volume   380.24868082
_cell_formula_units_Z   2
loop_
 _symmetry_equiv_pos_site_id
 _symmetry_equiv_pos_as_xyz
  1  'x, y, z'
loop_
 _atom_site_type_symbol
 _atom_site_label
 _atom_site_symmetry_multiplicity
 _atom_site_fract_x
 _atom_site_fract_y
 _atom_site_fract_z
 _atom_site_occupancy
  Pr  Pr0  1  0.864333  0.633646  0.230687  1
  Pr  Pr1  1  0.135667  0.366354  0.769313  1
  Pr  Pr2  1  0.406025  0.136135  0.269890  1
  Pr  Pr3  1  0.593975  0.863865  0.730110  1
  Ga  Ga4  1  0.500000  0.752206  0.252206  1
  Ga  Ga5  1  0.500000  0.247794  0.747794  1
  Ga  Ga6  1  0.211626  0.961461  0.748835  1
  Ga  Ga7  1  0.788374  0.537210  0.749835  1
  Ga  Ga8  1  0.788374  0.038539  0.251165  1
  Ga  Ga9  1  0.211626  0.462790  0.250165  1
  Ga  Ga10  1  0.074747  0.907776  0.166971  1
  Ga  Ga11  1  0.925253  0.092224  0.833029  1
  Ge  Ge12  1  0.739804  0.405883  0.333921  1
  Ge  Ge13  1  0.260196  0.594117  0.666079  1
  Ir  Ir14  1  0.000000  0.749232  0.749232  1
  Ir  Ir15  1  0.000000  0.250768  0.250768  1
  Ir  Ir16  1  0.253414  0.853235  0.400179  1
  Ir  Ir17  1  0.746586  0.146765  0.599821  1
  Ir  Ir18  1  0.454643  0.355087  0.099556  1
  Ir  Ir19  1  0.545357  0.644913  0.900444  1
