# generated using pymatgen
data_Tb3Dy9Co4BiOs
_symmetry_space_group_name_H-M   'P 1'
_cell_length_a   8.33167769
_cell_length_b   8.33167676
_cell_length_c   8.33158201
_cell_angle_alpha   111.43657607
_cell_angle_beta   110.27660548
_cell_angle_gamma   106.73731628
_symmetry_Int_Tables_number   1
_chemical_formula_structural   Tb3Dy9Co4BiOs
_chemical_formula_sum   'Tb3 Dy9 Co4 Bi1 Os1'
_cell_volume   444.40930334
_cell_formula_units_Z   1
loop_
 _symmetry_equiv_pos_site_id
 _symmetry_equiv_pos_as_xyz
  1  'x, y, z'
loop_
 _atom_site_type_symbol
 _atom_site_label
 _atom_site_symmetry_multiplicity
 _atom_site_fract_x
 _atom_site_fract_y
 _atom_site_fract_z
 _atom_site_occupancy
  Tb  Tb0  1  0.818979  0.716359  0.535337  1
  Tb  Tb1  1  0.181006  0.283639  0.464645  1
  Tb  Tb2  1  0.181028  0.716365  0.897392  1
  Dy  Dy3  1  0.818992  0.283623  0.102616  1
  Dy  Dy4  1  0.687837  0.379049  0.691231  1
  Dy  Dy5  1  0.312154  0.620941  0.308775  1
  Dy  Dy6  1  0.687834  0.996620  0.308775  1
  Dy  Dy7  1  0.312182  0.003394  0.691231  1
  Dy  Dy8  1  0.591518  0.787876  0.803664  1
  Dy  Dy9  1  0.408498  0.212144  0.196345  1
  Dy  Dy10  1  0.984201  0.787847  0.196345  1
  Dy  Dy11  1  0.015788  0.212147  0.803664  1
  Co  Co12  1  0.623735  0.000006  0.623741  1
  Co  Co13  1  0.376270  0.000002  0.376272  1
  Co  Co14  1  0.110671  0.610665  0.499980  1
  Co  Co15  1  0.889315  0.389310  0.499980  1
  Bi  Bi16  1  0.500002  0.499999  0.000001  1
  Os  Os17  1  0.999991  0.000016  0.000007  1
