# generated using pymatgen
data_Ho5Lu(SnIr)6
_symmetry_space_group_name_H-M   'P 1'
_cell_length_a   7.51727201
_cell_length_b   7.44659052
_cell_length_c   7.88968600
_cell_angle_alpha   90.00000000
_cell_angle_beta   90.00000000
_cell_angle_gamma   120.35638463
_symmetry_Int_Tables_number   1
_chemical_formula_structural   Ho5Lu(SnIr)6
_chemical_formula_sum   'Ho5 Lu1 Sn6 Ir6'
_cell_volume   381.09849744
_cell_formula_units_Z   1
loop_
 _symmetry_equiv_pos_site_id
 _symmetry_equiv_pos_as_xyz
  1  'x, y, z'
loop_
 _atom_site_type_symbol
 _atom_site_label
 _atom_site_symmetry_multiplicity
 _atom_site_fract_x
 _atom_site_fract_y
 _atom_site_fract_z
 _atom_site_occupancy
  Ho  Ho0  1  0.406226  0.001774  0.250000  1
  Ho  Ho1  1  0.596069  0.595040  0.750000  1
  Ho  Ho2  1  0.595040  0.595802  0.250000  1
  Ho  Ho3  1  0.997525  0.403595  0.250000  1
  Ho  Ho4  1  0.004815  0.406555  0.750000  1
  Lu  Lu5  1  0.399613  0.998012  0.750000  1
  Sn  Sn6  1  0.260796  0.261337  0.499395  1
  Sn  Sn7  1  0.260796  0.261337  0.000605  1
  Sn  Sn8  1  0.742424  0.000280  0.996608  1
  Sn  Sn9  1  0.998650  0.738296  0.499477  1
  Sn  Sn10  1  0.742424  0.000280  0.503392  1
  Sn  Sn11  1  0.998650  0.738296  0.000523  1
  Ir  Ir12  1  0.662073  0.326702  0.505939  1
  Ir  Ir13  1  0.662073  0.326702  0.994061  1
  Ir  Ir14  1  0.334930  0.673074  0.999102  1
  Ir  Ir15  1  0.334930  0.673074  0.500898  1
  Ir  Ir16  1  0.003735  0.999829  0.750000  1
  Ir  Ir17  1  0.999230  0.000015  0.250000  1
