# generated using pymatgen
data_Zr6BeSN2
_symmetry_space_group_name_H-M   'P 1'
_cell_length_a   5.86522157
_cell_length_b   5.86522357
_cell_length_c   8.52538100
_cell_angle_alpha   90.00000000
_cell_angle_beta   90.00000000
_cell_angle_gamma   146.41776138
_symmetry_Int_Tables_number   1
_chemical_formula_structural   Zr6BeSN2
_chemical_formula_sum   'Zr6 Be1 S1 N2'
_cell_volume   162.22306881
_cell_formula_units_Z   1
loop_
 _symmetry_equiv_pos_site_id
 _symmetry_equiv_pos_as_xyz
  1  'x, y, z'
loop_
 _atom_site_type_symbol
 _atom_site_label
 _atom_site_symmetry_multiplicity
 _atom_site_fract_x
 _atom_site_fract_y
 _atom_site_fract_z
 _atom_site_occupancy
  Zr  Zr0  1  0.936606  0.063394  0.750000  1
  Zr  Zr1  1  0.068866  0.931134  0.250000  1
  Zr  Zr2  1  0.629063  0.370937  0.558575  1
  Zr  Zr3  1  0.368081  0.631919  0.439350  1
  Zr  Zr4  1  0.368081  0.631919  0.060650  1
  Zr  Zr5  1  0.629063  0.370937  0.941425  1
  Be  Be6  1  0.255045  0.744955  0.750000  1
  S  S7  1  0.746748  0.253252  0.250000  1
  N  N8  1  0.999223  0.000777  0.498048  1
  N  N9  1  0.999223  0.000777  0.001952  1
