# generated using pymatgen
data_Be2FeCo7(B2P)2
_symmetry_space_group_name_H-M   'P 1'
_cell_length_a   6.27412692
_cell_length_b   6.25329032
_cell_length_c   6.25982941
_cell_angle_alpha   129.64536118
_cell_angle_beta   129.73502153
_cell_angle_gamma   73.94971470
_symmetry_Int_Tables_number   1
_chemical_formula_structural   Be2FeCo7(B2P)2
_chemical_formula_sum   'Be2 Fe1 Co7 B4 P2'
_cell_volume   141.80467422
_cell_formula_units_Z   1
loop_
 _symmetry_equiv_pos_site_id
 _symmetry_equiv_pos_as_xyz
  1  'x, y, z'
loop_
 _atom_site_type_symbol
 _atom_site_label
 _atom_site_symmetry_multiplicity
 _atom_site_fract_x
 _atom_site_fract_y
 _atom_site_fract_z
 _atom_site_occupancy
  Be  Be0  1  0.500217  0.500091  0.000225  1
  Be  Be1  1  0.999992  0.999867  0.999775  1
  Fe  Fe2  1  0.946063  0.817610  0.500000  1
  Co  Co3  1  0.314963  0.448689  0.500000  1
  Co  Co4  1  0.815306  0.314751  0.868020  1
  Co  Co5  1  0.684582  0.551642  0.500000  1
  Co  Co6  1  0.055261  0.185965  0.500000  1
  Co  Co7  1  0.551544  0.050720  0.866055  1
  Co  Co8  1  0.185488  0.684664  0.133945  1
  Co  Co9  1  0.447286  0.946731  0.131980  1
  B  B10  1  0.883661  0.385073  0.268871  1
  B  B11  1  0.384725  0.115897  0.500000  1
  B  B12  1  0.114789  0.616201  0.731129  1
  B  B13  1  0.617000  0.883808  0.500000  1
  P  P14  1  0.248674  0.248259  0.998225  1
  P  P15  1  0.750449  0.750033  0.001775  1
