# generated using pymatgen
data_Ir(OF3)2
_symmetry_space_group_name_H-M   'P 1'
_cell_length_a   5.29668675
_cell_length_b   5.40093825
_cell_length_c   5.43326623
_cell_angle_alpha   92.45779514
_cell_angle_beta   102.08022559
_cell_angle_gamma   100.47960016
_symmetry_Int_Tables_number   1
_chemical_formula_structural   Ir(OF3)2
_chemical_formula_sum   'Ir1 O2 F6'
_cell_volume   148.92220854
_cell_formula_units_Z   1
loop_
 _symmetry_equiv_pos_site_id
 _symmetry_equiv_pos_as_xyz
  1  'x, y, z'
loop_
 _atom_site_type_symbol
 _atom_site_label
 _atom_site_symmetry_multiplicity
 _atom_site_fract_x
 _atom_site_fract_y
 _atom_site_fract_z
 _atom_site_occupancy
  Ir  Ir0  1  0.000000  0.000000  0.000000  1
  O  O1  1  0.411019  0.540224  0.530504  1
  O  O2  1  0.588981  0.459776  0.469496  1
  F  F3  1  0.793148  0.700004  0.072509  1
  F  F4  1  0.696939  0.080145  0.794114  1
  F  F5  1  0.303061  0.919855  0.205886  1
  F  F6  1  0.061331  0.823079  0.718581  1
  F  F7  1  0.938669  0.176921  0.281419  1
  F  F8  1  0.206852  0.299996  0.927491  1
