# generated using pymatgen
data_Sc4Ga3Fe5
_symmetry_space_group_name_H-M   'P 1'
_cell_length_a   5.05597229
_cell_length_b   5.05597199
_cell_length_c   8.25718100
_cell_angle_alpha   90.00000000
_cell_angle_beta   90.00000000
_cell_angle_gamma   120.08195656
_symmetry_Int_Tables_number   1
_chemical_formula_structural   Sc4Ga3Fe5
_chemical_formula_sum   'Sc4 Ga3 Fe5'
_cell_volume   182.64699287
_cell_formula_units_Z   1
loop_
 _symmetry_equiv_pos_site_id
 _symmetry_equiv_pos_as_xyz
  1  'x, y, z'
loop_
 _atom_site_type_symbol
 _atom_site_label
 _atom_site_symmetry_multiplicity
 _atom_site_fract_x
 _atom_site_fract_y
 _atom_site_fract_z
 _atom_site_occupancy
  Sc  Sc0  1  0.334468  0.665532  0.440250  1
  Sc  Sc1  1  0.662974  0.337026  0.570143  1
  Sc  Sc2  1  0.662974  0.337026  0.929857  1
  Sc  Sc3  1  0.334468  0.665532  0.059750  1
  Ga  Ga4  1  0.007634  0.992366  0.507425  1
  Ga  Ga5  1  0.007634  0.992366  0.992575  1
  Ga  Ga6  1  0.825936  0.174064  0.250000  1
  Fe  Fe7  1  0.823113  0.659266  0.250000  1
  Fe  Fe8  1  0.340734  0.176887  0.250000  1
  Fe  Fe9  1  0.176978  0.823022  0.750000  1
  Fe  Fe10  1  0.170900  0.347812  0.750000  1
  Fe  Fe11  1  0.652188  0.829100  0.750000  1
