# generated using pymatgen
data_Ho10(TlBi)3
_symmetry_space_group_name_H-M   'P 1'
_cell_length_a   9.01428200
_cell_length_b   9.00257260
_cell_length_c   6.61871500
_cell_angle_alpha   90.00000000
_cell_angle_beta   90.00000000
_cell_angle_gamma   120.04302790
_symmetry_Int_Tables_number   1
_chemical_formula_structural   Ho10(TlBi)3
_chemical_formula_sum   'Ho10 Tl3 Bi3'
_cell_volume   464.95788952
_cell_formula_units_Z   1
loop_
 _symmetry_equiv_pos_site_id
 _symmetry_equiv_pos_as_xyz
  1  'x, y, z'
loop_
 _atom_site_type_symbol
 _atom_site_label
 _atom_site_symmetry_multiplicity
 _atom_site_fract_x
 _atom_site_fract_y
 _atom_site_fract_z
 _atom_site_occupancy
  Ho  Ho0  1  0.992495  0.758841  0.750000  1
  Ho  Ho1  1  0.993227  0.231530  0.250000  1
  Ho  Ho2  1  0.761697  0.768470  0.250000  1
  Ho  Ho3  1  0.765807  0.000000  0.750000  1
  Ho  Ho4  1  0.233655  0.241159  0.750000  1
  Ho  Ho5  1  0.238370  0.000000  0.250000  1
  Ho  Ho6  1  0.337513  0.666569  0.502432  1
  Ho  Ho7  1  0.670945  0.333431  0.997568  1
  Ho  Ho8  1  0.670945  0.333431  0.502432  1
  Ho  Ho9  1  0.337513  0.666569  0.997568  1
  Tl  Tl10  1  0.002683  0.397815  0.750000  1
  Tl  Tl11  1  0.604866  0.602185  0.750000  1
  Tl  Tl12  1  0.602224  0.000000  0.250000  1
  Bi  Bi13  1  0.391076  0.000000  0.750000  1
  Bi  Bi14  1  0.394120  0.391257  0.250000  1
  Bi  Bi15  1  0.002864  0.608743  0.250000  1
