# generated using pymatgen
data_DyHo7In3Tc
_symmetry_space_group_name_H-M   'P 1'
_cell_length_a   10.36350653
_cell_length_b   10.36350703
_cell_length_c   7.03810528
_cell_angle_alpha   89.97051087
_cell_angle_beta   90.02949474
_cell_angle_gamma   119.90810563
_symmetry_Int_Tables_number   1
_chemical_formula_structural   DyHo7In3Tc
_chemical_formula_sum   'Dy2 Ho14 In6 Tc2'
_cell_volume   655.24119368
_cell_formula_units_Z   2
loop_
 _symmetry_equiv_pos_site_id
 _symmetry_equiv_pos_as_xyz
  1  'x, y, z'
loop_
 _atom_site_type_symbol
 _atom_site_label
 _atom_site_symmetry_multiplicity
 _atom_site_fract_x
 _atom_site_fract_y
 _atom_site_fract_z
 _atom_site_occupancy
  Dy  Dy0  1  0.531056  0.062168  0.509996  1
  Dy  Dy1  1  0.937832  0.468944  0.509996  1
  Ho  Ho2  1  0.531137  0.468863  0.510496  1
  Ho  Ho3  1  0.468338  0.936887  0.010460  1
  Ho  Ho4  1  0.063113  0.531662  0.010460  1
  Ho  Ho5  1  0.468451  0.531549  0.010867  1
  Ho  Ho6  1  0.177749  0.355212  0.713732  1
  Ho  Ho7  1  0.644788  0.822251  0.713732  1
  Ho  Ho8  1  0.177556  0.822444  0.713755  1
  Ho  Ho9  1  0.822334  0.644870  0.213205  1
  Ho  Ho10  1  0.355130  0.177666  0.213205  1
  Ho  Ho11  1  0.822524  0.177476  0.212934  1
  Ho  Ho12  1  0.666554  0.333446  0.880706  1
  Ho  Ho13  1  0.333456  0.666544  0.379907  1
  Ho  Ho14  1  0.000054  0.999946  0.490027  1
  Ho  Ho15  1  0.000068  0.999932  0.989860  1
  In  In16  1  0.837305  0.674965  0.751176  1
  In  In17  1  0.325035  0.162695  0.751176  1
  In  In18  1  0.837538  0.162462  0.751147  1
  In  In19  1  0.162682  0.325333  0.251444  1
  In  In20  1  0.674667  0.837318  0.251444  1
  In  In21  1  0.162718  0.837282  0.251520  1
  Tc  Tc22  1  0.666590  0.333410  0.283688  1
  Tc  Tc23  1  0.333324  0.666676  0.783111  1
