# generated using pymatgen
data_Ac3GaSi
_symmetry_space_group_name_H-M   'P 1'
_cell_length_a   8.21669086
_cell_length_b   8.21669086
_cell_length_c   4.85577500
_cell_angle_alpha   90.00000000
_cell_angle_beta   90.00000000
_cell_angle_gamma   88.58337933
_symmetry_Int_Tables_number   1
_chemical_formula_structural   Ac3GaSi
_chemical_formula_sum   'Ac6 Ga2 Si2'
_cell_volume   327.73263687
_cell_formula_units_Z   2
loop_
 _symmetry_equiv_pos_site_id
 _symmetry_equiv_pos_as_xyz
  1  'x, y, z'
loop_
 _atom_site_type_symbol
 _atom_site_label
 _atom_site_symmetry_multiplicity
 _atom_site_fract_x
 _atom_site_fract_y
 _atom_site_fract_z
 _atom_site_occupancy
  Ac  Ac0  1  0.500000  0.500000  0.000000  1
  Ac  Ac1  1  0.000000  0.000000  0.000000  1
  Ac  Ac2  1  0.667668  0.167668  0.500000  1
  Ac  Ac3  1  0.332332  0.832332  0.500000  1
  Ac  Ac4  1  0.181691  0.318309  0.500000  1
  Ac  Ac5  1  0.818309  0.681691  0.500000  1
  Ga  Ga6  1  0.111433  0.611433  0.000000  1
  Ga  Ga7  1  0.888567  0.388567  0.000000  1
  Si  Si8  1  0.606706  0.893294  0.000000  1
  Si  Si9  1  0.393294  0.106706  0.000000  1
