# generated using pymatgen
data_Ta9Al3SiPt
_symmetry_space_group_name_H-M   'P 1'
_cell_length_a   9.96014799
_cell_length_b   9.92752311
_cell_length_c   9.92749800
_cell_angle_alpha   93.64938468
_cell_angle_beta   93.79689917
_cell_angle_gamma   150.11893894
_symmetry_Int_Tables_number   1
_chemical_formula_structural   Ta9Al3SiPt
_chemical_formula_sum   'Ta18 Al6 Si2 Pt2'
_cell_volume   473.28134620
_cell_formula_units_Z   2
loop_
 _symmetry_equiv_pos_site_id
 _symmetry_equiv_pos_as_xyz
  1  'x, y, z'
loop_
 _atom_site_type_symbol
 _atom_site_label
 _atom_site_symmetry_multiplicity
 _atom_site_fract_x
 _atom_site_fract_y
 _atom_site_fract_z
 _atom_site_occupancy
  Ta  Ta0  1  0.562564  0.792207  0.356731  1
  Ta  Ta1  1  0.079261  0.154195  0.235924  1
  Ta  Ta2  1  0.579264  0.343341  0.925067  1
  Ta  Ta3  1  0.648098  0.572801  0.236118  1
  Ta  Ta4  1  0.351902  0.427199  0.763882  1
  Ta  Ta5  1  0.798372  0.441421  0.229414  1
  Ta  Ta6  1  0.420736  0.656659  0.074933  1
  Ta  Ta7  1  0.148098  0.911980  0.075296  1
  Ta  Ta8  1  0.701629  0.931042  0.643049  1
  Ta  Ta9  1  0.437436  0.207793  0.643269  1
  Ta  Ta10  1  0.920739  0.845805  0.764076  1
  Ta  Ta11  1  0.062563  0.705833  0.770357  1
  Ta  Ta12  1  0.201628  0.558579  0.770586  1
  Ta  Ta13  1  0.250002  0.752093  0.502092  1
  Ta  Ta14  1  0.298371  0.068958  0.356951  1
  Ta  Ta15  1  0.749998  0.247907  0.497908  1
  Ta  Ta16  1  0.851902  0.088020  0.924704  1
  Ta  Ta17  1  0.937437  0.294167  0.229643  1
  Al  Al18  1  0.373438  0.873244  0.240894  1
  Al  Al19  1  0.873438  0.632544  0.500194  1
  Al  Al20  1  0.126562  0.367456  0.499806  1
  Al  Al21  1  0.626562  0.126756  0.759106  1
  Al  Al22  1  0.000000  0.500000  0.000000  1
  Al  Al23  1  0.500000  0.500000  0.500000  1
  Si  Si24  1  0.750000  0.750680  0.000680  1
  Si  Si25  1  0.250000  0.249320  0.999320  1
  Pt  Pt26  1  0.500000  0.000000  0.000000  1
  Pt  Pt27  1  0.000000  0.000000  0.500000  1
