# generated using pymatgen
data_Tb8Dy7Sc5Si15Ir
_symmetry_space_group_name_H-M   'P 1'
_cell_length_a   7.24168481
_cell_length_b   7.68942757
_cell_length_c   14.37074771
_cell_angle_alpha   90.14126384
_cell_angle_beta   90.05278021
_cell_angle_gamma   90.22115619
_symmetry_Int_Tables_number   1
_chemical_formula_structural   Tb8Dy7Sc5Si15Ir
_chemical_formula_sum   'Tb8 Dy7 Sc5 Si15 Ir1'
_cell_volume   800.21787914
_cell_formula_units_Z   1
loop_
 _symmetry_equiv_pos_site_id
 _symmetry_equiv_pos_as_xyz
  1  'x, y, z'
loop_
 _atom_site_type_symbol
 _atom_site_label
 _atom_site_symmetry_multiplicity
 _atom_site_fract_x
 _atom_site_fract_y
 _atom_site_fract_z
 _atom_site_occupancy
  Tb  Tb0  1  0.017603  0.182424  0.096996  1
  Tb  Tb1  1  0.986540  0.822649  0.905964  1
  Tb  Tb2  1  0.482262  0.682885  0.904907  1
  Tb  Tb3  1  0.984691  0.823626  0.596637  1
  Tb  Tb4  1  0.516604  0.318773  0.096184  1
  Tb  Tb5  1  0.018081  0.184010  0.400969  1
  Tb  Tb6  1  0.517514  0.319144  0.401471  1
  Tb  Tb7  1  0.483548  0.682088  0.595232  1
  Dy  Dy8  1  0.311816  0.173274  0.628462  1
  Dy  Dy9  1  0.678259  0.824500  0.372381  1
  Dy  Dy10  1  0.176842  0.679187  0.373053  1
  Dy  Dy11  1  0.676958  0.823920  0.125406  1
  Dy  Dy12  1  0.830077  0.317337  0.628813  1
  Dy  Dy13  1  0.312573  0.174171  0.873271  1
  Dy  Dy14  1  0.829987  0.320215  0.873710  1
  Sc  Sc15  1  0.156097  0.519857  0.750377  1
  Sc  Sc16  1  0.843966  0.487507  0.248282  1
  Sc  Sc17  1  0.342773  0.014076  0.247692  1
  Sc  Sc18  1  0.664822  0.984516  0.750749  1
  Sc  Sc19  1  0.177600  0.678238  0.127473  1
  Si  Si20  1  0.983048  0.898995  0.246719  1
  Si  Si21  1  0.475867  0.597420  0.246449  1
  Si  Si22  1  0.518844  0.405977  0.750760  1
  Si  Si23  1  0.283137  0.860544  0.750696  1
  Si  Si24  1  0.718661  0.136639  0.248667  1
  Si  Si25  1  0.219577  0.368653  0.247757  1
  Si  Si26  1  0.774108  0.630912  0.750567  1
  Si  Si27  1  0.154392  0.472279  0.538756  1
  Si  Si28  1  0.845786  0.530080  0.460436  1
  Si  Si29  1  0.347992  0.971609  0.459415  1
  Si  Si30  1  0.856217  0.531385  0.042964  1
  Si  Si31  1  0.650452  0.030910  0.539006  1
  Si  Si32  1  0.158807  0.474920  0.966429  1
  Si  Si33  1  0.650229  0.029839  0.960578  1
  Si  Si34  1  0.341291  0.964281  0.041218  1
  Ir  Ir35  1  0.012973  0.083160  0.751554  1
