# generated using pymatgen
data_Tb9Ho11(Sn5Sb3)2
_symmetry_space_group_name_H-M   'P 1'
_cell_length_a   8.14136940
_cell_length_b   8.16775592
_cell_length_c   15.46926300
_cell_angle_alpha   90.30365428
_cell_angle_beta   90.04403433
_cell_angle_gamma   90.01281429
_symmetry_Int_Tables_number   1
_chemical_formula_structural   Tb9Ho11(Sn5Sb3)2
_chemical_formula_sum   'Tb9 Ho11 Sn10 Sb6'
_cell_volume   1028.64044477
_cell_formula_units_Z   1
loop_
 _symmetry_equiv_pos_site_id
 _symmetry_equiv_pos_as_xyz
  1  'x, y, z'
loop_
 _atom_site_type_symbol
 _atom_site_label
 _atom_site_symmetry_multiplicity
 _atom_site_fract_x
 _atom_site_fract_y
 _atom_site_fract_z
 _atom_site_occupancy
  Tb  Tb0  1  0.882842  0.661469  0.879351  1
  Tb  Tb1  1  0.548611  0.330683  0.893904  1
  Tb  Tb2  1  0.048216  0.169428  0.605968  1
  Tb  Tb3  1  0.453926  0.675547  0.394665  1
  Tb  Tb4  1  0.953273  0.824892  0.105756  1
  Tb  Tb5  1  0.457041  0.668929  0.105396  1
  Tb  Tb6  1  0.957451  0.830694  0.394579  1
  Tb  Tb7  1  0.540520  0.321957  0.603739  1
  Tb  Tb8  1  0.041058  0.177573  0.896068  1
  Ho  Ho9  1  0.384277  0.838368  0.879684  1
  Ho  Ho10  1  0.884056  0.661592  0.620372  1
  Ho  Ho11  1  0.617124  0.161140  0.378805  1
  Ho  Ho12  1  0.116873  0.339011  0.120951  1
  Ho  Ho13  1  0.616020  0.162162  0.120291  1
  Ho  Ho14  1  0.116539  0.337770  0.379770  1
  Ho  Ho15  1  0.382123  0.839008  0.621096  1
  Ho  Ho16  1  0.214592  0.499065  0.749814  1
  Ho  Ho17  1  0.714333  0.001020  0.750049  1
  Ho  Ho18  1  0.785566  0.500280  0.248566  1
  Ho  Ho19  1  0.285494  0.999639  0.251483  1
  Sn  Sn20  1  0.278288  0.028208  0.456365  1
  Sn  Sn21  1  0.777449  0.471605  0.044132  1
  Sn  Sn22  1  0.579383  0.626351  0.748754  1
  Sn  Sn23  1  0.079937  0.874175  0.750779  1
  Sn  Sn24  1  0.419918  0.373638  0.250548  1
  Sn  Sn25  1  0.919926  0.126439  0.249360  1
  Sn  Sn26  1  0.350966  0.143323  0.751387  1
  Sn  Sn27  1  0.850915  0.356395  0.748455  1
  Sn  Sn28  1  0.649250  0.856790  0.249582  1
  Sn  Sn29  1  0.149382  0.643068  0.250365  1
  Sb  Sb30  1  0.272071  0.022276  0.045752  1
  Sb  Sb31  1  0.772517  0.477241  0.454344  1
  Sb  Sb32  1  0.724676  0.974520  0.545168  1
  Sb  Sb33  1  0.225869  0.524512  0.954663  1
  Sb  Sb34  1  0.724640  0.977062  0.954105  1
  Sb  Sb35  1  0.224876  0.524168  0.545936  1
