# generated using pymatgen
data_Hf10AlGa2Sb5
_symmetry_space_group_name_H-M   'P 1'
_cell_length_a   8.59662797
_cell_length_b   8.55737558
_cell_length_c   5.78756900
_cell_angle_alpha   90.00000000
_cell_angle_beta   90.00000000
_cell_angle_gamma   119.84907732
_symmetry_Int_Tables_number   1
_chemical_formula_structural   Hf10AlGa2Sb5
_chemical_formula_sum   'Hf10 Al1 Ga2 Sb5'
_cell_volume   369.27848598
_cell_formula_units_Z   1
loop_
 _symmetry_equiv_pos_site_id
 _symmetry_equiv_pos_as_xyz
  1  'x, y, z'
loop_
 _atom_site_type_symbol
 _atom_site_label
 _atom_site_symmetry_multiplicity
 _atom_site_fract_x
 _atom_site_fract_y
 _atom_site_fract_z
 _atom_site_occupancy
  Hf  Hf0  1  0.734355  0.732805  0.750000  1
  Hf  Hf1  1  0.265645  0.998450  0.750000  1
  Hf  Hf2  1  0.000000  0.266445  0.750000  1
  Hf  Hf3  1  0.264987  0.275023  0.250000  1
  Hf  Hf4  1  0.735013  0.010036  0.250000  1
  Hf  Hf5  1  0.000000  0.725253  0.250000  1
  Hf  Hf6  1  0.671420  0.334074  0.003080  1
  Hf  Hf7  1  0.328580  0.662656  0.003080  1
  Hf  Hf8  1  0.328580  0.662656  0.496920  1
  Hf  Hf9  1  0.671420  0.334074  0.496920  1
  Al  Al10  1  0.000000  0.389724  0.250000  1
  Ga  Ga11  1  0.000000  0.000057  0.005695  1
  Ga  Ga12  1  0.000000  0.000057  0.494305  1
  Sb  Sb13  1  0.391219  0.389506  0.750000  1
  Sb  Sb14  1  0.608781  0.998287  0.750000  1
  Sb  Sb15  1  0.000000  0.605580  0.750000  1
  Sb  Sb16  1  0.612598  0.613957  0.250000  1
  Sb  Sb17  1  0.387402  0.001360  0.250000  1
