# generated using pymatgen
data_Ti7(Ir3Pt4)3
_symmetry_space_group_name_H-M   'P 1'
_cell_length_a   5.54465500
_cell_length_b   5.54464615
_cell_length_c   15.80707600
_cell_angle_alpha   89.99976426
_cell_angle_beta   89.99999638
_cell_angle_gamma   120.00009136
_symmetry_Int_Tables_number   1
_chemical_formula_structural   Ti7(Ir3Pt4)3
_chemical_formula_sum   'Ti7 Ir9 Pt12'
_cell_volume   420.85271892
_cell_formula_units_Z   1
loop_
 _symmetry_equiv_pos_site_id
 _symmetry_equiv_pos_as_xyz
  1  'x, y, z'
loop_
 _atom_site_type_symbol
 _atom_site_label
 _atom_site_symmetry_multiplicity
 _atom_site_fract_x
 _atom_site_fract_y
 _atom_site_fract_z
 _atom_site_occupancy
  Ti  Ti0  1  0.333335  0.666670  0.570749  1
  Ti  Ti1  1  0.666666  0.333330  0.429294  1
  Ti  Ti2  1  0.999993  0.000000  0.999979  1
  Ti  Ti3  1  0.999988  0.999985  0.271170  1
  Ti  Ti4  1  0.000003  0.000016  0.728795  1
  Ti  Ti5  1  0.333321  0.666656  0.137449  1
  Ti  Ti6  1  0.666664  0.333344  0.862472  1
  Ir  Ir7  1  0.169377  0.830628  0.859474  1
  Ir  Ir8  1  0.169379  0.338771  0.859473  1
  Ir  Ir9  1  0.661239  0.830630  0.859474  1
  Ir  Ir10  1  0.338817  0.169407  0.140477  1
  Ir  Ir11  1  0.830574  0.661161  0.140477  1
  Ir  Ir12  1  0.830575  0.169406  0.140477  1
  Ir  Ir13  1  0.500013  0.000044  0.999962  1
  Ir  Ir14  1  0.999947  0.499978  0.999962  1
  Ir  Ir15  1  0.500011  0.499979  0.999963  1
  Pt  Pt16  1  0.166752  0.833242  0.428342  1
  Pt  Pt17  1  0.166755  0.333504  0.428342  1
  Pt  Pt18  1  0.666494  0.833245  0.428341  1
  Pt  Pt19  1  0.333461  0.166732  0.571756  1
  Pt  Pt20  1  0.833273  0.666544  0.571756  1
  Pt  Pt21  1  0.833272  0.166730  0.571757  1
  Pt  Pt22  1  0.499834  0.500144  0.284536  1
  Pt  Pt23  1  0.499833  0.999678  0.284535  1
  Pt  Pt24  1  0.000301  0.500142  0.284537  1
  Pt  Pt25  1  0.999695  0.499857  0.715486  1
  Pt  Pt26  1  0.500153  0.000318  0.715486  1
  Pt  Pt27  1  0.500156  0.499861  0.715485  1
