# generated using pymatgen
data_Ba2Tb3Er(Si3O10)2
_symmetry_space_group_name_H-M   'P 1'
_cell_length_a   5.46337075
_cell_length_b   12.36016019
_cell_length_c   6.93461004
_cell_angle_alpha   90.09121449
_cell_angle_beta   106.37732768
_cell_angle_gamma   89.92300446
_symmetry_Int_Tables_number   1
_chemical_formula_structural   Ba2Tb3Er(Si3O10)2
_chemical_formula_sum   'Ba2 Tb3 Er1 Si6 O20'
_cell_volume   449.28031408
_cell_formula_units_Z   1
loop_
 _symmetry_equiv_pos_site_id
 _symmetry_equiv_pos_as_xyz
  1  'x, y, z'
loop_
 _atom_site_type_symbol
 _atom_site_label
 _atom_site_symmetry_multiplicity
 _atom_site_fract_x
 _atom_site_fract_y
 _atom_site_fract_z
 _atom_site_occupancy
  Ba  Ba0  1  0.763295  0.251098  0.015253  1
  Ba  Ba1  1  0.236748  0.749218  0.984702  1
  Tb  Tb2  1  0.843067  0.597655  0.316303  1
  Tb  Tb3  1  0.842746  0.901211  0.315193  1
  Tb  Tb4  1  0.157508  0.099620  0.684940  1
  Er  Er5  1  0.158280  0.400622  0.684099  1
  Si  Si6  1  0.305833  0.062175  0.215208  1
  Si  Si7  1  0.304387  0.438095  0.213296  1
  Si  Si8  1  0.581811  0.251103  0.488065  1
  Si  Si9  1  0.419236  0.749993  0.511952  1
  Si  Si10  1  0.694111  0.560422  0.785419  1
  Si  Si11  1  0.694520  0.938451  0.785387  1
  O  O12  1  0.165211  0.123615  0.005433  1
  O  O13  1  0.163024  0.378775  0.000859  1
  O  O14  1  0.433585  0.554111  0.193513  1
  O  O15  1  0.434379  0.946335  0.191707  1
  O  O16  1  0.548917  0.143265  0.340775  1
  O  O17  1  0.547855  0.356333  0.335259  1
  O  O18  1  0.103565  0.050729  0.352231  1
  O  O19  1  0.105399  0.447672  0.354189  1
  O  O20  1  0.125875  0.749419  0.365505  1
  O  O21  1  0.629720  0.749849  0.385500  1
  O  O22  1  0.371430  0.251701  0.614952  1
  O  O23  1  0.875415  0.252440  0.634520  1
  O  O24  1  0.897291  0.546740  0.649032  1
  O  O25  1  0.896524  0.949999  0.648187  1
  O  O26  1  0.454374  0.643429  0.661295  1
  O  O27  1  0.451365  0.857103  0.660871  1
  O  O28  1  0.565531  0.054324  0.808382  1
  O  O29  1  0.558121  0.446397  0.806984  1
  O  O30  1  0.835593  0.621148  0.996028  1
  O  O31  1  0.835283  0.876952  0.994971  1
