# generated using pymatgen
data_Tb2Sm3P12Pd3Ru16
_symmetry_space_group_name_H-M   'P 1'
_cell_length_a   3.99622700
_cell_length_b   12.64936574
_cell_length_c   12.65279908
_cell_angle_alpha   119.99102931
_cell_angle_beta   90.00000000
_cell_angle_gamma   90.00000000
_symmetry_Int_Tables_number   1
_chemical_formula_structural   Tb2Sm3P12Pd3Ru16
_chemical_formula_sum   'Tb2 Sm3 P12 Pd3 Ru16'
_cell_volume   553.95615711
_cell_formula_units_Z   1
loop_
 _symmetry_equiv_pos_site_id
 _symmetry_equiv_pos_as_xyz
  1  'x, y, z'
loop_
 _atom_site_type_symbol
 _atom_site_label
 _atom_site_symmetry_multiplicity
 _atom_site_fract_x
 _atom_site_fract_y
 _atom_site_fract_z
 _atom_site_occupancy
  Tb  Tb0  1  0.000000  0.333293  0.666627  1
  Tb  Tb1  1  0.000000  0.666666  0.333373  1
  Sm  Sm2  1  0.500000  0.999911  0.181944  1
  Sm  Sm3  1  0.500000  0.181955  0.000000  1
  Sm  Sm4  1  0.500000  0.817967  0.818056  1
  P  P5  1  0.000000  0.000054  0.812277  1
  P  P6  1  0.000000  0.812260  0.000000  1
  P  P7  1  0.000000  0.187776  0.187723  1
  P  P8  1  0.500000  0.300426  0.480442  1
  P  P9  1  0.500000  0.180029  0.699577  1
  P  P10  1  0.500000  0.519507  0.819995  1
  P  P11  1  0.500000  0.819984  0.519558  1
  P  P12  1  0.500000  0.480451  0.300423  1
  P  P13  1  0.500000  0.699514  0.180005  1
  P  P14  1  0.000000  0.000002  0.368014  1
  P  P15  1  0.000000  0.368040  0.000000  1
  P  P16  1  0.000000  0.631987  0.631986  1
  Pd  Pd17  1  0.000000  0.000055  0.553317  1
  Pd  Pd18  1  0.000000  0.553443  0.000000  1
  Pd  Pd19  1  0.000000  0.446738  0.446683  1
  Ru  Ru20  1  0.500000  0.000043  0.710935  1
  Ru  Ru21  1  0.500000  0.710853  0.000000  1
  Ru  Ru22  1  0.500000  0.289108  0.289065  1
  Ru  Ru23  1  0.000000  0.194149  0.380450  1
  Ru  Ru24  1  0.000000  0.186262  0.805789  1
  Ru  Ru25  1  0.000000  0.619490  0.813697  1
  Ru  Ru26  1  0.000000  0.813699  0.619550  1
  Ru  Ru27  1  0.000000  0.380474  0.194211  1
  Ru  Ru28  1  0.000000  0.805793  0.186303  1
  Ru  Ru29  1  0.500000  0.123725  0.493346  1
  Ru  Ru30  1  0.500000  0.369573  0.876101  1
  Ru  Ru31  1  0.500000  0.506574  0.630315  1
  Ru  Ru32  1  0.500000  0.630379  0.506654  1
  Ru  Ru33  1  0.500000  0.493472  0.123899  1
  Ru  Ru34  1  0.500000  0.876259  0.369685  1
  Ru  Ru35  1  0.000000  0.999991  0.000000  1
