# generated using pymatgen
data_La3MgCdSb3O14
_symmetry_space_group_name_H-M   'P 1'
_cell_length_a   7.44864070
_cell_length_b   7.44865038
_cell_length_c   7.44860217
_cell_angle_alpha   118.48321539
_cell_angle_beta   61.51687220
_cell_angle_gamma   118.48354948
_symmetry_Int_Tables_number   1
_chemical_formula_structural   La3MgCdSb3O14
_chemical_formula_sum   'La3 Mg1 Cd1 Sb3 O14'
_cell_volume   302.17088372
_cell_formula_units_Z   1
loop_
 _symmetry_equiv_pos_site_id
 _symmetry_equiv_pos_as_xyz
  1  'x, y, z'
loop_
 _atom_site_type_symbol
 _atom_site_label
 _atom_site_symmetry_multiplicity
 _atom_site_fract_x
 _atom_site_fract_y
 _atom_site_fract_z
 _atom_site_occupancy
  La  La0  1  0.999964  0.500059  0.999972  1
  La  La1  1  0.499995  0.999837  0.000019  1
  La  La2  1  0.499913  0.500163  0.499742  1
  Mg  Mg3  1  0.999951  0.000265  0.500034  1
  Cd  Cd4  1  0.500030  0.498716  0.998507  1
  Sb  Sb5  1  0.499986  0.000014  0.500044  1
  Sb  Sb6  1  0.000025  0.500161  0.500069  1
  Sb  Sb7  1  0.999969  0.000043  0.000125  1
  O  O8  1  0.619653  0.380217  0.119503  1
  O  O9  1  0.380225  0.619645  0.880084  1
  O  O10  1  0.075411  0.319653  0.180531  1
  O  O11  1  0.680449  0.924834  0.180566  1
  O  O12  1  0.680381  0.319693  0.575715  1
  O  O13  1  0.924926  0.680499  0.819679  1
  O  O14  1  0.319609  0.075320  0.819716  1
  O  O15  1  0.319534  0.680541  0.425219  1
  O  O16  1  0.655349  0.915445  0.584753  1
  O  O17  1  0.084588  0.344728  0.584708  1
  O  O18  1  0.084673  0.915389  0.155407  1
  O  O19  1  0.344657  0.084716  0.415472  1
  O  O20  1  0.915310  0.655412  0.415426  1
  O  O21  1  0.915404  0.084652  0.844709  1
