# generated using pymatgen
data_Er11Tm(CoNi)2
_symmetry_space_group_name_H-M   'P 1'
_cell_length_a   6.21117504
_cell_length_b   6.81303558
_cell_length_c   9.33781201
_cell_angle_alpha   90.00023353
_cell_angle_beta   90.00516609
_cell_angle_gamma   89.88735851
_symmetry_Int_Tables_number   1
_chemical_formula_structural   Er11Tm(CoNi)2
_chemical_formula_sum   'Er11 Tm1 Co2 Ni2'
_cell_volume   395.14701959
_cell_formula_units_Z   1
loop_
 _symmetry_equiv_pos_site_id
 _symmetry_equiv_pos_as_xyz
  1  'x, y, z'
loop_
 _atom_site_type_symbol
 _atom_site_label
 _atom_site_symmetry_multiplicity
 _atom_site_fract_x
 _atom_site_fract_y
 _atom_site_fract_z
 _atom_site_occupancy
  Er  Er0  1  0.634519  0.040637  0.250021  1
  Er  Er1  1  0.365532  0.959376  0.749989  1
  Er  Er2  1  0.140803  0.463964  0.749977  1
  Er  Er3  1  0.859180  0.536011  0.250018  1
  Er  Er4  1  0.179255  0.181712  0.066961  1
  Er  Er5  1  0.820741  0.818288  0.933040  1
  Er  Er6  1  0.676174  0.322101  0.934553  1
  Er  Er7  1  0.820719  0.818279  0.566965  1
  Er  Er8  1  0.323813  0.677906  0.065402  1
  Er  Er9  1  0.179274  0.181725  0.433060  1
  Er  Er10  1  0.323824  0.677886  0.434600  1
  Tm  Tm11  1  0.676187  0.322087  0.565440  1
  Co  Co12  1  0.452776  0.391196  0.250019  1
  Co  Co13  1  0.547235  0.608787  0.749982  1
  Ni  Ni14  1  0.951583  0.108455  0.749977  1
  Ni  Ni15  1  0.048385  0.891588  0.249997  1
