# generated using pymatgen
data_NdDyIr2O7
_symmetry_space_group_name_H-M   'P 1'
_cell_length_a   7.31925696
_cell_length_b   7.31925775
_cell_length_c   7.28519000
_cell_angle_alpha   60.15385174
_cell_angle_beta   60.15384821
_cell_angle_gamma   60.28676163
_symmetry_Int_Tables_number   1
_chemical_formula_structural   NdDyIr2O7
_chemical_formula_sum   'Nd2 Dy2 Ir4 O14'
_cell_volume   277.20604088
_cell_formula_units_Z   2
loop_
 _symmetry_equiv_pos_site_id
 _symmetry_equiv_pos_as_xyz
  1  'x, y, z'
loop_
 _atom_site_type_symbol
 _atom_site_label
 _atom_site_symmetry_multiplicity
 _atom_site_fract_x
 _atom_site_fract_y
 _atom_site_fract_z
 _atom_site_occupancy
  Nd  Nd0  1  0.625000  0.125000  0.125000  1
  Nd  Nd1  1  0.125000  0.625000  0.125000  1
  Dy  Dy2  1  0.125000  0.125000  0.625000  1
  Dy  Dy3  1  0.125000  0.125000  0.125000  1
  Ir  Ir4  1  0.125000  0.625000  0.625000  1
  Ir  Ir5  1  0.625000  0.125000  0.625000  1
  Ir  Ir6  1  0.625000  0.625000  0.125000  1
  Ir  Ir7  1  0.625000  0.625000  0.625000  1
  O  O8  1  0.709429  0.709429  0.290571  1
  O  O9  1  0.289892  0.289892  0.710108  1
  O  O10  1  0.717199  0.289394  0.702586  1
  O  O11  1  0.289394  0.717199  0.290821  1
  O  O12  1  0.289394  0.717199  0.702586  1
  O  O13  1  0.717199  0.289394  0.290821  1
  O  O14  1  0.540571  0.540571  0.959429  1
  O  O15  1  0.960108  0.960108  0.539892  1
  O  O16  1  0.532801  0.960606  0.547414  1
  O  O17  1  0.960606  0.532801  0.959179  1
  O  O18  1  0.960606  0.532801  0.547414  1
  O  O19  1  0.532801  0.960606  0.959179  1
  O  O20  1  0.242882  0.242882  0.257118  1
  O  O21  1  0.007118  0.007118  0.992882  1
