# generated using pymatgen
data_Gd10Co4OsAu
_symmetry_space_group_name_H-M   'P 1'
_cell_length_a   8.93839092
_cell_length_b   8.93839090
_cell_length_c   8.93839000
_cell_angle_alpha   131.39618916
_cell_angle_beta   131.39618054
_cell_angle_gamma   71.18437871
_symmetry_Int_Tables_number   1
_chemical_formula_structural   Gd10Co4OsAu
_chemical_formula_sum   'Gd10 Co4 Os1 Au1'
_cell_volume   393.42210443
_cell_formula_units_Z   1
loop_
 _symmetry_equiv_pos_site_id
 _symmetry_equiv_pos_as_xyz
  1  'x, y, z'
loop_
 _atom_site_type_symbol
 _atom_site_label
 _atom_site_symmetry_multiplicity
 _atom_site_fract_x
 _atom_site_fract_y
 _atom_site_fract_z
 _atom_site_occupancy
  Gd  Gd0  1  0.697364  0.551430  0.526426  1
  Gd  Gd1  1  0.474997  0.948570  0.145934  1
  Gd  Gd2  1  0.802636  0.329063  0.854066  1
  Gd  Gd3  1  0.551430  0.025003  0.854066  1
  Gd  Gd4  1  0.011785  0.011785  0.000000  1
  Gd  Gd5  1  0.025003  0.170937  0.473574  1
  Gd  Gd6  1  0.329063  0.474997  0.526426  1
  Gd  Gd7  1  0.170937  0.697364  0.145934  1
  Gd  Gd8  1  0.948570  0.802636  0.473574  1
  Gd  Gd9  1  0.488215  0.488215  0.000000  1
  Co  Co10  1  0.110169  0.610169  0.720337  1
  Co  Co11  1  0.889831  0.389831  0.279663  1
  Co  Co12  1  0.610169  0.889831  0.500000  1
  Co  Co13  1  0.389831  0.110169  0.500000  1
  Os  Os14  1  0.750000  0.750000  0.000000  1
  Au  Au15  1  0.250000  0.250000  0.000000  1
