# generated using pymatgen
data_Tm5Ga2Te
_symmetry_space_group_name_H-M   'P 1'
_cell_length_a   8.59002410
_cell_length_b   8.58770825
_cell_length_c   6.35929100
_cell_angle_alpha   90.00000000
_cell_angle_beta   90.00000000
_cell_angle_gamma   119.99108890
_symmetry_Int_Tables_number   1
_chemical_formula_structural   Tm5Ga2Te
_chemical_formula_sum   'Tm10 Ga4 Te2'
_cell_volume   406.30295855
_cell_formula_units_Z   2
loop_
 _symmetry_equiv_pos_site_id
 _symmetry_equiv_pos_as_xyz
  1  'x, y, z'
loop_
 _atom_site_type_symbol
 _atom_site_label
 _atom_site_symmetry_multiplicity
 _atom_site_fract_x
 _atom_site_fract_y
 _atom_site_fract_z
 _atom_site_occupancy
  Tm  Tm0  1  0.677135  0.342706  0.008491  1
  Tm  Tm1  1  0.322865  0.665573  0.008491  1
  Tm  Tm2  1  0.322865  0.665573  0.491509  1
  Tm  Tm3  1  0.677135  0.342706  0.491509  1
  Tm  Tm4  1  0.772731  0.757301  0.750000  1
  Tm  Tm5  1  0.227269  0.984571  0.750000  1
  Tm  Tm6  1  0.000000  0.246437  0.750000  1
  Tm  Tm7  1  0.237770  0.237973  0.250000  1
  Tm  Tm8  1  0.762230  0.000204  0.250000  1
  Tm  Tm9  1  0.000000  0.760551  0.250000  1
  Ga  Ga10  1  0.000000  0.599450  0.750000  1
  Ga  Ga11  1  0.602822  0.607173  0.250000  1
  Ga  Ga12  1  0.397178  0.004351  0.250000  1
  Ga  Ga13  1  0.000000  0.394016  0.250000  1
  Te  Te14  1  0.394863  0.393139  0.750000  1
  Te  Te15  1  0.605137  0.998276  0.750000  1
