# generated using pymatgen
data_Ho9Tm3Th4(CoHg)4
_symmetry_space_group_name_H-M   'P 1'
_cell_length_a   9.53796830
_cell_length_b   9.53412738
_cell_length_c   9.53626968
_cell_angle_alpha   59.88376835
_cell_angle_beta   59.88860042
_cell_angle_gamma   59.85965687
_symmetry_Int_Tables_number   1
_chemical_formula_structural   Ho9Tm3Th4(CoHg)4
_chemical_formula_sum   'Ho9 Tm3 Th4 Co4 Hg4'
_cell_volume   611.49078273
_cell_formula_units_Z   1
loop_
 _symmetry_equiv_pos_site_id
 _symmetry_equiv_pos_as_xyz
  1  'x, y, z'
loop_
 _atom_site_type_symbol
 _atom_site_label
 _atom_site_symmetry_multiplicity
 _atom_site_fract_x
 _atom_site_fract_y
 _atom_site_fract_z
 _atom_site_occupancy
  Ho  Ho0  1  0.814304  0.185813  0.814393  1
  Ho  Ho1  1  0.187052  0.186213  0.813543  1
  Ho  Ho2  1  0.814929  0.814488  0.185711  1
  Ho  Ho3  1  0.938563  0.563835  0.563218  1
  Ho  Ho4  1  0.562610  0.937157  0.937451  1
  Ho  Ho5  1  0.563578  0.938286  0.563674  1
  Ho  Ho6  1  0.937120  0.563087  0.937062  1
  Ho  Ho7  1  0.563363  0.564049  0.938399  1
  Ho  Ho8  1  0.937191  0.936776  0.562952  1
  Tm  Tm9  1  0.812641  0.187016  0.187893  1
  Tm  Tm10  1  0.186666  0.813555  0.814107  1
  Tm  Tm11  1  0.187042  0.812833  0.187053  1
  Th  Th12  1  0.347117  0.346767  0.345869  1
  Th  Th13  1  0.347207  0.348159  0.958335  1
  Th  Th14  1  0.346893  0.958287  0.348030  1
  Th  Th15  1  0.958227  0.347213  0.347368  1
  Co  Co16  1  0.143626  0.144296  0.145041  1
  Co  Co17  1  0.144162  0.143381  0.565684  1
  Co  Co18  1  0.144606  0.566460  0.143199  1
  Co  Co19  1  0.565941  0.144676  0.144098  1
  Hg  Hg20  1  0.585471  0.585748  0.585695  1
  Hg  Hg21  1  0.585148  0.585289  0.241142  1
  Hg  Hg22  1  0.585308  0.241191  0.585036  1
  Hg  Hg23  1  0.241238  0.585428  0.585044  1
