# generated using pymatgen
data_Sr2NdPaH12
_symmetry_space_group_name_H-M   'P 1'
_cell_length_a   6.93375700
_cell_length_b   7.08332000
_cell_length_c   6.93375700
_cell_angle_alpha   90.00000000
_cell_angle_beta   90.00000000
_cell_angle_gamma   90.00000000
_symmetry_Int_Tables_number   1
_chemical_formula_structural   Sr2NdPaH12
_chemical_formula_sum   'Sr4 Nd2 Pa2 H24'
_cell_volume   340.54467743
_cell_formula_units_Z   2
loop_
 _symmetry_equiv_pos_site_id
 _symmetry_equiv_pos_as_xyz
  1  'x, y, z'
loop_
 _atom_site_type_symbol
 _atom_site_label
 _atom_site_symmetry_multiplicity
 _atom_site_fract_x
 _atom_site_fract_y
 _atom_site_fract_z
 _atom_site_occupancy
  Sr  Sr0  1  0.248901  0.000000  0.500000  1
  Sr  Sr1  1  0.751099  0.000000  0.500000  1
  Sr  Sr2  1  0.000000  0.500000  0.251099  1
  Sr  Sr3  1  0.000000  0.500000  0.748901  1
  Nd  Nd4  1  0.500000  0.750000  0.000000  1
  Nd  Nd5  1  0.500000  0.250000  0.000000  1
  Pa  Pa6  1  0.000000  0.000000  0.000000  1
  Pa  Pa7  1  0.500000  0.500000  0.500000  1
  H  H8  1  0.000000  0.146606  0.276252  1
  H  H9  1  0.500000  0.227806  0.657234  1
  H  H10  1  0.500000  0.772194  0.342766  1
  H  H11  1  0.776252  0.646606  0.500000  1
  H  H12  1  0.223748  0.646606  0.500000  1
  H  H13  1  0.357185  0.500000  0.798148  1
  H  H14  1  0.642815  0.500000  0.798148  1
  H  H15  1  0.298148  0.000000  0.142815  1
  H  H16  1  0.157234  0.272194  0.000000  1
  H  H17  1  0.842766  0.727806  0.000000  1
  H  H18  1  0.298148  0.000000  0.857185  1
  H  H19  1  0.842766  0.272194  0.000000  1
  H  H20  1  0.701852  0.000000  0.142815  1
  H  H21  1  0.701852  0.000000  0.857185  1
  H  H22  1  0.157234  0.727806  0.000000  1
  H  H23  1  0.000000  0.853394  0.723748  1
  H  H24  1  0.000000  0.146606  0.723748  1
  H  H25  1  0.000000  0.853394  0.276252  1
  H  H26  1  0.642815  0.500000  0.201852  1
  H  H27  1  0.357185  0.500000  0.201852  1
  H  H28  1  0.776252  0.353394  0.500000  1
  H  H29  1  0.223748  0.353394  0.500000  1
  H  H30  1  0.500000  0.772194  0.657234  1
  H  H31  1  0.500000  0.227806  0.342766  1
