# generated using pymatgen
data_Y20Ir2Os3Pd7
_symmetry_space_group_name_H-M   'P 1'
_cell_length_a   11.11415851
_cell_length_b   11.11207256
_cell_length_c   6.39234821
_cell_angle_alpha   89.91199592
_cell_angle_beta   89.92735359
_cell_angle_gamma   90.22955013
_symmetry_Int_Tables_number   1
_chemical_formula_structural   Y20Ir2Os3Pd7
_chemical_formula_sum   'Y20 Ir2 Os3 Pd7'
_cell_volume   789.45563480
_cell_formula_units_Z   1
loop_
 _symmetry_equiv_pos_site_id
 _symmetry_equiv_pos_as_xyz
  1  'x, y, z'
loop_
 _atom_site_type_symbol
 _atom_site_label
 _atom_site_symmetry_multiplicity
 _atom_site_fract_x
 _atom_site_fract_y
 _atom_site_fract_z
 _atom_site_occupancy
  Y  Y0  1  0.298265  0.083697  0.369171  1
  Y  Y1  1  0.298459  0.909511  0.869958  1
  Y  Y2  1  0.701187  0.083990  0.869165  1
  Y  Y3  1  0.701311  0.914427  0.368198  1
  Y  Y4  1  0.580252  0.795565  0.868070  1
  Y  Y5  1  0.585022  0.202587  0.370390  1
  Y  Y6  1  0.412710  0.794554  0.376034  1
  Y  Y7  1  0.414647  0.200203  0.869768  1
  Y  Y8  1  0.206482  0.418948  0.634828  1
  Y  Y9  1  0.206417  0.588449  0.122937  1
  Y  Y10  1  0.796424  0.414064  0.127879  1
  Y  Y11  1  0.797949  0.586590  0.632474  1
  Y  Y12  1  0.915285  0.702613  0.129258  1
  Y  Y13  1  0.914529  0.297059  0.633299  1
  Y  Y14  1  0.092157  0.703191  0.632141  1
  Y  Y15  1  0.086486  0.297857  0.130537  1
  Y  Y16  1  0.999510  0.000375  0.499618  1
  Y  Y17  1  0.999688  0.000645  0.998329  1
  Y  Y18  1  0.496461  0.501755  0.998159  1
  Y  Y19  1  0.498283  0.503418  0.499517  1
  Ir  Ir20  1  0.347127  0.651398  0.749689  1
  Ir  Ir21  1  0.999784  0.499737  0.378619  1
  Os  Os22  1  0.500057  0.999903  0.124383  1
  Os  Os23  1  0.500092  0.000279  0.622381  1
  Os  Os24  1  0.999513  0.499884  0.877837  1
  Pd  Pd25  1  0.846802  0.154510  0.249648  1
  Pd  Pd26  1  0.845685  0.845833  0.750630  1
  Pd  Pd27  1  0.153581  0.155132  0.748870  1
  Pd  Pd28  1  0.152132  0.846777  0.249504  1
  Pd  Pd29  1  0.653216  0.347556  0.749612  1
  Pd  Pd30  1  0.655781  0.653923  0.249232  1
  Pd  Pd31  1  0.344708  0.345568  0.249869  1
