# generated using pymatgen
data_CsCoPtSe4
_symmetry_space_group_name_H-M   'P 1'
_cell_length_a   6.43746900
_cell_length_b   7.40802300
_cell_length_c   16.85524500
_cell_angle_alpha   90.00000000
_cell_angle_beta   90.00000000
_cell_angle_gamma   90.00000000
_symmetry_Int_Tables_number   1
_chemical_formula_structural   CsCoPtSe4
_chemical_formula_sum   'Cs4 Co4 Pt4 Se16'
_cell_volume   803.80840365
_cell_formula_units_Z   4
loop_
 _symmetry_equiv_pos_site_id
 _symmetry_equiv_pos_as_xyz
  1  'x, y, z'
loop_
 _atom_site_type_symbol
 _atom_site_label
 _atom_site_symmetry_multiplicity
 _atom_site_fract_x
 _atom_site_fract_y
 _atom_site_fract_z
 _atom_site_occupancy
  Cs  Cs0  1  0.366319  0.000000  0.000000  1
  Cs  Cs1  1  0.633681  0.500000  0.500000  1
  Cs  Cs2  1  0.025640  0.000000  0.500000  1
  Cs  Cs3  1  0.974360  0.500000  0.000000  1
  Co  Co4  1  0.001994  0.000000  0.251306  1
  Co  Co5  1  0.001994  0.000000  0.748694  1
  Co  Co6  1  0.998006  0.500000  0.248694  1
  Co  Co7  1  0.998006  0.500000  0.751306  1
  Pt  Pt8  1  0.500000  0.250000  0.250000  1
  Pt  Pt9  1  0.500000  0.750000  0.750000  1
  Pt  Pt10  1  0.500000  0.750000  0.250000  1
  Pt  Pt11  1  0.500000  0.250000  0.750000  1
  Se  Se12  1  0.846689  0.251830  0.323457  1
  Se  Se13  1  0.846689  0.748170  0.676543  1
  Se  Se14  1  0.153311  0.751830  0.176543  1
  Se  Se15  1  0.153311  0.248170  0.823457  1
  Se  Se16  1  0.153311  0.248170  0.176543  1
  Se  Se17  1  0.153311  0.751830  0.823457  1
  Se  Se18  1  0.846689  0.748170  0.323457  1
  Se  Se19  1  0.846689  0.251830  0.676543  1
  Se  Se20  1  0.687894  0.000000  0.176151  1
  Se  Se21  1  0.687894  0.000000  0.823849  1
  Se  Se22  1  0.312106  0.500000  0.323849  1
  Se  Se23  1  0.312106  0.500000  0.676151  1
  Se  Se24  1  0.322750  0.000000  0.324611  1
  Se  Se25  1  0.322750  0.000000  0.675389  1
  Se  Se26  1  0.677250  0.500000  0.175389  1
  Se  Se27  1  0.677250  0.500000  0.824611  1
