# generated using pymatgen
data_Li8Tb3Nd5SnBi7
_symmetry_space_group_name_H-M   'P 1'
_cell_length_a   9.84025900
_cell_length_b   9.84025988
_cell_length_c   7.24147600
_cell_angle_alpha   90.00000000
_cell_angle_beta   90.00000000
_cell_angle_gamma   120.00000041
_symmetry_Int_Tables_number   1
_chemical_formula_structural   Li8Tb3Nd5SnBi7
_chemical_formula_sum   'Li8 Tb3 Nd5 Sn1 Bi7'
_cell_volume   607.25461381
_cell_formula_units_Z   1
loop_
 _symmetry_equiv_pos_site_id
 _symmetry_equiv_pos_as_xyz
  1  'x, y, z'
loop_
 _atom_site_type_symbol
 _atom_site_label
 _atom_site_symmetry_multiplicity
 _atom_site_fract_x
 _atom_site_fract_y
 _atom_site_fract_z
 _atom_site_occupancy
  Li  Li0  1  0.168064  0.336128  0.278750  1
  Li  Li1  1  0.168064  0.831936  0.278750  1
  Li  Li2  1  0.663872  0.831936  0.278750  1
  Li  Li3  1  0.830785  0.661570  0.771783  1
  Li  Li4  1  0.830785  0.169215  0.771783  1
  Li  Li5  1  0.338430  0.169215  0.771783  1
  Li  Li6  1  0.333333  0.666667  0.681762  1
  Li  Li7  1  0.666667  0.333333  0.187271  1
  Tb  Tb8  1  0.512005  0.024013  0.497080  1
  Tb  Tb9  1  0.512005  0.487995  0.497080  1
  Tb  Tb10  1  0.975987  0.487995  0.497080  1
  Nd  Nd11  1  0.494041  0.988082  0.992568  1
  Nd  Nd12  1  0.494041  0.505959  0.992568  1
  Nd  Nd13  1  0.011918  0.505959  0.992568  1
  Nd  Nd14  1  0.000000  0.000000  0.502493  1
  Nd  Nd15  1  0.000000  0.000000  0.001702  1
  Sn  Sn16  1  0.666667  0.333333  0.752484  1
  Bi  Bi17  1  0.167910  0.335821  0.732498  1
  Bi  Bi18  1  0.167910  0.832090  0.732498  1
  Bi  Bi19  1  0.664179  0.832090  0.732498  1
  Bi  Bi20  1  0.832258  0.664516  0.243802  1
  Bi  Bi21  1  0.832258  0.167742  0.243802  1
  Bi  Bi22  1  0.335484  0.167742  0.243802  1
  Bi  Bi23  1  0.333333  0.666667  0.266823  1
