# generated using pymatgen
data_Tb2ErNi6B2Ir
_symmetry_space_group_name_H-M   'P 1'
_cell_length_a   5.09925474
_cell_length_b   5.09925519
_cell_length_c   14.55126900
_cell_angle_alpha   89.99558960
_cell_angle_beta   90.00441213
_cell_angle_gamma   120.07204859
_symmetry_Int_Tables_number   1
_chemical_formula_structural   Tb2ErNi6B2Ir
_chemical_formula_sum   'Tb4 Er2 Ni12 B4 Ir2'
_cell_volume   327.43808712
_cell_formula_units_Z   2
loop_
 _symmetry_equiv_pos_site_id
 _symmetry_equiv_pos_as_xyz
  1  'x, y, z'
loop_
 _atom_site_type_symbol
 _atom_site_label
 _atom_site_symmetry_multiplicity
 _atom_site_fract_x
 _atom_site_fract_y
 _atom_site_fract_z
 _atom_site_occupancy
  Tb  Tb0  1  0.333418  0.666582  0.970388  1
  Tb  Tb1  1  0.333384  0.666616  0.530321  1
  Tb  Tb2  1  0.666652  0.333348  0.468558  1
  Tb  Tb3  1  0.333464  0.666536  0.750394  1
  Er  Er4  1  0.666534  0.333466  0.030829  1
  Er  Er5  1  0.666598  0.333402  0.249156  1
  Ni  Ni6  1  0.834683  0.669268  0.652556  1
  Ni  Ni7  1  0.834773  0.165227  0.652494  1
  Ni  Ni8  1  0.330732  0.165317  0.652556  1
  Ni  Ni9  1  0.165476  0.330426  0.346712  1
  Ni  Ni10  1  0.165125  0.834875  0.346838  1
  Ni  Ni11  1  0.669574  0.834524  0.346712  1
  Ni  Ni12  1  0.164637  0.330643  0.152403  1
  Ni  Ni13  1  0.164980  0.835020  0.152277  1
  Ni  Ni14  1  0.669357  0.835363  0.152403  1
  Ni  Ni15  1  0.834565  0.668581  0.848281  1
  Ni  Ni16  1  0.834706  0.165294  0.848411  1
  Ni  Ni17  1  0.331419  0.165435  0.848281  1
  B  B18  1  0.666854  0.333146  0.750211  1
  B  B19  1  0.333055  0.666945  0.249716  1
  B  B20  1  0.000103  0.999897  0.750566  1
  B  B21  1  0.999944  0.000056  0.249666  1
  Ir  Ir22  1  0.999980  0.000020  0.499745  1
  Ir  Ir23  1  0.999984  0.000016  0.000524  1
