# generated using pymatgen
data_V12Zn2Ga5FeN4
_symmetry_space_group_name_H-M   'P 1'
_cell_length_a   6.57142897
_cell_length_b   6.57280143
_cell_length_c   6.57386288
_cell_angle_alpha   90.12092861
_cell_angle_beta   89.96266935
_cell_angle_gamma   89.86877692
_symmetry_Int_Tables_number   1
_chemical_formula_structural   V12Zn2Ga5FeN4
_chemical_formula_sum   'V12 Zn2 Ga5 Fe1 N4'
_cell_volume   283.94143402
_cell_formula_units_Z   1
loop_
 _symmetry_equiv_pos_site_id
 _symmetry_equiv_pos_as_xyz
  1  'x, y, z'
loop_
 _atom_site_type_symbol
 _atom_site_label
 _atom_site_symmetry_multiplicity
 _atom_site_fract_x
 _atom_site_fract_y
 _atom_site_fract_z
 _atom_site_occupancy
  V  V0  1  0.784510  0.961771  0.377846  1
  V  V1  1  0.704635  0.037520  0.870663  1
  V  V2  1  0.211545  0.458701  0.122839  1
  V  V3  1  0.291742  0.545378  0.625700  1
  V  V4  1  0.958237  0.376067  0.790136  1
  V  V5  1  0.045358  0.875494  0.708467  1
  V  V6  1  0.461846  0.123582  0.215132  1
  V  V7  1  0.536478  0.629036  0.293797  1
  V  V8  1  0.377036  0.789767  0.953842  1
  V  V9  1  0.873902  0.709679  0.040425  1
  V  V10  1  0.130337  0.204789  0.463854  1
  V  V11  1  0.621895  0.285148  0.539653  1
  Zn  Zn12  1  0.931529  0.571457  0.430434  1
  Zn  Zn13  1  0.070419  0.068413  0.070418  1
  Ga  Ga14  1  0.183022  0.823359  0.324831  1
  Ga  Ga15  1  0.319636  0.170957  0.816054  1
  Ga  Ga16  1  0.825910  0.320717  0.182753  1
  Ga  Ga17  1  0.675750  0.687244  0.672539  1
  Ga  Ga18  1  0.571061  0.429281  0.928429  1
  Fe  Fe19  1  0.427730  0.928733  0.569903  1
  N  N20  1  0.875490  0.124863  0.626688  1
  N  N21  1  0.624484  0.874478  0.125380  1
  N  N22  1  0.125249  0.627580  0.873847  1
  N  N23  1  0.372202  0.375985  0.376369  1
