# generated using pymatgen
data_Ca2Nd2Ta3FeO14
_symmetry_space_group_name_H-M   'P 1'
_cell_length_a   7.40466600
_cell_length_b   7.46757278
_cell_length_c   12.84031798
_cell_angle_alpha   55.02231529
_cell_angle_beta   90.00000000
_cell_angle_gamma   90.00000000
_symmetry_Int_Tables_number   1
_chemical_formula_structural   Ca2Nd2Ta3FeO14
_chemical_formula_sum   'Ca4 Nd4 Ta6 Fe2 O28'
_cell_volume   581.75968918
_cell_formula_units_Z   2
loop_
 _symmetry_equiv_pos_site_id
 _symmetry_equiv_pos_as_xyz
  1  'x, y, z'
loop_
 _atom_site_type_symbol
 _atom_site_label
 _atom_site_symmetry_multiplicity
 _atom_site_fract_x
 _atom_site_fract_y
 _atom_site_fract_z
 _atom_site_occupancy
  Ca  Ca0  1  0.500000  0.500000  0.500000  1
  Ca  Ca1  1  0.741722  0.500000  0.250000  1
  Ca  Ca2  1  0.258278  0.500000  0.750000  1
  Ca  Ca3  1  0.500000  0.500000  0.000000  1
  Nd  Nd4  1  0.256402  0.000000  0.750000  1
  Nd  Nd5  1  0.743598  0.000000  0.250000  1
  Nd  Nd6  1  0.000000  0.500000  0.500000  1
  Nd  Nd7  1  0.000000  0.500000  0.000000  1
  Ta  Ta8  1  0.500000  0.000000  0.000000  1
  Ta  Ta9  1  0.500000  0.000000  0.500000  1
  Ta  Ta10  1  0.761963  0.500000  0.750000  1
  Ta  Ta11  1  0.762564  0.000000  0.750000  1
  Ta  Ta12  1  0.238037  0.500000  0.250000  1
  Ta  Ta13  1  0.237436  0.000000  0.250000  1
  Fe  Fe14  1  0.000000  0.000000  0.000000  1
  Fe  Fe15  1  0.000000  0.000000  0.500000  1
  O  O16  1  0.440776  0.318088  0.374553  1
  O  O17  1  0.754749  0.318847  0.679568  1
  O  O18  1  0.745460  0.624164  0.375773  1
  O  O19  1  0.746491  0.931377  0.073675  1
  O  O20  1  0.952794  0.920717  0.874364  1
  O  O21  1  0.947682  0.327358  0.876407  1
  O  O22  1  0.952794  0.079283  0.625636  1
  O  O23  1  0.052318  0.327358  0.376407  1
  O  O24  1  0.245251  0.318847  0.179568  1
  O  O25  1  0.253509  0.068623  0.926325  1
  O  O26  1  0.254540  0.624164  0.875773  1
  O  O27  1  0.245251  0.681153  0.320432  1
  O  O28  1  0.253509  0.931377  0.573675  1
  O  O29  1  0.442647  0.932258  0.372627  1
  O  O30  1  0.440776  0.681912  0.125447  1
  O  O31  1  0.442647  0.067742  0.127373  1
  O  O32  1  0.557353  0.067742  0.627373  1
  O  O33  1  0.557353  0.932258  0.872627  1
  O  O34  1  0.559224  0.318088  0.874553  1
  O  O35  1  0.746491  0.068623  0.426325  1
  O  O36  1  0.754749  0.681153  0.820432  1
  O  O37  1  0.745460  0.375836  0.124227  1
  O  O38  1  0.947682  0.672642  0.623593  1
  O  O39  1  0.047206  0.920717  0.374364  1
  O  O40  1  0.052318  0.672642  0.123593  1
  O  O41  1  0.047206  0.079283  0.125636  1
  O  O42  1  0.254540  0.375836  0.624227  1
  O  O43  1  0.559224  0.681912  0.625447  1
