# generated using pymatgen
data_Ho4Er2CrB14W
_symmetry_space_group_name_H-M   'P 1'
_cell_length_a   8.09402279
_cell_length_b   8.09402289
_cell_length_c   9.38299166
_cell_angle_alpha   89.95792258
_cell_angle_beta   90.04207685
_cell_angle_gamma   155.51267692
_symmetry_Int_Tables_number   1
_chemical_formula_structural   Ho4Er2CrB14W
_chemical_formula_sum   'Ho4 Er2 Cr1 B14 W1'
_cell_volume   254.79218720
_cell_formula_units_Z   1
loop_
 _symmetry_equiv_pos_site_id
 _symmetry_equiv_pos_as_xyz
  1  'x, y, z'
loop_
 _atom_site_type_symbol
 _atom_site_label
 _atom_site_symmetry_multiplicity
 _atom_site_fract_x
 _atom_site_fract_y
 _atom_site_fract_z
 _atom_site_occupancy
  Ho  Ho0  1  0.894232  0.105768  0.435587  1
  Ho  Ho1  1  0.106887  0.893113  0.556015  1
  Ho  Ho2  1  0.894185  0.105815  0.064297  1
  Ho  Ho3  1  0.754609  0.245391  0.749976  1
  Er  Er4  1  0.106607  0.893393  0.944626  1
  Er  Er5  1  0.240360  0.759640  0.250096  1
  Cr  Cr6  1  0.053161  0.946839  0.249786  1
  B  B7  1  0.727379  0.272621  0.464909  1
  B  B8  1  0.272147  0.727853  0.530702  1
  B  B9  1  0.727039  0.272961  0.034690  1
  B  B10  1  0.271778  0.728222  0.969194  1
  B  B11  1  0.631038  0.368962  0.151903  1
  B  B12  1  0.365005  0.634995  0.853972  1
  B  B13  1  0.631062  0.368938  0.347531  1
  B  B14  1  0.365066  0.634934  0.646055  1
  B  B15  1  0.521774  0.478226  0.096851  1
  B  B16  1  0.481251  0.518749  0.910109  1
  B  B17  1  0.521706  0.478294  0.402828  1
  B  B18  1  0.481088  0.518912  0.590314  1
  B  B19  1  0.459857  0.540143  0.249837  1
  B  B20  1  0.546397  0.453603  0.750526  1
  W  W21  1  0.947373  0.052627  0.750194  1
