# generated using pymatgen
data_Li4Tb16Si15Ge
_symmetry_space_group_name_H-M   'P 1'
_cell_length_a   7.05625600
_cell_length_b   7.65809865
_cell_length_c   14.62004500
_cell_angle_alpha   90.02082912
_cell_angle_beta   90.06100449
_cell_angle_gamma   89.98868043
_symmetry_Int_Tables_number   1
_chemical_formula_structural   Li4Tb16Si15Ge
_chemical_formula_sum   'Li4 Tb16 Si15 Ge1'
_cell_volume   790.03023327
_cell_formula_units_Z   1
loop_
 _symmetry_equiv_pos_site_id
 _symmetry_equiv_pos_as_xyz
  1  'x, y, z'
loop_
 _atom_site_type_symbol
 _atom_site_label
 _atom_site_symmetry_multiplicity
 _atom_site_fract_x
 _atom_site_fract_y
 _atom_site_fract_z
 _atom_site_occupancy
  Li  Li0  1  0.159694  0.525775  0.749897  1
  Li  Li1  1  0.840206  0.474239  0.250326  1
  Li  Li2  1  0.340513  0.025679  0.250477  1
  Li  Li3  1  0.659622  0.974380  0.750063  1
  Tb  Tb4  1  0.327642  0.180631  0.628658  1
  Tb  Tb5  1  0.672410  0.819332  0.371261  1
  Tb  Tb6  1  0.172380  0.680516  0.371440  1
  Tb  Tb7  1  0.673029  0.819307  0.128515  1
  Tb  Tb8  1  0.827786  0.319333  0.628660  1
  Tb  Tb9  1  0.328786  0.181005  0.871053  1
  Tb  Tb10  1  0.828490  0.319912  0.870803  1
  Tb  Tb11  1  0.170811  0.678390  0.129527  1
  Tb  Tb12  1  0.016410  0.188819  0.099204  1
  Tb  Tb13  1  0.980978  0.811806  0.900448  1
  Tb  Tb14  1  0.481866  0.686635  0.900624  1
  Tb  Tb15  1  0.981247  0.812611  0.598941  1
  Tb  Tb16  1  0.519448  0.313935  0.098846  1
  Tb  Tb17  1  0.018941  0.187432  0.401111  1
  Tb  Tb18  1  0.518940  0.312609  0.401276  1
  Tb  Tb19  1  0.480993  0.687479  0.598772  1
  Si  Si20  1  0.022336  0.078183  0.749909  1
  Si  Si21  1  0.978083  0.921939  0.250128  1
  Si  Si22  1  0.478071  0.578385  0.250047  1
  Si  Si23  1  0.521999  0.421947  0.749701  1
  Si  Si24  1  0.275037  0.870100  0.750030  1
  Si  Si25  1  0.724733  0.129851  0.250054  1
  Si  Si26  1  0.225757  0.369352  0.250229  1
  Si  Si27  1  0.774525  0.630150  0.749712  1
  Si  Si28  1  0.156759  0.467536  0.534082  1
  Si  Si29  1  0.843222  0.532498  0.466001  1
  Si  Si30  1  0.343342  0.967490  0.465956  1
  Si  Si31  1  0.843026  0.532879  0.033547  1
  Si  Si32  1  0.656704  0.032426  0.534132  1
  Si  Si33  1  0.157276  0.467422  0.965973  1
  Si  Si34  1  0.661307  0.033295  0.965169  1
  Ge  Ge35  1  0.337630  0.966723  0.035429  1
