# generated using pymatgen
data_Nd2Lu2Zn4Si3Ge
_symmetry_space_group_name_H-M   'P 1'
_cell_length_a   4.19870100
_cell_length_b   4.19869975
_cell_length_c   15.78303000
_cell_angle_alpha   90.00000000
_cell_angle_beta   90.00000000
_cell_angle_gamma   120.00001771
_symmetry_Int_Tables_number   1
_chemical_formula_structural   Nd2Lu2Zn4Si3Ge
_chemical_formula_sum   'Nd2 Lu2 Zn4 Si3 Ge1'
_cell_volume   240.96319018
_cell_formula_units_Z   1
loop_
 _symmetry_equiv_pos_site_id
 _symmetry_equiv_pos_as_xyz
  1  'x, y, z'
loop_
 _atom_site_type_symbol
 _atom_site_label
 _atom_site_symmetry_multiplicity
 _atom_site_fract_x
 _atom_site_fract_y
 _atom_site_fract_z
 _atom_site_occupancy
  Nd  Nd0  1  0.000000  0.000000  0.002029  1
  Nd  Nd1  1  0.000000  0.000000  0.499378  1
  Lu  Lu2  1  0.000000  0.000000  0.250596  1
  Lu  Lu3  1  0.000000  0.000000  0.747681  1
  Zn  Zn4  1  0.333333  0.666667  0.149929  1
  Zn  Zn5  1  0.666667  0.333333  0.846672  1
  Zn  Zn6  1  0.666667  0.333333  0.647482  1
  Zn  Zn7  1  0.333333  0.666667  0.351534  1
  Si  Si8  1  0.333333  0.666667  0.623216  1
  Si  Si9  1  0.666667  0.333333  0.376464  1
  Si  Si10  1  0.666667  0.333333  0.124687  1
  Ge  Ge11  1  0.333333  0.666667  0.880332  1
