# generated using pymatgen
data_Rb3V2Ag3S8
_symmetry_space_group_name_H-M   'P 1'
_cell_length_a   12.79229513
_cell_length_b   12.79229482
_cell_length_c   14.57387109
_cell_angle_alpha   62.10533459
_cell_angle_beta   62.10533424
_cell_angle_gamma   26.56113572
_symmetry_Int_Tables_number   1
_chemical_formula_structural   Rb3V2Ag3S8
_chemical_formula_sum   'Rb6 V4 Ag6 S16'
_cell_volume   935.12433936
_cell_formula_units_Z   2
loop_
 _symmetry_equiv_pos_site_id
 _symmetry_equiv_pos_as_xyz
  1  'x, y, z'
loop_
 _atom_site_type_symbol
 _atom_site_label
 _atom_site_symmetry_multiplicity
 _atom_site_fract_x
 _atom_site_fract_y
 _atom_site_fract_z
 _atom_site_occupancy
  Rb  Rb0  1  0.629965  0.759000  0.398491  1
  Rb  Rb1  1  0.000000  0.000000  0.000000  1
  Rb  Rb2  1  0.759000  0.629965  0.898491  1
  Rb  Rb3  1  0.000000  0.000000  0.500000  1
  Rb  Rb4  1  0.241000  0.370035  0.101509  1
  Rb  Rb5  1  0.370035  0.241000  0.601509  1
  V  V6  1  0.583189  0.164437  0.277336  1
  V  V7  1  0.164437  0.583189  0.777336  1
  V  V8  1  0.835563  0.416811  0.222664  1
  V  V9  1  0.416811  0.835563  0.722664  1
  Ag  Ag10  1  0.291870  0.708130  0.750000  1
  Ag  Ag11  1  0.334516  0.918414  0.213401  1
  Ag  Ag12  1  0.918414  0.334516  0.713401  1
  Ag  Ag13  1  0.081586  0.665484  0.286599  1
  Ag  Ag14  1  0.708130  0.291870  0.250000  1
  Ag  Ag15  1  0.665484  0.081586  0.786599  1
  S  S16  1  0.448555  0.450309  0.658690  1
  S  S17  1  0.233045  0.078401  0.812746  1
  S  S18  1  0.450309  0.448555  0.158690  1
  S  S19  1  0.766955  0.921599  0.187254  1
  S  S20  1  0.549691  0.551445  0.841310  1
  S  S21  1  0.283809  0.304956  0.881024  1
  S  S22  1  0.695044  0.716191  0.618976  1
  S  S23  1  0.304956  0.283809  0.381024  1
  S  S24  1  0.921599  0.766955  0.687254  1
  S  S25  1  0.195880  0.002794  0.620344  1
  S  S26  1  0.716191  0.695044  0.118976  1
  S  S27  1  0.551445  0.549691  0.341310  1
  S  S28  1  0.997206  0.804120  0.879656  1
  S  S29  1  0.078401  0.233045  0.312746  1
  S  S30  1  0.804120  0.997206  0.379656  1
  S  S31  1  0.002794  0.195880  0.120344  1
