# generated using pymatgen
data_Rb7Th6F31
_symmetry_space_group_name_H-M   'P 1'
_cell_length_a   9.62229859
_cell_length_b   9.62229852
_cell_length_c   9.62230000
_cell_angle_alpha   106.99995752
_cell_angle_beta   106.99995739
_cell_angle_gamma   106.99995686
_symmetry_Int_Tables_number   1
_chemical_formula_structural   Rb7Th6F31
_chemical_formula_sum   'Rb7 Th6 F31'
_cell_volume   741.96387932
_cell_formula_units_Z   1
loop_
 _symmetry_equiv_pos_site_id
 _symmetry_equiv_pos_as_xyz
  1  'x, y, z'
loop_
 _atom_site_type_symbol
 _atom_site_label
 _atom_site_symmetry_multiplicity
 _atom_site_fract_x
 _atom_site_fract_y
 _atom_site_fract_z
 _atom_site_occupancy
  Rb  Rb0  1  0.187850  0.585710  0.724973  1
  Rb  Rb1  1  0.282108  0.822952  0.427852  1
  Rb  Rb2  1  0.427852  0.282108  0.822952  1
  Rb  Rb3  1  0.500223  0.500223  0.500223  1
  Rb  Rb4  1  0.585710  0.724973  0.187850  1
  Rb  Rb5  1  0.724973  0.187850  0.585710  1
  Rb  Rb6  1  0.822952  0.427852  0.282108  1
  Th  Th7  1  0.041531  0.122948  0.374217  1
  Th  Th8  1  0.122948  0.374217  0.041531  1
  Th  Th9  1  0.647492  0.955254  0.877505  1
  Th  Th10  1  0.374217  0.041531  0.122948  1
  Th  Th11  1  0.877505  0.647492  0.955254  1
  Th  Th12  1  0.955254  0.877505  0.647492  1
  F  F13  1  0.209702  0.955196  0.848943  1
  F  F14  1  0.055963  0.718175  0.530926  1
  F  F15  1  0.042862  0.158899  0.796335  1
  F  F16  1  0.025766  0.561909  0.146977  1
  F  F17  1  0.297562  0.477235  0.950021  1
  F  F18  1  0.455510  0.856011  0.982103  1
  F  F19  1  0.158899  0.796335  0.042862  1
  F  F20  1  0.090518  0.296478  0.245680  1
  F  F21  1  0.146977  0.025766  0.561909  1
  F  F22  1  0.261226  0.331932  0.567863  1
  F  F23  1  0.437393  0.744786  0.671513  1
  F  F24  1  0.331932  0.567863  0.261226  1
  F  F25  1  0.477235  0.950021  0.297562  1
  F  F26  1  0.245680  0.090518  0.296478  1
  F  F27  1  0.658762  0.720772  0.903796  1
  F  F28  1  0.296478  0.245680  0.090518  1
  F  F29  1  0.720772  0.903796  0.658762  1
  F  F30  1  0.530926  0.055963  0.718175  1
  F  F31  1  0.671513  0.437393  0.744786  1
  F  F32  1  0.918568  0.918568  0.918568  1
  F  F33  1  0.567863  0.261226  0.331932  1
  F  F34  1  0.744786  0.671513  0.437393  1
  F  F35  1  0.856011  0.982103  0.455510  1
  F  F36  1  0.903796  0.658762  0.720772  1
  F  F37  1  0.848943  0.209702  0.955196  1
  F  F38  1  0.561909  0.146977  0.025766  1
  F  F39  1  0.718175  0.530926  0.055963  1
  F  F40  1  0.982103  0.455510  0.856011  1
  F  F41  1  0.955196  0.848943  0.209702  1
  F  F42  1  0.950021  0.297562  0.477235  1
  F  F43  1  0.796335  0.042862  0.158899  1
