# generated using pymatgen
data_TbDyFe3P7Ru9
_symmetry_space_group_name_H-M   'P 1'
_cell_length_a   9.30253800
_cell_length_b   9.30253867
_cell_length_c   3.85669900
_cell_angle_alpha   90.00000000
_cell_angle_beta   90.00000000
_cell_angle_gamma   119.99999762
_symmetry_Int_Tables_number   1
_chemical_formula_structural   TbDyFe3P7Ru9
_chemical_formula_sum   'Tb1 Dy1 Fe3 P7 Ru9'
_cell_volume   289.03426012
_cell_formula_units_Z   1
loop_
 _symmetry_equiv_pos_site_id
 _symmetry_equiv_pos_as_xyz
  1  'x, y, z'
loop_
 _atom_site_type_symbol
 _atom_site_label
 _atom_site_symmetry_multiplicity
 _atom_site_fract_x
 _atom_site_fract_y
 _atom_site_fract_z
 _atom_site_occupancy
  Tb  Tb0  1  0.333333  0.666667  0.000000  1
  Dy  Dy1  1  0.000000  0.000000  0.500000  1
  Fe  Fe2  1  0.934250  0.490503  0.000000  1
  Fe  Fe3  1  0.509497  0.443747  0.000000  1
  Fe  Fe4  1  0.556253  0.065750  0.000000  1
  P  P5  1  0.970617  0.745642  0.000000  1
  P  P6  1  0.254358  0.224975  0.000000  1
  P  P7  1  0.775025  0.029383  0.000000  1
  P  P8  1  0.062718  0.448533  0.500000  1
  P  P9  1  0.551467  0.614184  0.500000  1
  P  P10  1  0.385816  0.937282  0.500000  1
  P  P11  1  0.666667  0.333333  0.000000  1
  Ru  Ru12  1  0.726902  0.754547  0.000000  1
  Ru  Ru13  1  0.245453  0.972355  0.000000  1
  Ru  Ru14  1  0.027645  0.273098  0.000000  1
  Ru  Ru15  1  0.104184  0.718797  0.500000  1
  Ru  Ru16  1  0.281203  0.385387  0.500000  1
  Ru  Ru17  1  0.614613  0.895816  0.500000  1
  Ru  Ru18  1  0.754904  0.537984  0.500000  1
  Ru  Ru19  1  0.462016  0.216921  0.500000  1
  Ru  Ru20  1  0.783079  0.245096  0.500000  1
