# generated using pymatgen
data_NdEu(BrO3)6
_symmetry_space_group_name_H-M   'P 1'
_cell_length_a   9.95023100
_cell_length_b   9.95022991
_cell_length_c   5.91783900
_cell_angle_alpha   90.00000000
_cell_angle_beta   90.00000000
_cell_angle_gamma   119.99998701
_symmetry_Int_Tables_number   1
_chemical_formula_structural   NdEu(BrO3)6
_chemical_formula_sum   'Nd1 Eu1 Br6 O18'
_cell_volume   507.41127455
_cell_formula_units_Z   1
loop_
 _symmetry_equiv_pos_site_id
 _symmetry_equiv_pos_as_xyz
  1  'x, y, z'
loop_
 _atom_site_type_symbol
 _atom_site_label
 _atom_site_symmetry_multiplicity
 _atom_site_fract_x
 _atom_site_fract_y
 _atom_site_fract_z
 _atom_site_occupancy
  Nd  Nd0  1  0.666667  0.333333  0.701676  1
  Eu  Eu1  1  0.333333  0.666667  0.198757  1
  Br  Br2  1  0.693329  0.020199  0.368089  1
  Br  Br3  1  0.303815  0.976241  0.870608  1
  Br  Br4  1  0.023759  0.327573  0.870608  1
  Br  Br5  1  0.326869  0.306671  0.368089  1
  Br  Br6  1  0.979801  0.673131  0.368089  1
  Br  Br7  1  0.672427  0.696185  0.870608  1
  O  O8  1  0.773672  0.830658  0.057949  1
  O  O9  1  0.949462  0.775339  0.557674  1
  O  O10  1  0.825877  0.050538  0.557674  1
  O  O11  1  0.169342  0.943014  0.057949  1
  O  O12  1  0.056986  0.226328  0.057949  1
  O  O13  1  0.224661  0.174123  0.557674  1
  O  O14  1  0.715479  0.551840  0.918223  1
  O  O15  1  0.165816  0.712374  0.418745  1
  O  O16  1  0.517079  0.392666  0.451402  1
  O  O17  1  0.123836  0.517485  0.956301  1
  O  O18  1  0.393650  0.876164  0.956301  1
  O  O19  1  0.607334  0.124412  0.451402  1
  O  O20  1  0.875588  0.482921  0.451402  1
  O  O21  1  0.482515  0.606350  0.956301  1
  O  O22  1  0.287626  0.453442  0.418745  1
  O  O23  1  0.836361  0.284521  0.918223  1
  O  O24  1  0.448160  0.163639  0.918223  1
  O  O25  1  0.546558  0.834184  0.418745  1
