# generated using pymatgen
data_Cs2HgBr2(NO6)2
_symmetry_space_group_name_H-M   'P 1'
_cell_length_a   5.88056300
_cell_length_b   7.79395500
_cell_length_c   15.77777200
_cell_angle_alpha   90.00000000
_cell_angle_beta   90.00000000
_cell_angle_gamma   90.00000000
_symmetry_Int_Tables_number   1
_chemical_formula_structural   Cs2HgBr2(NO6)2
_chemical_formula_sum   'Cs4 Hg2 Br4 N4 O24'
_cell_volume   723.14015322
_cell_formula_units_Z   2
loop_
 _symmetry_equiv_pos_site_id
 _symmetry_equiv_pos_as_xyz
  1  'x, y, z'
loop_
 _atom_site_type_symbol
 _atom_site_label
 _atom_site_symmetry_multiplicity
 _atom_site_fract_x
 _atom_site_fract_y
 _atom_site_fract_z
 _atom_site_occupancy
  Cs  Cs0  1  0.000000  0.759927  0.721598  1
  Cs  Cs1  1  0.000000  0.240073  0.278402  1
  Cs  Cs2  1  0.500000  0.259927  0.778402  1
  Cs  Cs3  1  0.500000  0.740073  0.221598  1
  Hg  Hg4  1  0.000000  0.000000  0.000000  1
  Hg  Hg5  1  0.500000  0.500000  0.500000  1
  Br  Br6  1  0.000000  0.718796  0.394509  1
  Br  Br7  1  0.500000  0.781204  0.894509  1
  Br  Br8  1  0.000000  0.281204  0.605491  1
  Br  Br9  1  0.500000  0.218796  0.105491  1
  N  N10  1  0.000000  0.351760  0.921877  1
  N  N11  1  0.500000  0.148240  0.421877  1
  N  N12  1  0.500000  0.851760  0.578123  1
  N  N13  1  0.000000  0.648240  0.078123  1
  O  O14  1  0.686852  0.776398  0.559095  1
  O  O15  1  0.500000  0.006678  0.384694  1
  O  O16  1  0.226505  0.583486  0.386002  1
  O  O17  1  0.186852  0.723602  0.059095  1
  O  O18  1  0.273495  0.916514  0.886002  1
  O  O19  1  0.726505  0.916514  0.886002  1
  O  O20  1  0.000000  0.825090  0.302435  1
  O  O21  1  0.686852  0.223602  0.440905  1
  O  O22  1  0.313148  0.223602  0.440905  1
  O  O23  1  0.813148  0.276398  0.940905  1
  O  O24  1  0.500000  0.993322  0.615306  1
  O  O25  1  0.186852  0.276398  0.940905  1
  O  O26  1  0.000000  0.493322  0.884694  1
  O  O27  1  0.773495  0.416514  0.613998  1
  O  O28  1  0.273495  0.083486  0.113998  1
  O  O29  1  0.813148  0.723602  0.059095  1
  O  O30  1  0.226505  0.416514  0.613998  1
  O  O31  1  0.726505  0.083486  0.113998  1
  O  O32  1  0.000000  0.174910  0.697565  1
  O  O33  1  0.500000  0.325090  0.197565  1
  O  O34  1  0.000000  0.506678  0.115306  1
  O  O35  1  0.500000  0.674910  0.802435  1
  O  O36  1  0.773495  0.583486  0.386002  1
  O  O37  1  0.313148  0.776398  0.559095  1
