# generated using pymatgen
data_Yb6TaGa6(SbO8)3
_symmetry_space_group_name_H-M   'P 1'
_cell_length_a   10.94316430
_cell_length_b   10.94316436
_cell_length_c   10.90565700
_cell_angle_alpha   109.40180485
_cell_angle_beta   109.40180496
_cell_angle_gamma   109.54054691
_symmetry_Int_Tables_number   1
_chemical_formula_structural   Yb6TaGa6(SbO8)3
_chemical_formula_sum   'Yb12 Ta2 Ga12 Sb6 O48'
_cell_volume   1006.20650771
_cell_formula_units_Z   2
loop_
 _symmetry_equiv_pos_site_id
 _symmetry_equiv_pos_as_xyz
  1  'x, y, z'
loop_
 _atom_site_type_symbol
 _atom_site_label
 _atom_site_symmetry_multiplicity
 _atom_site_fract_x
 _atom_site_fract_y
 _atom_site_fract_z
 _atom_site_occupancy
  Yb  Yb0  1  0.249823  0.374912  0.124912  1
  Yb  Yb1  1  0.374608  0.749216  0.124607  1
  Yb  Yb2  1  0.374608  0.125392  0.250000  1
  Yb  Yb3  1  0.874911  0.625088  0.250000  1
  Yb  Yb4  1  0.125088  0.250177  0.375088  1
  Yb  Yb5  1  0.750784  0.125391  0.375392  1
  Yb  Yb6  1  0.249216  0.874607  0.624608  1
  Yb  Yb7  1  0.874912  0.749823  0.624912  1
  Yb  Yb8  1  0.125087  0.374912  0.750000  1
  Yb  Yb9  1  0.625392  0.874608  0.750000  1
  Yb  Yb10  1  0.625392  0.250784  0.875391  1
  Yb  Yb11  1  0.750177  0.625088  0.875088  1
  Ta  Ta12  1  0.499999  0.000000  0.000000  1
  Ta  Ta13  1  0.500000  0.000000  0.500000  1
  Ga  Ga14  1  0.750218  0.874873  0.124475  1
  Ga  Ga15  1  0.875346  0.250219  0.125743  1
  Ga  Ga16  1  0.625127  0.375346  0.249602  1
  Ga  Ga17  1  0.124654  0.874873  0.250399  1
  Ga  Ga18  1  0.625127  0.749782  0.375525  1
  Ga  Ga19  1  0.249782  0.624654  0.374257  1
  Ga  Ga20  1  0.750218  0.375346  0.625743  1
  Ga  Ga21  1  0.374873  0.250218  0.624475  1
  Ga  Ga22  1  0.875346  0.125127  0.749602  1
  Ga  Ga23  1  0.374873  0.624654  0.750398  1
  Ga  Ga24  1  0.249783  0.125127  0.875525  1
  Ga  Ga25  1  0.124654  0.749782  0.874257  1
  Sb  Sb26  1  0.000000  0.000000  0.000000  1
  Sb  Sb27  1  0.500000  0.500000  0.000000  1
  Sb  Sb28  1  0.000000  0.499999  0.000000  1
  Sb  Sb29  1  0.000000  0.500000  0.500000  1
  Sb  Sb30  1  0.000000  0.000000  0.499999  1
  Sb  Sb31  1  0.499999  0.499999  0.499999  1
  O  O32  1  0.322417  0.904510  0.021976  1
  O  O33  1  0.208584  0.122927  0.028615  1
  O  O34  1  0.707600  0.680863  0.084615  1
  O  O35  1  0.874554  0.401955  0.083184  1
  O  O36  1  0.973263  0.680863  0.096248  1
  O  O37  1  0.622927  0.414343  0.094312  1
  O  O38  1  0.595490  0.917907  0.117466  1
  O  O39  1  0.026736  0.207599  0.122984  1
  O  O40  1  0.472598  0.598044  0.181228  1
  O  O41  1  0.208585  0.585657  0.179969  1
  O  O42  1  0.125445  0.027401  0.208629  1
  O  O43  1  0.582093  0.177583  0.199558  1
  O  O44  1  0.472598  0.374554  0.291370  1
  O  O45  1  0.322417  0.917906  0.300442  1
  O  O46  1  0.901955  0.027402  0.318772  1
  O  O47  1  0.914342  0.291415  0.320031  1
  O  O48  1  0.292400  0.473263  0.377015  1
  O  O49  1  0.582093  0.904510  0.382534  1
  O  O50  1  0.819136  0.526736  0.403751  1
  O  O51  1  0.085657  0.877072  0.405688  1
  O  O52  1  0.819137  0.792400  0.415385  1
  O  O53  1  0.098045  0.625445  0.416816  1
  O  O54  1  0.595489  0.177583  0.478024  1
  O  O55  1  0.377072  0.291415  0.471384  1
  O  O56  1  0.622928  0.708585  0.528616  1
  O  O57  1  0.404509  0.822416  0.521975  1
  O  O58  1  0.901955  0.374554  0.583184  1
  O  O59  1  0.180863  0.207600  0.584615  1
  O  O60  1  0.914343  0.122928  0.594312  1
  O  O61  1  0.180863  0.473263  0.596247  1
  O  O62  1  0.417907  0.095490  0.617465  1
  O  O63  1  0.707600  0.526737  0.622985  1
  O  O64  1  0.085657  0.708585  0.679969  1
  O  O65  1  0.098045  0.972598  0.681228  1
  O  O66  1  0.677583  0.082093  0.699558  1
  O  O67  1  0.527402  0.625446  0.708630  1
  O  O68  1  0.417907  0.822417  0.800442  1
  O  O69  1  0.874554  0.972598  0.791369  1
  O  O70  1  0.791415  0.414343  0.820031  1
  O  O71  1  0.527401  0.401954  0.818771  1
  O  O72  1  0.973263  0.792399  0.877015  1
  O  O73  1  0.404510  0.082093  0.882534  1
  O  O74  1  0.377072  0.585657  0.905688  1
  O  O75  1  0.026737  0.319137  0.903752  1
  O  O76  1  0.125446  0.598045  0.916816  1
  O  O77  1  0.292400  0.319137  0.915384  1
  O  O78  1  0.677583  0.095490  0.978024  1
  O  O79  1  0.791414  0.877072  0.971384  1
