# generated using pymatgen
data_Tb8Ti7Ge16Mo5
_symmetry_space_group_name_H-M   'P 1'
_cell_length_a   6.95351423
_cell_length_b   7.11523366
_cell_length_c   13.42727461
_cell_angle_alpha   89.93449866
_cell_angle_beta   89.94726757
_cell_angle_gamma   90.04299134
_symmetry_Int_Tables_number   1
_chemical_formula_structural   Tb8Ti7Ge16Mo5
_chemical_formula_sum   'Tb8 Ti7 Ge16 Mo5'
_cell_volume   664.32530457
_cell_formula_units_Z   1
loop_
 _symmetry_equiv_pos_site_id
 _symmetry_equiv_pos_as_xyz
  1  'x, y, z'
loop_
 _atom_site_type_symbol
 _atom_site_label
 _atom_site_symmetry_multiplicity
 _atom_site_fract_x
 _atom_site_fract_y
 _atom_site_fract_z
 _atom_site_occupancy
  Tb  Tb0  1  0.003460  0.172022  0.404121  1
  Tb  Tb1  1  0.503868  0.325888  0.095856  1
  Tb  Tb2  1  0.496734  0.672167  0.596203  1
  Tb  Tb3  1  0.995850  0.827415  0.903754  1
  Tb  Tb4  1  0.996278  0.827212  0.596535  1
  Tb  Tb5  1  0.495961  0.673299  0.905781  1
  Tb  Tb6  1  0.502846  0.328347  0.403004  1
  Tb  Tb7  1  0.005751  0.169937  0.095707  1
  Ti  Ti8  1  0.837993  0.670019  0.371095  1
  Ti  Ti9  1  0.662004  0.168212  0.627694  1
  Ti  Ti10  1  0.161942  0.331182  0.873432  1
  Ti  Ti11  1  0.162258  0.331640  0.627552  1
  Ti  Ti12  1  0.661615  0.167839  0.872570  1
  Ti  Ti13  1  0.841501  0.669475  0.127509  1
  Ti  Ti14  1  0.335661  0.831051  0.371750  1
  Ge  Ge15  1  0.329013  0.043805  0.544270  1
  Ge  Ge16  1  0.828568  0.456651  0.955909  1
  Ge  Ge17  1  0.668615  0.956616  0.044779  1
  Ge  Ge18  1  0.170696  0.544370  0.455683  1
  Ge  Ge19  1  0.172817  0.543301  0.044136  1
  Ge  Ge20  1  0.669566  0.956479  0.455382  1
  Ge  Ge21  1  0.829846  0.455982  0.544801  1
  Ge  Ge22  1  0.327475  0.044657  0.956544  1
  Ge  Ge23  1  0.807831  0.366674  0.249190  1
  Ge  Ge24  1  0.309163  0.132716  0.250448  1
  Ge  Ge25  1  0.692445  0.866193  0.750078  1
  Ge  Ge26  1  0.193729  0.633555  0.750370  1
  Ge  Ge27  1  0.037656  0.872314  0.250604  1
  Ge  Ge28  1  0.536279  0.629988  0.249100  1
  Ge  Ge29  1  0.462558  0.370507  0.750329  1
  Ge  Ge30  1  0.963275  0.129492  0.750166  1
  Mo  Mo31  1  0.335575  0.832332  0.127280  1
  Mo  Mo32  1  0.333800  0.009922  0.750206  1
  Mo  Mo33  1  0.666820  0.987110  0.249054  1
  Mo  Mo34  1  0.165330  0.513480  0.248864  1
  Mo  Mo35  1  0.835218  0.488150  0.750246  1
