# generated using pymatgen
data_Lu4MgZn3RuPt3
_symmetry_space_group_name_H-M   'P 1'
_cell_length_a   4.01285300
_cell_length_b   6.92629226
_cell_length_c   8.27262561
_cell_angle_alpha   90.48259290
_cell_angle_beta   90.00000000
_cell_angle_gamma   90.00000000
_symmetry_Int_Tables_number   1
_chemical_formula_structural   Lu4MgZn3RuPt3
_chemical_formula_sum   'Lu4 Mg1 Zn3 Ru1 Pt3'
_cell_volume   229.92279395
_cell_formula_units_Z   1
loop_
 _symmetry_equiv_pos_site_id
 _symmetry_equiv_pos_as_xyz
  1  'x, y, z'
loop_
 _atom_site_type_symbol
 _atom_site_label
 _atom_site_symmetry_multiplicity
 _atom_site_fract_x
 _atom_site_fract_y
 _atom_site_fract_z
 _atom_site_occupancy
  Lu  Lu0  1  0.250000  0.551619  0.170320  1
  Lu  Lu1  1  0.750000  0.461063  0.826056  1
  Lu  Lu2  1  0.750000  0.948862  0.687805  1
  Lu  Lu3  1  0.250000  0.039041  0.313895  1
  Mg  Mg4  1  0.750000  0.371486  0.438224  1
  Zn  Zn5  1  0.250000  0.638960  0.569608  1
  Zn  Zn6  1  0.750000  0.862206  0.056851  1
  Zn  Zn7  1  0.250000  0.126577  0.936293  1
  Ru  Ru8  1  0.250000  0.746954  0.876534  1
  Pt  Pt9  1  0.750000  0.249874  0.124520  1
  Pt  Pt10  1  0.750000  0.756367  0.373391  1
  Pt  Pt11  1  0.250000  0.246992  0.626502  1
