# generated using pymatgen
data_Tm8ZnIn4Ga7
_symmetry_space_group_name_H-M   'P 1'
_cell_length_a   7.11675338
_cell_length_b   7.11675255
_cell_length_c   8.83555904
_cell_angle_alpha   89.99435802
_cell_angle_beta   89.99435406
_cell_angle_gamma   89.82762351
_symmetry_Int_Tables_number   1
_chemical_formula_structural   Tm8ZnIn4Ga7
_chemical_formula_sum   'Tm8 Zn1 In4 Ga7'
_cell_volume   447.50289115
_cell_formula_units_Z   1
loop_
 _symmetry_equiv_pos_site_id
 _symmetry_equiv_pos_as_xyz
  1  'x, y, z'
loop_
 _atom_site_type_symbol
 _atom_site_label
 _atom_site_symmetry_multiplicity
 _atom_site_fract_x
 _atom_site_fract_y
 _atom_site_fract_z
 _atom_site_occupancy
  Tm  Tm0  1  0.829940  0.170828  0.499412  1
  Tm  Tm1  1  0.170828  0.829940  0.499412  1
  Tm  Tm2  1  0.328710  0.328710  0.000945  1
  Tm  Tm3  1  0.671749  0.671749  0.999861  1
  Tm  Tm4  1  0.671833  0.671833  0.500134  1
  Tm  Tm5  1  0.328393  0.328393  0.499328  1
  Tm  Tm6  1  0.170344  0.828897  0.000669  1
  Tm  Tm7  1  0.828897  0.170344  0.000669  1
  Zn  Zn8  1  0.125966  0.125966  0.249692  1
  In  In9  1  0.497450  0.002170  0.250548  1
  In  In10  1  0.998947  0.500292  0.748760  1
  In  In11  1  0.500292  0.998947  0.748760  1
  In  In12  1  0.002170  0.497450  0.250548  1
  Ga  Ga13  1  0.628127  0.373905  0.250261  1
  Ga  Ga14  1  0.373905  0.628127  0.250261  1
  Ga  Ga15  1  0.127178  0.127178  0.750606  1
  Ga  Ga16  1  0.873520  0.873520  0.750056  1
  Ga  Ga17  1  0.371616  0.626114  0.750002  1
  Ga  Ga18  1  0.626114  0.371616  0.750002  1
  Ga  Ga19  1  0.874024  0.874024  0.250072  1
