# generated using pymatgen
data_Ce2Dy(SnRh)3
_symmetry_space_group_name_H-M   'P 1'
_cell_length_a   7.51230368
_cell_length_b   7.47331010
_cell_length_c   4.02434400
_cell_angle_alpha   90.00000000
_cell_angle_beta   90.00000000
_cell_angle_gamma   119.82843040
_symmetry_Int_Tables_number   1
_chemical_formula_structural   Ce2Dy(SnRh)3
_chemical_formula_sum   'Ce2 Dy1 Sn3 Rh3'
_cell_volume   196.00181992
_cell_formula_units_Z   1
loop_
 _symmetry_equiv_pos_site_id
 _symmetry_equiv_pos_as_xyz
  1  'x, y, z'
loop_
 _atom_site_type_symbol
 _atom_site_label
 _atom_site_symmetry_multiplicity
 _atom_site_fract_x
 _atom_site_fract_y
 _atom_site_fract_z
 _atom_site_occupancy
  Ce  Ce0  1  0.412306  0.412250  0.500000  1
  Ce  Ce1  1  0.587694  0.999945  0.500000  1
  Dy  Dy2  1  0.000000  0.592954  0.500000  1
  Sn  Sn3  1  0.750809  0.744227  0.000000  1
  Sn  Sn4  1  0.249191  0.993418  0.000000  1
  Sn  Sn5  1  0.000000  0.261105  0.000000  1
  Rh  Rh6  1  0.655917  0.324324  0.000000  1
  Rh  Rh7  1  0.344083  0.668408  0.000000  1
  Rh  Rh8  1  0.000000  0.003369  0.500000  1
