# generated using pymatgen
data_TbY9(AlSb2)2
_symmetry_space_group_name_H-M   'P 1'
_cell_length_a   8.91412435
_cell_length_b   8.91566648
_cell_length_c   6.47742501
_cell_angle_alpha   90.00561313
_cell_angle_beta   89.99886709
_cell_angle_gamma   120.05936599
_symmetry_Int_Tables_number   1
_chemical_formula_structural   TbY9(AlSb2)2
_chemical_formula_sum   'Tb1 Y9 Al2 Sb4'
_cell_volume   445.55919868
_cell_formula_units_Z   1
loop_
 _symmetry_equiv_pos_site_id
 _symmetry_equiv_pos_as_xyz
  1  'x, y, z'
loop_
 _atom_site_type_symbol
 _atom_site_label
 _atom_site_symmetry_multiplicity
 _atom_site_fract_x
 _atom_site_fract_y
 _atom_site_fract_z
 _atom_site_occupancy
  Tb  Tb0  1  0.668353  0.328551  0.503112  1
  Y  Y1  1  0.328674  0.668402  0.503207  1
  Y  Y2  1  0.328724  0.668357  0.996832  1
  Y  Y3  1  0.668336  0.328761  0.996991  1
  Y  Y4  1  0.757443  0.757391  0.249976  1
  Y  Y5  1  0.239873  0.998877  0.249887  1
  Y  Y6  1  0.998778  0.239867  0.249915  1
  Y  Y7  1  0.237797  0.237889  0.750053  1
  Y  Y8  1  0.761942  0.008760  0.749973  1
  Y  Y9  1  0.008860  0.762078  0.750058  1
  Al  Al10  1  0.396125  0.000578  0.750217  1
  Al  Al11  1  0.001001  0.396271  0.750190  1
  Sb  Sb12  1  0.392178  0.392465  0.249876  1
  Sb  Sb13  1  0.603938  0.997417  0.249785  1
  Sb  Sb14  1  0.998039  0.604220  0.249734  1
  Sb  Sb15  1  0.609943  0.610117  0.750192  1
