# generated using pymatgen
data_Er3Zr(Al3Co)6
_symmetry_space_group_name_H-M   'P 1'
_cell_length_a   7.33302339
_cell_length_b   7.32528050
_cell_length_c   9.19893400
_cell_angle_alpha   90.00000000
_cell_angle_beta   90.00000000
_cell_angle_gamma   119.30255518
_symmetry_Int_Tables_number   1
_chemical_formula_structural   Er3Zr(Al3Co)6
_chemical_formula_sum   'Er3 Zr1 Al18 Co6'
_cell_volume   430.90838762
_cell_formula_units_Z   1
loop_
 _symmetry_equiv_pos_site_id
 _symmetry_equiv_pos_as_xyz
  1  'x, y, z'
loop_
 _atom_site_type_symbol
 _atom_site_label
 _atom_site_symmetry_multiplicity
 _atom_site_fract_x
 _atom_site_fract_y
 _atom_site_fract_z
 _atom_site_occupancy
  Er  Er0  1  0.006827  0.325859  0.250000  1
  Er  Er1  1  0.672099  0.993683  0.750000  1
  Er  Er2  1  0.327128  0.007850  0.250000  1
  Zr  Zr3  1  0.995257  0.672729  0.750000  1
  Al  Al4  1  0.120479  0.117567  0.750000  1
  Al  Al5  1  0.874324  0.873128  0.250000  1
  Al  Al6  1  0.996658  0.337446  0.575080  1
  Al  Al7  1  0.002632  0.664955  0.432282  1
  Al  Al8  1  0.002632  0.664955  0.067718  1
  Al  Al9  1  0.332829  0.995158  0.924958  1
  Al  Al10  1  0.996658  0.337446  0.924920  1
  Al  Al11  1  0.664279  0.001352  0.070980  1
  Al  Al12  1  0.664279  0.001352  0.429020  1
  Al  Al13  1  0.332829  0.995158  0.575042  1
  Al  Al14  1  0.332737  0.332947  0.039847  1
  Al  Al15  1  0.671021  0.668974  0.951050  1
  Al  Al16  1  0.671021  0.668974  0.548950  1
  Al  Al17  1  0.332737  0.332947  0.460153  1
  Al  Al18  1  0.335058  0.556189  0.750000  1
  Al  Al19  1  0.661255  0.446093  0.250000  1
  Al  Al20  1  0.561787  0.344147  0.750000  1
  Al  Al21  1  0.444388  0.660010  0.250000  1
  Co  Co22  1  0.671887  0.329011  0.500907  1
  Co  Co23  1  0.328643  0.671672  0.501669  1
  Co  Co24  1  0.328643  0.671672  0.998331  1
  Co  Co25  1  0.671887  0.329011  0.999093  1
  Co  Co26  1  0.000015  0.999856  0.500508  1
  Co  Co27  1  0.000015  0.999856  0.999492  1
