# generated using pymatgen
data_YbAl12SnSe20
_symmetry_space_group_name_H-M   'P 1'
_cell_length_a   9.76397865
_cell_length_b   9.77656990
_cell_length_c   9.66482080
_cell_angle_alpha   89.90759758
_cell_angle_beta   90.64670177
_cell_angle_gamma   89.70140381
_symmetry_Int_Tables_number   1
_chemical_formula_structural   YbAl12SnSe20
_chemical_formula_sum   'Yb1 Al12 Sn1 Se20'
_cell_volume   922.51400361
_cell_formula_units_Z   1
loop_
 _symmetry_equiv_pos_site_id
 _symmetry_equiv_pos_as_xyz
  1  'x, y, z'
loop_
 _atom_site_type_symbol
 _atom_site_label
 _atom_site_symmetry_multiplicity
 _atom_site_fract_x
 _atom_site_fract_y
 _atom_site_fract_z
 _atom_site_occupancy
  Yb  Yb0  1  0.257384  0.004723  0.750319  1
  Al  Al1  1  0.572943  0.840506  0.882379  1
  Al  Al2  1  0.875396  0.567248  0.836352  1
  Al  Al3  1  0.260943  0.648275  0.831306  1
  Al  Al4  1  0.164266  0.347442  0.739698  1
  Al  Al5  1  0.832964  0.258353  0.661007  1
  Al  Al6  1  0.838107  0.881879  0.576864  1
  Al  Al7  1  0.119400  0.162944  0.426499  1
  Al  Al8  1  0.739318  0.169336  0.340079  1
  Al  Al9  1  0.652377  0.837760  0.259956  1
  Al  Al10  1  0.351229  0.741646  0.164788  1
  Al  Al11  1  0.434136  0.124159  0.162017  1
  Al  Al12  1  0.161630  0.423206  0.116827  1
  Sn  Sn13  1  0.994834  0.737963  0.246766  1
  Se  Se14  1  0.184465  0.818046  0.994357  1
  Se  Se15  1  0.324755  0.423852  0.925195  1
  Se  Se16  1  0.499229  0.072906  0.924830  1
  Se  Se17  1  0.821565  0.818296  0.824991  1
  Se  Se18  1  0.005813  0.184542  0.825922  1
  Se  Se19  1  0.695009  0.437870  0.741466  1
  Se  Se20  1  0.431509  0.754815  0.694413  1
  Se  Se21  1  0.073118  0.574301  0.677568  1
  Se  Se22  1  0.681251  0.074792  0.573186  1
  Se  Se23  1  0.305591  0.246772  0.567346  1
  Se  Se24  1  0.074181  0.928854  0.506929  1
  Se  Se25  1  0.755136  0.695149  0.435543  1
  Se  Se26  1  0.925072  0.318538  0.427714  1
  Se  Se27  1  0.424429  0.925066  0.321631  1
  Se  Se28  1  0.248095  0.566456  0.302510  1
  Se  Se29  1  0.558852  0.306951  0.258326  1
  Se  Se30  1  0.809447  0.001146  0.174617  1
  Se  Se31  1  0.181213  0.176618  0.177393  1
  Se  Se32  1  0.926778  0.496144  0.075017  1
  Se  Se33  1  0.576064  0.676950  0.076188  1
