# generated using pymatgen
data_Tm8Al2CuPt
_symmetry_space_group_name_H-M   'P 1'
_cell_length_a   9.41849503
_cell_length_b   9.41849663
_cell_length_c   9.45218700
_cell_angle_alpha   59.88160518
_cell_angle_beta   59.88159953
_cell_angle_gamma   59.56847321
_symmetry_Int_Tables_number   1
_chemical_formula_structural   Tm8Al2CuPt
_chemical_formula_sum   'Tm16 Al4 Cu2 Pt2'
_cell_volume   589.88796810
_cell_formula_units_Z   2
loop_
 _symmetry_equiv_pos_site_id
 _symmetry_equiv_pos_as_xyz
  1  'x, y, z'
loop_
 _atom_site_type_symbol
 _atom_site_label
 _atom_site_symmetry_multiplicity
 _atom_site_fract_x
 _atom_site_fract_y
 _atom_site_fract_z
 _atom_site_occupancy
  Tm  Tm0  1  0.354713  0.354755  0.355912  1
  Tm  Tm1  1  0.354722  0.354735  0.934726  1
  Tm  Tm2  1  0.354226  0.935988  0.354899  1
  Tm  Tm3  1  0.935948  0.354195  0.354912  1
  Tm  Tm4  1  0.808417  0.190984  0.191902  1
  Tm  Tm5  1  0.191012  0.808304  0.808788  1
  Tm  Tm6  1  0.191016  0.808337  0.191884  1
  Tm  Tm7  1  0.808331  0.190969  0.808783  1
  Tm  Tm8  1  0.191258  0.191235  0.808745  1
  Tm  Tm9  1  0.808579  0.808651  0.191369  1
  Tm  Tm10  1  0.934733  0.565374  0.564400  1
  Tm  Tm11  1  0.565440  0.934697  0.935420  1
  Tm  Tm12  1  0.565400  0.934730  0.564403  1
  Tm  Tm13  1  0.934723  0.565380  0.935458  1
  Tm  Tm14  1  0.564445  0.564487  0.935528  1
  Tm  Tm15  1  0.934086  0.934103  0.565874  1
  Al  Al16  1  0.577993  0.578063  0.578129  1
  Al  Al17  1  0.578007  0.578094  0.265786  1
  Al  Al18  1  0.578753  0.264650  0.578316  1
  Al  Al19  1  0.264646  0.578799  0.578286  1
  Cu  Cu20  1  0.145314  0.145324  0.141721  1
  Cu  Cu21  1  0.145387  0.145376  0.567448  1
  Pt  Pt22  1  0.145486  0.567301  0.143660  1
  Pt  Pt23  1  0.567369  0.145472  0.143651  1
