# generated using pymatgen
data_CaYb3Er2(Si3Ru)8
_symmetry_space_group_name_H-M   'P 1'
_cell_length_a   10.15022727
_cell_length_b   10.15022839
_cell_length_c   8.12546200
_cell_angle_alpha   89.97130760
_cell_angle_beta   90.02868676
_cell_angle_gamma   132.80747266
_symmetry_Int_Tables_number   1
_chemical_formula_structural   CaYb3Er2(Si3Ru)8
_chemical_formula_sum   'Ca1 Yb3 Er2 Si24 Ru8'
_cell_volume   614.16253205
_cell_formula_units_Z   1
loop_
 _symmetry_equiv_pos_site_id
 _symmetry_equiv_pos_as_xyz
  1  'x, y, z'
loop_
 _atom_site_type_symbol
 _atom_site_label
 _atom_site_symmetry_multiplicity
 _atom_site_fract_x
 _atom_site_fract_y
 _atom_site_fract_z
 _atom_site_occupancy
  Ca  Ca0  1  0.500769  0.000769  0.750000  1
  Yb  Yb1  1  0.500040  0.499968  0.500085  1
  Yb  Yb2  1  0.999968  0.000040  0.999915  1
  Yb  Yb3  1  0.999104  0.499104  0.250000  1
  Er  Er4  1  0.499172  0.999172  0.250000  1
  Er  Er5  1  0.000813  0.500813  0.750000  1
  Si  Si6  1  0.795422  0.204906  0.499818  1
  Si  Si7  1  0.294265  0.704806  0.000302  1
  Si  Si8  1  0.204806  0.794265  0.499698  1
  Si  Si9  1  0.704906  0.295422  0.000182  1
  Si  Si10  1  0.332413  0.335270  0.832231  1
  Si  Si11  1  0.664132  0.668222  0.167912  1
  Si  Si12  1  0.168222  0.164132  0.332088  1
  Si  Si13  1  0.835270  0.832413  0.667769  1
  Si  Si14  1  0.122059  0.889460  0.730065  1
  Si  Si15  1  0.109619  0.876813  0.269998  1
  Si  Si16  1  0.608452  0.375726  0.230086  1
  Si  Si17  1  0.625742  0.393191  0.769639  1
  Si  Si18  1  0.875726  0.108452  0.269914  1
  Si  Si19  1  0.893191  0.125742  0.730361  1
  Si  Si20  1  0.389460  0.622059  0.769935  1
  Si  Si21  1  0.376813  0.609619  0.230002  1
  Si  Si22  1  0.346685  0.113234  0.504942  1
  Si  Si23  1  0.886944  0.653588  0.494351  1
  Si  Si24  1  0.386021  0.153017  0.009734  1
  Si  Si25  1  0.846364  0.613402  0.991992  1
  Si  Si26  1  0.653017  0.886021  0.490266  1
  Si  Si27  1  0.113402  0.346364  0.508008  1
  Si  Si28  1  0.613234  0.846685  0.995058  1
  Si  Si29  1  0.153588  0.386944  0.005649  1
  Ru  Ru30  1  0.671633  0.329510  0.499597  1
  Ru  Ru31  1  0.169711  0.829079  0.000553  1
  Ru  Ru32  1  0.329079  0.669711  0.499447  1
  Ru  Ru33  1  0.829510  0.171633  0.000403  1
  Ru  Ru34  1  0.126865  0.126903  0.624921  1
  Ru  Ru35  1  0.873184  0.873493  0.375032  1
  Ru  Ru36  1  0.373493  0.373184  0.124968  1
  Ru  Ru37  1  0.626903  0.626865  0.875079  1
