# generated using pymatgen
data_Gd3Ho(GaRu)4
_symmetry_space_group_name_H-M   'P 1'
_cell_length_a   4.47075700
_cell_length_b   7.07149454
_cell_length_c   7.09304600
_cell_angle_alpha   89.97767800
_cell_angle_beta   90.00000000
_cell_angle_gamma   90.00000000
_symmetry_Int_Tables_number   1
_chemical_formula_structural   Gd3Ho(GaRu)4
_chemical_formula_sum   'Gd3 Ho1 Ga4 Ru4'
_cell_volume   224.24616200
_cell_formula_units_Z   1
loop_
 _symmetry_equiv_pos_site_id
 _symmetry_equiv_pos_as_xyz
  1  'x, y, z'
loop_
 _atom_site_type_symbol
 _atom_site_label
 _atom_site_symmetry_multiplicity
 _atom_site_fract_x
 _atom_site_fract_y
 _atom_site_fract_z
 _atom_site_occupancy
  Gd  Gd0  1  0.250000  0.305780  0.518570  1
  Gd  Gd1  1  0.250000  0.193059  0.017326  1
  Gd  Gd2  1  0.750000  0.693750  0.482737  1
  Ho  Ho3  1  0.750000  0.803971  0.982387  1
  Ga  Ga4  1  0.250000  0.893977  0.699292  1
  Ga  Ga5  1  0.250000  0.607438  0.195847  1
  Ga  Ga6  1  0.750000  0.105426  0.301044  1
  Ga  Ga7  1  0.750000  0.394483  0.803172  1
  Ru  Ru8  1  0.250000  0.937572  0.339295  1
  Ru  Ru9  1  0.250000  0.563955  0.840111  1
  Ru  Ru10  1  0.750000  0.061846  0.660100  1
  Ru  Ru11  1  0.750000  0.438742  0.160117  1
