# generated using pymatgen
data_Hf8Co16SiAs11
_symmetry_space_group_name_H-M   'P 1'
_cell_length_a   12.50409615
_cell_length_b   12.50295086
_cell_length_c   3.74511500
_cell_angle_alpha   90.00000000
_cell_angle_beta   90.00000000
_cell_angle_gamma   119.99697640
_symmetry_Int_Tables_number   1
_chemical_formula_structural   Hf8Co16SiAs11
_chemical_formula_sum   'Hf8 Co16 Si1 As11'
_cell_volume   507.07692684
_cell_formula_units_Z   1
loop_
 _symmetry_equiv_pos_site_id
 _symmetry_equiv_pos_as_xyz
  1  'x, y, z'
loop_
 _atom_site_type_symbol
 _atom_site_label
 _atom_site_symmetry_multiplicity
 _atom_site_fract_x
 _atom_site_fract_y
 _atom_site_fract_z
 _atom_site_occupancy
  Hf  Hf0  1  0.834929  0.827703  0.500000  1
  Hf  Hf1  1  0.444306  0.444288  0.000000  1
  Hf  Hf2  1  0.000000  0.174404  0.500000  1
  Hf  Hf3  1  0.555694  0.999981  0.000000  1
  Hf  Hf4  1  0.332992  0.666515  0.000000  1
  Hf  Hf5  1  0.667008  0.333523  0.000000  1
  Hf  Hf6  1  0.000000  0.558494  0.000000  1
  Hf  Hf7  1  0.165071  0.992772  0.500000  1
  Co  Co8  1  0.626999  0.823085  0.000000  1
  Co  Co9  1  0.373001  0.196085  0.000000  1
  Co  Co10  1  0.000000  0.721209  0.500000  1
  Co  Co11  1  0.281320  0.282004  0.500000  1
  Co  Co12  1  0.875835  0.356045  0.500000  1
  Co  Co13  1  0.718680  0.000684  0.500000  1
  Co  Co14  1  0.824691  0.629654  0.000000  1
  Co  Co15  1  0.175309  0.804963  0.000000  1
  Co  Co16  1  0.355708  0.875895  0.500000  1
  Co  Co17  1  0.124165  0.480210  0.500000  1
  Co  Co18  1  0.644292  0.520186  0.500000  1
  Co  Co19  1  0.000000  0.995966  0.000000  1
  Co  Co20  1  0.519798  0.643863  0.500000  1
  Co  Co21  1  0.480202  0.124064  0.500000  1
  Co  Co22  1  0.195040  0.371903  0.000000  1
  Co  Co23  1  0.804960  0.176862  0.000000  1
  Si  Si24  1  0.000000  0.821943  0.000000  1
  As  As25  1  0.000000  0.345427  0.000000  1
  As  As26  1  0.825801  0.515239  0.500000  1
  As  As27  1  0.688694  0.174746  0.500000  1
  As  As28  1  0.174457  0.173586  0.000000  1
  As  As29  1  0.657336  0.657374  0.000000  1
  As  As30  1  0.825543  0.999130  0.000000  1
  As  As31  1  0.513951  0.825312  0.500000  1
  As  As32  1  0.174199  0.689437  0.500000  1
  As  As33  1  0.342664  0.000038  0.000000  1
  As  As34  1  0.486049  0.311361  0.500000  1
  As  As35  1  0.311306  0.486050  0.500000  1
