# generated using pymatgen
data_InSe27
_symmetry_space_group_name_H-M   'P 1'
_cell_length_a   15.15602912
_cell_length_b   15.15602963
_cell_length_c   15.15602866
_cell_angle_alpha   118.38153457
_cell_angle_beta   118.38153183
_cell_angle_gamma   118.38152685
_symmetry_Int_Tables_number   1
_chemical_formula_structural   InSe27
_chemical_formula_sum   'In1 Se27'
_cell_volume   1140.65560090
_cell_formula_units_Z   1
loop_
 _symmetry_equiv_pos_site_id
 _symmetry_equiv_pos_as_xyz
  1  'x, y, z'
loop_
 _atom_site_type_symbol
 _atom_site_label
 _atom_site_symmetry_multiplicity
 _atom_site_fract_x
 _atom_site_fract_y
 _atom_site_fract_z
 _atom_site_occupancy
  In  In0  1  0.452920  0.452920  0.452920  1
  Se  Se1  1  0.016986  0.637242  0.637242  1
  Se  Se2  1  0.637242  0.637242  0.016986  1
  Se  Se3  1  0.637242  0.016986  0.637242  1
  Se  Se4  1  0.240711  0.872349  0.726613  1
  Se  Se5  1  0.872349  0.726613  0.240711  1
  Se  Se6  1  0.726613  0.240711  0.872349  1
  Se  Se7  1  0.872349  0.240711  0.726613  1
  Se  Se8  1  0.240711  0.726613  0.872349  1
  Se  Se9  1  0.726613  0.872349  0.240711  1
  Se  Se10  1  0.092704  0.633811  0.429359  1
  Se  Se11  1  0.633811  0.429359  0.092704  1
  Se  Se12  1  0.429359  0.092704  0.633811  1
  Se  Se13  1  0.633811  0.092704  0.429359  1
  Se  Se14  1  0.092704  0.429359  0.633811  1
  Se  Se15  1  0.429359  0.633811  0.092704  1
  Se  Se16  1  0.359902  0.739538  0.593809  1
  Se  Se17  1  0.739538  0.593809  0.359902  1
  Se  Se18  1  0.593809  0.359902  0.739538  1
  Se  Se19  1  0.739538  0.359902  0.593809  1
  Se  Se20  1  0.359902  0.593809  0.739538  1
  Se  Se21  1  0.593809  0.739538  0.359902  1
  Se  Se22  1  0.187532  0.443660  0.443660  1
  Se  Se23  1  0.443660  0.443660  0.187532  1
  Se  Se24  1  0.443660  0.187532  0.443660  1
  Se  Se25  1  0.013708  0.918280  0.918280  1
  Se  Se26  1  0.918280  0.918280  0.013708  1
  Se  Se27  1  0.918280  0.013708  0.918280  1
