# generated using pymatgen
data_Yb19EuAg16
_symmetry_space_group_name_H-M   'P 1'
_cell_length_a   7.95626358
_cell_length_b   8.09834483
_cell_length_c   15.25779406
_cell_angle_alpha   90.01763754
_cell_angle_beta   90.16999033
_cell_angle_gamma   89.90092519
_symmetry_Int_Tables_number   1
_chemical_formula_structural   Yb19EuAg16
_chemical_formula_sum   'Yb19 Eu1 Ag16'
_cell_volume   983.09298211
_cell_formula_units_Z   1
loop_
 _symmetry_equiv_pos_site_id
 _symmetry_equiv_pos_as_xyz
  1  'x, y, z'
loop_
 _atom_site_type_symbol
 _atom_site_label
 _atom_site_symmetry_multiplicity
 _atom_site_fract_x
 _atom_site_fract_y
 _atom_site_fract_z
 _atom_site_occupancy
  Yb  Yb0  1  0.326114  0.833669  0.876975  1
  Yb  Yb1  1  0.823895  0.665805  0.620154  1
  Yb  Yb2  1  0.676194  0.165580  0.378098  1
  Yb  Yb3  1  0.176202  0.335949  0.123326  1
  Yb  Yb4  1  0.673181  0.167410  0.121739  1
  Yb  Yb5  1  0.175274  0.333736  0.378709  1
  Yb  Yb6  1  0.326305  0.832368  0.619910  1
  Yb  Yb7  1  0.825675  0.665779  0.878462  1
  Yb  Yb8  1  0.486445  0.321477  0.903109  1
  Yb  Yb9  1  0.986229  0.178793  0.595947  1
  Yb  Yb10  1  0.514380  0.679251  0.403090  1
  Yb  Yb11  1  0.012507  0.820103  0.098948  1
  Yb  Yb12  1  0.511717  0.679317  0.097141  1
  Yb  Yb13  1  0.014211  0.820855  0.403280  1
  Yb  Yb14  1  0.486220  0.320901  0.594867  1
  Yb  Yb15  1  0.159815  0.490400  0.749619  1
  Yb  Yb16  1  0.661011  0.008387  0.749328  1
  Yb  Yb17  1  0.840080  0.508641  0.250932  1
  Yb  Yb18  1  0.340059  0.991611  0.250516  1
  Eu  Eu19  1  0.990111  0.175172  0.906257  1
  Ag  Ag20  1  0.333446  0.029923  0.044632  1
  Ag  Ag21  1  0.837801  0.468409  0.455816  1
  Ag  Ag22  1  0.662485  0.969913  0.543390  1
  Ag  Ag23  1  0.165574  0.538410  0.959486  1
  Ag  Ag24  1  0.655198  0.964278  0.958152  1
  Ag  Ag25  1  0.161736  0.530418  0.543642  1
  Ag  Ag26  1  0.338223  0.031008  0.455601  1
  Ag  Ag27  1  0.836675  0.473528  0.046118  1
  Ag  Ag28  1  0.526577  0.613840  0.748963  1
  Ag  Ag29  1  0.028380  0.882984  0.746888  1
  Ag  Ag30  1  0.473946  0.387647  0.251550  1
  Ag  Ag31  1  0.973296  0.113566  0.249730  1
  Ag  Ag32  1  0.285421  0.133978  0.746527  1
  Ag  Ag33  1  0.779801  0.365710  0.747312  1
  Ag  Ag34  1  0.717830  0.865151  0.250155  1
  Ag  Ag35  1  0.217986  0.636034  0.251628  1
