# generated using pymatgen
data_LaZn3InAu2
_symmetry_space_group_name_H-M   'P 1'
_cell_length_a   4.57016900
_cell_length_b   6.95960700
_cell_length_c   17.95287500
_cell_angle_alpha   90.00000000
_cell_angle_beta   90.00000000
_cell_angle_gamma   90.00000000
_symmetry_Int_Tables_number   1
_chemical_formula_structural   LaZn3InAu2
_chemical_formula_sum   'La4 Zn12 In4 Au8'
_cell_volume   571.01955785
_cell_formula_units_Z   4
loop_
 _symmetry_equiv_pos_site_id
 _symmetry_equiv_pos_as_xyz
  1  'x, y, z'
loop_
 _atom_site_type_symbol
 _atom_site_label
 _atom_site_symmetry_multiplicity
 _atom_site_fract_x
 _atom_site_fract_y
 _atom_site_fract_z
 _atom_site_occupancy
  La  La0  1  0.750000  0.988500  0.641180  1
  La  La1  1  0.250000  0.011500  0.358820  1
  La  La2  1  0.250000  0.488500  0.858820  1
  La  La3  1  0.750000  0.511500  0.141180  1
  Zn  Zn4  1  0.250000  0.289076  0.685114  1
  Zn  Zn5  1  0.750000  0.710924  0.314886  1
  Zn  Zn6  1  0.750000  0.789076  0.814886  1
  Zn  Zn7  1  0.250000  0.210924  0.185114  1
  Zn  Zn8  1  0.250000  0.664418  0.685631  1
  Zn  Zn9  1  0.750000  0.335582  0.314369  1
  Zn  Zn10  1  0.750000  0.164418  0.814369  1
  Zn  Zn11  1  0.250000  0.835582  0.185631  1
  Zn  Zn12  1  0.250000  0.175216  0.540747  1
  Zn  Zn13  1  0.750000  0.824784  0.459253  1
  Zn  Zn14  1  0.750000  0.675216  0.959253  1
  Zn  Zn15  1  0.250000  0.324784  0.040747  1
  In  In16  1  0.250000  0.494038  0.428606  1
  In  In17  1  0.750000  0.505962  0.571394  1
  In  In18  1  0.750000  0.994038  0.071394  1
  In  In19  1  0.250000  0.005962  0.928606  1
  Au  Au20  1  0.250000  0.779468  0.540249  1
  Au  Au21  1  0.750000  0.220532  0.459751  1
  Au  Au22  1  0.750000  0.279468  0.959751  1
  Au  Au23  1  0.250000  0.720532  0.040249  1
  Au  Au24  1  0.250000  0.973066  0.772713  1
  Au  Au25  1  0.750000  0.026934  0.227287  1
  Au  Au26  1  0.750000  0.473066  0.727287  1
  Au  Au27  1  0.250000  0.526934  0.272713  1
