# generated using pymatgen
data_Dy8Ta2Ti3Si16W7
_symmetry_space_group_name_H-M   'P 1'
_cell_length_a   6.92900637
_cell_length_b   6.92833116
_cell_length_c   12.84026859
_cell_angle_alpha   89.92316833
_cell_angle_beta   89.92018196
_cell_angle_gamma   89.97291226
_symmetry_Int_Tables_number   1
_chemical_formula_structural   Dy8Ta2Ti3Si16W7
_chemical_formula_sum   'Dy8 Ta2 Ti3 Si16 W7'
_cell_volume   616.41450002
_cell_formula_units_Z   1
loop_
 _symmetry_equiv_pos_site_id
 _symmetry_equiv_pos_as_xyz
  1  'x, y, z'
loop_
 _atom_site_type_symbol
 _atom_site_label
 _atom_site_symmetry_multiplicity
 _atom_site_fract_x
 _atom_site_fract_y
 _atom_site_fract_z
 _atom_site_occupancy
  Dy  Dy0  1  0.997437  0.660951  0.030669  1
  Dy  Dy1  1  0.000945  0.339244  0.532065  1
  Dy  Dy2  1  0.660897  0.998182  0.968686  1
  Dy  Dy3  1  0.162163  0.501954  0.781666  1
  Dy  Dy4  1  0.839416  0.499218  0.281638  1
  Dy  Dy5  1  0.501806  0.161329  0.217294  1
  Dy  Dy6  1  0.499402  0.839348  0.718840  1
  Dy  Dy7  1  0.339704  0.001828  0.468835  1
  Ta  Ta8  1  0.340645  0.506106  0.375727  1
  Ta  Ta9  1  0.669113  0.669705  0.500527  1
  Ti  Ti10  1  0.830704  0.168289  0.750136  1
  Ti  Ti11  1  0.166994  0.831420  0.249280  1
  Ti  Ti12  1  0.330198  0.330271  0.999560  1
  Si  Si13  1  0.039999  0.711900  0.436903  1
  Si  Si14  1  0.959400  0.289616  0.936349  1
  Si  Si15  1  0.710518  0.041078  0.563918  1
  Si  Si16  1  0.208193  0.458375  0.185152  1
  Si  Si17  1  0.791456  0.539039  0.687969  1
  Si  Si18  1  0.459375  0.209523  0.813609  1
  Si  Si19  1  0.541161  0.794438  0.312088  1
  Si  Si20  1  0.289474  0.959701  0.063644  1
  Si  Si21  1  0.799295  0.871358  0.182734  1
  Si  Si22  1  0.296251  0.627256  0.569130  1
  Si  Si23  1  0.701207  0.372737  0.066577  1
  Si  Si24  1  0.629983  0.294559  0.432250  1
  Si  Si25  1  0.372553  0.701017  0.933508  1
  Si  Si26  1  0.126909  0.199948  0.315879  1
  Si  Si27  1  0.202633  0.127692  0.683500  1
  Si  Si28  1  0.872248  0.799398  0.816978  1
  W  W29  1  0.839497  0.994494  0.373131  1
  W  W30  1  0.004913  0.159419  0.124907  1
  W  W31  1  0.994151  0.841335  0.627483  1
  W  W32  1  0.507784  0.338285  0.624850  1
  W  W33  1  0.160802  0.006827  0.874419  1
  W  W34  1  0.492994  0.660348  0.124225  1
  W  W35  1  0.659782  0.493815  0.875875  1
