# generated using pymatgen
data_Ho5Er(Co3P2)6
_symmetry_space_group_name_H-M   'P 1'
_cell_length_a   3.69366200
_cell_length_b   10.49437737
_cell_length_c   12.16504057
_cell_angle_alpha   89.94163390
_cell_angle_beta   90.00000000
_cell_angle_gamma   90.00000000
_symmetry_Int_Tables_number   1
_chemical_formula_structural   Ho5Er(Co3P2)6
_chemical_formula_sum   'Ho5 Er1 Co18 P12'
_cell_volume   471.54936540
_cell_formula_units_Z   1
loop_
 _symmetry_equiv_pos_site_id
 _symmetry_equiv_pos_as_xyz
  1  'x, y, z'
loop_
 _atom_site_type_symbol
 _atom_site_label
 _atom_site_symmetry_multiplicity
 _atom_site_fract_x
 _atom_site_fract_y
 _atom_site_fract_z
 _atom_site_occupancy
  Ho  Ho0  1  0.750000  0.250061  0.477954  1
  Ho  Ho1  1  0.250000  0.749852  0.521871  1
  Ho  Ho2  1  0.250000  0.932547  0.794273  1
  Ho  Ho3  1  0.250000  0.567482  0.794029  1
  Ho  Ho4  1  0.750000  0.067740  0.205866  1
  Er  Er5  1  0.750000  0.432440  0.205841  1
  Co  Co6  1  0.250000  0.250024  0.841181  1
  Co  Co7  1  0.750000  0.749942  0.158707  1
  Co  Co8  1  0.250000  0.250344  0.296537  1
  Co  Co9  1  0.750000  0.749835  0.703379  1
  Co  Co10  1  0.750000  0.250298  0.014132  1
  Co  Co11  1  0.250000  0.749842  0.986426  1
  Co  Co12  1  0.250000  0.416879  0.005488  1
  Co  Co13  1  0.250000  0.083470  0.005477  1
  Co  Co14  1  0.750000  0.583007  0.994924  1
  Co  Co15  1  0.750000  0.916840  0.994745  1
  Co  Co16  1  0.250000  0.452351  0.569187  1
  Co  Co17  1  0.250000  0.047562  0.569450  1
  Co  Co18  1  0.750000  0.547559  0.430245  1
  Co  Co19  1  0.750000  0.952403  0.430538  1
  Co  Co20  1  0.250000  0.870784  0.290281  1
  Co  Co21  1  0.250000  0.628820  0.289981  1
  Co  Co22  1  0.750000  0.129104  0.709795  1
  Co  Co23  1  0.750000  0.370817  0.709675  1
  P  P24  1  0.250000  0.250423  0.117799  1
  P  P25  1  0.750000  0.749921  0.882595  1
  P  P26  1  0.250000  0.249949  0.656012  1
  P  P27  1  0.750000  0.749982  0.343872  1
  P  P28  1  0.250000  0.439101  0.383529  1
  P  P29  1  0.250000  0.060898  0.383874  1
  P  P30  1  0.750000  0.560699  0.615867  1
  P  P31  1  0.750000  0.939097  0.616123  1
  P  P32  1  0.250000  0.902898  0.107047  1
  P  P33  1  0.250000  0.596799  0.107176  1
  P  P34  1  0.750000  0.097429  0.893173  1
  P  P35  1  0.750000  0.402805  0.892953  1
