# generated using pymatgen
data_LiTbDy2In4Ru
_symmetry_space_group_name_H-M   'P 1'
_cell_length_a   8.14483107
_cell_length_b   8.15066947
_cell_length_c   3.65280900
_cell_angle_alpha   90.00000000
_cell_angle_beta   90.00000000
_cell_angle_gamma   119.96179311
_symmetry_Int_Tables_number   1
_chemical_formula_structural   LiTbDy2In4Ru
_chemical_formula_sum   'Li1 Tb1 Dy2 In4 Ru1'
_cell_volume   210.08741258
_cell_formula_units_Z   1
loop_
 _symmetry_equiv_pos_site_id
 _symmetry_equiv_pos_as_xyz
  1  'x, y, z'
loop_
 _atom_site_type_symbol
 _atom_site_label
 _atom_site_symmetry_multiplicity
 _atom_site_fract_x
 _atom_site_fract_y
 _atom_site_fract_z
 _atom_site_occupancy
  Li  Li0  1  0.666728  0.333267  0.500000  1
  Tb  Tb1  1  0.051035  0.292920  0.500000  1
  Dy  Dy2  1  0.707881  0.758604  0.500000  1
  Dy  Dy3  1  0.241169  0.949149  0.500000  1
  In  In4  1  0.666970  0.070100  0.000000  1
  In  In5  1  0.929554  0.597185  0.000000  1
  In  In6  1  0.403351  0.332460  0.000000  1
  In  In7  1  0.333754  0.667309  0.000000  1
  Ru  Ru8  1  0.999559  0.999007  0.000000  1
