# generated using pymatgen
data_Zn3Au2
_symmetry_space_group_name_H-M   'P 1'
_cell_length_a   7.40574138
_cell_length_b   7.40574224
_cell_length_c   4.62054700
_cell_angle_alpha   90.00000000
_cell_angle_beta   90.00000000
_cell_angle_gamma   39.28278146
_symmetry_Int_Tables_number   1
_chemical_formula_structural   Zn3Au2
_chemical_formula_sum   'Zn6 Au4'
_cell_volume   160.44861190
_cell_formula_units_Z   2
loop_
 _symmetry_equiv_pos_site_id
 _symmetry_equiv_pos_as_xyz
  1  'x, y, z'
loop_
 _atom_site_type_symbol
 _atom_site_label
 _atom_site_symmetry_multiplicity
 _atom_site_fract_x
 _atom_site_fract_y
 _atom_site_fract_z
 _atom_site_occupancy
  Zn  Zn0  1  0.479100  0.117887  0.250001  1
  Zn  Zn1  1  0.685376  0.314624  0.250001  1
  Zn  Zn2  1  0.882113  0.520901  0.250001  1
  Zn  Zn3  1  0.117887  0.479100  0.750000  1
  Zn  Zn4  1  0.314624  0.685376  0.750000  1
  Zn  Zn5  1  0.520901  0.882113  0.750000  1
  Au  Au6  1  0.092919  0.698473  0.250001  1
  Au  Au7  1  0.301527  0.907081  0.250001  1
  Au  Au8  1  0.698473  0.092919  0.750000  1
  Au  Au9  1  0.907081  0.301527  0.750000  1
