# generated using pymatgen
data_Tm3Cd3Ga2Cu
_symmetry_space_group_name_H-M   'P 1'
_cell_length_a   7.20519823
_cell_length_b   7.20491696
_cell_length_c   4.27448114
_cell_angle_alpha   89.99566853
_cell_angle_beta   90.00331842
_cell_angle_gamma   119.98746040
_symmetry_Int_Tables_number   1
_chemical_formula_structural   Tm3Cd3Ga2Cu
_chemical_formula_sum   'Tm3 Cd3 Ga2 Cu1'
_cell_volume   192.19576368
_cell_formula_units_Z   1
loop_
 _symmetry_equiv_pos_site_id
 _symmetry_equiv_pos_as_xyz
  1  'x, y, z'
loop_
 _atom_site_type_symbol
 _atom_site_label
 _atom_site_symmetry_multiplicity
 _atom_site_fract_x
 _atom_site_fract_y
 _atom_site_fract_z
 _atom_site_occupancy
  Tm  Tm0  1  0.000180  0.411150  0.499876  1
  Tm  Tm1  1  0.589008  0.588899  0.499830  1
  Tm  Tm2  1  0.410993  0.000064  0.499868  1
  Cd  Cd3  1  0.000125  0.756659  0.000068  1
  Cd  Cd4  1  0.243522  0.243422  0.000001  1
  Cd  Cd5  1  0.756411  0.000045  0.999852  1
  Ga  Ga6  1  0.333435  0.666684  0.999914  1
  Ga  Ga7  1  0.666870  0.333436  0.999936  1
  Cu  Cu8  1  0.999457  0.999644  0.500654  1
