# generated using pymatgen
data_TaTi5(SiRu)6
_symmetry_space_group_name_H-M   'P 1'
_cell_length_a   7.39129856
_cell_length_b   7.39638534
_cell_length_c   7.39129884
_cell_angle_alpha   127.80907019
_cell_angle_beta   122.44061558
_cell_angle_gamma   81.38604522
_symmetry_Int_Tables_number   1
_chemical_formula_structural   TaTi5(SiRu)6
_chemical_formula_sum   'Ta1 Ti5 Si6 Ru6'
_cell_volume   259.52547817
_cell_formula_units_Z   1
loop_
 _symmetry_equiv_pos_site_id
 _symmetry_equiv_pos_as_xyz
  1  'x, y, z'
loop_
 _atom_site_type_symbol
 _atom_site_label
 _atom_site_symmetry_multiplicity
 _atom_site_fract_x
 _atom_site_fract_y
 _atom_site_fract_z
 _atom_site_occupancy
  Ta  Ta0  1  0.253491  0.084092  0.330601  1
  Ti  Ti1  1  0.949623  0.898003  0.448381  1
  Ti  Ti2  1  0.056605  0.518096  0.961491  1
  Ti  Ti3  1  0.525755  0.503656  0.477900  1
  Ti  Ti4  1  0.471784  0.954119  0.982334  1
  Ti  Ti5  1  0.745868  0.081356  0.835487  1
  Si  Si6  1  0.714890  0.445979  0.231089  1
  Si  Si7  1  0.277710  0.539997  0.762288  1
  Si  Si8  1  0.680006  0.173172  0.514698  1
  Si  Si9  1  0.329639  0.835622  0.501831  1
  Si  Si10  1  0.158474  0.173172  0.993166  1
  Si  Si11  1  0.833791  0.835622  0.005982  1
  Ru  Ru12  1  0.522060  0.755189  0.275516  1
  Ru  Ru13  1  0.979674  0.755189  0.733130  1
  Ru  Ru14  1  0.911888  0.249580  0.412766  1
  Ru  Ru15  1  0.093390  0.502688  0.344149  1
  Ru  Ru16  1  0.336814  0.249580  0.837692  1
  Ru  Ru17  1  0.658539  0.502688  0.909298  1
