# generated using pymatgen
data_Li4La3Tb9Au20
_symmetry_space_group_name_H-M   'P 1'
_cell_length_a   8.58277800
_cell_length_b   8.58277983
_cell_length_c   13.66679900
_cell_angle_alpha   90.00000000
_cell_angle_beta   90.00000000
_cell_angle_gamma   128.39531821
_symmetry_Int_Tables_number   1
_chemical_formula_structural   Li4La3Tb9Au20
_chemical_formula_sum   'Li4 La3 Tb9 Au20'
_cell_volume   789.03633719
_cell_formula_units_Z   1
loop_
 _symmetry_equiv_pos_site_id
 _symmetry_equiv_pos_as_xyz
  1  'x, y, z'
loop_
 _atom_site_type_symbol
 _atom_site_label
 _atom_site_symmetry_multiplicity
 _atom_site_fract_x
 _atom_site_fract_y
 _atom_site_fract_z
 _atom_site_occupancy
  Li  Li0  1  0.720736  0.279264  0.250000  1
  Li  Li1  1  0.278883  0.721117  0.750000  1
  Li  Li2  1  0.533068  0.466932  0.250000  1
  Li  Li3  1  0.468475  0.531525  0.750000  1
  La  La4  1  0.932685  0.067315  0.250000  1
  La  La5  1  0.069584  0.930416  0.750000  1
  La  La6  1  0.316731  0.683269  0.250000  1
  Tb  Tb7  1  0.684456  0.315544  0.750000  1
  Tb  Tb8  1  0.630416  0.369584  0.465110  1
  Tb  Tb9  1  0.369189  0.630811  0.538229  1
  Tb  Tb10  1  0.630416  0.369584  0.034890  1
  Tb  Tb11  1  0.369189  0.630811  0.961771  1
  Tb  Tb12  1  0.881598  0.118402  0.947293  1
  Tb  Tb13  1  0.119036  0.880964  0.050047  1
  Tb  Tb14  1  0.881598  0.118402  0.552707  1
  Tb  Tb15  1  0.119036  0.880964  0.449953  1
  Au  Au16  1  0.322908  0.069824  0.250000  1
  Au  Au17  1  0.067085  0.325320  0.750000  1
  Au  Au18  1  0.674680  0.932915  0.750000  1
  Au  Au19  1  0.930176  0.677092  0.250000  1
  Au  Au20  1  0.573235  0.008382  0.400420  1
  Au  Au21  1  0.003502  0.569071  0.604066  1
  Au  Au22  1  0.573235  0.008382  0.099580  1
  Au  Au23  1  0.003502  0.569071  0.895934  1
  Au  Au24  1  0.430929  0.996498  0.604066  1
  Au  Au25  1  0.991618  0.426765  0.400420  1
  Au  Au26  1  0.430929  0.996498  0.895934  1
  Au  Au27  1  0.991618  0.426765  0.099580  1
  Au  Au28  1  0.684245  0.735352  0.396438  1
  Au  Au29  1  0.735111  0.683258  0.606112  1
  Au  Au30  1  0.684245  0.735352  0.103562  1
  Au  Au31  1  0.735111  0.683258  0.893888  1
  Au  Au32  1  0.316742  0.264889  0.606112  1
  Au  Au33  1  0.264648  0.315755  0.396438  1
  Au  Au34  1  0.316742  0.264889  0.893888  1
  Au  Au35  1  0.264648  0.315755  0.103562  1
