# generated using pymatgen
data_PrTh3(B10Ru)2
_symmetry_space_group_name_H-M   'P 1'
_cell_length_a   4.20630000
_cell_length_b   5.74586915
_cell_length_c   11.46491054
_cell_angle_alpha   90.01493706
_cell_angle_beta   90.00000000
_cell_angle_gamma   90.00000000
_symmetry_Int_Tables_number   1
_chemical_formula_structural   PrTh3(B10Ru)2
_chemical_formula_sum   'Pr1 Th3 B20 Ru2'
_cell_volume   277.09368695
_cell_formula_units_Z   1
loop_
 _symmetry_equiv_pos_site_id
 _symmetry_equiv_pos_as_xyz
  1  'x, y, z'
loop_
 _atom_site_type_symbol
 _atom_site_label
 _atom_site_symmetry_multiplicity
 _atom_site_fract_x
 _atom_site_fract_y
 _atom_site_fract_z
 _atom_site_occupancy
  Pr  Pr0  1  0.500000  0.285524  0.867134  1
  Th  Th1  1  0.500000  0.718240  0.130425  1
  Th  Th2  1  0.500000  0.786287  0.631678  1
  Th  Th3  1  0.500000  0.215202  0.368097  1
  B  B4  1  0.000000  0.118687  0.542112  1
  B  B5  1  0.000000  0.881493  0.457648  1
  B  B6  1  0.000000  0.617010  0.956808  1
  B  B7  1  0.000000  0.379886  0.043325  1
  B  B8  1  0.000000  0.132955  0.697021  1
  B  B9  1  0.000000  0.867944  0.303260  1
  B  B10  1  0.300307  0.220064  0.119542  1
  B  B11  1  0.299784  0.777742  0.881679  1
  B  B12  1  0.699236  0.721136  0.381260  1
  B  B13  1  0.699850  0.278423  0.618418  1
  B  B14  1  0.700216  0.777742  0.881679  1
  B  B15  1  0.699693  0.220064  0.119542  1
  B  B16  1  0.300150  0.278423  0.618418  1
  B  B17  1  0.300764  0.721136  0.381260  1
  B  B18  1  0.000000  0.059772  0.193741  1
  B  B19  1  0.000000  0.940845  0.807801  1
  B  B20  1  0.000000  0.559681  0.306903  1
  B  B21  1  0.000000  0.442577  0.691684  1
  B  B22  1  0.000000  0.368326  0.197058  1
  B  B23  1  0.000000  0.634127  0.802319  1
  Ru  Ru24  1  0.000000  0.499903  0.499827  1
  Ru  Ru25  1  0.000000  0.996810  0.001366  1
