# generated using pymatgen
data_Hf3Zr3Al16Ni6Ir
_symmetry_space_group_name_H-M   'P 1'
_cell_length_a   8.55038011
_cell_length_b   8.55038026
_cell_length_c   8.55529270
_cell_angle_alpha   60.01900043
_cell_angle_beta   60.01900210
_cell_angle_gamma   60.00000825
_symmetry_Int_Tables_number   1
_chemical_formula_structural   Hf3Zr3Al16Ni6Ir
_chemical_formula_sum   'Hf3 Zr3 Al16 Ni6 Ir1'
_cell_volume   442.40031238
_cell_formula_units_Z   1
loop_
 _symmetry_equiv_pos_site_id
 _symmetry_equiv_pos_as_xyz
  1  'x, y, z'
loop_
 _atom_site_type_symbol
 _atom_site_label
 _atom_site_symmetry_multiplicity
 _atom_site_fract_x
 _atom_site_fract_y
 _atom_site_fract_z
 _atom_site_occupancy
  Hf  Hf0  1  0.687946  0.687946  0.311143  1
  Hf  Hf1  1  0.312964  0.687946  0.311143  1
  Hf  Hf2  1  0.687946  0.312964  0.311143  1
  Zr  Zr3  1  0.308441  0.308441  0.690735  1
  Zr  Zr4  1  0.692384  0.308441  0.690735  1
  Zr  Zr5  1  0.308441  0.692384  0.690735  1
  Al  Al6  1  0.879519  0.879519  0.361445  1
  Al  Al7  1  0.878787  0.362396  0.880031  1
  Al  Al8  1  0.362396  0.878787  0.880031  1
  Al  Al9  1  0.878787  0.878787  0.880031  1
  Al  Al10  1  0.121254  0.121254  0.636236  1
  Al  Al11  1  0.120032  0.638429  0.121504  1
  Al  Al12  1  0.638429  0.120032  0.121504  1
  Al  Al13  1  0.120032  0.120032  0.121504  1
  Al  Al14  1  0.665479  0.665479  0.003563  1
  Al  Al15  1  0.665829  0.003275  0.665067  1
  Al  Al16  1  0.003275  0.665829  0.665067  1
  Al  Al17  1  0.665829  0.665829  0.665067  1
  Al  Al18  1  0.333916  0.333916  0.998252  1
  Al  Al19  1  0.335073  0.996181  0.333674  1
  Al  Al20  1  0.996181  0.335073  0.333674  1
  Al  Al21  1  0.335073  0.335073  0.333674  1
  Ni  Ni22  1  0.000278  0.000278  0.498010  1
  Ni  Ni23  1  0.501433  0.000278  0.498010  1
  Ni  Ni24  1  0.000278  0.501433  0.498010  1
  Ni  Ni25  1  0.500333  0.500333  0.000602  1
  Ni  Ni26  1  0.998731  0.500333  0.000602  1
  Ni  Ni27  1  0.500333  0.998731  0.000602  1
  Ir  Ir28  1  0.000599  0.000599  0.998203  1
