# generated using pymatgen
data_Dy4Ga4PtRh3
_symmetry_space_group_name_H-M   'P 1'
_cell_length_a   4.35841400
_cell_length_b   6.84328183
_cell_length_c   7.75949629
_cell_angle_alpha   90.28174535
_cell_angle_beta   90.00000000
_cell_angle_gamma   90.00000000
_symmetry_Int_Tables_number   1
_chemical_formula_structural   Dy4Ga4PtRh3
_chemical_formula_sum   'Dy4 Ga4 Pt1 Rh3'
_cell_volume   231.43081568
_cell_formula_units_Z   1
loop_
 _symmetry_equiv_pos_site_id
 _symmetry_equiv_pos_as_xyz
  1  'x, y, z'
loop_
 _atom_site_type_symbol
 _atom_site_label
 _atom_site_symmetry_multiplicity
 _atom_site_fract_x
 _atom_site_fract_y
 _atom_site_fract_z
 _atom_site_occupancy
  Dy  Dy0  1  0.250000  0.973183  0.309770  1
  Dy  Dy1  1  0.250000  0.475225  0.188513  1
  Dy  Dy2  1  0.750000  0.022955  0.693629  1
  Dy  Dy3  1  0.750000  0.524810  0.809626  1
  Ga  Ga4  1  0.250000  0.345183  0.574687  1
  Ga  Ga5  1  0.250000  0.842602  0.928331  1
  Ga  Ga6  1  0.750000  0.661056  0.427455  1
  Ga  Ga7  1  0.750000  0.154749  0.069399  1
  Pt  Pt8  1  0.750000  0.269169  0.393750  1
  Rh  Rh9  1  0.250000  0.231519  0.894704  1
  Rh  Rh10  1  0.250000  0.731993  0.604903  1
  Rh  Rh11  1  0.750000  0.767556  0.105234  1
