# generated using pymatgen
data_Sm12Y4B4C8I19
_symmetry_space_group_name_H-M   'P 1'
_cell_length_a   12.82001235
_cell_length_b   14.68969453
_cell_length_c   20.08804266
_cell_angle_alpha   104.84852033
_cell_angle_beta   89.48591063
_cell_angle_gamma   112.88215988
_symmetry_Int_Tables_number   1
_chemical_formula_structural   Sm12Y4B4C8I19
_chemical_formula_sum   'Sm24 Y8 B8 C16 I38'
_cell_volume   3351.42814860
_cell_formula_units_Z   2
loop_
 _symmetry_equiv_pos_site_id
 _symmetry_equiv_pos_as_xyz
  1  'x, y, z'
loop_
 _atom_site_type_symbol
 _atom_site_label
 _atom_site_symmetry_multiplicity
 _atom_site_fract_x
 _atom_site_fract_y
 _atom_site_fract_z
 _atom_site_occupancy
  Sm  Sm0  1  0.313597  0.341174  0.221135  1
  Sm  Sm1  1  0.572297  0.345592  0.221546  1
  Sm  Sm2  1  0.687480  0.659518  0.778465  1
  Sm  Sm3  1  0.397322  0.262486  0.042464  1
  Sm  Sm4  1  0.321680  0.711783  0.545867  1
  Sm  Sm5  1  0.859225  0.730265  0.542367  1
  Sm  Sm6  1  0.642782  0.504628  0.408855  1
  Sm  Sm7  1  0.442818  0.651690  0.280058  1
  Sm  Sm8  1  0.396668  0.261635  0.371650  1
  Sm  Sm9  1  0.136585  0.275674  0.955217  1
  Sm  Sm10  1  0.325969  0.716732  0.041640  1
  Sm  Sm11  1  0.403112  0.260460  0.869479  1
  Sm  Sm12  1  0.862746  0.724012  0.044091  1
  Sm  Sm13  1  0.678921  0.287791  0.456820  1
  Sm  Sm14  1  0.602958  0.737375  0.956605  1
  Sm  Sm15  1  0.596327  0.739320  0.129253  1
  Sm  Sm16  1  0.640973  0.501748  0.090921  1
  Sm  Sm17  1  0.359513  0.498008  0.907675  1
  Sm  Sm18  1  0.138828  0.271797  0.458967  1
  Sm  Sm19  1  0.703840  0.662748  0.279023  1
  Sm  Sm20  1  0.403550  0.262340  0.543526  1
  Sm  Sm21  1  0.363136  0.496300  0.407615  1
  Sm  Sm22  1  0.364141  0.497375  0.092813  1
  Sm  Sm23  1  0.635866  0.501818  0.905917  1
  Y  Y24  1  0.431443  0.651478  0.777550  1
  Y  Y25  1  0.363419  0.495382  0.591567  1
  Y  Y26  1  0.672226  0.285752  0.957270  1
  Y  Y27  1  0.592779  0.731701  0.457769  1
  Y  Y28  1  0.630611  0.502748  0.591069  1
  Y  Y29  1  0.554782  0.350439  0.720393  1
  Y  Y30  1  0.302653  0.342871  0.721789  1
  Y  Y31  1  0.600450  0.732853  0.626676  1
  B  B32  1  0.509270  0.501075  0.205793  1
  B  B33  1  0.470323  0.429545  0.487346  1
  B  B34  1  0.491538  0.499747  0.793793  1
  B  B35  1  0.470090  0.429158  0.986101  1
  B  B36  1  0.529655  0.569961  0.012684  1
  B  B37  1  0.492241  0.501329  0.704877  1
  B  B38  1  0.509166  0.499708  0.295217  1
  B  B39  1  0.528517  0.568960  0.513431  1
  C  C40  1  0.663538  0.635399  0.526172  1
  C  C41  1  0.462578  0.393118  0.315903  1
  C  C42  1  0.449066  0.392847  0.813801  1
  C  C43  1  0.447017  0.630322  0.025002  1
  C  C44  1  0.552421  0.368958  0.476741  1
  C  C45  1  0.538159  0.606937  0.683645  1
  C  C46  1  0.334676  0.363222  0.974961  1
  C  C47  1  0.451171  0.396484  0.644874  1
  C  C48  1  0.552596  0.368986  0.973893  1
  C  C49  1  0.664880  0.635992  0.023976  1
  C  C50  1  0.551473  0.607134  0.184883  1
  C  C51  1  0.463073  0.396017  0.145494  1
  C  C52  1  0.446797  0.629651  0.525038  1
  C  C53  1  0.335191  0.365131  0.475820  1
  C  C54  1  0.550554  0.604284  0.355821  1
  C  C55  1  0.537550  0.604535  0.853762  1
  I  I56  1  0.463126  0.086438  0.946283  1
  I  I57  1  0.615618  0.864396  0.832609  1
  I  I58  1  0.508594  0.903924  0.642423  1
  I  I59  1  0.112577  0.350460  0.821467  1
  I  I60  1  0.615381  0.207959  0.587344  1
  I  I61  1  0.868714  0.192983  0.438548  1
  I  I62  1  0.847009  0.913135  0.143729  1
  I  I63  1  0.871265  0.503149  0.952531  1
  I  I64  1  0.859301  0.816223  0.702030  1
  I  I65  1  0.377839  0.132627  0.167438  1
  I  I66  1  0.135827  0.187862  0.298423  1
  I  I67  1  0.774666  0.366203  0.325499  1
  I  I68  1  0.867679  0.807237  0.915790  1
  I  I69  1  0.751225  0.337649  0.111514  1
  I  I70  1  0.542326  0.916233  0.053131  1
  I  I71  1  0.114460  0.328505  0.617063  1
  I  I72  1  0.895221  0.673469  0.385601  1
  I  I73  1  0.810641  0.919328  0.536572  1
  I  I74  1  0.136316  0.811416  0.056694  1
  I  I75  1  0.802144  0.504835  0.748486  1
  I  I76  1  0.859352  0.192594  0.941372  1
  I  I77  1  0.125079  0.491630  0.453224  1
  I  I78  1  0.252291  0.662083  0.883139  1
  I  I79  1  0.131183  0.806725  0.563824  1
  I  I80  1  0.624737  0.218679  0.798347  1
  I  I81  1  0.192129  0.491114  0.251036  1
  I  I82  1  0.179420  0.077041  0.459813  1
  I  I83  1  0.497336  0.093022  0.359966  1
  I  I84  1  0.390319  0.796549  0.418480  1
  I  I85  1  0.152911  0.085986  0.856761  1
  I  I86  1  0.868058  0.509952  0.550522  1
  I  I87  1  0.679388  0.868000  0.328003  1
  I  I88  1  0.132150  0.193014  0.083330  1
  I  I89  1  0.127110  0.494427  0.046884  1
  I  I90  1  0.232736  0.630649  0.676100  1
  I  I91  1  0.376485  0.788693  0.201995  1
  I  I92  1  0.317766  0.135872  0.674079  1
  I  I93  1  0.891384  0.645949  0.174867  1
