# generated using pymatgen
data_Dy4YCoSb2
_symmetry_space_group_name_H-M   'P 1'
_cell_length_a   7.90763600
_cell_length_b   8.74287800
_cell_length_c   12.23294300
_cell_angle_alpha   90.00000000
_cell_angle_beta   90.00000000
_cell_angle_gamma   90.00000000
_symmetry_Int_Tables_number   1
_chemical_formula_structural   Dy4YCoSb2
_chemical_formula_sum   'Dy16 Y4 Co4 Sb8'
_cell_volume   845.73059183
_cell_formula_units_Z   4
loop_
 _symmetry_equiv_pos_site_id
 _symmetry_equiv_pos_as_xyz
  1  'x, y, z'
loop_
 _atom_site_type_symbol
 _atom_site_label
 _atom_site_symmetry_multiplicity
 _atom_site_fract_x
 _atom_site_fract_y
 _atom_site_fract_z
 _atom_site_occupancy
  Dy  Dy0  1  0.453162  0.750000  0.998355  1
  Dy  Dy1  1  0.046838  0.750000  0.498355  1
  Dy  Dy2  1  0.546838  0.250000  0.001645  1
  Dy  Dy3  1  0.953162  0.250000  0.501645  1
  Dy  Dy4  1  0.620452  0.750000  0.306859  1
  Dy  Dy5  1  0.879548  0.750000  0.806859  1
  Dy  Dy6  1  0.379548  0.250000  0.693141  1
  Dy  Dy7  1  0.120452  0.250000  0.193141  1
  Dy  Dy8  1  0.821008  0.536191  0.065164  1
  Dy  Dy9  1  0.678992  0.963809  0.565164  1
  Dy  Dy10  1  0.178992  0.036191  0.934836  1
  Dy  Dy11  1  0.321008  0.463809  0.434836  1
  Dy  Dy12  1  0.178992  0.463809  0.934836  1
  Dy  Dy13  1  0.321008  0.036191  0.434836  1
  Dy  Dy14  1  0.821008  0.963809  0.065164  1
  Dy  Dy15  1  0.678992  0.536191  0.565164  1
  Y  Y16  1  0.156010  0.750000  0.203779  1
  Y  Y17  1  0.343990  0.750000  0.703779  1
  Y  Y18  1  0.843990  0.250000  0.796221  1
  Y  Y19  1  0.656010  0.250000  0.296221  1
  Co  Co20  1  0.433120  0.750000  0.490024  1
  Co  Co21  1  0.066880  0.750000  0.990024  1
  Co  Co22  1  0.566880  0.250000  0.509976  1
  Co  Co23  1  0.933120  0.250000  0.009976  1
  Sb  Sb24  1  0.928493  0.509225  0.326835  1
  Sb  Sb25  1  0.571507  0.990775  0.826835  1
  Sb  Sb26  1  0.071507  0.009225  0.673165  1
  Sb  Sb27  1  0.428493  0.490775  0.173165  1
  Sb  Sb28  1  0.071507  0.490775  0.673165  1
  Sb  Sb29  1  0.428493  0.009225  0.173165  1
  Sb  Sb30  1  0.928493  0.990775  0.326835  1
  Sb  Sb31  1  0.571507  0.509225  0.826835  1
