# generated using pymatgen
data_Sc6Cd2C
_symmetry_space_group_name_H-M   'P 1'
_cell_length_a   6.43990670
_cell_length_b   6.43990642
_cell_length_c   6.43990600
_cell_angle_alpha   60.00000214
_cell_angle_beta   60.00000359
_cell_angle_gamma   60.00000984
_symmetry_Int_Tables_number   1
_chemical_formula_structural   Sc6Cd2C
_chemical_formula_sum   'Sc6 Cd2 C1'
_cell_volume   188.85292392
_cell_formula_units_Z   1
loop_
 _symmetry_equiv_pos_site_id
 _symmetry_equiv_pos_as_xyz
  1  'x, y, z'
loop_
 _atom_site_type_symbol
 _atom_site_label
 _atom_site_symmetry_multiplicity
 _atom_site_fract_x
 _atom_site_fract_y
 _atom_site_fract_z
 _atom_site_occupancy
  Sc  Sc0  1  0.754378  0.754378  0.245621  1
  Sc  Sc1  1  0.754377  0.245622  0.245621  1
  Sc  Sc2  1  0.245622  0.754377  0.245621  1
  Sc  Sc3  1  0.245622  0.245622  0.754377  1
  Sc  Sc4  1  0.754379  0.245620  0.754379  1
  Sc  Sc5  1  0.245620  0.754379  0.754379  1
  Cd  Cd6  1  0.250000  0.250000  0.250000  1
  Cd  Cd7  1  0.749999  0.749999  0.749999  1
  C  C8  1  0.000000  0.000000  0.000000  1
