# generated using pymatgen
data_La4Lu4Tc3B24Os
_symmetry_space_group_name_H-M   'P 1'
_cell_length_a   3.72976700
_cell_length_b   9.21766445
_cell_length_c   11.72108623
_cell_angle_alpha   89.96954305
_cell_angle_beta   90.00000000
_cell_angle_gamma   90.00000000
_symmetry_Int_Tables_number   1
_chemical_formula_structural   La4Lu4Tc3B24Os
_chemical_formula_sum   'La4 Lu4 Tc3 B24 Os1'
_cell_volume   402.96784818
_cell_formula_units_Z   1
loop_
 _symmetry_equiv_pos_site_id
 _symmetry_equiv_pos_as_xyz
  1  'x, y, z'
loop_
 _atom_site_type_symbol
 _atom_site_label
 _atom_site_symmetry_multiplicity
 _atom_site_fract_x
 _atom_site_fract_y
 _atom_site_fract_z
 _atom_site_occupancy
  La  La0  1  0.000000  0.323394  0.414768  1
  La  La1  1  0.000000  0.675514  0.582943  1
  La  La2  1  0.000000  0.823150  0.086217  1
  La  La3  1  0.000000  0.177834  0.916455  1
  Lu  Lu4  1  0.000000  0.943016  0.368010  1
  Lu  Lu5  1  0.000000  0.058323  0.631321  1
  Lu  Lu6  1  0.000000  0.443389  0.132251  1
  Lu  Lu7  1  0.000000  0.555937  0.868044  1
  Tc  Tc8  1  0.000000  0.641019  0.317303  1
  Tc  Tc9  1  0.000000  0.358724  0.683606  1
  Tc  Tc10  1  0.000000  0.140459  0.182191  1
  B  B11  1  0.500000  0.557618  0.427428  1
  B  B12  1  0.500000  0.442354  0.572389  1
  B  B13  1  0.500000  0.057782  0.072412  1
  B  B14  1  0.500000  0.941924  0.927556  1
  B  B15  1  0.500000  0.751681  0.413624  1
  B  B16  1  0.500000  0.248223  0.586514  1
  B  B17  1  0.500000  0.252252  0.086380  1
  B  B18  1  0.500000  0.748770  0.913191  1
  B  B19  1  0.500000  0.792231  0.265353  1
  B  B20  1  0.500000  0.207740  0.735103  1
  B  B21  1  0.500000  0.292077  0.234740  1
  B  B22  1  0.500000  0.708248  0.764801  1
  B  B23  1  0.500000  0.629470  0.185377  1
  B  B24  1  0.500000  0.370715  0.815088  1
  B  B25  1  0.500000  0.129082  0.314368  1
  B  B26  1  0.500000  0.870510  0.685529  1
  B  B27  1  0.500000  0.985113  0.214386  1
  B  B28  1  0.500000  0.013987  0.786011  1
  B  B29  1  0.500000  0.485473  0.285303  1
  B  B30  1  0.500000  0.514436  0.714359  1
  B  B31  1  0.500000  0.594403  0.025083  1
  B  B32  1  0.500000  0.406334  0.974802  1
  B  B33  1  0.500000  0.094017  0.474954  1
  B  B34  1  0.500000  0.906252  0.525399  1
  Os  Os35  1  0.000000  0.858548  0.816740  1
