# generated using pymatgen
data_ZnFe2(Sb6Pt)2
_symmetry_space_group_name_H-M   'P 1'
_cell_length_a   8.07479203
_cell_length_b   8.10237429
_cell_length_c   8.07479153
_cell_angle_alpha   109.42312975
_cell_angle_beta   109.49042775
_cell_angle_gamma   109.36229576
_symmetry_Int_Tables_number   1
_chemical_formula_structural   ZnFe2(Sb6Pt)2
_chemical_formula_sum   'Zn1 Fe2 Sb12 Pt2'
_cell_volume   407.37005266
_cell_formula_units_Z   1
loop_
 _symmetry_equiv_pos_site_id
 _symmetry_equiv_pos_as_xyz
  1  'x, y, z'
loop_
 _atom_site_type_symbol
 _atom_site_label
 _atom_site_symmetry_multiplicity
 _atom_site_fract_x
 _atom_site_fract_y
 _atom_site_fract_z
 _atom_site_occupancy
  Zn  Zn0  1  0.000000  0.000000  0.000000  1
  Fe  Fe1  1  0.000000  0.500000  0.000000  1
  Fe  Fe2  1  0.500000  0.500000  0.500000  1
  Sb  Sb3  1  0.652555  0.802890  0.150335  1
  Sb  Sb4  1  0.853879  0.347244  0.180736  1
  Sb  Sb5  1  0.508424  0.834202  0.653448  1
  Sb  Sb6  1  0.833492  0.652756  0.506634  1
  Sb  Sb7  1  0.491576  0.165798  0.346552  1
  Sb  Sb8  1  0.146121  0.652756  0.819264  1
  Sb  Sb9  1  0.819247  0.165798  0.674222  1
  Sb  Sb10  1  0.180753  0.834202  0.325778  1
  Sb  Sb11  1  0.166508  0.347244  0.493366  1
  Sb  Sb12  1  0.674476  0.513770  0.839295  1
  Sb  Sb13  1  0.325524  0.486230  0.160705  1
  Sb  Sb14  1  0.347445  0.197110  0.849665  1
  Pt  Pt15  1  0.000000  0.000000  0.500000  1
  Pt  Pt16  1  0.500000  0.000000  0.000000  1
