# generated using pymatgen
data_K2IrOF5
_symmetry_space_group_name_H-M   'P 1'
_cell_length_a   6.23141984
_cell_length_b   6.23142028
_cell_length_c   8.72482311
_cell_angle_alpha   87.68883146
_cell_angle_beta   87.68883001
_cell_angle_gamma   83.10088015
_symmetry_Int_Tables_number   1
_chemical_formula_structural   K2IrOF5
_chemical_formula_sum   'K4 Ir2 O2 F10'
_cell_volume   335.84830413
_cell_formula_units_Z   2
loop_
 _symmetry_equiv_pos_site_id
 _symmetry_equiv_pos_as_xyz
  1  'x, y, z'
loop_
 _atom_site_type_symbol
 _atom_site_label
 _atom_site_symmetry_multiplicity
 _atom_site_fract_x
 _atom_site_fract_y
 _atom_site_fract_z
 _atom_site_occupancy
  K  K0  1  0.287888  0.284976  0.030000  1
  K  K1  1  0.715024  0.712112  0.470000  1
  K  K2  1  0.712112  0.715024  0.970000  1
  K  K3  1  0.284976  0.287888  0.530000  1
  Ir  Ir4  1  0.798181  0.201819  0.250000  1
  Ir  Ir5  1  0.201819  0.798181  0.750000  1
  O  O6  1  0.014932  0.985068  0.250000  1
  O  O7  1  0.985068  0.014932  0.750000  1
  F  F8  1  0.852763  0.290418  0.032457  1
  F  F9  1  0.709582  0.147237  0.467543  1
  F  F10  1  0.147237  0.709582  0.967543  1
  F  F11  1  0.290418  0.852763  0.532457  1
  F  F12  1  0.553071  0.446929  0.250000  1
  F  F13  1  0.446929  0.553071  0.750000  1
  F  F14  1  0.586236  0.008759  0.188603  1
  F  F15  1  0.991241  0.413764  0.311397  1
  F  F16  1  0.413764  0.991241  0.811397  1
  F  F17  1  0.008759  0.586236  0.688603  1
