# generated using pymatgen
data_LiHo3Cd3Ga2
_symmetry_space_group_name_H-M   'P 1'
_cell_length_a   7.38427600
_cell_length_b   7.38427634
_cell_length_c   4.25325900
_cell_angle_alpha   90.00000000
_cell_angle_beta   90.00000000
_cell_angle_gamma   119.99999847
_symmetry_Int_Tables_number   1
_chemical_formula_structural   LiHo3Cd3Ga2
_chemical_formula_sum   'Li1 Ho3 Cd3 Ga2'
_cell_volume   200.84837847
_cell_formula_units_Z   1
loop_
 _symmetry_equiv_pos_site_id
 _symmetry_equiv_pos_as_xyz
  1  'x, y, z'
loop_
 _atom_site_type_symbol
 _atom_site_label
 _atom_site_symmetry_multiplicity
 _atom_site_fract_x
 _atom_site_fract_y
 _atom_site_fract_z
 _atom_site_occupancy
  Li  Li0  1  0.000000  0.000000  0.500000  1
  Ho  Ho1  1  0.424440  0.424440  0.500000  1
  Ho  Ho2  1  0.575560  0.000000  0.500000  1
  Ho  Ho3  1  0.000000  0.575560  0.500000  1
  Cd  Cd4  1  0.755804  0.755804  0.000000  1
  Cd  Cd5  1  0.244196  0.000000  0.000000  1
  Cd  Cd6  1  0.000000  0.244196  0.000000  1
  Ga  Ga7  1  0.666667  0.333333  0.000000  1
  Ga  Ga8  1  0.333333  0.666667  0.000000  1
