# generated using pymatgen
data_Ca5(InAs3)2
_symmetry_space_group_name_H-M   'P 1'
_cell_length_a   4.31992100
_cell_length_b   11.51557900
_cell_length_c   13.53942300
_cell_angle_alpha   90.00000000
_cell_angle_beta   90.00000000
_cell_angle_gamma   90.00000000
_symmetry_Int_Tables_number   1
_chemical_formula_structural   Ca5(InAs3)2
_chemical_formula_sum   'Ca10 In4 As12'
_cell_volume   673.53743791
_cell_formula_units_Z   2
loop_
 _symmetry_equiv_pos_site_id
 _symmetry_equiv_pos_as_xyz
  1  'x, y, z'
loop_
 _atom_site_type_symbol
 _atom_site_label
 _atom_site_symmetry_multiplicity
 _atom_site_fract_x
 _atom_site_fract_y
 _atom_site_fract_z
 _atom_site_occupancy
  Ca  Ca0  1  0.000000  0.677434  0.987198  1
  Ca  Ca1  1  0.000000  0.822566  0.487198  1
  Ca  Ca2  1  0.000000  0.409696  0.749580  1
  Ca  Ca3  1  0.000000  0.909696  0.750420  1
  Ca  Ca4  1  0.000000  0.590304  0.250420  1
  Ca  Ca5  1  0.000000  0.177434  0.512802  1
  Ca  Ca6  1  0.000000  0.090304  0.249580  1
  Ca  Ca7  1  0.000000  0.000000  0.000000  1
  Ca  Ca8  1  0.000000  0.322566  0.012802  1
  Ca  Ca9  1  0.000000  0.500000  0.500000  1
  In  In10  1  0.500000  0.663809  0.785150  1
  In  In11  1  0.500000  0.163809  0.714850  1
  In  In12  1  0.500000  0.836191  0.285150  1
  In  In13  1  0.500000  0.336191  0.214850  1
  As  As14  1  0.500000  0.967482  0.590109  1
  As  As15  1  0.500000  0.848482  0.904497  1
  As  As16  1  0.000000  0.660971  0.671154  1
  As  As17  1  0.500000  0.467482  0.909891  1
  As  As18  1  0.500000  0.651518  0.404497  1
  As  As19  1  0.500000  0.151518  0.095503  1
  As  As20  1  0.500000  0.032518  0.409891  1
  As  As21  1  0.000000  0.160971  0.828846  1
  As  As22  1  0.000000  0.839029  0.171154  1
  As  As23  1  0.500000  0.532518  0.090109  1
  As  As24  1  0.500000  0.348482  0.595503  1
  As  As25  1  0.000000  0.339029  0.328846  1
