# generated using pymatgen
data_Pr5SmRuI10
_symmetry_space_group_name_H-M   'P 1'
_cell_length_a   8.03642468
_cell_length_b   10.08406562
_cell_length_c   10.09436900
_cell_angle_alpha   107.20782522
_cell_angle_beta   96.49901622
_cell_angle_gamma   104.63105287
_symmetry_Int_Tables_number   1
_chemical_formula_structural   Pr5SmRuI10
_chemical_formula_sum   'Pr5 Sm1 Ru1 I10'
_cell_volume   740.29714323
_cell_formula_units_Z   1
loop_
 _symmetry_equiv_pos_site_id
 _symmetry_equiv_pos_as_xyz
  1  'x, y, z'
loop_
 _atom_site_type_symbol
 _atom_site_label
 _atom_site_symmetry_multiplicity
 _atom_site_fract_x
 _atom_site_fract_y
 _atom_site_fract_z
 _atom_site_occupancy
  Pr  Pr0  1  0.115577  0.041718  0.759620  1
  Pr  Pr1  1  0.880218  0.955928  0.238881  1
  Pr  Pr2  1  0.964708  0.280898  0.082473  1
  Pr  Pr3  1  0.032036  0.717921  0.915388  1
  Pr  Pr4  1  0.355640  0.128201  0.171198  1
  Sm  Sm5  1  0.651000  0.875573  0.833233  1
  Ru  Ru6  1  0.999786  0.999801  0.000310  1
  I  I7  1  0.346131  0.449863  0.269565  1
  I  I8  1  0.648645  0.556554  0.729328  1
  I  I9  1  0.253434  0.083780  0.456849  1
  I  I10  1  0.739040  0.912694  0.546423  1
  I  I11  1  0.086459  0.368482  0.818445  1
  I  I12  1  0.913050  0.630645  0.180240  1
  I  I13  1  0.455381  0.815265  0.085432  1
  I  I14  1  0.545939  0.178426  0.906067  1
  I  I15  1  0.784530  0.257878  0.349340  1
  I  I16  1  0.228427  0.746374  0.657210  1
