# generated using pymatgen
data_Er(As2Ru3)2
_symmetry_space_group_name_H-M   'P 1'
_cell_length_a   7.17591500
_cell_length_b   7.17591552
_cell_length_c   3.85177800
_cell_angle_alpha   90.00000000
_cell_angle_beta   90.00000000
_cell_angle_gamma   120.00000220
_symmetry_Int_Tables_number   1
_chemical_formula_structural   Er(As2Ru3)2
_chemical_formula_sum   'Er1 As4 Ru6'
_cell_volume   171.76966692
_cell_formula_units_Z   1
loop_
 _symmetry_equiv_pos_site_id
 _symmetry_equiv_pos_as_xyz
  1  'x, y, z'
loop_
 _atom_site_type_symbol
 _atom_site_label
 _atom_site_symmetry_multiplicity
 _atom_site_fract_x
 _atom_site_fract_y
 _atom_site_fract_z
 _atom_site_occupancy
  Er  Er0  1  0.000000  0.000000  0.000000  1
  As  As1  1  0.333333  0.666667  0.000000  1
  As  As2  1  0.379291  0.189645  0.500001  1
  As  As3  1  0.810355  0.189645  0.500001  1
  As  As4  1  0.810355  0.620709  0.500001  1
  Ru  Ru5  1  0.535718  0.071436  0.000000  1
  Ru  Ru6  1  0.928564  0.464281  0.000000  1
  Ru  Ru7  1  0.535718  0.464281  0.000000  1
  Ru  Ru8  1  0.199991  0.399981  0.500001  1
  Ru  Ru9  1  0.199991  0.800009  0.500001  1
  Ru  Ru10  1  0.600018  0.800009  0.500001  1
