# generated using pymatgen
data_Ga2ReSi2Tc
_symmetry_space_group_name_H-M   'P 1'
_cell_length_a   3.20465700
_cell_length_b   3.20465700
_cell_length_c   8.14095600
_cell_angle_alpha   90.00000000
_cell_angle_beta   90.00000000
_cell_angle_gamma   90.00000000
_symmetry_Int_Tables_number   1
_chemical_formula_structural   Ga2ReSi2Tc
_chemical_formula_sum   'Ga2 Re1 Si2 Tc1'
_cell_volume   83.60620556
_cell_formula_units_Z   1
loop_
 _symmetry_equiv_pos_site_id
 _symmetry_equiv_pos_as_xyz
  1  'x, y, z'
loop_
 _atom_site_type_symbol
 _atom_site_label
 _atom_site_symmetry_multiplicity
 _atom_site_fract_x
 _atom_site_fract_y
 _atom_site_fract_z
 _atom_site_occupancy
  Ga  Ga0  1  0.750001  0.750001  0.088370  1
  Ga  Ga1  1  0.250001  0.250001  0.913235  1
  Re  Re2  1  0.750001  0.750001  0.727679  1
  Si  Si3  1  0.750001  0.750001  0.415077  1
  Si  Si4  1  0.250001  0.250001  0.583940  1
  Tc  Tc5  1  0.250001  0.250001  0.271701  1
