# generated using pymatgen
data_Zr4Zn2B4Ir3Ru7
_symmetry_space_group_name_H-M   'P 1'
_cell_length_a   9.40471239
_cell_length_b   9.42701939
_cell_length_c   3.09690500
_cell_angle_alpha   90.00000000
_cell_angle_beta   90.00000000
_cell_angle_gamma   89.96701323
_symmetry_Int_Tables_number   1
_chemical_formula_structural   Zr4Zn2B4Ir3Ru7
_chemical_formula_sum   'Zr4 Zn2 B4 Ir3 Ru7'
_cell_volume   274.56661552
_cell_formula_units_Z   1
loop_
 _symmetry_equiv_pos_site_id
 _symmetry_equiv_pos_as_xyz
  1  'x, y, z'
loop_
 _atom_site_type_symbol
 _atom_site_label
 _atom_site_symmetry_multiplicity
 _atom_site_fract_x
 _atom_site_fract_y
 _atom_site_fract_z
 _atom_site_occupancy
  Zr  Zr0  1  0.676555  0.178357  0.000000  1
  Zr  Zr1  1  0.328892  0.822701  0.000000  1
  Zr  Zr2  1  0.174178  0.326595  0.000000  1
  Zr  Zr3  1  0.821833  0.670470  0.000000  1
  Zn  Zn4  1  0.999359  0.002507  0.000000  1
  Zn  Zn5  1  0.499597  0.499669  0.000000  1
  B  B6  1  0.125394  0.623616  0.000000  1
  B  B7  1  0.875152  0.374300  0.000000  1
  B  B8  1  0.623963  0.873674  0.000000  1
  B  B9  1  0.376699  0.126258  0.000000  1
  Ir  Ir10  1  0.218216  0.068083  0.500000  1
  Ir  Ir11  1  0.782898  0.929226  0.500000  1
  Ir  Ir12  1  0.069377  0.784410  0.500000  1
  Ru  Ru13  1  0.715737  0.429580  0.500000  1
  Ru  Ru14  1  0.930379  0.217940  0.500000  1
  Ru  Ru15  1  0.283178  0.571223  0.500000  1
  Ru  Ru16  1  0.569202  0.716730  0.500000  1
  Ru  Ru17  1  0.428530  0.283049  0.500000  1
  Ru  Ru18  1  0.501395  0.000581  0.500000  1
  Ru  Ru19  1  0.999467  0.501029  0.500000  1
