# generated using pymatgen
data_RbSr2Cd2Bi3
_symmetry_space_group_name_H-M   'P 1'
_cell_length_a   5.08339800
_cell_length_b   13.17688800
_cell_length_c   16.96103700
_cell_angle_alpha   90.00000000
_cell_angle_beta   90.00000000
_cell_angle_gamma   90.00000000
_symmetry_Int_Tables_number   1
_chemical_formula_structural   RbSr2Cd2Bi3
_chemical_formula_sum   'Rb4 Sr8 Cd8 Bi12'
_cell_volume   1136.10735090
_cell_formula_units_Z   4
loop_
 _symmetry_equiv_pos_site_id
 _symmetry_equiv_pos_as_xyz
  1  'x, y, z'
loop_
 _atom_site_type_symbol
 _atom_site_label
 _atom_site_symmetry_multiplicity
 _atom_site_fract_x
 _atom_site_fract_y
 _atom_site_fract_z
 _atom_site_occupancy
  Rb  Rb0  1  0.250000  0.406248  0.542355  1
  Rb  Rb1  1  0.750000  0.093752  0.042355  1
  Rb  Rb2  1  0.250000  0.906248  0.957645  1
  Rb  Rb3  1  0.750000  0.593752  0.457645  1
  Sr  Sr4  1  0.250000  0.361001  0.275890  1
  Sr  Sr5  1  0.750000  0.138999  0.775890  1
  Sr  Sr6  1  0.250000  0.861001  0.224110  1
  Sr  Sr7  1  0.750000  0.638999  0.724110  1
  Sr  Sr8  1  0.250000  0.100444  0.422597  1
  Sr  Sr9  1  0.750000  0.399556  0.922597  1
  Sr  Sr10  1  0.250000  0.600444  0.077403  1
  Sr  Sr11  1  0.750000  0.899556  0.577403  1
  Cd  Cd12  1  0.250000  0.303758  0.073394  1
  Cd  Cd13  1  0.750000  0.196242  0.573394  1
  Cd  Cd14  1  0.250000  0.803758  0.426606  1
  Cd  Cd15  1  0.750000  0.696242  0.926606  1
  Cd  Cd16  1  0.250000  0.370659  0.780979  1
  Cd  Cd17  1  0.750000  0.129341  0.280979  1
  Cd  Cd18  1  0.250000  0.870659  0.719021  1
  Cd  Cd19  1  0.750000  0.629341  0.219021  1
  Bi  Bi20  1  0.250000  0.119171  0.191150  1
  Bi  Bi21  1  0.750000  0.380829  0.691150  1
  Bi  Bi22  1  0.250000  0.619171  0.308850  1
  Bi  Bi23  1  0.750000  0.880829  0.808850  1
  Bi  Bi24  1  0.250000  0.711400  0.590284  1
  Bi  Bi25  1  0.750000  0.788600  0.090284  1
  Bi  Bi26  1  0.250000  0.211400  0.909716  1
  Bi  Bi27  1  0.750000  0.288600  0.409716  1
  Bi  Bi28  1  0.250000  0.081905  0.629757  1
  Bi  Bi29  1  0.750000  0.418095  0.129757  1
  Bi  Bi30  1  0.250000  0.581905  0.870243  1
  Bi  Bi31  1  0.750000  0.918095  0.370243  1
