# generated using pymatgen
data_Hf8Ni2MoPd
_symmetry_space_group_name_H-M   'P 1'
_cell_length_a   8.68540725
_cell_length_b   8.68540633
_cell_length_c   8.63145400
_cell_angle_alpha   60.20528167
_cell_angle_beta   60.20528512
_cell_angle_gamma   60.11162963
_symmetry_Int_Tables_number   1
_chemical_formula_structural   Hf8Ni2MoPd
_chemical_formula_sum   'Hf16 Ni4 Mo2 Pd2'
_cell_volume   462.22901954
_cell_formula_units_Z   2
loop_
 _symmetry_equiv_pos_site_id
 _symmetry_equiv_pos_as_xyz
  1  'x, y, z'
loop_
 _atom_site_type_symbol
 _atom_site_label
 _atom_site_symmetry_multiplicity
 _atom_site_fract_x
 _atom_site_fract_y
 _atom_site_fract_z
 _atom_site_occupancy
  Hf  Hf0  1  0.684698  0.105306  0.104997  1
  Hf  Hf1  1  0.105306  0.684698  0.104997  1
  Hf  Hf2  1  0.101110  0.101110  0.695261  1
  Hf  Hf3  1  0.101110  0.101110  0.102518  1
  Hf  Hf4  1  0.315388  0.315388  0.684612  1
  Hf  Hf5  1  0.687969  0.687969  0.312031  1
  Hf  Hf6  1  0.316185  0.692998  0.315185  1
  Hf  Hf7  1  0.692998  0.316185  0.675631  1
  Hf  Hf8  1  0.692998  0.316185  0.315185  1
  Hf  Hf9  1  0.316185  0.692998  0.675631  1
  Hf  Hf10  1  0.953560  0.953560  0.546440  1
  Hf  Hf11  1  0.552075  0.552075  0.947925  1
  Hf  Hf12  1  0.943076  0.553044  0.950074  1
  Hf  Hf13  1  0.553044  0.943076  0.553808  1
  Hf  Hf14  1  0.553044  0.943076  0.950074  1
  Hf  Hf15  1  0.943076  0.553044  0.553808  1
  Ni  Ni16  1  0.324602  0.886038  0.894680  1
  Ni  Ni17  1  0.886038  0.324602  0.894680  1
  Ni  Ni18  1  0.891310  0.891310  0.320905  1
  Ni  Ni19  1  0.891310  0.891310  0.896476  1
  Mo  Mo20  1  0.996973  0.332509  0.335258  1
  Mo  Mo21  1  0.332509  0.996973  0.335258  1
  Pd  Pd22  1  0.332717  0.332717  0.996433  1
  Pd  Pd23  1  0.332717  0.332717  0.338131  1
