# generated using pymatgen
data_PrNd(TaSe2)8
_symmetry_space_group_name_H-M   'P 1'
_cell_length_a   7.01173000
_cell_length_b   7.01172974
_cell_length_c   14.98937300
_cell_angle_alpha   90.00000000
_cell_angle_beta   90.00000000
_cell_angle_gamma   120.00000124
_symmetry_Int_Tables_number   1
_chemical_formula_structural   PrNd(TaSe2)8
_chemical_formula_sum   'Pr1 Nd1 Ta8 Se16'
_cell_volume   638.21123557
_cell_formula_units_Z   1
loop_
 _symmetry_equiv_pos_site_id
 _symmetry_equiv_pos_as_xyz
  1  'x, y, z'
loop_
 _atom_site_type_symbol
 _atom_site_label
 _atom_site_symmetry_multiplicity
 _atom_site_fract_x
 _atom_site_fract_y
 _atom_site_fract_z
 _atom_site_occupancy
  Pr  Pr0  1  0.000000  0.000000  0.500000  1
  Nd  Nd1  1  0.000000  0.000000  0.000000  1
  Ta  Ta2  1  0.508467  0.491533  0.751997  1
  Ta  Ta3  1  0.016933  0.508467  0.248003  1
  Ta  Ta4  1  0.491533  0.983067  0.248003  1
  Ta  Ta5  1  0.508467  0.016933  0.751997  1
  Ta  Ta6  1  0.983067  0.491533  0.751997  1
  Ta  Ta7  1  0.491533  0.508467  0.248003  1
  Ta  Ta8  1  0.000000  0.000000  0.751943  1
  Ta  Ta9  1  0.000000  0.000000  0.248057  1
  Se  Se10  1  0.829877  0.170123  0.357920  1
  Se  Se11  1  0.829877  0.659754  0.357920  1
  Se  Se12  1  0.340246  0.170123  0.357920  1
  Se  Se13  1  0.658953  0.829476  0.861787  1
  Se  Se14  1  0.170123  0.340246  0.642080  1
  Se  Se15  1  0.170524  0.829476  0.861787  1
  Se  Se16  1  0.170524  0.341047  0.861787  1
  Se  Se17  1  0.829476  0.170524  0.138213  1
  Se  Se18  1  0.341047  0.170524  0.138213  1
  Se  Se19  1  0.659754  0.829877  0.642080  1
  Se  Se20  1  0.333333  0.666667  0.131641  1
  Se  Se21  1  0.666667  0.333333  0.635826  1
  Se  Se22  1  0.666667  0.333333  0.868359  1
  Se  Se23  1  0.333333  0.666667  0.364174  1
  Se  Se24  1  0.829476  0.658953  0.138213  1
  Se  Se25  1  0.170123  0.829877  0.642080  1
