# generated using pymatgen
data_Nd2Eu2Sb6Rh7
_symmetry_space_group_name_H-M   'P 1'
_cell_length_a   7.75144232
_cell_length_b   7.75138212
_cell_length_c   7.75138200
_cell_angle_alpha   109.47065661
_cell_angle_beta   109.47133673
_cell_angle_gamma   109.47134249
_symmetry_Int_Tables_number   1
_chemical_formula_structural   Nd2Eu2Sb6Rh7
_chemical_formula_sum   'Nd2 Eu2 Sb6 Rh7'
_cell_volume   358.52600621
_cell_formula_units_Z   1
loop_
 _symmetry_equiv_pos_site_id
 _symmetry_equiv_pos_as_xyz
  1  'x, y, z'
loop_
 _atom_site_type_symbol
 _atom_site_label
 _atom_site_symmetry_multiplicity
 _atom_site_fract_x
 _atom_site_fract_y
 _atom_site_fract_z
 _atom_site_occupancy
  Nd  Nd0  1  0.000000  0.500000  0.000000  1
  Nd  Nd1  1  0.000000  0.000000  0.500000  1
  Eu  Eu2  1  0.500000  0.000000  0.000000  1
  Eu  Eu3  1  0.500000  0.500000  0.500000  1
  Sb  Sb4  1  0.000000  0.321358  0.321358  1
  Sb  Sb5  1  0.678629  0.999986  0.678643  1
  Sb  Sb6  1  0.678629  0.678643  0.999986  1
  Sb  Sb7  1  0.000000  0.678642  0.678642  1
  Sb  Sb8  1  0.321371  0.000014  0.321357  1
  Sb  Sb9  1  0.321371  0.321357  0.000014  1
  Rh  Rh10  1  0.000000  0.000000  0.000000  1
  Rh  Rh11  1  0.500000  0.750000  0.250000  1
  Rh  Rh12  1  0.750015  0.500015  0.250000  1
  Rh  Rh13  1  0.249985  0.750000  0.499985  1
  Rh  Rh14  1  0.249985  0.499985  0.750000  1
  Rh  Rh15  1  0.500000  0.250000  0.750000  1
  Rh  Rh16  1  0.750015  0.250000  0.500015  1
