# generated using pymatgen
data_ErLuFe2Co10P7
_symmetry_space_group_name_H-M   'P 1'
_cell_length_a   8.98264802
_cell_length_b   8.97465168
_cell_length_c   3.60328100
_cell_angle_alpha   90.00000000
_cell_angle_beta   90.00000000
_cell_angle_gamma   119.96168532
_symmetry_Int_Tables_number   1
_chemical_formula_structural   ErLuFe2Co10P7
_chemical_formula_sum   'Er1 Lu1 Fe2 Co10 P7'
_cell_volume   251.66237592
_cell_formula_units_Z   1
loop_
 _symmetry_equiv_pos_site_id
 _symmetry_equiv_pos_as_xyz
  1  'x, y, z'
loop_
 _atom_site_type_symbol
 _atom_site_label
 _atom_site_symmetry_multiplicity
 _atom_site_fract_x
 _atom_site_fract_y
 _atom_site_fract_z
 _atom_site_occupancy
  Er  Er0  1  0.000334  0.000344  0.000000  1
  Lu  Lu1  1  0.333886  0.666998  0.500000  1
  Fe  Fe2  1  0.542947  0.427523  0.500000  1
  Fe  Fe3  1  0.572243  0.113984  0.500000  1
  Co  Co4  1  0.098160  0.703712  0.000000  1
  Co  Co5  1  0.296121  0.394950  0.000000  1
  Co  Co6  1  0.605644  0.901385  0.000000  1
  Co  Co7  1  0.824924  0.217252  0.000000  1
  Co  Co8  1  0.784667  0.607181  0.000000  1
  Co  Co9  1  0.390703  0.175028  0.000000  1
  Co  Co10  1  0.051423  0.283941  0.500000  1
  Co  Co11  1  0.716756  0.767889  0.500000  1
  Co  Co12  1  0.231293  0.947653  0.500000  1
  Co  Co13  1  0.884285  0.458594  0.500000  1
  P  P14  1  0.078731  0.447798  0.000000  1
  P  P15  1  0.552436  0.630250  0.000000  1
  P  P16  1  0.370242  0.922042  0.000000  1
  P  P17  1  0.779759  0.043696  0.500000  1
  P  P18  1  0.956369  0.737568  0.500000  1
  P  P19  1  0.263907  0.220440  0.500000  1
  P  P20  1  0.665171  0.331764  0.000000  1
