# generated using pymatgen
data_Tb4HoTm5Ir4
_symmetry_space_group_name_H-M   'P 1'
_cell_length_a   6.44171966
_cell_length_b   7.18084298
_cell_length_c   8.48008431
_cell_angle_alpha   96.65872994
_cell_angle_beta   112.41203289
_cell_angle_gamma   90.02540078
_symmetry_Int_Tables_number   1
_chemical_formula_structural   Tb4HoTm5Ir4
_chemical_formula_sum   'Tb4 Ho1 Tm5 Ir4'
_cell_volume   359.76154911
_cell_formula_units_Z   1
loop_
 _symmetry_equiv_pos_site_id
 _symmetry_equiv_pos_as_xyz
  1  'x, y, z'
loop_
 _atom_site_type_symbol
 _atom_site_label
 _atom_site_symmetry_multiplicity
 _atom_site_fract_x
 _atom_site_fract_y
 _atom_site_fract_z
 _atom_site_occupancy
  Tb  Tb0  1  0.972044  0.919702  0.185316  1
  Tb  Tb1  1  0.786263  0.580326  0.814578  1
  Tb  Tb2  1  0.028648  0.080717  0.814869  1
  Tb  Tb3  1  0.213528  0.419396  0.185793  1
  Ho  Ho4  1  0.650834  0.816842  0.440545  1
  Tm  Tm5  1  0.210459  0.682439  0.559789  1
  Tm  Tm6  1  0.349227  0.183482  0.560157  1
  Tm  Tm7  1  0.789681  0.317294  0.440326  1
  Tm  Tm8  1  0.427612  0.749919  0.999566  1
  Tm  Tm9  1  0.572175  0.249840  0.999917  1
  Ir  Ir10  1  0.821986  0.572523  0.220642  1
  Ir  Ir11  1  0.599551  0.926864  0.779834  1
  Ir  Ir12  1  0.178358  0.426798  0.778222  1
  Ir  Ir13  1  0.399634  0.073859  0.220445  1
