# generated using pymatgen
data_RbZnRhF6
_symmetry_space_group_name_H-M   'P 1'
_cell_length_a   7.48560754
_cell_length_b   7.48560791
_cell_length_c   7.48560809
_cell_angle_alpha   120.70823016
_cell_angle_beta   120.85628504
_cell_angle_gamma   88.65039857
_symmetry_Int_Tables_number   1
_chemical_formula_structural   RbZnRhF6
_chemical_formula_sum   'Rb2 Zn2 Rh2 F12'
_cell_volume   293.00090674
_cell_formula_units_Z   2
loop_
 _symmetry_equiv_pos_site_id
 _symmetry_equiv_pos_as_xyz
  1  'x, y, z'
loop_
 _atom_site_type_symbol
 _atom_site_label
 _atom_site_symmetry_multiplicity
 _atom_site_fract_x
 _atom_site_fract_y
 _atom_site_fract_z
 _atom_site_occupancy
  Rb  Rb0  1  0.363688  0.613688  0.750000  1
  Rb  Rb1  1  0.636312  0.386312  0.250000  1
  Zn  Zn2  1  0.000000  0.000000  0.500000  1
  Zn  Zn3  1  0.000000  0.500000  0.000000  1
  Rh  Rh4  1  0.000000  0.000000  0.000000  1
  Rh  Rh5  1  0.500000  0.000000  0.500000  1
  F  F6  1  0.326018  0.076018  0.250000  1
  F  F7  1  0.931003  0.681003  0.250000  1
  F  F8  1  0.334580  0.675673  0.255248  1
  F  F9  1  0.920425  0.079332  0.244752  1
  F  F10  1  0.334580  0.079332  0.658907  1
  F  F11  1  0.920425  0.675673  0.841093  1
  F  F12  1  0.673982  0.923982  0.750000  1
  F  F13  1  0.068997  0.318997  0.750000  1
  F  F14  1  0.665420  0.324327  0.744752  1
  F  F15  1  0.079575  0.920668  0.755248  1
  F  F16  1  0.665420  0.920668  0.341093  1
  F  F17  1  0.079575  0.324327  0.158907  1
