# generated using pymatgen
data_CaTbTm2(B6Ru)2
_symmetry_space_group_name_H-M   'P 1'
_cell_length_a   3.63663800
_cell_length_b   9.12034696
_cell_length_c   11.52769000
_cell_angle_alpha   89.82566842
_cell_angle_beta   90.00000000
_cell_angle_gamma   90.00000000
_symmetry_Int_Tables_number   1
_chemical_formula_structural   CaTbTm2(B6Ru)2
_chemical_formula_sum   'Ca2 Tb2 Tm4 B24 Ru4'
_cell_volume   382.34173947
_cell_formula_units_Z   2
loop_
 _symmetry_equiv_pos_site_id
 _symmetry_equiv_pos_as_xyz
  1  'x, y, z'
loop_
 _atom_site_type_symbol
 _atom_site_label
 _atom_site_symmetry_multiplicity
 _atom_site_fract_x
 _atom_site_fract_y
 _atom_site_fract_z
 _atom_site_occupancy
  Ca  Ca0  1  0.000000  0.323836  0.415102  1
  Ca  Ca1  1  0.000000  0.676164  0.584898  1
  Tb  Tb2  1  0.000000  0.822180  0.085994  1
  Tb  Tb3  1  0.000000  0.177820  0.914006  1
  Tm  Tm4  1  0.000000  0.942003  0.369762  1
  Tm  Tm5  1  0.000000  0.057997  0.630238  1
  Tm  Tm6  1  0.000000  0.442774  0.130832  1
  Tm  Tm7  1  0.000000  0.557226  0.869168  1
  B  B8  1  0.500000  0.554533  0.431840  1
  B  B9  1  0.500000  0.445467  0.568160  1
  B  B10  1  0.500000  0.054290  0.067249  1
  B  B11  1  0.500000  0.945710  0.932751  1
  B  B12  1  0.500000  0.748881  0.417046  1
  B  B13  1  0.500000  0.251119  0.582954  1
  B  B14  1  0.500000  0.249213  0.081730  1
  B  B15  1  0.500000  0.750787  0.918270  1
  B  B16  1  0.500000  0.791401  0.264461  1
  B  B17  1  0.500000  0.208599  0.735539  1
  B  B18  1  0.500000  0.290448  0.234145  1
  B  B19  1  0.500000  0.709552  0.765855  1
  B  B20  1  0.500000  0.630726  0.184737  1
  B  B21  1  0.500000  0.369274  0.815263  1
  B  B22  1  0.500000  0.130026  0.314033  1
  B  B23  1  0.500000  0.869974  0.685967  1
  B  B24  1  0.500000  0.983235  0.211931  1
  B  B25  1  0.500000  0.016765  0.788069  1
  B  B26  1  0.500000  0.483822  0.287450  1
  B  B27  1  0.500000  0.516178  0.712550  1
  B  B28  1  0.500000  0.601433  0.027745  1
  B  B29  1  0.500000  0.398567  0.972255  1
  B  B30  1  0.500000  0.097912  0.473047  1
  B  B31  1  0.500000  0.902088  0.526953  1
  Ru  Ru32  1  0.000000  0.640618  0.317525  1
  Ru  Ru33  1  0.000000  0.359382  0.682475  1
  Ru  Ru34  1  0.000000  0.137515  0.178511  1
  Ru  Ru35  1  0.000000  0.862485  0.821489  1
