# generated using pymatgen
data_HoPa3(Ni2Sn)2
_symmetry_space_group_name_H-M   'P 1'
_cell_length_a   7.43924901
_cell_length_b   7.43924901
_cell_length_c   3.56716600
_cell_angle_alpha   90.00000000
_cell_angle_beta   90.00000000
_cell_angle_gamma   90.90501983
_symmetry_Int_Tables_number   1
_chemical_formula_structural   HoPa3(Ni2Sn)2
_chemical_formula_sum   'Ho1 Pa3 Ni4 Sn2'
_cell_volume   197.39099271
_cell_formula_units_Z   1
loop_
 _symmetry_equiv_pos_site_id
 _symmetry_equiv_pos_as_xyz
  1  'x, y, z'
loop_
 _atom_site_type_symbol
 _atom_site_label
 _atom_site_symmetry_multiplicity
 _atom_site_fract_x
 _atom_site_fract_y
 _atom_site_fract_z
 _atom_site_occupancy
  Ho  Ho0  1  0.826727  0.673273  0.500000  1
  Pa  Pa1  1  0.673771  0.173431  0.500000  1
  Pa  Pa2  1  0.326569  0.826229  0.500000  1
  Pa  Pa3  1  0.171831  0.328169  0.500000  1
  Ni  Ni4  1  0.881216  0.363648  0.000000  1
  Ni  Ni5  1  0.136352  0.618784  0.000000  1
  Ni  Ni6  1  0.369593  0.130407  0.000000  1
  Ni  Ni7  1  0.611471  0.888529  0.000000  1
  Sn  Sn8  1  0.507740  0.505270  0.000000  1
  Sn  Sn9  1  0.994730  0.992260  0.000000  1
