# generated using pymatgen
data_Ti3GaPd3Au
_symmetry_space_group_name_H-M   'P 1'
_cell_length_a   3.35321500
_cell_length_b   3.35321500
_cell_length_c   11.36458000
_cell_angle_alpha   90.00000000
_cell_angle_beta   90.00000000
_cell_angle_gamma   90.00000000
_symmetry_Int_Tables_number   1
_chemical_formula_structural   Ti3GaPd3Au
_chemical_formula_sum   'Ti3 Ga1 Pd3 Au1'
_cell_volume   127.78391525
_cell_formula_units_Z   1
loop_
 _symmetry_equiv_pos_site_id
 _symmetry_equiv_pos_as_xyz
  1  'x, y, z'
loop_
 _atom_site_type_symbol
 _atom_site_label
 _atom_site_symmetry_multiplicity
 _atom_site_fract_x
 _atom_site_fract_y
 _atom_site_fract_z
 _atom_site_occupancy
  Ti  Ti0  1  0.500000  0.500000  0.133995  1
  Ti  Ti1  1  0.500000  0.500000  0.871066  1
  Ti  Ti2  1  0.000000  0.000000  0.490240  1
  Ga  Ga3  1  0.000000  0.000000  0.002027  1
  Pd  Pd4  1  0.000000  0.000000  0.239716  1
  Pd  Pd5  1  0.500000  0.500000  0.378031  1
  Pd  Pd6  1  0.000000  0.000000  0.763634  1
  Au  Au7  1  0.500000  0.500000  0.621292  1
