# generated using pymatgen
data_Pr7Nd(ZnSi3)4
_symmetry_space_group_name_H-M   'P 1'
_cell_length_a   8.22600305
_cell_length_b   8.22600347
_cell_length_c   8.60272200
_cell_angle_alpha   90.00000000
_cell_angle_beta   90.00000000
_cell_angle_gamma   120.01725082
_symmetry_Int_Tables_number   1
_chemical_formula_structural   Pr7Nd(ZnSi3)4
_chemical_formula_sum   'Pr7 Nd1 Zn4 Si12'
_cell_volume   504.04435497
_cell_formula_units_Z   1
loop_
 _symmetry_equiv_pos_site_id
 _symmetry_equiv_pos_as_xyz
  1  'x, y, z'
loop_
 _atom_site_type_symbol
 _atom_site_label
 _atom_site_symmetry_multiplicity
 _atom_site_fract_x
 _atom_site_fract_y
 _atom_site_fract_z
 _atom_site_occupancy
  Pr  Pr0  1  0.500356  0.499644  0.250000  1
  Pr  Pr1  1  0.000733  0.500333  0.750000  1
  Pr  Pr2  1  0.999289  0.499665  0.250000  1
  Pr  Pr3  1  0.499667  0.999267  0.750000  1
  Pr  Pr4  1  0.500335  0.000711  0.250000  1
  Pr  Pr5  1  0.999998  0.000002  0.750000  1
  Pr  Pr6  1  0.000005  0.999995  0.250000  1
  Nd  Nd7  1  0.499632  0.500368  0.750000  1
  Zn  Zn8  1  0.666501  0.333499  0.998209  1
  Zn  Zn9  1  0.333485  0.666515  0.999933  1
  Zn  Zn10  1  0.333485  0.666515  0.500067  1
  Zn  Zn11  1  0.666501  0.333499  0.501791  1
  Si  Si12  1  0.834245  0.165755  0.000277  1
  Si  Si13  1  0.165752  0.834248  0.999728  1
  Si  Si14  1  0.331439  0.165909  0.999809  1
  Si  Si15  1  0.165752  0.834248  0.500272  1
  Si  Si16  1  0.668567  0.834089  0.999174  1
  Si  Si17  1  0.834245  0.165755  0.499723  1
  Si  Si18  1  0.834091  0.668561  0.999809  1
  Si  Si19  1  0.668567  0.834089  0.500826  1
  Si  Si20  1  0.165911  0.331433  0.999174  1
  Si  Si21  1  0.331439  0.165909  0.500191  1
  Si  Si22  1  0.165911  0.331433  0.500826  1
  Si  Si23  1  0.834091  0.668561  0.500191  1
