# generated using pymatgen
data_Tb2Nd2CuPt3
_symmetry_space_group_name_H-M   'P 1'
_cell_length_a   4.55155500
_cell_length_b   5.65654966
_cell_length_c   7.23781077
_cell_angle_alpha   88.72883779
_cell_angle_beta   90.00000000
_cell_angle_gamma   90.00000000
_symmetry_Int_Tables_number   1
_chemical_formula_structural   Tb2Nd2CuPt3
_chemical_formula_sum   'Tb2 Nd2 Cu1 Pt3'
_cell_volume   186.29951813
_cell_formula_units_Z   1
loop_
 _symmetry_equiv_pos_site_id
 _symmetry_equiv_pos_as_xyz
  1  'x, y, z'
loop_
 _atom_site_type_symbol
 _atom_site_label
 _atom_site_symmetry_multiplicity
 _atom_site_fract_x
 _atom_site_fract_y
 _atom_site_fract_z
 _atom_site_occupancy
  Tb  Tb0  1  0.000000  0.857867  0.821474  1
  Tb  Tb1  1  0.500000  0.137461  0.174486  1
  Nd  Nd2  1  0.000000  0.639488  0.314706  1
  Nd  Nd3  1  0.500000  0.365615  0.688122  1
  Cu  Cu4  1  0.000000  0.130199  0.461923  1
  Pt  Pt5  1  0.000000  0.334995  0.959849  1
  Pt  Pt6  1  0.500000  0.875613  0.537866  1
  Pt  Pt7  1  0.500000  0.658762  0.041574  1
