# generated using pymatgen
data_Ti2Sn2RuRh2
_symmetry_space_group_name_H-M   'P 1'
_cell_length_a   7.56607269
_cell_length_b   7.56607274
_cell_length_c   7.56607305
_cell_angle_alpha   34.10666036
_cell_angle_beta   34.10666272
_cell_angle_gamma   34.10665604
_symmetry_Int_Tables_number   1
_chemical_formula_structural   Ti2Sn2RuRh2
_chemical_formula_sum   'Ti2 Sn2 Ru1 Rh2'
_cell_volume   121.41307364
_cell_formula_units_Z   1
loop_
 _symmetry_equiv_pos_site_id
 _symmetry_equiv_pos_as_xyz
  1  'x, y, z'
loop_
 _atom_site_type_symbol
 _atom_site_label
 _atom_site_symmetry_multiplicity
 _atom_site_fract_x
 _atom_site_fract_y
 _atom_site_fract_z
 _atom_site_occupancy
  Ti  Ti0  1  0.247455  0.247455  0.247455  1
  Ti  Ti1  1  0.754021  0.754021  0.754021  1
  Sn  Sn2  1  0.505209  0.505209  0.505209  1
  Sn  Sn3  1  0.990908  0.990908  0.990908  1
  Ru  Ru4  1  0.629461  0.629461  0.629461  1
  Rh  Rh5  1  0.122210  0.122210  0.122210  1
  Rh  Rh6  1  0.375734  0.375734  0.375734  1
