# generated using pymatgen
data_Cs4Cd4Si3GeAs8
_symmetry_space_group_name_H-M   'P 1'
_cell_length_a   8.83542909
_cell_length_b   8.70168535
_cell_length_c   8.84904481
_cell_angle_alpha   70.77748857
_cell_angle_beta   76.00277438
_cell_angle_gamma   73.07082935
_symmetry_Int_Tables_number   1
_chemical_formula_structural   Cs4Cd4Si3GeAs8
_chemical_formula_sum   'Cs4 Cd4 Si3 Ge1 As8'
_cell_volume   606.49186657
_cell_formula_units_Z   1
loop_
 _symmetry_equiv_pos_site_id
 _symmetry_equiv_pos_as_xyz
  1  'x, y, z'
loop_
 _atom_site_type_symbol
 _atom_site_label
 _atom_site_symmetry_multiplicity
 _atom_site_fract_x
 _atom_site_fract_y
 _atom_site_fract_z
 _atom_site_occupancy
  Cs  Cs0  1  0.446166  0.765402  0.321345  1
  Cs  Cs1  1  0.554246  0.234407  0.678663  1
  Cs  Cs2  1  0.432760  0.801016  0.816392  1
  Cs  Cs3  1  0.567078  0.199646  0.184012  1
  Cd  Cd4  1  0.996138  0.896454  0.688402  1
  Cd  Cd5  1  0.004684  0.102960  0.310374  1
  Cd  Cd6  1  0.964356  0.814279  0.172488  1
  Cd  Cd7  1  0.032504  0.185569  0.829501  1
  Si  Si8  1  0.038257  0.411501  0.398266  1
  Si  Si9  1  0.139831  0.449898  0.979281  1
  Si  Si10  1  0.861044  0.549968  0.020969  1
  Ge  Ge11  1  0.964253  0.581426  0.593425  1
  As  As12  1  0.817182  0.871951  0.462215  1
  As  As13  1  0.179855  0.137816  0.534812  1
  As  As14  1  0.798004  0.413503  0.307375  1
  As  As15  1  0.207178  0.589238  0.695910  1
  As  As16  1  0.777232  0.849986  0.962085  1
  As  As17  1  0.223140  0.149803  0.037073  1
  As  As18  1  0.778311  0.451651  0.833664  1
  As  As19  1  0.217781  0.543527  0.173748  1
