# generated using pymatgen
data_Pr8Co2Si12HgPd
_symmetry_space_group_name_H-M   'P 1'
_cell_length_a   8.23214900
_cell_length_b   8.23215048
_cell_length_c   8.62926800
_cell_angle_alpha   90.00000000
_cell_angle_beta   90.00000000
_cell_angle_gamma   120.00000612
_symmetry_Int_Tables_number   1
_chemical_formula_structural   Pr8Co2Si12HgPd
_chemical_formula_sum   'Pr8 Co2 Si12 Hg1 Pd1'
_cell_volume   506.44359712
_cell_formula_units_Z   1
loop_
 _symmetry_equiv_pos_site_id
 _symmetry_equiv_pos_as_xyz
  1  'x, y, z'
loop_
 _atom_site_type_symbol
 _atom_site_label
 _atom_site_symmetry_multiplicity
 _atom_site_fract_x
 _atom_site_fract_y
 _atom_site_fract_z
 _atom_site_occupancy
  Pr  Pr0  1  0.493657  0.506343  0.745347  1
  Pr  Pr1  1  0.494266  0.505734  0.254491  1
  Pr  Pr2  1  0.012685  0.506343  0.745347  1
  Pr  Pr3  1  0.011469  0.505734  0.254491  1
  Pr  Pr4  1  0.493657  0.987315  0.745347  1
  Pr  Pr5  1  0.494266  0.988531  0.254491  1
  Pr  Pr6  1  0.000000  0.000000  0.745631  1
  Pr  Pr7  1  0.000000  0.000000  0.254969  1
  Co  Co8  1  0.333333  0.666667  0.001861  1
  Co  Co9  1  0.333333  0.666667  0.497736  1
  Si  Si10  1  0.843857  0.156143  0.000404  1
  Si  Si11  1  0.175339  0.824661  0.999857  1
  Si  Si12  1  0.312285  0.156143  0.000404  1
  Si  Si13  1  0.171866  0.828134  0.499793  1
  Si  Si14  1  0.649321  0.824661  0.999857  1
  Si  Si15  1  0.834863  0.165137  0.500330  1
  Si  Si16  1  0.843857  0.687715  0.000404  1
  Si  Si17  1  0.656269  0.828134  0.499793  1
  Si  Si18  1  0.175339  0.350679  0.999857  1
  Si  Si19  1  0.330274  0.165137  0.500330  1
  Si  Si20  1  0.171866  0.343731  0.499793  1
  Si  Si21  1  0.834863  0.669726  0.500330  1
  Hg  Hg22  1  0.666667  0.333333  0.997857  1
  Pd  Pd23  1  0.666667  0.333333  0.501282  1
