# generated using pymatgen
data_MnBe8AlZn2
_symmetry_space_group_name_H-M   'P 1'
_cell_length_a   4.32118700
_cell_length_b   4.32118902
_cell_length_c   7.07365200
_cell_angle_alpha   90.00003550
_cell_angle_beta   90.00002404
_cell_angle_gamma   60.00017340
_symmetry_Int_Tables_number   1
_chemical_formula_structural   MnBe8AlZn2
_chemical_formula_sum   'Mn1 Be8 Al1 Zn2'
_cell_volume   114.38824719
_cell_formula_units_Z   1
loop_
 _symmetry_equiv_pos_site_id
 _symmetry_equiv_pos_as_xyz
  1  'x, y, z'
loop_
 _atom_site_type_symbol
 _atom_site_label
 _atom_site_symmetry_multiplicity
 _atom_site_fract_x
 _atom_site_fract_y
 _atom_site_fract_z
 _atom_site_occupancy
  Mn  Mn0  1  0.333320  0.333347  0.545249  1
  Be  Be1  1  0.000002  0.999996  0.504346  1
  Be  Be2  1  0.000000  0.000003  0.008012  1
  Be  Be3  1  0.835081  0.329848  0.744551  1
  Be  Be4  1  0.329857  0.835073  0.744550  1
  Be  Be5  1  0.835077  0.835070  0.744553  1
  Be  Be6  1  0.168859  0.662279  0.258155  1
  Be  Be7  1  0.662275  0.168861  0.258157  1
  Be  Be8  1  0.168860  0.168859  0.258163  1
  Al  Al9  1  0.666667  0.666661  0.455266  1
  Zn  Zn10  1  0.666665  0.666669  0.060460  1
  Zn  Zn11  1  0.333334  0.333335  0.918537  1
