# generated using pymatgen
data_Yb19InRh12
_symmetry_space_group_name_H-M   'P 1'
_cell_length_a   10.74601000
_cell_length_b   10.74601000
_cell_length_c   6.23157300
_cell_angle_alpha   90.00000000
_cell_angle_beta   90.00000000
_cell_angle_gamma   90.00000000
_symmetry_Int_Tables_number   1
_chemical_formula_structural   Yb19InRh12
_chemical_formula_sum   'Yb19 In1 Rh12'
_cell_volume   719.60167853
_cell_formula_units_Z   1
loop_
 _symmetry_equiv_pos_site_id
 _symmetry_equiv_pos_as_xyz
  1  'x, y, z'
loop_
 _atom_site_type_symbol
 _atom_site_label
 _atom_site_symmetry_multiplicity
 _atom_site_fract_x
 _atom_site_fract_y
 _atom_site_fract_z
 _atom_site_occupancy
  Yb  Yb0  1  0.285506  0.084572  0.375088  1
  Yb  Yb1  1  0.291681  0.914901  0.873588  1
  Yb  Yb2  1  0.708319  0.085099  0.873588  1
  Yb  Yb3  1  0.714494  0.915428  0.375088  1
  Yb  Yb4  1  0.586067  0.792511  0.872882  1
  Yb  Yb5  1  0.584235  0.208038  0.372369  1
  Yb  Yb6  1  0.415765  0.791962  0.372369  1
  Yb  Yb7  1  0.413933  0.207489  0.872882  1
  Yb  Yb8  1  0.208038  0.415765  0.627631  1
  Yb  Yb9  1  0.207489  0.586067  0.127118  1
  Yb  Yb10  1  0.792511  0.413933  0.127118  1
  Yb  Yb11  1  0.791962  0.584235  0.627631  1
  Yb  Yb12  1  0.914901  0.708319  0.126412  1
  Yb  Yb13  1  0.915428  0.285506  0.624912  1
  Yb  Yb14  1  0.084572  0.714494  0.624912  1
  Yb  Yb15  1  0.085099  0.291681  0.126412  1
  Yb  Yb16  1  0.000000  0.000000  0.000000  1
  Yb  Yb17  1  0.500000  0.500000  0.000000  1
  Yb  Yb18  1  0.500000  0.500000  0.500000  1
  In  In19  1  0.000000  0.000000  0.500000  1
  Rh  Rh20  1  0.846894  0.152697  0.247983  1
  Rh  Rh21  1  0.847303  0.846894  0.752017  1
  Rh  Rh22  1  0.152697  0.153106  0.752017  1
  Rh  Rh23  1  0.153106  0.847303  0.247983  1
  Rh  Rh24  1  0.654452  0.345532  0.751392  1
  Rh  Rh25  1  0.654468  0.654452  0.248608  1
  Rh  Rh26  1  0.345532  0.345548  0.248608  1
  Rh  Rh27  1  0.345548  0.654468  0.751392  1
  Rh  Rh28  1  0.500000  0.000000  0.128594  1
  Rh  Rh29  1  0.500000  0.000000  0.627891  1
  Rh  Rh30  1  0.000000  0.500000  0.871406  1
  Rh  Rh31  1  0.000000  0.500000  0.372109  1
