# generated using pymatgen
data_Er6B14RuW
_symmetry_space_group_name_H-M   'P 1'
_cell_length_a   8.04735182
_cell_length_b   8.04735214
_cell_length_c   9.34215200
_cell_angle_alpha   90.00000000
_cell_angle_beta   90.00000000
_cell_angle_gamma   155.07905510
_symmetry_Int_Tables_number   1
_chemical_formula_structural   Er6B14RuW
_chemical_formula_sum   'Er6 B14 Ru1 W1'
_cell_volume   254.92581512
_cell_formula_units_Z   1
loop_
 _symmetry_equiv_pos_site_id
 _symmetry_equiv_pos_as_xyz
  1  'x, y, z'
loop_
 _atom_site_type_symbol
 _atom_site_label
 _atom_site_symmetry_multiplicity
 _atom_site_fract_x
 _atom_site_fract_y
 _atom_site_fract_z
 _atom_site_occupancy
  Er  Er0  1  0.893767  0.106233  0.437932  1
  Er  Er1  1  0.107320  0.892680  0.558426  1
  Er  Er2  1  0.893767  0.106233  0.062068  1
  Er  Er3  1  0.107320  0.892680  0.941574  1
  Er  Er4  1  0.243685  0.756315  0.250000  1
  Er  Er5  1  0.754827  0.245173  0.750000  1
  B  B6  1  0.726677  0.273323  0.465141  1
  B  B7  1  0.271742  0.728258  0.532183  1
  B  B8  1  0.726677  0.273323  0.034859  1
  B  B9  1  0.271742  0.728258  0.967817  1
  B  B10  1  0.631815  0.368185  0.151029  1
  B  B11  1  0.365071  0.634929  0.852971  1
  B  B12  1  0.631815  0.368185  0.348971  1
  B  B13  1  0.365071  0.634929  0.647029  1
  B  B14  1  0.520660  0.479340  0.096279  1
  B  B15  1  0.480920  0.519080  0.909653  1
  B  B16  1  0.520660  0.479340  0.403721  1
  B  B17  1  0.480920  0.519080  0.590347  1
  B  B18  1  0.456658  0.543342  0.250000  1
  B  B19  1  0.547173  0.452827  0.750000  1
  Ru  Ru20  1  0.053957  0.946043  0.250000  1
  W  W21  1  0.947757  0.052243  0.750000  1
