# generated using pymatgen
data_Cs2V5TcTe6
_symmetry_space_group_name_H-M   'P 1'
_cell_length_a   4.51251700
_cell_length_b   10.38691218
_cell_length_c   10.27244182
_cell_angle_alpha   120.39170052
_cell_angle_beta   90.00000000
_cell_angle_gamma   90.00000000
_symmetry_Int_Tables_number   1
_chemical_formula_structural   Cs2V5TcTe6
_chemical_formula_sum   'Cs2 V5 Tc1 Te6'
_cell_volume   415.31908666
_cell_formula_units_Z   1
loop_
 _symmetry_equiv_pos_site_id
 _symmetry_equiv_pos_as_xyz
  1  'x, y, z'
loop_
 _atom_site_type_symbol
 _atom_site_label
 _atom_site_symmetry_multiplicity
 _atom_site_fract_x
 _atom_site_fract_y
 _atom_site_fract_z
 _atom_site_occupancy
  Cs  Cs0  1  0.750000  0.664841  0.325702  1
  Cs  Cs1  1  0.250000  0.336800  0.675302  1
  V  V2  1  0.750000  0.159775  0.145609  1
  V  V3  1  0.750000  0.891831  0.021992  1
  V  V4  1  0.250000  0.030964  0.175926  1
  V  V5  1  0.250000  0.836197  0.848915  1
  V  V6  1  0.250000  0.104990  0.978887  1
  Tc  Tc7  1  0.750000  0.972733  0.836780  1
  Te  Te8  1  0.750000  0.667386  0.707005  1
  Te  Te9  1  0.750000  0.273572  0.955261  1
  Te  Te10  1  0.750000  0.048226  0.340440  1
  Te  Te11  1  0.250000  0.329794  0.285198  1
  Te  Te12  1  0.250000  0.729394  0.042266  1
  Te  Te13  1  0.250000  0.953499  0.660718  1
