# generated using pymatgen
data_ZrTa2B2Os5
_symmetry_space_group_name_H-M   'P 1'
_cell_length_a   9.56115686
_cell_length_b   9.56115696
_cell_length_c   3.07666700
_cell_angle_alpha   90.00000000
_cell_angle_beta   90.00000000
_cell_angle_gamma   90.25267678
_symmetry_Int_Tables_number   1
_chemical_formula_structural   ZrTa2B2Os5
_chemical_formula_sum   'Zr2 Ta4 B4 Os10'
_cell_volume   281.25299847
_cell_formula_units_Z   2
loop_
 _symmetry_equiv_pos_site_id
 _symmetry_equiv_pos_as_xyz
  1  'x, y, z'
loop_
 _atom_site_type_symbol
 _atom_site_label
 _atom_site_symmetry_multiplicity
 _atom_site_fract_x
 _atom_site_fract_y
 _atom_site_fract_z
 _atom_site_occupancy
  Zr  Zr0  1  0.822553  0.677447  0.000000  1
  Zr  Zr1  1  0.177447  0.322553  0.000000  1
  Ta  Ta2  1  0.323152  0.823152  0.000000  1
  Ta  Ta3  1  0.676848  0.176848  0.000000  1
  Ta  Ta4  1  0.500000  0.500000  0.000000  1
  Ta  Ta5  1  0.000000  0.000000  0.000000  1
  B  B6  1  0.620988  0.879012  0.000000  1
  B  B7  1  0.379012  0.120988  0.000000  1
  B  B8  1  0.120757  0.620757  0.000000  1
  B  B9  1  0.879243  0.379243  0.000000  1
  Os  Os10  1  0.566158  0.720222  0.500000  1
  Os  Os11  1  0.433842  0.279778  0.500000  1
  Os  Os12  1  0.075529  0.783175  0.500000  1
  Os  Os13  1  0.924471  0.216825  0.500000  1
  Os  Os14  1  0.283175  0.575529  0.500000  1
  Os  Os15  1  0.716825  0.424471  0.500000  1
  Os  Os16  1  0.220222  0.066158  0.500000  1
  Os  Os17  1  0.779778  0.933842  0.500000  1
  Os  Os18  1  0.500000  0.000000  0.500000  1
  Os  Os19  1  0.000000  0.500000  0.500000  1
