# generated using pymatgen
data_TbAgIr2O7
_symmetry_space_group_name_H-M   'P 1'
_cell_length_a   7.37305535
_cell_length_b   7.23537537
_cell_length_c   7.23537559
_cell_angle_alpha   59.30587216
_cell_angle_beta   59.36851542
_cell_angle_gamma   59.36852089
_symmetry_Int_Tables_number   1
_chemical_formula_structural   TbAgIr2O7
_chemical_formula_sum   'Tb2 Ag2 Ir4 O14'
_cell_volume   268.87881700
_cell_formula_units_Z   2
loop_
 _symmetry_equiv_pos_site_id
 _symmetry_equiv_pos_as_xyz
  1  'x, y, z'
loop_
 _atom_site_type_symbol
 _atom_site_label
 _atom_site_symmetry_multiplicity
 _atom_site_fract_x
 _atom_site_fract_y
 _atom_site_fract_z
 _atom_site_occupancy
  Tb  Tb0  1  0.625000  0.125000  0.125000  1
  Tb  Tb1  1  0.125000  0.125000  0.125000  1
  Ag  Ag2  1  0.125000  0.625000  0.125000  1
  Ag  Ag3  1  0.125000  0.125000  0.625000  1
  Ir  Ir4  1  0.125000  0.625000  0.625000  1
  Ir  Ir5  1  0.625000  0.125000  0.625000  1
  Ir  Ir6  1  0.625000  0.625000  0.125000  1
  Ir  Ir7  1  0.625000  0.625000  0.625000  1
  O  O8  1  0.696272  0.711473  0.293491  1
  O  O9  1  0.298764  0.293491  0.711473  1
  O  O10  1  0.696272  0.293491  0.711473  1
  O  O11  1  0.298764  0.711473  0.293491  1
  O  O12  1  0.308399  0.691601  0.691601  1
  O  O13  1  0.713584  0.286416  0.286416  1
  O  O14  1  0.553728  0.538527  0.956509  1
  O  O15  1  0.951236  0.956509  0.538527  1
  O  O16  1  0.553728  0.956509  0.538527  1
  O  O17  1  0.951236  0.538527  0.956509  1
  O  O18  1  0.941601  0.558399  0.558399  1
  O  O19  1  0.536416  0.963584  0.963584  1
  O  O20  1  0.243652  0.256348  0.256348  1
  O  O21  1  0.006348  0.993652  0.993652  1
