# generated using pymatgen
data_TbTmNi12P7
_symmetry_space_group_name_H-M   'P 1'
_cell_length_a   9.04341500
_cell_length_b   9.04341601
_cell_length_c   3.67545400
_cell_angle_alpha   90.00000000
_cell_angle_beta   90.00000000
_cell_angle_gamma   119.99999998
_symmetry_Int_Tables_number   1
_chemical_formula_structural   TbTmNi12P7
_chemical_formula_sum   'Tb1 Tm1 Ni12 P7'
_cell_volume   260.31943545
_cell_formula_units_Z   1
loop_
 _symmetry_equiv_pos_site_id
 _symmetry_equiv_pos_as_xyz
  1  'x, y, z'
loop_
 _atom_site_type_symbol
 _atom_site_label
 _atom_site_symmetry_multiplicity
 _atom_site_fract_x
 _atom_site_fract_y
 _atom_site_fract_z
 _atom_site_occupancy
  Tb  Tb0  1  0.333333  0.666667  0.000000  1
  Tm  Tm1  1  0.666667  0.333333  0.500000  1
  Ni  Ni2  1  0.434967  0.062386  0.000000  1
  Ni  Ni3  1  0.627419  0.565033  0.000000  1
  Ni  Ni4  1  0.937614  0.372581  0.000000  1
  Ni  Ni5  1  0.151924  0.274321  0.000000  1
  Ni  Ni6  1  0.122397  0.848076  0.000000  1
  Ni  Ni7  1  0.725679  0.877603  0.000000  1
  Ni  Ni8  1  0.382348  0.429917  0.500000  1
  Ni  Ni9  1  0.047569  0.617652  0.500000  1
  Ni  Ni10  1  0.570083  0.952431  0.500000  1
  Ni  Ni11  1  0.216616  0.094639  0.500000  1
  Ni  Ni12  1  0.878023  0.783384  0.500000  1
  Ni  Ni13  1  0.905361  0.121977  0.500000  1
  P  P14  1  0.000000  0.000000  0.000000  1
  P  P15  1  0.408011  0.294350  0.000000  1
  P  P16  1  0.886340  0.591989  0.000000  1
  P  P17  1  0.705650  0.113660  0.000000  1
  P  P18  1  0.110128  0.404484  0.500000  1
  P  P19  1  0.294356  0.889872  0.500000  1
  P  P20  1  0.595516  0.705644  0.500000  1
