# generated using pymatgen
data_TiNb2CoS10
_symmetry_space_group_name_H-M   'P 1'
_cell_length_a   3.38651700
_cell_length_b   9.10133353
_cell_length_c   9.75806094
_cell_angle_alpha   66.68113057
_cell_angle_beta   90.00000000
_cell_angle_gamma   90.00000000
_symmetry_Int_Tables_number   1
_chemical_formula_structural   TiNb2CoS10
_chemical_formula_sum   'Ti1 Nb2 Co1 S10'
_cell_volume   276.19384617
_cell_formula_units_Z   1
loop_
 _symmetry_equiv_pos_site_id
 _symmetry_equiv_pos_as_xyz
  1  'x, y, z'
loop_
 _atom_site_type_symbol
 _atom_site_label
 _atom_site_symmetry_multiplicity
 _atom_site_fract_x
 _atom_site_fract_y
 _atom_site_fract_z
 _atom_site_occupancy
  Ti  Ti0  1  0.250000  0.442625  0.915803  1
  Nb  Nb1  1  0.750000  0.285046  0.630286  1
  Nb  Nb2  1  0.250000  0.716437  0.359838  1
  Co  Co3  1  0.750000  0.555432  0.111331  1
  S  S4  1  0.750000  0.514727  0.355355  1
  S  S5  1  0.250000  0.367197  0.166711  1
  S  S6  1  0.250000  0.491523  0.627183  1
  S  S7  1  0.750000  0.835158  0.480700  1
  S  S8  1  0.250000  0.164103  0.509830  1
  S  S9  1  0.250000  0.059110  0.739163  1
  S  S10  1  0.250000  0.732688  0.090482  1
  S  S11  1  0.750000  0.943657  0.251561  1
  S  S12  1  0.750000  0.249678  0.905685  1
  S  S13  1  0.750000  0.642619  0.856074  1
