# generated using pymatgen
data_YbHoTh(InIr)3
_symmetry_space_group_name_H-M   'P 1'
_cell_length_a   7.45558201
_cell_length_b   7.55487515
_cell_length_c   3.99092000
_cell_angle_alpha   90.00000000
_cell_angle_beta   90.00000000
_cell_angle_gamma   117.91511597
_symmetry_Int_Tables_number   1
_chemical_formula_structural   YbHoTh(InIr)3
_chemical_formula_sum   'Yb1 Ho1 Th1 In3 Ir3'
_cell_volume   198.63614973
_cell_formula_units_Z   1
loop_
 _symmetry_equiv_pos_site_id
 _symmetry_equiv_pos_as_xyz
  1  'x, y, z'
loop_
 _atom_site_type_symbol
 _atom_site_label
 _atom_site_symmetry_multiplicity
 _atom_site_fract_x
 _atom_site_fract_y
 _atom_site_fract_z
 _atom_site_occupancy
  Yb  Yb0  1  0.405116  0.001439  0.000000  1
  Ho  Ho1  1  0.000981  0.404549  0.000000  1
  Th  Th2  1  0.582906  0.583504  0.000000  1
  In  In3  1  0.012291  0.747349  0.500000  1
  In  In4  1  0.243990  0.239726  0.500000  1
  In  In5  1  0.738556  0.010099  0.500000  1
  Ir  Ir6  1  0.992003  0.997055  0.000000  1
  Ir  Ir7  1  0.677965  0.358852  0.500000  1
  Ir  Ir8  1  0.346192  0.657428  0.500000  1
