# generated using pymatgen
data_Pr3Mg2CdPb2Au
_symmetry_space_group_name_H-M   'P 1'
_cell_length_a   7.78464409
_cell_length_b   7.78464326
_cell_length_c   4.63965500
_cell_angle_alpha   90.00000000
_cell_angle_beta   90.00000000
_cell_angle_gamma   119.45177580
_symmetry_Int_Tables_number   1
_chemical_formula_structural   Pr3Mg2CdPb2Au
_chemical_formula_sum   'Pr3 Mg2 Cd1 Pb2 Au1'
_cell_volume   244.83107898
_cell_formula_units_Z   1
loop_
 _symmetry_equiv_pos_site_id
 _symmetry_equiv_pos_as_xyz
  1  'x, y, z'
loop_
 _atom_site_type_symbol
 _atom_site_label
 _atom_site_symmetry_multiplicity
 _atom_site_fract_x
 _atom_site_fract_y
 _atom_site_fract_z
 _atom_site_occupancy
  Pr  Pr0  1  0.597434  0.996296  0.000000  1
  Pr  Pr1  1  0.996296  0.597434  0.000000  1
  Pr  Pr2  1  0.406370  0.406370  0.000000  1
  Mg  Mg3  1  0.227945  0.999185  0.500000  1
  Mg  Mg4  1  0.999185  0.227945  0.500000  1
  Cd  Cd5  1  0.765167  0.765167  0.500000  1
  Pb  Pb6  1  0.327957  0.665662  0.500000  1
  Pb  Pb7  1  0.665662  0.327957  0.500000  1
  Au  Au8  1  0.013984  0.013984  0.000000  1
