# generated using pymatgen
data_TbNd3Ga18PtRh5
_symmetry_space_group_name_H-M   'P 1'
_cell_length_a   7.65923027
_cell_length_b   7.66173934
_cell_length_c   9.58980730
_cell_angle_alpha   90.02150083
_cell_angle_beta   90.01746791
_cell_angle_gamma   119.83146335
_symmetry_Int_Tables_number   1
_chemical_formula_structural   TbNd3Ga18PtRh5
_chemical_formula_sum   'Tb1 Nd3 Ga18 Pt1 Rh5'
_cell_volume   488.18897292
_cell_formula_units_Z   1
loop_
 _symmetry_equiv_pos_site_id
 _symmetry_equiv_pos_as_xyz
  1  'x, y, z'
loop_
 _atom_site_type_symbol
 _atom_site_label
 _atom_site_symmetry_multiplicity
 _atom_site_fract_x
 _atom_site_fract_y
 _atom_site_fract_z
 _atom_site_occupancy
  Tb  Tb0  1  0.331528  0.003080  0.749554  1
  Nd  Nd1  1  0.996717  0.668578  0.250272  1
  Nd  Nd2  1  0.003241  0.331439  0.749681  1
  Nd  Nd3  1  0.668616  0.996722  0.250305  1
  Ga  Ga4  1  0.129080  0.128986  0.252873  1
  Ga  Ga5  1  0.871993  0.871339  0.747141  1
  Ga  Ga6  1  0.000742  0.337516  0.079871  1
  Ga  Ga7  1  0.000355  0.663586  0.919565  1
  Ga  Ga8  1  0.000190  0.666775  0.578851  1
  Ga  Ga9  1  0.334236  0.000830  0.422622  1
  Ga  Ga10  1  0.000959  0.334337  0.421774  1
  Ga  Ga11  1  0.664512  0.999041  0.578838  1
  Ga  Ga12  1  0.661281  0.999222  0.919480  1
  Ga  Ga13  1  0.337455  0.000629  0.079090  1
  Ga  Ga14  1  0.333838  0.332813  0.562766  1
  Ga  Ga15  1  0.666191  0.666261  0.438021  1
  Ga  Ga16  1  0.662023  0.662033  0.063465  1
  Ga  Ga17  1  0.337985  0.337099  0.935830  1
  Ga  Ga18  1  0.337727  0.546145  0.250319  1
  Ga  Ga19  1  0.661483  0.452850  0.749655  1
  Ga  Ga20  1  0.546042  0.337610  0.250329  1
  Ga  Ga21  1  0.453790  0.663040  0.749677  1
  Pt  Pt22  1  0.000332  0.000122  0.999696  1
  Rh  Rh23  1  0.670584  0.328827  0.999681  1
  Rh  Rh24  1  0.329062  0.671015  0.999695  1
  Rh  Rh25  1  0.328828  0.671138  0.500307  1
  Rh  Rh26  1  0.670876  0.328774  0.500316  1
  Rh  Rh27  1  0.000331  0.000193  0.500328  1
