# generated using pymatgen
data_Tm6Sc4Si5Pb
_symmetry_space_group_name_H-M   'P 1'
_cell_length_a   8.28029800
_cell_length_b   8.29866155
_cell_length_c   6.04650200
_cell_angle_alpha   90.00000000
_cell_angle_beta   90.00000000
_cell_angle_gamma   119.92682706
_symmetry_Int_Tables_number   1
_chemical_formula_structural   Tm6Sc4Si5Pb
_chemical_formula_sum   'Tm6 Sc4 Si5 Pb1'
_cell_volume   360.08796159
_cell_formula_units_Z   1
loop_
 _symmetry_equiv_pos_site_id
 _symmetry_equiv_pos_as_xyz
  1  'x, y, z'
loop_
 _atom_site_type_symbol
 _atom_site_label
 _atom_site_symmetry_multiplicity
 _atom_site_fract_x
 _atom_site_fract_y
 _atom_site_fract_z
 _atom_site_occupancy
  Tm  Tm0  1  0.987236  0.745698  0.750000  1
  Tm  Tm1  1  0.998324  0.244768  0.250000  1
  Tm  Tm2  1  0.753556  0.755232  0.250000  1
  Tm  Tm3  1  0.766898  0.000000  0.750000  1
  Tm  Tm4  1  0.241538  0.254302  0.750000  1
  Tm  Tm5  1  0.240294  0.000000  0.250000  1
  Sc  Sc6  1  0.331148  0.655442  0.495678  1
  Sc  Sc7  1  0.675707  0.344558  0.004322  1
  Sc  Sc8  1  0.675707  0.344558  0.495678  1
  Sc  Sc9  1  0.331148  0.655442  0.004322  1
  Si  Si10  1  0.397255  0.395670  0.250000  1
  Si  Si11  1  0.001585  0.604330  0.250000  1
  Si  Si12  1  0.997653  0.397776  0.750000  1
  Si  Si13  1  0.599877  0.602224  0.750000  1
  Si  Si14  1  0.602532  0.000000  0.250000  1
  Pb  Pb15  1  0.399544  0.000000  0.750000  1
