# generated using pymatgen
data_Ho2Zn2Ag5
_symmetry_space_group_name_H-M   'P 1'
_cell_length_a   5.40483691
_cell_length_b   5.28054948
_cell_length_c   14.07423100
_cell_angle_alpha   90.00000000
_cell_angle_beta   90.00000000
_cell_angle_gamma   119.00037963
_symmetry_Int_Tables_number   1
_chemical_formula_structural   Ho2Zn2Ag5
_chemical_formula_sum   'Ho4 Zn4 Ag10'
_cell_volume   351.32094974
_cell_formula_units_Z   2
loop_
 _symmetry_equiv_pos_site_id
 _symmetry_equiv_pos_as_xyz
  1  'x, y, z'
loop_
 _atom_site_type_symbol
 _atom_site_label
 _atom_site_symmetry_multiplicity
 _atom_site_fract_x
 _atom_site_fract_y
 _atom_site_fract_z
 _atom_site_occupancy
  Ho  Ho0  1  0.320771  0.323232  0.118638  1
  Ho  Ho1  1  0.679229  0.676768  0.618638  1
  Ho  Ho2  1  0.320771  0.323232  0.381362  1
  Ho  Ho3  1  0.679229  0.676768  0.881362  1
  Zn  Zn4  1  0.830567  0.831990  0.250000  1
  Zn  Zn5  1  0.169433  0.168010  0.750000  1
  Zn  Zn6  1  0.829715  0.333373  0.250000  1
  Zn  Zn7  1  0.170285  0.666627  0.750000  1
  Ag  Ag8  1  0.334144  0.830054  0.250000  1
  Ag  Ag9  1  0.665856  0.169946  0.750000  1
  Ag  Ag10  1  0.976133  0.657922  0.077819  1
  Ag  Ag11  1  0.023867  0.342078  0.577819  1
  Ag  Ag12  1  0.673061  0.998517  0.424337  1
  Ag  Ag13  1  0.326939  0.001483  0.924337  1
  Ag  Ag14  1  0.023867  0.342078  0.922181  1
  Ag  Ag15  1  0.976133  0.657922  0.422181  1
  Ag  Ag16  1  0.326939  0.001483  0.575663  1
  Ag  Ag17  1  0.673061  0.998517  0.075663  1
