# generated using pymatgen
data_Y5ErTl10
_symmetry_space_group_name_H-M   'P 1'
_cell_length_a   6.71526700
_cell_length_b   10.54369200
_cell_length_c   12.42273500
_cell_angle_alpha   90.00000000
_cell_angle_beta   90.00000000
_cell_angle_gamma   90.00000000
_symmetry_Int_Tables_number   1
_chemical_formula_structural   Y5ErTl10
_chemical_formula_sum   'Y10 Er2 Tl20'
_cell_volume   879.57568840
_cell_formula_units_Z   2
loop_
 _symmetry_equiv_pos_site_id
 _symmetry_equiv_pos_as_xyz
  1  'x, y, z'
loop_
 _atom_site_type_symbol
 _atom_site_label
 _atom_site_symmetry_multiplicity
 _atom_site_fract_x
 _atom_site_fract_y
 _atom_site_fract_z
 _atom_site_occupancy
  Y  Y0  1  0.856709  0.750000  0.052563  1
  Y  Y1  1  0.643291  0.750000  0.552563  1
  Y  Y2  1  0.886720  0.508318  0.357595  1
  Y  Y3  1  0.613280  0.991682  0.857595  1
  Y  Y4  1  0.114157  0.008061  0.641389  1
  Y  Y5  1  0.385843  0.491939  0.141389  1
  Y  Y6  1  0.114157  0.491939  0.641389  1
  Y  Y7  1  0.385843  0.008061  0.141389  1
  Y  Y8  1  0.886720  0.991682  0.357595  1
  Y  Y9  1  0.613280  0.508318  0.857595  1
  Er  Er10  1  0.143109  0.250000  0.948445  1
  Er  Er11  1  0.356891  0.250000  0.448445  1
  Tl  Tl12  1  0.866078  0.040537  0.100823  1
  Tl  Tl13  1  0.633922  0.459463  0.600823  1
  Tl  Tl14  1  0.132944  0.538445  0.898820  1
  Tl  Tl15  1  0.367056  0.961555  0.398820  1
  Tl  Tl16  1  0.132944  0.961555  0.898820  1
  Tl  Tl17  1  0.367056  0.538445  0.398820  1
  Tl  Tl18  1  0.866078  0.459463  0.100823  1
  Tl  Tl19  1  0.633922  0.040537  0.600823  1
  Tl  Tl20  1  0.150440  0.750000  0.241825  1
  Tl  Tl21  1  0.349560  0.750000  0.741825  1
  Tl  Tl22  1  0.851708  0.250000  0.759369  1
  Tl  Tl23  1  0.648292  0.250000  0.259369  1
  Tl  Tl24  1  0.399352  0.750000  0.008872  1
  Tl  Tl25  1  0.100648  0.750000  0.508872  1
  Tl  Tl26  1  0.597413  0.250000  0.990608  1
  Tl  Tl27  1  0.902587  0.250000  0.490608  1
  Tl  Tl28  1  0.628819  0.750000  0.281673  1
  Tl  Tl29  1  0.871181  0.750000  0.781673  1
  Tl  Tl30  1  0.370443  0.250000  0.719395  1
  Tl  Tl31  1  0.129557  0.250000  0.219395  1
