# generated using pymatgen
data_Ce2Er3Tc2
_symmetry_space_group_name_H-M   'P 1'
_cell_length_a   6.32284920
_cell_length_b   7.11254000
_cell_length_c   8.77912054
_cell_angle_alpha   95.93104993
_cell_angle_beta   111.10679471
_cell_angle_gamma   89.99999631
_symmetry_Int_Tables_number   1
_chemical_formula_structural   Ce2Er3Tc2
_chemical_formula_sum   'Ce4 Er6 Tc4'
_cell_volume   366.05655165
_cell_formula_units_Z   2
loop_
 _symmetry_equiv_pos_site_id
 _symmetry_equiv_pos_as_xyz
  1  'x, y, z'
loop_
 _atom_site_type_symbol
 _atom_site_label
 _atom_site_symmetry_multiplicity
 _atom_site_fract_x
 _atom_site_fract_y
 _atom_site_fract_z
 _atom_site_occupancy
  Ce  Ce0  1  0.987869  0.903137  0.191831  1
  Ce  Ce1  1  0.796037  0.596863  0.808169  1
  Ce  Ce2  1  0.012131  0.096863  0.808169  1
  Ce  Ce3  1  0.203963  0.403137  0.191831  1
  Er  Er4  1  0.642656  0.811813  0.429324  1
  Er  Er5  1  0.213332  0.688187  0.570676  1
  Er  Er6  1  0.357344  0.188187  0.570676  1
  Er  Er7  1  0.786668  0.311813  0.429324  1
  Er  Er8  1  0.425449  0.750000  0.000000  1
  Er  Er9  1  0.574551  0.250000  0.000000  1
  Tc  Tc10  1  0.865200  0.593786  0.218813  1
  Tc  Tc11  1  0.646386  0.906214  0.781187  1
  Tc  Tc12  1  0.134800  0.406214  0.781187  1
  Tc  Tc13  1  0.353614  0.093786  0.218813  1
