# generated using pymatgen
data_NaY(BIr)4
_symmetry_space_group_name_H-M   'P 1'
_cell_length_a   7.08785594
_cell_length_b   6.13421494
_cell_length_c   5.47628286
_cell_angle_alpha   75.00732283
_cell_angle_beta   56.71939257
_cell_angle_gamma   48.27327000
_symmetry_Int_Tables_number   1
_chemical_formula_structural   NaY(BIr)4
_chemical_formula_sum   'Na1 Y1 B4 Ir4'
_cell_volume   146.37503838
_cell_formula_units_Z   1
loop_
 _symmetry_equiv_pos_site_id
 _symmetry_equiv_pos_as_xyz
  1  'x, y, z'
loop_
 _atom_site_type_symbol
 _atom_site_label
 _atom_site_symmetry_multiplicity
 _atom_site_fract_x
 _atom_site_fract_y
 _atom_site_fract_z
 _atom_site_occupancy
  Na  Na0  1  0.750000  0.750000  0.750000  1
  Y  Y1  1  0.500000  0.500000  0.500000  1
  B  B2  1  0.070062  0.429938  0.070062  1
  B  B3  1  0.822871  0.177129  0.822871  1
  B  B4  1  0.429938  0.070062  0.429938  1
  B  B5  1  0.177129  0.822871  0.177129  1
  Ir  Ir6  1  0.378742  0.378742  0.121258  1
  Ir  Ir7  1  0.130466  0.130466  0.869534  1
  Ir  Ir8  1  0.869534  0.869534  0.130466  1
  Ir  Ir9  1  0.121258  0.121258  0.378742  1
