# generated using pymatgen
data_Ca2GaPdRh
_symmetry_space_group_name_H-M   'P 1'
_cell_length_a   5.78931181
_cell_length_b   5.78931206
_cell_length_c   7.73143711
_cell_angle_alpha   78.79407766
_cell_angle_beta   78.79407711
_cell_angle_gamma   58.59228308
_symmetry_Int_Tables_number   1
_chemical_formula_structural   Ca2GaPdRh
_chemical_formula_sum   'Ca4 Ga2 Pd2 Rh2'
_cell_volume   215.59974309
_cell_formula_units_Z   2
loop_
 _symmetry_equiv_pos_site_id
 _symmetry_equiv_pos_as_xyz
  1  'x, y, z'
loop_
 _atom_site_type_symbol
 _atom_site_label
 _atom_site_symmetry_multiplicity
 _atom_site_fract_x
 _atom_site_fract_y
 _atom_site_fract_z
 _atom_site_occupancy
  Ca  Ca0  1  0.787519  0.513809  0.352162  1
  Ca  Ca1  1  0.486191  0.212481  0.147838  1
  Ca  Ca2  1  0.216762  0.491773  0.648815  1
  Ca  Ca3  1  0.508227  0.783238  0.851185  1
  Ga  Ga4  1  0.124099  0.875901  0.250000  1
  Ga  Ga5  1  0.894604  0.105396  0.750000  1
  Pd  Pd6  1  0.994755  0.274684  0.995562  1
  Pd  Pd7  1  0.725316  0.005245  0.504438  1
  Rh  Rh8  1  0.002429  0.739903  0.007969  1
  Rh  Rh9  1  0.260097  0.997571  0.492031  1
