# generated using pymatgen
data_Ho2Pa(CoSn)3
_symmetry_space_group_name_H-M   'P 1'
_cell_length_a   7.27748226
_cell_length_b   7.44262385
_cell_length_c   3.79102000
_cell_angle_alpha   90.00000000
_cell_angle_beta   90.00000000
_cell_angle_gamma   120.75353966
_symmetry_Int_Tables_number   1
_chemical_formula_structural   Ho2Pa(CoSn)3
_chemical_formula_sum   'Ho2 Pa1 Co3 Sn3'
_cell_volume   176.45985864
_cell_formula_units_Z   1
loop_
 _symmetry_equiv_pos_site_id
 _symmetry_equiv_pos_as_xyz
  1  'x, y, z'
loop_
 _atom_site_type_symbol
 _atom_site_label
 _atom_site_symmetry_multiplicity
 _atom_site_fract_x
 _atom_site_fract_y
 _atom_site_fract_z
 _atom_site_occupancy
  Ho  Ho0  1  0.593640  0.595275  0.000000  1
  Ho  Ho1  1  0.406360  0.001634  0.000000  1
  Pa  Pa2  1  0.000000  0.415479  0.000000  1
  Co  Co3  1  0.704754  0.337204  0.500000  1
  Co  Co4  1  0.295246  0.632451  0.500000  1
  Co  Co5  1  0.000000  0.014860  0.000000  1
  Sn  Sn6  1  0.266704  0.256150  0.500000  1
  Sn  Sn7  1  0.000000  0.757500  0.500000  1
  Sn  Sn8  1  0.733296  0.989446  0.500000  1
