# generated using pymatgen
data_K2NdP2Se7
_symmetry_space_group_name_H-M   'P 1'
_cell_length_a   7.16392600
_cell_length_b   9.36527493
_cell_length_c   20.72846700
_cell_angle_alpha   96.46160208
_cell_angle_beta   90.00000000
_cell_angle_gamma   90.00000000
_symmetry_Int_Tables_number   1
_chemical_formula_structural   K2NdP2Se7
_chemical_formula_sum   'K8 Nd4 P8 Se28'
_cell_volume   1381.88260507
_cell_formula_units_Z   4
loop_
 _symmetry_equiv_pos_site_id
 _symmetry_equiv_pos_as_xyz
  1  'x, y, z'
loop_
 _atom_site_type_symbol
 _atom_site_label
 _atom_site_symmetry_multiplicity
 _atom_site_fract_x
 _atom_site_fract_y
 _atom_site_fract_z
 _atom_site_occupancy
  K  K0  1  0.990579  0.744569  0.990397  1
  K  K1  1  0.490579  0.755431  0.509603  1
  K  K2  1  0.009421  0.255431  0.009603  1
  K  K3  1  0.509421  0.244569  0.490397  1
  K  K4  1  0.449349  0.659654  0.816421  1
  K  K5  1  0.949349  0.840346  0.683579  1
  K  K6  1  0.550651  0.340346  0.183579  1
  K  K7  1  0.050651  0.159654  0.316421  1
  Nd  Nd8  1  0.529916  0.195302  0.850236  1
  Nd  Nd9  1  0.029916  0.304698  0.649764  1
  Nd  Nd10  1  0.470084  0.804698  0.149764  1
  Nd  Nd11  1  0.970084  0.695302  0.350236  1
  P  P12  1  0.985557  0.405355  0.830359  1
  P  P13  1  0.485557  0.094645  0.669641  1
  P  P14  1  0.014443  0.594645  0.169641  1
  P  P15  1  0.514443  0.905355  0.330359  1
  P  P16  1  0.511445  0.081707  0.043647  1
  P  P17  1  0.011445  0.418293  0.456353  1
  P  P18  1  0.488555  0.918293  0.956352  1
  P  P19  1  0.988555  0.581707  0.543648  1
  Se  Se20  1  0.546649  0.285830  0.002044  1
  Se  Se21  1  0.046649  0.214170  0.497956  1
  Se  Se22  1  0.453351  0.714170  0.997956  1
  Se  Se23  1  0.953351  0.785830  0.502044  1
  Se  Se24  1  0.226578  0.408593  0.897350  1
  Se  Se25  1  0.726578  0.091407  0.602650  1
  Se  Se26  1  0.773422  0.591407  0.102650  1
  Se  Se27  1  0.273422  0.908593  0.397350  1
  Se  Se28  1  0.911125  0.189424  0.778876  1
  Se  Se29  1  0.411125  0.310576  0.721124  1
  Se  Se30  1  0.088875  0.810576  0.221124  1
  Se  Se31  1  0.588875  0.689424  0.278876  1
  Se  Se32  1  0.534686  0.948444  0.744905  1
  Se  Se33  1  0.034686  0.551556  0.755095  1
  Se  Se34  1  0.465314  0.051556  0.255095  1
  Se  Se35  1  0.965314  0.448444  0.244905  1
  Se  Se36  1  0.742391  0.943713  0.898275  1
  Se  Se37  1  0.242391  0.556287  0.601725  1
  Se  Se38  1  0.257609  0.056287  0.101725  1
  Se  Se39  1  0.757609  0.443713  0.398275  1
  Se  Se40  1  0.243948  0.982265  0.901949  1
  Se  Se41  1  0.743948  0.517735  0.598051  1
  Se  Se42  1  0.756052  0.017735  0.098051  1
  Se  Se43  1  0.256052  0.482265  0.401949  1
  Se  Se44  1  0.743853  0.473937  0.892588  1
  Se  Se45  1  0.243853  0.026063  0.607412  1
  Se  Se46  1  0.256147  0.526063  0.107412  1
  Se  Se47  1  0.756147  0.973937  0.392588  1
