# generated using pymatgen
data_Th2AgSnOs
_symmetry_space_group_name_H-M   'P 1'
_cell_length_a   8.03700400
_cell_length_b   8.03700433
_cell_length_c   3.83045500
_cell_angle_alpha   90.00000000
_cell_angle_beta   90.00000000
_cell_angle_gamma   89.77616318
_symmetry_Int_Tables_number   1
_chemical_formula_structural   Th2AgSnOs
_chemical_formula_sum   'Th4 Ag2 Sn2 Os2'
_cell_volume   247.42036163
_cell_formula_units_Z   2
loop_
 _symmetry_equiv_pos_site_id
 _symmetry_equiv_pos_as_xyz
  1  'x, y, z'
loop_
 _atom_site_type_symbol
 _atom_site_label
 _atom_site_symmetry_multiplicity
 _atom_site_fract_x
 _atom_site_fract_y
 _atom_site_fract_z
 _atom_site_occupancy
  Th  Th0  1  0.691385  0.191385  0.500000  1
  Th  Th1  1  0.308615  0.808615  0.500000  1
  Th  Th2  1  0.156457  0.343543  0.500000  1
  Th  Th3  1  0.843543  0.656457  0.500000  1
  Ag  Ag4  1  0.624631  0.875369  0.000000  1
  Ag  Ag5  1  0.375369  0.124631  0.000000  1
  Sn  Sn6  1  0.500000  0.500000  0.000000  1
  Sn  Sn7  1  0.000000  0.000000  0.000000  1
  Os  Os8  1  0.130825  0.630825  0.000000  1
  Os  Os9  1  0.869175  0.369175  0.000000  1
