# generated using pymatgen
data_Sc14Cu51
_symmetry_space_group_name_H-M   'P 1'
_cell_length_a   11.11805800
_cell_length_b   11.11805829
_cell_length_c   8.27958300
_cell_angle_alpha   90.00000000
_cell_angle_beta   90.00000000
_cell_angle_gamma   119.99999915
_symmetry_Int_Tables_number   1
_chemical_formula_structural   Sc14Cu51
_chemical_formula_sum   'Sc14 Cu51'
_cell_volume   886.33312680
_cell_formula_units_Z   1
loop_
 _symmetry_equiv_pos_site_id
 _symmetry_equiv_pos_as_xyz
  1  'x, y, z'
loop_
 _atom_site_type_symbol
 _atom_site_label
 _atom_site_symmetry_multiplicity
 _atom_site_fract_x
 _atom_site_fract_y
 _atom_site_fract_z
 _atom_site_occupancy
  Sc  Sc0  1  0.000000  0.000000  0.310538  1
  Sc  Sc1  1  0.000000  0.000000  0.689462  1
  Sc  Sc2  1  0.385079  0.270669  0.000000  1
  Sc  Sc3  1  0.729331  0.114411  0.000000  1
  Sc  Sc4  1  0.885589  0.614921  0.000000  1
  Sc  Sc5  1  0.606889  0.721875  0.000000  1
  Sc  Sc6  1  0.278125  0.885013  0.000000  1
  Sc  Sc7  1  0.114987  0.393111  0.000000  1
  Sc  Sc8  1  0.140390  0.671819  0.500000  1
  Sc  Sc9  1  0.328181  0.468571  0.500000  1
  Sc  Sc10  1  0.531429  0.859610  0.500000  1
  Sc  Sc11  1  0.858226  0.330195  0.500000  1
  Sc  Sc12  1  0.669805  0.528031  0.500000  1
  Sc  Sc13  1  0.471969  0.141774  0.500000  1
  Cu  Cu14  1  0.238708  0.180802  0.500000  1
  Cu  Cu15  1  0.819198  0.057906  0.500000  1
  Cu  Cu16  1  0.942094  0.761292  0.500000  1
  Cu  Cu17  1  0.759786  0.819475  0.500000  1
  Cu  Cu18  1  0.180525  0.940311  0.500000  1
  Cu  Cu19  1  0.059689  0.240214  0.500000  1
  Cu  Cu20  1  0.271156  0.076294  0.246443  1
  Cu  Cu21  1  0.923706  0.194862  0.246443  1
  Cu  Cu22  1  0.805138  0.728844  0.246443  1
  Cu  Cu23  1  0.739847  0.927213  0.231192  1
  Cu  Cu24  1  0.072787  0.812634  0.231192  1
  Cu  Cu25  1  0.187366  0.260153  0.231192  1
  Cu  Cu26  1  0.739847  0.927213  0.768808  1
  Cu  Cu27  1  0.072787  0.812634  0.768808  1
  Cu  Cu28  1  0.187366  0.260153  0.768808  1
  Cu  Cu29  1  0.271156  0.076294  0.753557  1
  Cu  Cu30  1  0.923706  0.194862  0.753557  1
  Cu  Cu31  1  0.805138  0.728844  0.753557  1
  Cu  Cu32  1  0.333333  0.666667  0.000000  1
  Cu  Cu33  1  0.666667  0.333333  0.000000  1
  Cu  Cu34  1  0.436717  0.333618  0.329538  1
  Cu  Cu35  1  0.666382  0.103100  0.329538  1
  Cu  Cu36  1  0.896900  0.563283  0.329538  1
  Cu  Cu37  1  0.560773  0.665218  0.330243  1
  Cu  Cu38  1  0.334782  0.895555  0.330243  1
  Cu  Cu39  1  0.104445  0.439227  0.330243  1
  Cu  Cu40  1  0.560773  0.665218  0.669757  1
  Cu  Cu41  1  0.334782  0.895555  0.669757  1
  Cu  Cu42  1  0.104445  0.439227  0.669757  1
  Cu  Cu43  1  0.436717  0.333618  0.670462  1
  Cu  Cu44  1  0.666382  0.103100  0.670462  1
  Cu  Cu45  1  0.896900  0.563283  0.670462  1
  Cu  Cu46  1  0.333333  0.666667  0.293979  1
  Cu  Cu47  1  0.666667  0.333333  0.293542  1
  Cu  Cu48  1  0.666667  0.333333  0.706458  1
  Cu  Cu49  1  0.333333  0.666667  0.706021  1
  Cu  Cu50  1  0.115068  0.622416  0.152728  1
  Cu  Cu51  1  0.377584  0.492652  0.152728  1
  Cu  Cu52  1  0.507348  0.884932  0.152728  1
  Cu  Cu53  1  0.884538  0.381045  0.151830  1
  Cu  Cu54  1  0.618955  0.503494  0.151830  1
  Cu  Cu55  1  0.496506  0.115462  0.151830  1
  Cu  Cu56  1  0.884538  0.381045  0.848170  1
  Cu  Cu57  1  0.618955  0.503494  0.848170  1
  Cu  Cu58  1  0.496506  0.115462  0.848170  1
  Cu  Cu59  1  0.115068  0.622416  0.847272  1
  Cu  Cu60  1  0.377584  0.492652  0.847272  1
  Cu  Cu61  1  0.507348  0.884932  0.847272  1
  Cu  Cu62  1  0.133413  0.017884  0.000000  1
  Cu  Cu63  1  0.982116  0.115529  0.000000  1
  Cu  Cu64  1  0.884471  0.866587  0.000000  1
