# generated using pymatgen
data_NaCe2ErCu24
_symmetry_space_group_name_H-M   'P 1'
_cell_length_a   4.99219700
_cell_length_b   8.00348046
_cell_length_c   10.02830000
_cell_angle_alpha   89.91190306
_cell_angle_beta   90.00000000
_cell_angle_gamma   90.00000000
_symmetry_Int_Tables_number   1
_chemical_formula_structural   NaCe2ErCu24
_chemical_formula_sum   'Na1 Ce2 Er1 Cu24'
_cell_volume   400.67976294
_cell_formula_units_Z   1
loop_
 _symmetry_equiv_pos_site_id
 _symmetry_equiv_pos_as_xyz
  1  'x, y, z'
loop_
 _atom_site_type_symbol
 _atom_site_label
 _atom_site_symmetry_multiplicity
 _atom_site_fract_x
 _atom_site_fract_y
 _atom_site_fract_z
 _atom_site_occupancy
  Na  Na0  1  0.000000  0.758719  0.684366  1
  Ce  Ce1  1  0.500000  0.241366  0.815278  1
  Ce  Ce2  1  0.500000  0.740803  0.187078  1
  Er  Er3  1  0.000000  0.257091  0.312337  1
  Cu  Cu4  1  0.500000  0.351625  0.106408  1
  Cu  Cu5  1  0.500000  0.852929  0.897352  1
  Cu  Cu6  1  0.000000  0.645530  0.394102  1
  Cu  Cu7  1  0.000000  0.151682  0.603927  1
  Cu  Cu8  1  0.500000  0.683735  0.491931  1
  Cu  Cu9  1  0.500000  0.183442  0.507930  1
  Cu  Cu10  1  0.000000  0.315509  0.003559  1
  Cu  Cu11  1  0.000000  0.815009  0.996440  1
  Cu  Cu12  1  0.500000  0.932540  0.658267  1
  Cu  Cu13  1  0.500000  0.434294  0.342580  1
  Cu  Cu14  1  0.000000  0.051977  0.839124  1
  Cu  Cu15  1  0.000000  0.555887  0.157650  1
  Cu  Cu16  1  0.500000  0.608592  0.730794  1
  Cu  Cu17  1  0.500000  0.102948  0.268842  1
  Cu  Cu18  1  0.000000  0.407581  0.764711  1
  Cu  Cu19  1  0.000000  0.904809  0.236091  1
  Cu  Cu20  1  0.745166  0.064365  0.058386  1
  Cu  Cu21  1  0.256449  0.564654  0.941589  1
  Cu  Cu22  1  0.243753  0.936159  0.444104  1
  Cu  Cu23  1  0.755862  0.436787  0.556536  1
  Cu  Cu24  1  0.756247  0.936159  0.444104  1
  Cu  Cu25  1  0.244138  0.436787  0.556536  1
  Cu  Cu26  1  0.254834  0.064365  0.058386  1
  Cu  Cu27  1  0.743551  0.564654  0.941589  1
