# generated using pymatgen
data_DyZr3(Nb3Si4)2
_symmetry_space_group_name_H-M   'P 1'
_cell_length_a   6.93325271
_cell_length_b   6.93150651
_cell_length_c   12.87072200
_cell_angle_alpha   90.00000000
_cell_angle_beta   90.00000000
_cell_angle_gamma   90.11745381
_symmetry_Int_Tables_number   1
_chemical_formula_structural   DyZr3(Nb3Si4)2
_chemical_formula_sum   'Dy2 Zr6 Nb12 Si16'
_cell_volume   618.53839459
_cell_formula_units_Z   2
loop_
 _symmetry_equiv_pos_site_id
 _symmetry_equiv_pos_as_xyz
  1  'x, y, z'
loop_
 _atom_site_type_symbol
 _atom_site_label
 _atom_site_symmetry_multiplicity
 _atom_site_fract_x
 _atom_site_fract_y
 _atom_site_fract_z
 _atom_site_occupancy
  Dy  Dy0  1  0.338579  0.997474  0.781483  1
  Dy  Dy1  1  0.661421  0.002526  0.281483  1
  Zr  Zr2  1  0.004371  0.343393  0.216745  1
  Zr  Zr3  1  0.995629  0.656607  0.716745  1
  Zr  Zr4  1  0.159256  0.502512  0.468422  1
  Zr  Zr5  1  0.497653  0.840294  0.033094  1
  Zr  Zr6  1  0.840744  0.497488  0.968422  1
  Zr  Zr7  1  0.502347  0.159706  0.533094  1
  Nb  Nb8  1  0.169050  0.170608  0.000294  1
  Nb  Nb9  1  0.830950  0.829392  0.500294  1
  Nb  Nb10  1  0.328095  0.667340  0.250285  1
  Nb  Nb11  1  0.671905  0.332660  0.750285  1
  Nb  Nb12  1  0.152750  0.993509  0.376030  1
  Nb  Nb13  1  0.847250  0.006491  0.876030  1
  Nb  Nb14  1  0.507339  0.653550  0.625414  1
  Nb  Nb15  1  0.347728  0.496874  0.874527  1
  Nb  Nb16  1  0.492661  0.346450  0.125414  1
  Nb  Nb17  1  0.652272  0.503126  0.374527  1
  Nb  Nb18  1  0.997331  0.156696  0.623231  1
  Nb  Nb19  1  0.002669  0.843304  0.123231  1
  Si  Si20  1  0.293018  0.043702  0.186458  1
  Si  Si21  1  0.706982  0.956298  0.686458  1
  Si  Si22  1  0.454667  0.796642  0.437734  1
  Si  Si23  1  0.202483  0.543949  0.062766  1
  Si  Si24  1  0.545333  0.203358  0.937734  1
  Si  Si25  1  0.797517  0.456051  0.562766  1
  Si  Si26  1  0.044061  0.300791  0.813332  1
  Si  Si27  1  0.955939  0.699209  0.313332  1
  Si  Si28  1  0.361673  0.294048  0.322326  1
  Si  Si29  1  0.638327  0.705952  0.822326  1
  Si  Si30  1  0.205564  0.864609  0.569818  1
  Si  Si31  1  0.131370  0.789544  0.930796  1
  Si  Si32  1  0.794436  0.135391  0.069818  1
  Si  Si33  1  0.868630  0.210456  0.430796  1
  Si  Si34  1  0.293058  0.369675  0.677249  1
  Si  Si35  1  0.706942  0.630325  0.177249  1
