# generated using pymatgen
data_Yb8CrTc11Ge16
_symmetry_space_group_name_H-M   'P 1'
_cell_length_a   6.91131628
_cell_length_b   6.97964021
_cell_length_c   12.92974800
_cell_angle_alpha   90.00443285
_cell_angle_beta   89.82220108
_cell_angle_gamma   90.01350106
_symmetry_Int_Tables_number   1
_chemical_formula_structural   Yb8CrTc11Ge16
_chemical_formula_sum   'Yb8 Cr1 Tc11 Ge16'
_cell_volume   623.70863986
_cell_formula_units_Z   1
loop_
 _symmetry_equiv_pos_site_id
 _symmetry_equiv_pos_as_xyz
  1  'x, y, z'
loop_
 _atom_site_type_symbol
 _atom_site_label
 _atom_site_symmetry_multiplicity
 _atom_site_fract_x
 _atom_site_fract_y
 _atom_site_fract_z
 _atom_site_occupancy
  Yb  Yb0  1  0.488294  0.668048  0.589226  1
  Yb  Yb1  1  0.987765  0.833295  0.909031  1
  Yb  Yb2  1  0.513770  0.335923  0.089602  1
  Yb  Yb3  1  0.013581  0.164049  0.410558  1
  Yb  Yb4  1  0.513709  0.336599  0.410709  1
  Yb  Yb5  1  0.014281  0.163248  0.090149  1
  Yb  Yb6  1  0.486911  0.663540  0.909645  1
  Yb  Yb7  1  0.988086  0.836956  0.589961  1
  Cr  Cr8  1  0.167957  0.350388  0.629139  1
  Tc  Tc9  1  0.677502  0.149648  0.628096  1
  Tc  Tc10  1  0.173008  0.349190  0.875512  1
  Tc  Tc11  1  0.327392  0.850865  0.128536  1
  Tc  Tc12  1  0.824272  0.650129  0.370484  1
  Tc  Tc13  1  0.326090  0.851437  0.370811  1
  Tc  Tc14  1  0.825614  0.649232  0.128342  1
  Tc  Tc15  1  0.670541  0.151568  0.870313  1
  Tc  Tc16  1  0.830410  0.495055  0.749584  1
  Tc  Tc17  1  0.331072  0.002540  0.750645  1
  Tc  Tc18  1  0.169874  0.501361  0.250651  1
  Tc  Tc19  1  0.670723  0.997777  0.249788  1
  Ge  Ge20  1  0.661284  0.951236  0.449279  1
  Ge  Ge21  1  0.162244  0.549909  0.051715  1
  Ge  Ge22  1  0.336932  0.048934  0.949727  1
  Ge  Ge23  1  0.838335  0.449583  0.550258  1
  Ge  Ge24  1  0.335870  0.056211  0.551728  1
  Ge  Ge25  1  0.837681  0.450033  0.949375  1
  Ge  Ge26  1  0.662618  0.950092  0.050764  1
  Ge  Ge27  1  0.162141  0.549017  0.449934  1
  Ge  Ge28  1  0.469935  0.359114  0.746647  1
  Ge  Ge29  1  0.975345  0.140619  0.750883  1
  Ge  Ge30  1  0.525278  0.639212  0.250354  1
  Ge  Ge31  1  0.026131  0.859851  0.250283  1
  Ge  Ge32  1  0.683330  0.852451  0.749527  1
  Ge  Ge33  1  0.185683  0.643160  0.748256  1
  Ge  Ge34  1  0.318519  0.148262  0.250274  1
  Ge  Ge35  1  0.817823  0.351470  0.250213  1
