# generated using pymatgen
data_AcHoMg(Si3Pd10)2
_symmetry_space_group_name_H-M   'P 1'
_cell_length_a   8.74097584
_cell_length_b   8.72682585
_cell_length_c   8.73845100
_cell_angle_alpha   59.95719071
_cell_angle_beta   60.01155656
_cell_angle_gamma   59.95076019
_symmetry_Int_Tables_number   1
_chemical_formula_structural   AcHoMg(Si3Pd10)2
_chemical_formula_sum   'Ac1 Ho1 Mg1 Si6 Pd20'
_cell_volume   471.05441139
_cell_formula_units_Z   1
loop_
 _symmetry_equiv_pos_site_id
 _symmetry_equiv_pos_as_xyz
  1  'x, y, z'
loop_
 _atom_site_type_symbol
 _atom_site_label
 _atom_site_symmetry_multiplicity
 _atom_site_fract_x
 _atom_site_fract_y
 _atom_site_fract_z
 _atom_site_occupancy
  Ac  Ac0  1  0.250023  0.249908  0.250037  1
  Ho  Ho1  1  0.749982  0.750112  0.749947  1
  Mg  Mg2  1  0.000000  0.000010  0.999994  1
  Si  Si3  1  0.733911  0.266127  0.266056  1
  Si  Si4  1  0.266074  0.733864  0.733978  1
  Si  Si5  1  0.266092  0.733863  0.266088  1
  Si  Si6  1  0.733890  0.266131  0.733906  1
  Si  Si7  1  0.266030  0.266093  0.733951  1
  Si  Si8  1  0.733998  0.733902  0.266042  1
  Pd  Pd9  1  0.387975  0.387852  0.388015  1
  Pd  Pd10  1  0.617832  0.617929  0.617817  1
  Pd  Pd11  1  0.387973  0.387851  0.836164  1
  Pd  Pd12  1  0.388099  0.835781  0.388059  1
  Pd  Pd13  1  0.617849  0.617919  0.146412  1
  Pd  Pd14  1  0.617726  0.146771  0.617747  1
  Pd  Pd15  1  0.836148  0.387897  0.387977  1
  Pd  Pd16  1  0.146429  0.617890  0.617847  1
  Pd  Pd17  1  0.345661  0.997718  0.997776  1
  Pd  Pd18  1  0.658851  0.997751  0.997727  1
  Pd  Pd19  1  0.997915  0.345498  0.658635  1
  Pd  Pd20  1  0.997530  0.659057  0.345919  1
  Pd  Pd21  1  0.997910  0.345509  0.997937  1
  Pd  Pd22  1  0.658864  0.997736  0.345673  1
  Pd  Pd23  1  0.997522  0.659056  0.997501  1
  Pd  Pd24  1  0.345650  0.997732  0.658846  1
  Pd  Pd25  1  0.997749  0.997719  0.345680  1
  Pd  Pd26  1  0.997746  0.997749  0.658839  1
  Pd  Pd27  1  0.658647  0.345526  0.997906  1
  Pd  Pd28  1  0.345923  0.659050  0.997522  1
