# generated using pymatgen
data_Cs4CaBr6
_symmetry_space_group_name_H-M   'P 1'
_cell_length_a   9.92691438
_cell_length_b   9.92691466
_cell_length_c   9.92691460
_cell_angle_alpha   88.81155290
_cell_angle_beta   88.81154917
_cell_angle_gamma   88.81154991
_symmetry_Int_Tables_number   1
_chemical_formula_structural   Cs4CaBr6
_chemical_formula_sum   'Cs8 Ca2 Br12'
_cell_volume   977.61151814
_cell_formula_units_Z   2
loop_
 _symmetry_equiv_pos_site_id
 _symmetry_equiv_pos_as_xyz
  1  'x, y, z'
loop_
 _atom_site_type_symbol
 _atom_site_label
 _atom_site_symmetry_multiplicity
 _atom_site_fract_x
 _atom_site_fract_y
 _atom_site_fract_z
 _atom_site_occupancy
  Cs  Cs0  1  0.250000  0.250000  0.250000  1
  Cs  Cs1  1  0.750000  0.750000  0.750000  1
  Cs  Cs2  1  0.250000  0.624937  0.875063  1
  Cs  Cs3  1  0.875063  0.250000  0.624937  1
  Cs  Cs4  1  0.624937  0.875063  0.250000  1
  Cs  Cs5  1  0.750000  0.375063  0.124937  1
  Cs  Cs6  1  0.124937  0.750000  0.375063  1
  Cs  Cs7  1  0.375063  0.124937  0.750000  1
  Ca  Ca8  1  0.000000  0.000000  0.000000  1
  Ca  Ca9  1  0.500000  0.500000  0.500000  1
  Br  Br10  1  0.559361  0.218126  0.430291  1
  Br  Br11  1  0.430291  0.559361  0.218126  1
  Br  Br12  1  0.218126  0.430291  0.559361  1
  Br  Br13  1  0.940639  0.069709  0.281874  1
  Br  Br14  1  0.281874  0.940639  0.069709  1
  Br  Br15  1  0.069709  0.281874  0.940639  1
  Br  Br16  1  0.440639  0.781874  0.569709  1
  Br  Br17  1  0.569709  0.440639  0.781874  1
  Br  Br18  1  0.781874  0.569709  0.440639  1
  Br  Br19  1  0.059361  0.930291  0.718126  1
  Br  Br20  1  0.930291  0.718126  0.059361  1
  Br  Br21  1  0.718126  0.059361  0.930291  1
