# generated using pymatgen
data_LiZn(Sn4Os)2
_symmetry_space_group_name_H-M   'P 1'
_cell_length_a   7.34838750
_cell_length_b   7.34838764
_cell_length_c   7.34838687
_cell_angle_alpha   125.13740083
_cell_angle_beta   125.13739793
_cell_angle_gamma   81.31057154
_symmetry_Int_Tables_number   1
_chemical_formula_structural   LiZn(Sn4Os)2
_chemical_formula_sum   'Li1 Zn1 Sn8 Os2'
_cell_volume   255.55312441
_cell_formula_units_Z   1
loop_
 _symmetry_equiv_pos_site_id
 _symmetry_equiv_pos_as_xyz
  1  'x, y, z'
loop_
 _atom_site_type_symbol
 _atom_site_label
 _atom_site_symmetry_multiplicity
 _atom_site_fract_x
 _atom_site_fract_y
 _atom_site_fract_z
 _atom_site_occupancy
  Li  Li0  1  0.000000  0.000000  0.000000  1
  Zn  Zn1  1  0.500000  0.500000  0.000000  1
  Sn  Sn2  1  0.713275  0.526187  0.512100  1
  Sn  Sn3  1  0.526187  0.014088  0.812912  1
  Sn  Sn4  1  0.201175  0.713275  0.187088  1
  Sn  Sn5  1  0.798825  0.286725  0.812912  1
  Sn  Sn6  1  0.473813  0.985912  0.187088  1
  Sn  Sn7  1  0.286725  0.473813  0.487900  1
  Sn  Sn8  1  0.985912  0.798825  0.512100  1
  Sn  Sn9  1  0.014088  0.201175  0.487900  1
  Os  Os10  1  0.262061  0.262061  0.000000  1
  Os  Os11  1  0.737939  0.737939  0.000000  1
