# generated using pymatgen
data_TbHo2Hf(Al3Rh)6
_symmetry_space_group_name_H-M   'P 1'
_cell_length_a   7.53286549
_cell_length_b   7.51623072
_cell_length_c   9.39857300
_cell_angle_alpha   90.00000000
_cell_angle_beta   90.00000000
_cell_angle_gamma   119.48392548
_symmetry_Int_Tables_number   1
_chemical_formula_structural   TbHo2Hf(Al3Rh)6
_chemical_formula_sum   'Tb1 Ho2 Hf1 Al18 Rh6'
_cell_volume   463.22066173
_cell_formula_units_Z   1
loop_
 _symmetry_equiv_pos_site_id
 _symmetry_equiv_pos_as_xyz
  1  'x, y, z'
loop_
 _atom_site_type_symbol
 _atom_site_label
 _atom_site_symmetry_multiplicity
 _atom_site_fract_x
 _atom_site_fract_y
 _atom_site_fract_z
 _atom_site_occupancy
  Tb  Tb0  1  0.328534  0.006259  0.750000  1
  Ho  Ho1  1  0.006190  0.327815  0.750000  1
  Ho  Ho2  1  0.672234  0.995474  0.250000  1
  Hf  Hf3  1  0.996132  0.672558  0.250000  1
  Al  Al4  1  0.124891  0.122185  0.250000  1
  Al  Al5  1  0.871234  0.870158  0.750000  1
  Al  Al6  1  0.999954  0.338994  0.080369  1
  Al  Al7  1  0.999421  0.664523  0.928689  1
  Al  Al8  1  0.999421  0.664523  0.571311  1
  Al  Al9  1  0.332183  0.997166  0.419455  1
  Al  Al10  1  0.999954  0.338994  0.419631  1
  Al  Al11  1  0.664718  0.998661  0.575066  1
  Al  Al12  1  0.664718  0.998661  0.924934  1
  Al  Al13  1  0.332183  0.997166  0.080545  1
  Al  Al14  1  0.333328  0.333506  0.547740  1
  Al  Al15  1  0.669601  0.667149  0.444175  1
  Al  Al16  1  0.669601  0.667149  0.055825  1
  Al  Al17  1  0.333328  0.333506  0.952260  1
  Al  Al18  1  0.335913  0.551389  0.250000  1
  Al  Al19  1  0.661044  0.451206  0.750000  1
  Al  Al20  1  0.556992  0.345398  0.250000  1
  Al  Al21  1  0.449560  0.658778  0.750000  1
  Rh  Rh22  1  0.673039  0.328444  0.001564  1
  Rh  Rh23  1  0.327431  0.672421  0.002027  1
  Rh  Rh24  1  0.327431  0.672421  0.497973  1
  Rh  Rh25  1  0.673039  0.328444  0.498436  1
  Rh  Rh26  1  0.998963  0.998525  0.001849  1
  Rh  Rh27  1  0.998963  0.998525  0.498151  1
