# generated using pymatgen
data_Hf2Si2RhAu
_symmetry_space_group_name_H-M   'P 1'
_cell_length_a   3.92858400
_cell_length_b   6.63783016
_cell_length_c   7.61005978
_cell_angle_alpha   88.58100153
_cell_angle_beta   90.00000000
_cell_angle_gamma   90.00000000
_symmetry_Int_Tables_number   1
_chemical_formula_structural   Hf2Si2RhAu
_chemical_formula_sum   'Hf4 Si4 Rh2 Au2'
_cell_volume   198.38875149
_cell_formula_units_Z   2
loop_
 _symmetry_equiv_pos_site_id
 _symmetry_equiv_pos_as_xyz
  1  'x, y, z'
loop_
 _atom_site_type_symbol
 _atom_site_label
 _atom_site_symmetry_multiplicity
 _atom_site_fract_x
 _atom_site_fract_y
 _atom_site_fract_z
 _atom_site_occupancy
  Hf  Hf0  1  0.250000  0.522712  0.186724  1
  Hf  Hf1  1  0.750000  0.477288  0.813276  1
  Hf  Hf2  1  0.250000  0.024328  0.328931  1
  Hf  Hf3  1  0.750000  0.975672  0.671069  1
  Si  Si4  1  0.250000  0.750539  0.863557  1
  Si  Si5  1  0.750000  0.249461  0.136443  1
  Si  Si6  1  0.250000  0.270008  0.607552  1
  Si  Si7  1  0.750000  0.729992  0.392448  1
  Rh  Rh8  1  0.750000  0.359356  0.438845  1
  Rh  Rh9  1  0.250000  0.640644  0.561155  1
  Au  Au10  1  0.750000  0.847010  0.066941  1
  Au  Au11  1  0.250000  0.152990  0.933059  1
