# generated using pymatgen
data_Mg2ZnB2IrRh4
_symmetry_space_group_name_H-M   'P 1'
_cell_length_a   9.44200800
_cell_length_b   2.93837900
_cell_length_c   9.44200800
_cell_angle_alpha   90.00000000
_cell_angle_beta   90.00000000
_cell_angle_gamma   90.00000000
_symmetry_Int_Tables_number   1
_chemical_formula_structural   Mg2ZnB2IrRh4
_chemical_formula_sum   'Mg4 Zn2 B4 Ir2 Rh8'
_cell_volume   261.96093971
_cell_formula_units_Z   2
loop_
 _symmetry_equiv_pos_site_id
 _symmetry_equiv_pos_as_xyz
  1  'x, y, z'
loop_
 _atom_site_type_symbol
 _atom_site_label
 _atom_site_symmetry_multiplicity
 _atom_site_fract_x
 _atom_site_fract_y
 _atom_site_fract_z
 _atom_site_occupancy
  Mg  Mg0  1  0.323290  0.000000  0.176711  1
  Mg  Mg1  1  0.823290  0.000000  0.323290  1
  Mg  Mg2  1  0.176711  0.000000  0.676711  1
  Mg  Mg3  1  0.676711  0.000000  0.823290  1
  Zn  Zn4  1  0.000000  0.000000  0.000000  1
  Zn  Zn5  1  0.500000  0.000000  0.500000  1
  B  B6  1  0.625668  0.000000  0.125667  1
  B  B7  1  0.125667  0.000000  0.374332  1
  B  B8  1  0.874333  0.000000  0.625668  1
  B  B9  1  0.374332  0.000000  0.874333  1
  Ir  Ir10  1  0.500000  0.500000  0.000000  1
  Ir  Ir11  1  0.000000  0.500000  0.500000  1
  Rh  Rh12  1  0.784253  0.500000  0.072020  1
  Rh  Rh13  1  0.072020  0.500000  0.215747  1
  Rh  Rh14  1  0.572020  0.500000  0.284254  1
  Rh  Rh15  1  0.284254  0.500000  0.427981  1
  Rh  Rh16  1  0.715746  0.500000  0.572020  1
  Rh  Rh17  1  0.427981  0.500000  0.715746  1
  Rh  Rh18  1  0.927980  0.500000  0.784253  1
  Rh  Rh19  1  0.215747  0.500000  0.927980  1
