# generated using pymatgen
data_Zr6Sn6Rh5Au
_symmetry_space_group_name_H-M   'P 1'
_cell_length_a   7.39026700
_cell_length_b   7.39026678
_cell_length_c   7.50510000
_cell_angle_alpha   90.00000000
_cell_angle_beta   90.00000000
_cell_angle_gamma   119.99999650
_symmetry_Int_Tables_number   1
_chemical_formula_structural   Zr6Sn6Rh5Au
_chemical_formula_sum   'Zr6 Sn6 Rh5 Au1'
_cell_volume   354.98285320
_cell_formula_units_Z   1
loop_
 _symmetry_equiv_pos_site_id
 _symmetry_equiv_pos_as_xyz
  1  'x, y, z'
loop_
 _atom_site_type_symbol
 _atom_site_label
 _atom_site_symmetry_multiplicity
 _atom_site_fract_x
 _atom_site_fract_y
 _atom_site_fract_z
 _atom_site_occupancy
  Zr  Zr0  1  0.585235  0.965769  0.744449  1
  Zr  Zr1  1  0.380533  0.414765  0.744449  1
  Zr  Zr2  1  0.034231  0.619467  0.744449  1
  Zr  Zr3  1  0.610317  0.013692  0.256897  1
  Zr  Zr4  1  0.403375  0.389683  0.256897  1
  Zr  Zr5  1  0.986308  0.596625  0.256897  1
  Sn  Sn6  1  0.263076  0.995487  0.004762  1
  Sn  Sn7  1  0.733686  0.730183  0.502533  1
  Sn  Sn8  1  0.996497  0.266314  0.502533  1
  Sn  Sn9  1  0.004513  0.267588  0.004762  1
  Sn  Sn10  1  0.732412  0.736924  0.004762  1
  Sn  Sn11  1  0.269817  0.003503  0.502533  1
  Rh  Rh12  1  0.666667  0.333333  0.533224  1
  Rh  Rh13  1  0.333333  0.666667  0.032792  1
  Rh  Rh14  1  0.333333  0.666667  0.454585  1
  Rh  Rh15  1  0.000000  0.000000  0.752995  1
  Rh  Rh16  1  0.000000  0.000000  0.254658  1
  Au  Au17  1  0.666667  0.333333  0.945822  1
