# generated using pymatgen
data_Yb4Ni(RuO4)3
_symmetry_space_group_name_H-M   'P 1'
_cell_length_a   5.30370017
_cell_length_b   5.58675259
_cell_length_c   7.64094786
_cell_angle_alpha   89.78578980
_cell_angle_beta   89.65710096
_cell_angle_gamma   90.02553567
_symmetry_Int_Tables_number   1
_chemical_formula_structural   Yb4Ni(RuO4)3
_chemical_formula_sum   'Yb4 Ni1 Ru3 O12'
_cell_volume   226.39914367
_cell_formula_units_Z   1
loop_
 _symmetry_equiv_pos_site_id
 _symmetry_equiv_pos_as_xyz
  1  'x, y, z'
loop_
 _atom_site_type_symbol
 _atom_site_label
 _atom_site_symmetry_multiplicity
 _atom_site_fract_x
 _atom_site_fract_y
 _atom_site_fract_z
 _atom_site_occupancy
  Yb  Yb0  1  0.520791  0.924856  0.762709  1
  Yb  Yb1  1  0.021689  0.566482  0.239662  1
  Yb  Yb2  1  0.978311  0.433518  0.760338  1
  Yb  Yb3  1  0.479209  0.075144  0.237291  1
  Ni  Ni4  1  0.500000  0.500000  0.000000  1
  Ru  Ru5  1  0.500000  0.500000  0.500000  1
  Ru  Ru6  1  0.000000  0.000000  0.500000  1
  Ru  Ru7  1  0.000000  0.000000  0.000000  1
  O  O8  1  0.191696  0.299590  0.443507  1
  O  O9  1  0.694692  0.197391  0.558556  1
  O  O10  1  0.301602  0.809680  0.046548  1
  O  O11  1  0.814511  0.706157  0.951373  1
  O  O12  1  0.808304  0.700410  0.556493  1
  O  O13  1  0.305308  0.802609  0.441444  1
  O  O14  1  0.698398  0.190320  0.953452  1
  O  O15  1  0.185489  0.293843  0.048627  1
  O  O16  1  0.600880  0.473686  0.257439  1
  O  O17  1  0.105840  0.031298  0.747621  1
  O  O18  1  0.894160  0.968702  0.252379  1
  O  O19  1  0.399120  0.526314  0.742561  1
