# generated using pymatgen
data_Zr5Zn4Pd11
_symmetry_space_group_name_H-M   'P 1'
_cell_length_a   7.58104146
_cell_length_b   7.58104151
_cell_length_c   7.58104082
_cell_angle_alpha   105.79425374
_cell_angle_beta   105.79424041
_cell_angle_gamma   117.10565237
_symmetry_Int_Tables_number   1
_chemical_formula_structural   Zr5Zn4Pd11
_chemical_formula_sum   'Zr5 Zn4 Pd11'
_cell_volume   330.87915017
_cell_formula_units_Z   1
loop_
 _symmetry_equiv_pos_site_id
 _symmetry_equiv_pos_as_xyz
  1  'x, y, z'
loop_
 _atom_site_type_symbol
 _atom_site_label
 _atom_site_symmetry_multiplicity
 _atom_site_fract_x
 _atom_site_fract_y
 _atom_site_fract_z
 _atom_site_occupancy
  Zr  Zr0  1  0.210673  0.403885  0.614558  1
  Zr  Zr1  1  0.789327  0.596115  0.385442  1
  Zr  Zr2  1  0.596115  0.210673  0.806788  1
  Zr  Zr3  1  0.403885  0.789327  0.193212  1
  Zr  Zr4  1  0.000000  0.000000  0.000000  1
  Zn  Zn5  1  0.302561  0.095691  0.398250  1
  Zn  Zn6  1  0.697439  0.904309  0.601750  1
  Zn  Zn7  1  0.904309  0.302561  0.206870  1
  Zn  Zn8  1  0.095691  0.697439  0.793130  1
  Pd  Pd9  1  0.344782  0.445246  0.304491  1
  Pd  Pd10  1  0.655218  0.554754  0.695509  1
  Pd  Pd11  1  0.140755  0.040290  0.695509  1
  Pd  Pd12  1  0.040290  0.344782  0.899536  1
  Pd  Pd13  1  0.859245  0.959710  0.304491  1
  Pd  Pd14  1  0.959710  0.655218  0.100464  1
  Pd  Pd15  1  0.445246  0.140755  0.100464  1
  Pd  Pd16  1  0.554754  0.859245  0.899536  1
  Pd  Pd17  1  0.250000  0.750000  0.500000  1
  Pd  Pd18  1  0.750000  0.250000  0.500000  1
  Pd  Pd19  1  0.500000  0.500000  0.000000  1
