# generated using pymatgen
data_RbAlPH
_symmetry_space_group_name_H-M   'P 1'
_cell_length_a   3.98883400
_cell_length_b   3.98883437
_cell_length_c   6.37399600
_cell_angle_alpha   90.00000000
_cell_angle_beta   90.00000000
_cell_angle_gamma   119.99999695
_symmetry_Int_Tables_number   1
_chemical_formula_structural   RbAlPH
_chemical_formula_sum   'Rb1 Al1 P1 H1'
_cell_volume   87.82828403
_cell_formula_units_Z   1
loop_
 _symmetry_equiv_pos_site_id
 _symmetry_equiv_pos_as_xyz
  1  'x, y, z'
loop_
 _atom_site_type_symbol
 _atom_site_label
 _atom_site_symmetry_multiplicity
 _atom_site_fract_x
 _atom_site_fract_y
 _atom_site_fract_z
 _atom_site_occupancy
  Rb  Rb0  1  0.000000  0.000000  0.038789  1
  Al  Al1  1  0.666667  0.333333  0.556889  1
  P  P2  1  0.333333  0.666667  0.443285  1
  H  H3  1  0.666667  0.333333  0.818136  1
