# generated using pymatgen
data_Ho4Cu2(TcRu)3
_symmetry_space_group_name_H-M   'P 1'
_cell_length_a   5.26633925
_cell_length_b   5.17809170
_cell_length_c   8.92672300
_cell_angle_alpha   90.00000000
_cell_angle_beta   90.00000000
_cell_angle_gamma   119.16299082
_symmetry_Int_Tables_number   1
_chemical_formula_structural   Ho4Cu2(TcRu)3
_chemical_formula_sum   'Ho4 Cu2 Tc3 Ru3'
_cell_volume   212.57038868
_cell_formula_units_Z   1
loop_
 _symmetry_equiv_pos_site_id
 _symmetry_equiv_pos_as_xyz
  1  'x, y, z'
loop_
 _atom_site_type_symbol
 _atom_site_label
 _atom_site_symmetry_multiplicity
 _atom_site_fract_x
 _atom_site_fract_y
 _atom_site_fract_z
 _atom_site_occupancy
  Ho  Ho0  1  0.677369  0.338325  0.559771  1
  Ho  Ho1  1  0.340985  0.670399  0.434008  1
  Ho  Ho2  1  0.340985  0.670399  0.065992  1
  Ho  Ho3  1  0.677369  0.338325  0.940229  1
  Cu  Cu4  1  0.812850  0.653400  0.250000  1
  Cu  Cu5  1  0.812193  0.158973  0.250000  1
  Tc  Tc6  1  0.171676  0.338022  0.750000  1
  Tc  Tc7  1  0.171497  0.835611  0.750000  1
  Tc  Tc8  1  0.656242  0.827806  0.750000  1
  Ru  Ru9  1  0.015946  0.007646  0.494255  1
  Ru  Ru10  1  0.015946  0.007646  0.005745  1
  Ru  Ru11  1  0.306940  0.153448  0.250000  1
