# generated using pymatgen
data_Dy9Th(SiSn3)2
_symmetry_space_group_name_H-M   'P 1'
_cell_length_a   9.28327307
_cell_length_b   9.28327384
_cell_length_c   6.47177200
_cell_angle_alpha   90.00000000
_cell_angle_beta   90.00000000
_cell_angle_gamma   120.01407093
_symmetry_Int_Tables_number   1
_chemical_formula_structural   Dy9Th(SiSn3)2
_chemical_formula_sum   'Dy9 Th1 Si2 Sn6'
_cell_volume   482.94150603
_cell_formula_units_Z   1
loop_
 _symmetry_equiv_pos_site_id
 _symmetry_equiv_pos_as_xyz
  1  'x, y, z'
loop_
 _atom_site_type_symbol
 _atom_site_label
 _atom_site_symmetry_multiplicity
 _atom_site_fract_x
 _atom_site_fract_y
 _atom_site_fract_z
 _atom_site_occupancy
  Dy  Dy0  1  0.666308  0.332915  0.000441  1
  Dy  Dy1  1  0.332915  0.666308  0.000441  1
  Dy  Dy2  1  0.332915  0.666308  0.499559  1
  Dy  Dy3  1  0.666308  0.332915  0.499559  1
  Dy  Dy4  1  0.249444  0.998593  0.750000  1
  Dy  Dy5  1  0.998593  0.249444  0.750000  1
  Dy  Dy6  1  0.256083  0.256083  0.250000  1
  Dy  Dy7  1  0.746691  0.001424  0.250000  1
  Dy  Dy8  1  0.001424  0.746691  0.250000  1
  Th  Th9  1  0.748013  0.748013  0.750000  1
  Si  Si10  1  0.002664  0.002664  0.009899  1
  Si  Si11  1  0.002664  0.002664  0.490101  1
  Sn  Sn12  1  0.387996  0.387996  0.750000  1
  Sn  Sn13  1  0.603975  0.002249  0.750000  1
  Sn  Sn14  1  0.002249  0.603975  0.750000  1
  Sn  Sn15  1  0.609489  0.609489  0.250000  1
  Sn  Sn16  1  0.392338  0.999930  0.250000  1
  Sn  Sn17  1  0.999930  0.392338  0.250000  1
