# generated using pymatgen
data_Yb3Er5(ZrIr3)2
_symmetry_space_group_name_H-M   'P 1'
_cell_length_a   10.80739993
_cell_length_b   10.77127300
_cell_length_c   6.26124856
_cell_angle_alpha   90.00000000
_cell_angle_beta   90.04797412
_cell_angle_gamma   90.00000000
_symmetry_Int_Tables_number   1
_chemical_formula_structural   Yb3Er5(ZrIr3)2
_chemical_formula_sum   'Yb6 Er10 Zr4 Ir12'
_cell_volume   728.86827726
_cell_formula_units_Z   2
loop_
 _symmetry_equiv_pos_site_id
 _symmetry_equiv_pos_as_xyz
  1  'x, y, z'
loop_
 _atom_site_type_symbol
 _atom_site_label
 _atom_site_symmetry_multiplicity
 _atom_site_fract_x
 _atom_site_fract_y
 _atom_site_fract_z
 _atom_site_occupancy
  Yb  Yb0  1  0.290438  0.087327  0.370081  1
  Yb  Yb1  1  0.290438  0.912673  0.870081  1
  Yb  Yb2  1  0.710920  0.082254  0.869988  1
  Yb  Yb3  1  0.710920  0.917746  0.369988  1
  Yb  Yb4  1  0.584875  0.791812  0.869095  1
  Yb  Yb5  1  0.584875  0.208188  0.369095  1
  Er  Er6  1  0.415002  0.795169  0.373110  1
  Er  Er7  1  0.415002  0.204831  0.873110  1
  Er  Er8  1  0.210837  0.414562  0.630218  1
  Er  Er9  1  0.210837  0.585438  0.130218  1
  Er  Er10  1  0.788530  0.415065  0.129415  1
  Er  Er11  1  0.788530  0.584935  0.629415  1
  Er  Er12  1  0.915065  0.711064  0.131757  1
  Er  Er13  1  0.915065  0.288936  0.631757  1
  Er  Er14  1  0.085259  0.710569  0.630015  1
  Er  Er15  1  0.085259  0.289431  0.130015  1
  Zr  Zr16  1  0.002034  0.000334  0.497323  1
  Zr  Zr17  1  0.002034  0.999666  0.997323  1
  Zr  Zr18  1  0.499189  0.502267  0.996449  1
  Zr  Zr19  1  0.499189  0.497733  0.496449  1
  Ir  Ir20  1  0.865956  0.150191  0.249262  1
  Ir  Ir21  1  0.865956  0.849809  0.749262  1
  Ir  Ir22  1  0.140149  0.151608  0.752372  1
  Ir  Ir23  1  0.140149  0.848392  0.252372  1
  Ir  Ir24  1  0.644754  0.359981  0.754937  1
  Ir  Ir25  1  0.644754  0.640019  0.254937  1
  Ir  Ir26  1  0.350289  0.361874  0.240390  1
  Ir  Ir27  1  0.350289  0.638126  0.740390  1
  Ir  Ir28  1  0.497710  0.000296  0.121100  1
  Ir  Ir29  1  0.497710  0.999704  0.621100  1
  Ir  Ir30  1  0.998993  0.500167  0.884488  1
  Ir  Ir31  1  0.998993  0.499833  0.384488  1
