# generated using pymatgen
data_Pu4ReTc(B8Ru)2
_symmetry_space_group_name_H-M   'P 1'
_cell_length_a   5.99143289
_cell_length_b   11.59924560
_cell_length_c   3.55661900
_cell_angle_alpha   90.00000000
_cell_angle_beta   90.00000000
_cell_angle_gamma   90.06133523
_symmetry_Int_Tables_number   1
_chemical_formula_structural   Pu4ReTc(B8Ru)2
_chemical_formula_sum   'Pu4 Re1 Tc1 B16 Ru2'
_cell_volume   247.17101373
_cell_formula_units_Z   1
loop_
 _symmetry_equiv_pos_site_id
 _symmetry_equiv_pos_as_xyz
  1  'x, y, z'
loop_
 _atom_site_type_symbol
 _atom_site_label
 _atom_site_symmetry_multiplicity
 _atom_site_fract_x
 _atom_site_fract_y
 _atom_site_fract_z
 _atom_site_occupancy
  Pu  Pu0  1  0.627106  0.350191  0.000000  1
  Pu  Pu1  1  0.372893  0.649611  0.000000  1
  Pu  Pu2  1  0.126533  0.150592  0.000000  1
  Pu  Pu3  1  0.873520  0.849573  0.000000  1
  Re  Re4  1  0.364209  0.909264  0.000000  1
  Tc  Tc5  1  0.635852  0.090720  0.000000  1
  B  B6  1  0.786939  0.187107  0.500000  1
  B  B7  1  0.212691  0.812556  0.500000  1
  B  B8  1  0.286618  0.314138  0.500000  1
  B  B9  1  0.713348  0.685866  0.500000  1
  B  B10  1  0.865142  0.031691  0.500000  1
  B  B11  1  0.134653  0.968577  0.500000  1
  B  B12  1  0.364761  0.468429  0.500000  1
  B  B13  1  0.635287  0.531488  0.500000  1
  B  B14  1  0.886344  0.453101  0.500000  1
  B  B15  1  0.113578  0.546843  0.500000  1
  B  B16  1  0.385772  0.046912  0.500000  1
  B  B17  1  0.614526  0.953285  0.500000  1
  B  B18  1  0.973662  0.308361  0.500000  1
  B  B19  1  0.026123  0.691583  0.500000  1
  B  B20  1  0.473236  0.192278  0.500000  1
  B  B21  1  0.527285  0.807697  0.500000  1
  Ru  Ru22  1  0.137050  0.408474  0.000000  1
  Ru  Ru23  1  0.862873  0.591660  0.000000  1
