# generated using pymatgen
data_Ba2Ir(PdO3)6
_symmetry_space_group_name_H-M   'P 1'
_cell_length_a   6.89381545
_cell_length_b   7.18892710
_cell_length_c   7.54774641
_cell_angle_alpha   92.77196227
_cell_angle_beta   95.00601571
_cell_angle_gamma   114.60435975
_symmetry_Int_Tables_number   1
_chemical_formula_structural   Ba2Ir(PdO3)6
_chemical_formula_sum   'Ba2 Ir1 Pd6 O18'
_cell_volume   337.31515992
_cell_formula_units_Z   1
loop_
 _symmetry_equiv_pos_site_id
 _symmetry_equiv_pos_as_xyz
  1  'x, y, z'
loop_
 _atom_site_type_symbol
 _atom_site_label
 _atom_site_symmetry_multiplicity
 _atom_site_fract_x
 _atom_site_fract_y
 _atom_site_fract_z
 _atom_site_occupancy
  Ba  Ba0  1  0.682078  0.312413  0.376352  1
  Ba  Ba1  1  0.317922  0.687587  0.623648  1
  Ir  Ir2  1  0.000000  0.000000  0.500000  1
  Pd  Pd3  1  0.404115  0.285273  0.887247  1
  Pd  Pd4  1  0.595885  0.714727  0.112753  1
  Pd  Pd5  1  0.177831  0.379925  0.194953  1
  Pd  Pd6  1  0.822169  0.620075  0.805047  1
  Pd  Pd7  1  0.813765  0.128504  0.822968  1
  Pd  Pd8  1  0.186235  0.871496  0.177032  1
  O  O9  1  0.310654  0.511988  0.974577  1
  O  O10  1  0.689346  0.488012  0.025423  1
  O  O11  1  0.508254  0.075332  0.829341  1
  O  O12  1  0.491746  0.924668  0.170659  1
  O  O13  1  0.914881  0.402879  0.725402  1
  O  O14  1  0.085119  0.597121  0.274598  1
  O  O15  1  0.304780  0.177313  0.124810  1
  O  O16  1  0.695220  0.822687  0.875190  1
  O  O17  1  0.098638  0.112320  0.757118  1
  O  O18  1  0.473667  0.562342  0.319090  1
  O  O19  1  0.526333  0.437658  0.680910  1
  O  O20  1  0.116321  0.782973  0.920402  1
  O  O21  1  0.883679  0.217027  0.079598  1
  O  O22  1  0.734851  0.004626  0.563342  1
  O  O23  1  0.265149  0.995374  0.436658  1
  O  O24  1  0.912807  0.727200  0.567806  1
  O  O25  1  0.087193  0.272800  0.432194  1
  O  O26  1  0.901362  0.887680  0.242882  1
