# generated using pymatgen
data_Co5Ni3(W4C)4
_symmetry_space_group_name_H-M   'P 1'
_cell_length_a   8.00886526
_cell_length_b   8.00886518
_cell_length_c   8.00886452
_cell_angle_alpha   59.94234847
_cell_angle_beta   59.94234922
_cell_angle_gamma   59.94235062
_symmetry_Int_Tables_number   1
_chemical_formula_structural   Co5Ni3(W4C)4
_chemical_formula_sum   'Co5 Ni3 W16 C4'
_cell_volume   362.76859553
_cell_formula_units_Z   1
loop_
 _symmetry_equiv_pos_site_id
 _symmetry_equiv_pos_as_xyz
  1  'x, y, z'
loop_
 _atom_site_type_symbol
 _atom_site_label
 _atom_site_symmetry_multiplicity
 _atom_site_fract_x
 _atom_site_fract_y
 _atom_site_fract_z
 _atom_site_occupancy
  Co  Co0  1  0.830643  0.830643  0.830643  1
  Co  Co1  1  0.829577  0.829577  0.510249  1
  Co  Co2  1  0.510249  0.829577  0.829577  1
  Co  Co3  1  0.829577  0.510249  0.829577  1
  Co  Co4  1  0.418102  0.418102  0.418102  1
  Ni  Ni5  1  0.416782  0.416782  0.750705  1
  Ni  Ni6  1  0.416782  0.750705  0.416782  1
  Ni  Ni7  1  0.750705  0.416782  0.416782  1
  W  W8  1  0.439686  0.060431  0.060431  1
  W  W9  1  0.063680  0.437942  0.437942  1
  W  W10  1  0.060431  0.439686  0.060431  1
  W  W11  1  0.060431  0.060431  0.439686  1
  W  W12  1  0.437942  0.063680  0.437942  1
  W  W13  1  0.437942  0.437942  0.063680  1
  W  W14  1  0.187081  0.813009  0.187081  1
  W  W15  1  0.812194  0.187924  0.812194  1
  W  W16  1  0.813009  0.187081  0.187081  1
  W  W17  1  0.187081  0.187081  0.813009  1
  W  W18  1  0.187924  0.812194  0.812194  1
  W  W19  1  0.812194  0.812194  0.187924  1
  W  W20  1  0.625625  0.625625  0.625625  1
  W  W21  1  0.624182  0.624182  0.124152  1
  W  W22  1  0.124152  0.624182  0.624182  1
  W  W23  1  0.624182  0.124152  0.624182  1
  C  C24  1  0.125710  0.125710  0.125710  1
  C  C25  1  0.125164  0.125164  0.623805  1
  C  C26  1  0.623805  0.125164  0.125164  1
  C  C27  1  0.125164  0.623805  0.125164  1
