# generated using pymatgen
data_Nb12Zn3Ga8NiN4
_symmetry_space_group_name_H-M   'P 1'
_cell_length_a   8.30163556
_cell_length_b   8.26023250
_cell_length_c   8.26023300
_cell_angle_alpha   60.00000199
_cell_angle_beta   60.16484510
_cell_angle_gamma   60.16485174
_symmetry_Int_Tables_number   1
_chemical_formula_structural   Nb12Zn3Ga8NiN4
_chemical_formula_sum   'Nb12 Zn3 Ga8 Ni1 N4'
_cell_volume   401.52342197
_cell_formula_units_Z   1
loop_
 _symmetry_equiv_pos_site_id
 _symmetry_equiv_pos_as_xyz
  1  'x, y, z'
loop_
 _atom_site_type_symbol
 _atom_site_label
 _atom_site_symmetry_multiplicity
 _atom_site_fract_x
 _atom_site_fract_y
 _atom_site_fract_z
 _atom_site_occupancy
  Nb  Nb0  1  0.442756  0.440129  0.058557  1
  Nb  Nb1  1  0.058617  0.436745  0.067893  1
  Nb  Nb2  1  0.442756  0.058557  0.058557  1
  Nb  Nb3  1  0.058617  0.067893  0.436745  1
  Nb  Nb4  1  0.442756  0.058557  0.440129  1
  Nb  Nb5  1  0.058617  0.436745  0.436745  1
  Nb  Nb6  1  0.807244  0.809871  0.191443  1
  Nb  Nb7  1  0.191383  0.813255  0.182107  1
  Nb  Nb8  1  0.807244  0.191443  0.191443  1
  Nb  Nb9  1  0.191383  0.182107  0.813255  1
  Nb  Nb10  1  0.807244  0.191443  0.809871  1
  Nb  Nb11  1  0.191383  0.813255  0.813255  1
  Zn  Zn12  1  0.625000  0.625000  0.125000  1
  Zn  Zn13  1  0.625000  0.125000  0.625000  1
  Zn  Zn14  1  0.625000  0.625000  0.625000  1
  Ga  Ga15  1  0.848178  0.831680  0.488463  1
  Ga  Ga16  1  0.848178  0.488463  0.831680  1
  Ga  Ga17  1  0.492368  0.835878  0.835878  1
  Ga  Ga18  1  0.848178  0.831680  0.831680  1
  Ga  Ga19  1  0.401822  0.418320  0.761537  1
  Ga  Ga20  1  0.401822  0.761537  0.418320  1
  Ga  Ga21  1  0.757632  0.414122  0.414122  1
  Ga  Ga22  1  0.401822  0.418320  0.418320  1
  Ni  Ni23  1  0.125000  0.625000  0.625000  1
  N  N24  1  0.125000  0.125000  0.625000  1
  N  N25  1  0.125000  0.625000  0.125000  1
  N  N26  1  0.625000  0.125000  0.125000  1
  N  N27  1  0.125000  0.125000  0.125000  1
