# generated using pymatgen
data_SnHg5(Pd2Au)6
_symmetry_space_group_name_H-M   'P 1'
_cell_length_a   4.30962400
_cell_length_b   7.48597400
_cell_length_c   12.94476100
_cell_angle_alpha   90.00001208
_cell_angle_beta   90.00077500
_cell_angle_gamma   90.00000000
_symmetry_Int_Tables_number   1
_chemical_formula_structural   SnHg5(Pd2Au)6
_chemical_formula_sum   'Sn1 Hg5 Pd12 Au6'
_cell_volume   417.62042588
_cell_formula_units_Z   1
loop_
 _symmetry_equiv_pos_site_id
 _symmetry_equiv_pos_as_xyz
  1  'x, y, z'
loop_
 _atom_site_type_symbol
 _atom_site_label
 _atom_site_symmetry_multiplicity
 _atom_site_fract_x
 _atom_site_fract_y
 _atom_site_fract_z
 _atom_site_occupancy
  Sn  Sn0  1  0.000000  0.000000  0.000000  1
  Hg  Hg1  1  0.499940  0.500000  0.164960  1
  Hg  Hg2  1  0.999940  0.000000  0.334539  1
  Hg  Hg3  1  0.500000  0.500000  0.500000  1
  Hg  Hg4  1  0.000060  0.000000  0.665461  1
  Hg  Hg5  1  0.500060  0.500000  0.835040  1
  Pd  Pd6  1  0.500001  0.235469  0.000000  1
  Pd  Pd7  1  0.500001  0.764530  0.000000  1
  Pd  Pd8  1  0.000018  0.245242  0.161646  1
  Pd  Pd9  1  0.000018  0.754760  0.161646  1
  Pd  Pd10  1  0.499999  0.252805  0.332879  1
  Pd  Pd11  1  0.499999  0.747196  0.332879  1
  Pd  Pd12  1  0.000000  0.251063  0.500000  1
  Pd  Pd13  1  0.000000  0.748937  0.500000  1
  Pd  Pd14  1  0.500000  0.252805  0.667121  1
  Pd  Pd15  1  0.500000  0.747196  0.667121  1
  Pd  Pd16  1  0.999981  0.245241  0.838354  1
  Pd  Pd17  1  0.999981  0.754759  0.838354  1
  Au  Au18  1  0.000000  0.500000  0.000000  1
  Au  Au19  1  0.499925  0.000000  0.172363  1
  Au  Au20  1  0.999971  0.500000  0.331501  1
  Au  Au21  1  0.500000  0.000000  0.500000  1
  Au  Au22  1  0.000029  0.500000  0.668499  1
  Au  Au23  1  0.500075  0.000000  0.827637  1
