# generated using pymatgen
data_YP4(Ru2Rh)2
_symmetry_space_group_name_H-M   'P 1'
_cell_length_a   6.91921317
_cell_length_b   6.96477786
_cell_length_c   3.77706700
_cell_angle_alpha   90.00000000
_cell_angle_beta   90.00000000
_cell_angle_gamma   120.21806512
_symmetry_Int_Tables_number   1
_chemical_formula_structural   YP4(Ru2Rh)2
_chemical_formula_sum   'Y1 P4 Ru4 Rh2'
_cell_volume   157.28626329
_cell_formula_units_Z   1
loop_
 _symmetry_equiv_pos_site_id
 _symmetry_equiv_pos_as_xyz
  1  'x, y, z'
loop_
 _atom_site_type_symbol
 _atom_site_label
 _atom_site_symmetry_multiplicity
 _atom_site_fract_x
 _atom_site_fract_y
 _atom_site_fract_z
 _atom_site_occupancy
  Y  Y0  1  0.331771  0.665885  0.000000  1
  P  P1  1  0.674267  0.337133  0.000000  1
  P  P2  1  0.722109  0.861056  0.500000  1
  P  P3  1  0.136910  0.280545  0.500000  1
  P  P4  1  0.136910  0.856368  0.500000  1
  Ru  Ru5  1  0.270064  0.135032  0.000000  1
  Ru  Ru6  1  0.866307  0.733644  0.000000  1
  Ru  Ru7  1  0.866307  0.132663  0.000000  1
  Ru  Ru8  1  0.935567  0.467784  0.500000  1
  Rh  Rh9  1  0.529894  0.058655  0.500000  1
  Rh  Rh10  1  0.529894  0.471238  0.500000  1
