# generated using pymatgen
data_Pa4CrTc7
_symmetry_space_group_name_H-M   'P 1'
_cell_length_a   5.00379337
_cell_length_b   5.00379457
_cell_length_c   9.29927400
_cell_angle_alpha   90.00000000
_cell_angle_beta   90.00000000
_cell_angle_gamma   111.31504404
_symmetry_Int_Tables_number   1
_chemical_formula_structural   Pa4CrTc7
_chemical_formula_sum   'Pa4 Cr1 Tc7'
_cell_volume   216.90792174
_cell_formula_units_Z   1
loop_
 _symmetry_equiv_pos_site_id
 _symmetry_equiv_pos_as_xyz
  1  'x, y, z'
loop_
 _atom_site_type_symbol
 _atom_site_label
 _atom_site_symmetry_multiplicity
 _atom_site_fract_x
 _atom_site_fract_y
 _atom_site_fract_z
 _atom_site_occupancy
  Pa  Pa0  1  0.332193  0.667807  0.431716  1
  Pa  Pa1  1  0.668151  0.331849  0.563331  1
  Pa  Pa2  1  0.668151  0.331849  0.936669  1
  Pa  Pa3  1  0.332193  0.667807  0.068284  1
  Cr  Cr4  1  0.835290  0.164710  0.250000  1
  Tc  Tc5  1  0.992336  0.007664  0.497525  1
  Tc  Tc6  1  0.992336  0.007664  0.002475  1
  Tc  Tc7  1  0.833409  0.653892  0.250000  1
  Tc  Tc8  1  0.346108  0.166591  0.250000  1
  Tc  Tc9  1  0.168216  0.831784  0.750000  1
  Tc  Tc10  1  0.170703  0.339084  0.750000  1
  Tc  Tc11  1  0.660916  0.829297  0.750000  1
