# generated using pymatgen
data_KTcP2Ir
_symmetry_space_group_name_H-M   'P 1'
_cell_length_a   6.96505072
_cell_length_b   6.96505038
_cell_length_c   6.96505046
_cell_angle_alpha   145.86223051
_cell_angle_beta   145.86223030
_cell_angle_gamma   49.05144513
_symmetry_Int_Tables_number   1
_chemical_formula_structural   KTcP2Ir
_chemical_formula_sum   'K1 Tc1 P2 Ir1'
_cell_volume   105.93655160
_cell_formula_units_Z   1
loop_
 _symmetry_equiv_pos_site_id
 _symmetry_equiv_pos_as_xyz
  1  'x, y, z'
loop_
 _atom_site_type_symbol
 _atom_site_label
 _atom_site_symmetry_multiplicity
 _atom_site_fract_x
 _atom_site_fract_y
 _atom_site_fract_z
 _atom_site_occupancy
  K  K0  1  0.000000  0.000000  0.000000  1
  Tc  Tc1  1  0.750000  0.250000  0.500000  1
  P  P2  1  0.340066  0.340066  0.000000  1
  P  P3  1  0.659934  0.659934  0.000000  1
  Ir  Ir4  1  0.250000  0.750000  0.500000  1
