# generated using pymatgen
data_Ca4PrY3Hg8
_symmetry_space_group_name_H-M   'P 1'
_cell_length_a   7.55581800
_cell_length_b   7.55754500
_cell_length_c   7.51373500
_cell_angle_alpha   90.00000000
_cell_angle_beta   89.99894320
_cell_angle_gamma   90.00000000
_symmetry_Int_Tables_number   1
_chemical_formula_structural   Ca4PrY3Hg8
_chemical_formula_sum   'Ca4 Pr1 Y3 Hg8'
_cell_volume   429.06007474
_cell_formula_units_Z   1
loop_
 _symmetry_equiv_pos_site_id
 _symmetry_equiv_pos_as_xyz
  1  'x, y, z'
loop_
 _atom_site_type_symbol
 _atom_site_label
 _atom_site_symmetry_multiplicity
 _atom_site_fract_x
 _atom_site_fract_y
 _atom_site_fract_z
 _atom_site_occupancy
  Ca  Ca0  1  0.749556  0.250000  0.000070  1
  Ca  Ca1  1  0.249478  0.750000  0.499930  1
  Ca  Ca2  1  0.750536  0.250000  0.500082  1
  Ca  Ca3  1  0.250530  0.750000  0.999935  1
  Pr  Pr4  1  0.250488  0.250000  0.999979  1
  Y  Y5  1  0.749501  0.750000  0.000009  1
  Y  Y6  1  0.750568  0.750000  0.499996  1
  Y  Y7  1  0.249547  0.250000  0.500015  1
  Hg  Hg8  1  0.996924  0.503257  0.252271  1
  Hg  Hg9  1  0.996924  0.996745  0.252271  1
  Hg  Hg10  1  0.503271  0.996843  0.254527  1
  Hg  Hg11  1  0.503271  0.503157  0.254527  1
  Hg  Hg12  1  0.503018  0.503304  0.745450  1
  Hg  Hg13  1  0.503018  0.996698  0.745450  1
  Hg  Hg14  1  0.996684  0.996860  0.747744  1
  Hg  Hg15  1  0.996684  0.503140  0.747744  1
