# generated using pymatgen
data_Mn2AlCo4As
_symmetry_space_group_name_H-M   'P 1'
_cell_length_a   7.03112117
_cell_length_b   7.03112141
_cell_length_c   7.03112120
_cell_angle_alpha   33.57535517
_cell_angle_beta   33.57535200
_cell_angle_gamma   33.57536494
_symmetry_Int_Tables_number   1
_chemical_formula_structural   Mn2AlCo4As
_chemical_formula_sum   'Mn2 Al1 Co4 As1'
_cell_volume   94.69610025
_cell_formula_units_Z   1
loop_
 _symmetry_equiv_pos_site_id
 _symmetry_equiv_pos_as_xyz
  1  'x, y, z'
loop_
 _atom_site_type_symbol
 _atom_site_label
 _atom_site_symmetry_multiplicity
 _atom_site_fract_x
 _atom_site_fract_y
 _atom_site_fract_z
 _atom_site_occupancy
  Mn  Mn0  1  0.253489  0.253489  0.253489  1
  Mn  Mn1  1  0.746511  0.746511  0.746511  1
  Al  Al2  1  0.000000  0.000000  0.000000  1
  Co  Co3  1  0.376877  0.376877  0.376877  1
  Co  Co4  1  0.873194  0.873194  0.873194  1
  Co  Co5  1  0.623123  0.623123  0.623123  1
  Co  Co6  1  0.126806  0.126806  0.126806  1
  As  As7  1  0.500000  0.500000  0.500000  1
