# generated using pymatgen
data_Ho2Lu3GaSi3
_symmetry_space_group_name_H-M   'P 1'
_cell_length_a   7.29794800
_cell_length_b   7.62571517
_cell_length_c   14.47772229
_cell_angle_alpha   89.98242187
_cell_angle_beta   89.77039645
_cell_angle_gamma   90.13113732
_symmetry_Int_Tables_number   1
_chemical_formula_structural   Ho2Lu3GaSi3
_chemical_formula_sum   'Ho8 Lu12 Ga4 Si12'
_cell_volume   805.70663490
_cell_formula_units_Z   4
loop_
 _symmetry_equiv_pos_site_id
 _symmetry_equiv_pos_as_xyz
  1  'x, y, z'
loop_
 _atom_site_type_symbol
 _atom_site_label
 _atom_site_symmetry_multiplicity
 _atom_site_fract_x
 _atom_site_fract_y
 _atom_site_fract_z
 _atom_site_occupancy
  Ho  Ho0  1  0.020170  0.178975  0.097291  1
  Ho  Ho1  1  0.982010  0.821133  0.901609  1
  Ho  Ho2  1  0.481963  0.680052  0.901214  1
  Ho  Ho3  1  0.983217  0.823770  0.601040  1
  Ho  Ho4  1  0.517441  0.317517  0.097069  1
  Ho  Ho5  1  0.015310  0.179665  0.400172  1
  Ho  Ho6  1  0.516378  0.320969  0.400001  1
  Ho  Ho7  1  0.485875  0.679203  0.601084  1
  Lu  Lu8  1  0.158934  0.507438  0.751058  1
  Lu  Lu9  1  0.840148  0.491873  0.249988  1
  Lu  Lu10  1  0.340373  0.007789  0.249103  1
  Lu  Lu11  1  0.658971  0.992493  0.749784  1
  Lu  Lu12  1  0.327419  0.175412  0.626812  1
  Lu  Lu13  1  0.672649  0.825822  0.375101  1
  Lu  Lu14  1  0.174906  0.673336  0.374290  1
  Lu  Lu15  1  0.674540  0.825238  0.123988  1
  Lu  Lu16  1  0.825973  0.324941  0.625397  1
  Lu  Lu17  1  0.325614  0.176574  0.875720  1
  Lu  Lu18  1  0.824043  0.322580  0.876257  1
  Lu  Lu19  1  0.176317  0.676516  0.122590  1
  Ga  Ga20  1  0.160624  0.465356  0.539918  1
  Ga  Ga21  1  0.840754  0.535034  0.461040  1
  Ga  Ga22  1  0.340030  0.964208  0.461881  1
  Ga  Ga23  1  0.841808  0.535162  0.038739  1
  Si  Si24  1  0.028080  0.109609  0.752113  1
  Si  Si25  1  0.971462  0.890884  0.249018  1
  Si  Si26  1  0.470805  0.607844  0.247559  1
  Si  Si27  1  0.529445  0.391946  0.751475  1
  Si  Si28  1  0.279214  0.870159  0.751918  1
  Si  Si29  1  0.722032  0.128804  0.248137  1
  Si  Si30  1  0.221069  0.370248  0.247688  1
  Si  Si31  1  0.780116  0.631083  0.752191  1
  Si  Si32  1  0.656050  0.032831  0.540190  1
  Si  Si33  1  0.155680  0.466747  0.960272  1
  Si  Si34  1  0.653171  0.031755  0.960549  1
  Si  Si35  1  0.347410  0.967033  0.037749  1
