# generated using pymatgen
data_Er3Tm2Pt9
_symmetry_space_group_name_H-M   'P 1'
_cell_length_a   9.69874935
_cell_length_b   9.71696035
_cell_length_c   5.74120700
_cell_angle_alpha   90.00000000
_cell_angle_beta   90.00000000
_cell_angle_gamma   90.06035393
_symmetry_Int_Tables_number   1
_chemical_formula_structural   Er3Tm2Pt9
_chemical_formula_sum   'Er6 Tm4 Pt18'
_cell_volume   541.06461288
_cell_formula_units_Z   2
loop_
 _symmetry_equiv_pos_site_id
 _symmetry_equiv_pos_as_xyz
  1  'x, y, z'
loop_
 _atom_site_type_symbol
 _atom_site_label
 _atom_site_symmetry_multiplicity
 _atom_site_fract_x
 _atom_site_fract_y
 _atom_site_fract_z
 _atom_site_occupancy
  Er  Er0  1  0.452340  0.809021  0.000000  1
  Er  Er1  1  0.547660  0.190979  0.000000  1
  Er  Er2  1  0.190858  0.547608  0.000000  1
  Er  Er3  1  0.809142  0.452392  0.000000  1
  Er  Er4  1  0.308857  0.047701  0.500000  1
  Er  Er5  1  0.691143  0.952299  0.500000  1
  Tm  Tm6  1  0.500000  0.500000  0.500000  1
  Tm  Tm7  1  0.952382  0.691012  0.500000  1
  Tm  Tm8  1  0.047618  0.308988  0.500000  1
  Tm  Tm9  1  0.000000  0.000000  0.000000  1
  Pt  Pt10  1  0.191277  0.808160  0.251644  1
  Pt  Pt11  1  0.808723  0.191840  0.748356  1
  Pt  Pt12  1  0.808723  0.191840  0.251644  1
  Pt  Pt13  1  0.191277  0.808160  0.748356  1
  Pt  Pt14  1  0.441361  0.781362  0.500000  1
  Pt  Pt15  1  0.558639  0.218638  0.500000  1
  Pt  Pt16  1  0.217856  0.558357  0.500000  1
  Pt  Pt17  1  0.782144  0.441643  0.500000  1
  Pt  Pt18  1  0.307900  0.308368  0.248862  1
  Pt  Pt19  1  0.692100  0.691632  0.751138  1
  Pt  Pt20  1  0.692100  0.691632  0.248862  1
  Pt  Pt21  1  0.307900  0.308368  0.751138  1
  Pt  Pt22  1  0.281465  0.058582  0.000000  1
  Pt  Pt23  1  0.718535  0.941418  0.000000  1
  Pt  Pt24  1  0.941464  0.718530  0.000000  1
  Pt  Pt25  1  0.058536  0.281470  0.000000  1
  Pt  Pt26  1  0.000000  0.000000  0.500000  1
  Pt  Pt27  1  0.500000  0.500000  0.000000  1
