# generated using pymatgen
data_DyU3(PO5)4
_symmetry_space_group_name_H-M   'P 1'
_cell_length_a   5.52321233
_cell_length_b   8.80374978
_cell_length_c   9.28999333
_cell_angle_alpha   101.33921760
_cell_angle_beta   103.58508304
_cell_angle_gamma   97.82090222
_symmetry_Int_Tables_number   1
_chemical_formula_structural   DyU3(PO5)4
_chemical_formula_sum   'Dy1 U3 P4 O20'
_cell_volume   422.57073907
_cell_formula_units_Z   1
loop_
 _symmetry_equiv_pos_site_id
 _symmetry_equiv_pos_as_xyz
  1  'x, y, z'
loop_
 _atom_site_type_symbol
 _atom_site_label
 _atom_site_symmetry_multiplicity
 _atom_site_fract_x
 _atom_site_fract_y
 _atom_site_fract_z
 _atom_site_occupancy
  Dy  Dy0  1  0.350475  0.294840  0.046374  1
  U  U1  1  0.649442  0.703330  0.952942  1
  U  U2  1  0.335356  0.801969  0.552254  1
  U  U3  1  0.660733  0.198160  0.445686  1
  P  P4  1  0.091289  0.516539  0.766510  1
  P  P5  1  0.911684  0.486360  0.236781  1
  P  P6  1  0.282939  0.921860  0.177084  1
  P  P7  1  0.726520  0.079488  0.824557  1
  O  O8  1  0.009712  0.134266  0.890590  1
  O  O9  1  0.997636  0.851855  0.100398  1
  O  O10  1  0.970121  0.377970  0.632005  1
  O  O11  1  0.019634  0.628053  0.373091  1
  O  O12  1  0.716045  0.361802  0.270004  1
  O  O13  1  0.273106  0.647408  0.731293  1
  O  O14  1  0.433005  0.815016  0.089115  1
  O  O15  1  0.573998  0.181197  0.904560  1
  O  O16  1  0.427973  0.303615  0.498007  1
  O  O17  1  0.566801  0.691060  0.505746  1
  O  O18  1  0.877572  0.590697  0.825046  1
  O  O19  1  0.114794  0.416571  0.177054  1
  O  O20  1  0.278995  0.477110  0.900375  1
  O  O21  1  0.730367  0.543221  0.102503  1
  O  O22  1  0.883781  0.090249  0.383180  1
  O  O23  1  0.112653  0.911930  0.612148  1
  O  O24  1  0.358324  0.923437  0.347571  1
  O  O25  1  0.641547  0.059201  0.647126  1
  O  O26  1  0.360236  0.094253  0.172735  1
  O  O27  1  0.645262  0.898540  0.835263  1
