# generated using pymatgen
data_AlF10
_symmetry_space_group_name_H-M   'P 1'
_cell_length_a   3.70005151
_cell_length_b   3.69017216
_cell_length_c   12.18922822
_cell_angle_alpha   90.21093623
_cell_angle_beta   82.49577803
_cell_angle_gamma   89.59176606
_symmetry_Int_Tables_number   1
_chemical_formula_structural   AlF10
_chemical_formula_sum   'Al1 F10'
_cell_volume   164.99821127
_cell_formula_units_Z   1
loop_
 _symmetry_equiv_pos_site_id
 _symmetry_equiv_pos_as_xyz
  1  'x, y, z'
loop_
 _atom_site_type_symbol
 _atom_site_label
 _atom_site_symmetry_multiplicity
 _atom_site_fract_x
 _atom_site_fract_y
 _atom_site_fract_z
 _atom_site_occupancy
  Al  Al0  1  0.646537  0.695940  0.273388  1
  F  F1  1  0.316435  0.094757  0.007660  1
  F  F2  1  0.084761  0.185574  0.927520  1
  F  F3  1  0.699430  0.657595  0.817887  1
  F  F4  1  0.143488  0.157974  0.618338  1
  F  F5  1  0.527988  0.674913  0.719967  1
  F  F6  1  0.984475  0.226853  0.520710  1
  F  F7  1  0.582417  0.697078  0.419657  1
  F  F8  1  0.646844  0.196012  0.274343  1
  F  F9  1  0.146488  0.695286  0.273635  1
  F  F10  1  0.707709  0.696918  0.127422  1
