# generated using pymatgen
data_Yb(PdAu2)2
_symmetry_space_group_name_H-M   'P 1'
_cell_length_a   5.63393402
_cell_length_b   5.63393390
_cell_length_c   5.63393482
_cell_angle_alpha   103.78023959
_cell_angle_beta   103.78023540
_cell_angle_gamma   121.57425137
_symmetry_Int_Tables_number   1
_chemical_formula_structural   Yb(PdAu2)2
_chemical_formula_sum   'Yb1 Pd2 Au4'
_cell_volume   132.97702843
_cell_formula_units_Z   1
loop_
 _symmetry_equiv_pos_site_id
 _symmetry_equiv_pos_as_xyz
  1  'x, y, z'
loop_
 _atom_site_type_symbol
 _atom_site_label
 _atom_site_symmetry_multiplicity
 _atom_site_fract_x
 _atom_site_fract_y
 _atom_site_fract_z
 _atom_site_occupancy
  Yb  Yb0  1  0.000000  0.000000  0.000000  1
  Pd  Pd1  1  0.250000  0.750000  0.500000  1
  Pd  Pd2  1  0.750000  0.250000  0.500000  1
  Au  Au3  1  0.297791  0.297791  0.595581  1
  Au  Au4  1  0.702209  0.702209  0.404419  1
  Au  Au5  1  0.702209  0.297791  0.000000  1
  Au  Au6  1  0.297791  0.702209  0.000000  1
