# generated using pymatgen
data_CsMn3Ge2O9
_symmetry_space_group_name_H-M   'P 1'
_cell_length_a   6.01393812
_cell_length_b   6.01133255
_cell_length_c   14.31713490
_cell_angle_alpha   90.04495803
_cell_angle_beta   89.91678070
_cell_angle_gamma   120.01781266
_symmetry_Int_Tables_number   1
_chemical_formula_structural   CsMn3Ge2O9
_chemical_formula_sum   'Cs2 Mn6 Ge4 O18'
_cell_volume   448.16508360
_cell_formula_units_Z   2
loop_
 _symmetry_equiv_pos_site_id
 _symmetry_equiv_pos_as_xyz
  1  'x, y, z'
loop_
 _atom_site_type_symbol
 _atom_site_label
 _atom_site_symmetry_multiplicity
 _atom_site_fract_x
 _atom_site_fract_y
 _atom_site_fract_z
 _atom_site_occupancy
  Cs  Cs0  1  0.333286  0.666538  0.750011  1
  Cs  Cs1  1  0.666743  0.333506  0.249995  1
  Mn  Mn2  1  0.499837  0.500046  0.500049  1
  Mn  Mn3  1  0.500298  0.000060  0.999979  1
  Mn  Mn4  1  0.499844  0.500079  0.999952  1
  Mn  Mn5  1  0.999984  0.499745  0.500012  1
  Mn  Mn6  1  0.500143  0.999989  0.499996  1
  Mn  Mn7  1  0.999971  0.499713  0.999988  1
  Ge  Ge8  1  0.999935  0.999583  0.623785  1
  Ge  Ge9  1  0.000038  0.000390  0.376205  1
  Ge  Ge10  1  0.000312  0.000399  0.123961  1
  Ge  Ge11  1  0.999753  0.999572  0.876064  1
  O  O12  1  0.999665  0.999180  0.750023  1
  O  O13  1  0.000300  0.000865  0.249976  1
  O  O14  1  0.666498  0.333417  0.557100  1
  O  O15  1  0.333448  0.666600  0.442884  1
  O  O16  1  0.333145  0.666629  0.057104  1
  O  O17  1  0.666859  0.333390  0.942890  1
  O  O18  1  0.162622  0.837377  0.584289  1
  O  O19  1  0.675651  0.837126  0.584589  1
  O  O20  1  0.162411  0.324232  0.584646  1
  O  O21  1  0.837298  0.162626  0.415736  1
  O  O22  1  0.324305  0.162909  0.415412  1
  O  O23  1  0.837578  0.675800  0.415346  1
  O  O24  1  0.838091  0.162530  0.084587  1
  O  O25  1  0.325240  0.163012  0.084327  1
  O  O26  1  0.838514  0.675797  0.084626  1
  O  O27  1  0.161916  0.837568  0.915404  1
  O  O28  1  0.674795  0.837051  0.915691  1
  O  O29  1  0.161515  0.324271  0.915371  1
