# generated using pymatgen
data_HoLu3AlGa17Ir6
_symmetry_space_group_name_H-M   'P 1'
_cell_length_a   7.56698012
_cell_length_b   7.56781808
_cell_length_c   9.44659701
_cell_angle_alpha   89.98570753
_cell_angle_beta   89.98999653
_cell_angle_gamma   119.93491060
_symmetry_Int_Tables_number   1
_chemical_formula_structural   HoLu3AlGa17Ir6
_chemical_formula_sum   'Ho1 Lu3 Al1 Ga17 Ir6'
_cell_volume   468.79582041
_cell_formula_units_Z   1
loop_
 _symmetry_equiv_pos_site_id
 _symmetry_equiv_pos_as_xyz
  1  'x, y, z'
loop_
 _atom_site_type_symbol
 _atom_site_label
 _atom_site_symmetry_multiplicity
 _atom_site_fract_x
 _atom_site_fract_y
 _atom_site_fract_z
 _atom_site_occupancy
  Ho  Ho0  1  0.999103  0.668981  0.249821  1
  Lu  Lu1  1  0.001612  0.329401  0.749537  1
  Lu  Lu2  1  0.668992  0.999282  0.249860  1
  Lu  Lu3  1  0.329379  0.001603  0.749545  1
  Al  Al4  1  0.336008  0.335994  0.949085  1
  Ga  Ga5  1  0.126258  0.126471  0.249043  1
  Ga  Ga6  1  0.872178  0.872182  0.748972  1
  Ga  Ga7  1  0.997526  0.333817  0.080967  1
  Ga  Ga8  1  0.000807  0.664767  0.916992  1
  Ga  Ga9  1  0.000407  0.664415  0.582838  1
  Ga  Ga10  1  0.334987  0.999353  0.417287  1
  Ga  Ga11  1  0.998824  0.333895  0.417308  1
  Ga  Ga12  1  0.664437  0.000428  0.582547  1
  Ga  Ga13  1  0.664811  0.000839  0.917292  1
  Ga  Ga14  1  0.334875  0.998058  0.080979  1
  Ga  Ga15  1  0.331136  0.331125  0.565354  1
  Ga  Ga16  1  0.668457  0.668918  0.432560  1
  Ga  Ga17  1  0.672796  0.673304  0.067667  1
  Ga  Ga18  1  0.340991  0.548720  0.249720  1
  Ga  Ga19  1  0.654936  0.449551  0.750129  1
  Ga  Ga20  1  0.548373  0.340454  0.249723  1
  Ga  Ga21  1  0.449600  0.654975  0.750122  1
  Ir  Ir22  1  0.669520  0.327991  0.998928  1
  Ir  Ir23  1  0.328155  0.669541  0.998911  1
  Ir  Ir24  1  0.328210  0.672145  0.499662  1
  Ir  Ir25  1  0.672074  0.327995  0.499631  1
  Ir  Ir26  1  0.005682  0.005777  0.996215  1
  Ir  Ir27  1  0.999862  0.000018  0.499299  1
