# generated using pymatgen
data_Dy15Er5(Bi2Os)4
_symmetry_space_group_name_H-M   'P 1'
_cell_length_a   7.94626213
_cell_length_b   9.01206576
_cell_length_c   12.52306210
_cell_angle_alpha   89.95406377
_cell_angle_beta   90.00229651
_cell_angle_gamma   90.00279024
_symmetry_Int_Tables_number   1
_chemical_formula_structural   Dy15Er5(Bi2Os)4
_chemical_formula_sum   'Dy15 Er5 Bi8 Os4'
_cell_volume   896.80419971
_cell_formula_units_Z   1
loop_
 _symmetry_equiv_pos_site_id
 _symmetry_equiv_pos_as_xyz
  1  'x, y, z'
loop_
 _atom_site_type_symbol
 _atom_site_label
 _atom_site_symmetry_multiplicity
 _atom_site_fract_x
 _atom_site_fract_y
 _atom_site_fract_z
 _atom_site_occupancy
  Dy  Dy0  1  0.842031  0.750408  0.792448  1
  Dy  Dy1  1  0.158191  0.249559  0.207915  1
  Dy  Dy2  1  0.342147  0.249694  0.707540  1
  Dy  Dy3  1  0.657950  0.750004  0.292336  1
  Dy  Dy4  1  0.375660  0.750389  0.691292  1
  Dy  Dy5  1  0.623315  0.249536  0.308535  1
  Dy  Dy6  1  0.876103  0.248921  0.808325  1
  Dy  Dy7  1  0.123763  0.751171  0.191834  1
  Dy  Dy8  1  0.943459  0.750714  0.504417  1
  Dy  Dy9  1  0.057688  0.249466  0.495558  1
  Dy  Dy10  1  0.442889  0.248809  0.995676  1
  Dy  Dy11  1  0.556952  0.751152  0.004473  1
  Dy  Dy12  1  0.674769  0.458863  0.563940  1
  Dy  Dy13  1  0.825000  0.458651  0.064264  1
  Dy  Dy14  1  0.175242  0.541297  0.935920  1
  Er  Er15  1  0.672757  0.041350  0.564093  1
  Er  Er16  1  0.327042  0.958198  0.435542  1
  Er  Er17  1  0.172787  0.958219  0.935715  1
  Er  Er18  1  0.326250  0.541589  0.435627  1
  Er  Er19  1  0.827465  0.041982  0.064454  1
  Bi  Bi20  1  0.568782  0.493246  0.827877  1
  Bi  Bi21  1  0.430970  0.506828  0.172221  1
  Bi  Bi22  1  0.068485  0.506669  0.672243  1
  Bi  Bi23  1  0.432381  0.993381  0.172346  1
  Bi  Bi24  1  0.932207  0.493395  0.328111  1
  Bi  Bi25  1  0.567535  0.006413  0.827529  1
  Bi  Bi26  1  0.931861  0.006777  0.327961  1
  Bi  Bi27  1  0.067799  0.993344  0.672162  1
  Os  Os28  1  0.573018  0.750231  0.509270  1
  Os  Os29  1  0.425444  0.249641  0.490221  1
  Os  Os30  1  0.074283  0.249247  0.990317  1
  Os  Os31  1  0.925774  0.750856  0.009834  1
