# generated using pymatgen
data_Y7Os4C9
_symmetry_space_group_name_H-M   'P 1'
_cell_length_a   5.09942114
_cell_length_b   6.33024144
_cell_length_c   11.38787007
_cell_angle_alpha   93.15567755
_cell_angle_beta   102.93803185
_cell_angle_gamma   113.75223637
_symmetry_Int_Tables_number   1
_chemical_formula_structural   Y7Os4C9
_chemical_formula_sum   'Y7 Os4 C9'
_cell_volume   323.55195742
_cell_formula_units_Z   1
loop_
 _symmetry_equiv_pos_site_id
 _symmetry_equiv_pos_as_xyz
  1  'x, y, z'
loop_
 _atom_site_type_symbol
 _atom_site_label
 _atom_site_symmetry_multiplicity
 _atom_site_fract_x
 _atom_site_fract_y
 _atom_site_fract_z
 _atom_site_occupancy
  Y  Y0  1  0.000000  0.000000  0.000000  1
  Y  Y1  1  0.777391  0.391403  0.163378  1
  Y  Y2  1  0.167156  0.014182  0.320131  1
  Y  Y3  1  0.507799  0.639238  0.376359  1
  Y  Y4  1  0.492201  0.360761  0.623641  1
  Y  Y5  1  0.832844  0.985818  0.679869  1
  Y  Y6  1  0.222609  0.608596  0.836623  1
  Os  Os7  1  0.486620  0.835739  0.137500  1
  Os  Os8  1  0.860749  0.289024  0.432473  1
  Os  Os9  1  0.139251  0.710976  0.567527  1
  Os  Os10  1  0.513380  0.164261  0.862500  1
  C  C11  1  0.500000  0.000000  0.000000  1
  C  C12  1  0.324870  0.506611  0.143131  1
  C  C13  1  0.245643  0.305597  0.185689  1
  C  C14  1  0.665121  0.038645  0.291595  1
  C  C15  1  0.992346  0.604324  0.380368  1
  C  C16  1  0.007653  0.395675  0.619631  1
  C  C17  1  0.334879  0.961355  0.708405  1
  C  C18  1  0.754357  0.694403  0.814311  1
  C  C19  1  0.675129  0.493388  0.856869  1
