# generated using pymatgen
data_YTm(HfPt)2
_symmetry_space_group_name_H-M   'P 1'
_cell_length_a   4.65023300
_cell_length_b   7.06354100
_cell_length_c   8.21542600
_cell_angle_alpha   90.00000000
_cell_angle_beta   90.00000000
_cell_angle_gamma   90.00000000
_symmetry_Int_Tables_number   1
_chemical_formula_structural   YTm(HfPt)2
_chemical_formula_sum   'Y2 Tm2 Hf4 Pt4'
_cell_volume   269.85301347
_cell_formula_units_Z   2
loop_
 _symmetry_equiv_pos_site_id
 _symmetry_equiv_pos_as_xyz
  1  'x, y, z'
loop_
 _atom_site_type_symbol
 _atom_site_label
 _atom_site_symmetry_multiplicity
 _atom_site_fract_x
 _atom_site_fract_y
 _atom_site_fract_z
 _atom_site_occupancy
  Y  Y0  1  0.750000  0.015978  0.678473  1
  Y  Y1  1  0.750000  0.515978  0.821527  1
  Tm  Tm2  1  0.250000  0.983048  0.321635  1
  Tm  Tm3  1  0.250000  0.483048  0.178365  1
  Hf  Hf4  1  0.250000  0.854067  0.924601  1
  Hf  Hf5  1  0.250000  0.354067  0.575399  1
  Hf  Hf6  1  0.750000  0.146031  0.078828  1
  Hf  Hf7  1  0.750000  0.646031  0.421172  1
  Pt  Pt8  1  0.250000  0.230436  0.906178  1
  Pt  Pt9  1  0.250000  0.730436  0.593822  1
  Pt  Pt10  1  0.750000  0.770440  0.097876  1
  Pt  Pt11  1  0.750000  0.270440  0.402124  1
