# generated using pymatgen
data_Sc22GaTc6Os
_symmetry_space_group_name_H-M   'P 1'
_cell_length_a   9.59577348
_cell_length_b   9.59577341
_cell_length_c   9.45788100
_cell_angle_alpha   60.47423547
_cell_angle_beta   60.47423571
_cell_angle_gamma   59.56206767
_symmetry_Int_Tables_number   1
_chemical_formula_structural   Sc22GaTc6Os
_chemical_formula_sum   'Sc22 Ga1 Tc6 Os1'
_cell_volume   618.06891752
_cell_formula_units_Z   1
loop_
 _symmetry_equiv_pos_site_id
 _symmetry_equiv_pos_as_xyz
  1  'x, y, z'
loop_
 _atom_site_type_symbol
 _atom_site_label
 _atom_site_symmetry_multiplicity
 _atom_site_fract_x
 _atom_site_fract_y
 _atom_site_fract_z
 _atom_site_occupancy
  Sc  Sc0  1  0.842669  0.842669  0.844227  1
  Sc  Sc1  1  0.528702  0.145973  0.162662  1
  Sc  Sc2  1  0.157331  0.157331  0.529564  1
  Sc  Sc3  1  0.145973  0.528702  0.162662  1
  Sc  Sc4  1  0.842669  0.842669  0.470436  1
  Sc  Sc5  1  0.854027  0.471298  0.837338  1
  Sc  Sc6  1  0.471298  0.854027  0.837338  1
  Sc  Sc7  1  0.157331  0.157331  0.155773  1
  Sc  Sc8  1  0.195081  0.804919  0.199288  1
  Sc  Sc9  1  0.195081  0.804919  0.800712  1
  Sc  Sc10  1  0.804919  0.195081  0.199288  1
  Sc  Sc11  1  0.802844  0.802844  0.197156  1
  Sc  Sc12  1  0.197156  0.197156  0.802844  1
  Sc  Sc13  1  0.804919  0.195081  0.800712  1
  Sc  Sc14  1  0.378301  0.378301  0.393458  1
  Sc  Sc15  1  0.151466  0.620222  0.614156  1
  Sc  Sc16  1  0.620222  0.151466  0.614156  1
  Sc  Sc17  1  0.621699  0.621699  0.150060  1
  Sc  Sc18  1  0.379778  0.848534  0.385844  1
  Sc  Sc19  1  0.378301  0.378301  0.849940  1
  Sc  Sc20  1  0.848534  0.379778  0.385844  1
  Sc  Sc21  1  0.621699  0.621699  0.606542  1
  Ga  Ga22  1  0.500000  0.500000  0.000000  1
  Tc  Tc23  1  0.000000  0.000000  0.500000  1
  Tc  Tc24  1  0.500000  0.000000  0.500000  1
  Tc  Tc25  1  0.000000  0.500000  0.500000  1
  Tc  Tc26  1  0.500000  0.000000  0.000000  1
  Tc  Tc27  1  0.000000  0.500000  0.000000  1
  Tc  Tc28  1  0.000000  0.000000  0.000000  1
  Os  Os29  1  0.500000  0.500000  0.500000  1
