# generated using pymatgen
data_Ba6Na2TaNbP2O17
_symmetry_space_group_name_H-M   'P 1'
_cell_length_a   5.91000700
_cell_length_b   5.91000621
_cell_length_c   14.75961800
_cell_angle_alpha   90.00000000
_cell_angle_beta   90.00000000
_cell_angle_gamma   120.00001001
_symmetry_Int_Tables_number   1
_chemical_formula_structural   Ba6Na2TaNbP2O17
_chemical_formula_sum   'Ba6 Na2 Ta1 Nb1 P2 O17'
_cell_volume   446.45905741
_cell_formula_units_Z   1
loop_
 _symmetry_equiv_pos_site_id
 _symmetry_equiv_pos_as_xyz
  1  'x, y, z'
loop_
 _atom_site_type_symbol
 _atom_site_label
 _atom_site_symmetry_multiplicity
 _atom_site_fract_x
 _atom_site_fract_y
 _atom_site_fract_z
 _atom_site_occupancy
  Ba  Ba0  1  0.666667  0.333333  0.656399  1
  Ba  Ba1  1  0.333333  0.666667  0.344166  1
  Ba  Ba2  1  0.666667  0.333333  0.179820  1
  Ba  Ba3  1  0.333333  0.666667  0.819199  1
  Ba  Ba4  1  0.000000  0.000000  0.999593  1
  Ba  Ba5  1  0.000000  0.000000  0.501221  1
  Na  Na6  1  0.000000  0.000000  0.752149  1
  Na  Na7  1  0.000000  0.000000  0.246868  1
  Ta  Ta8  1  0.333333  0.666667  0.587411  1
  Nb  Nb9  1  0.666667  0.333333  0.411984  1
  P  P10  1  0.333333  0.666667  0.104690  1
  P  P11  1  0.666667  0.333333  0.895488  1
  O  O12  1  0.177092  0.354185  0.660216  1
  O  O13  1  0.810218  0.189782  0.857465  1
  O  O14  1  0.498674  0.997349  0.500341  1
  O  O15  1  0.645815  0.822908  0.660216  1
  O  O16  1  0.189831  0.379662  0.142844  1
  O  O17  1  0.333333  0.666667  0.000395  1
  O  O18  1  0.823408  0.646816  0.339391  1
  O  O19  1  0.823408  0.176592  0.339391  1
  O  O20  1  0.620338  0.810169  0.142844  1
  O  O21  1  0.666667  0.333333  0.999847  1
  O  O22  1  0.810218  0.620436  0.857465  1
  O  O23  1  0.379564  0.189782  0.857465  1
  O  O24  1  0.189831  0.810169  0.142844  1
  O  O25  1  0.002651  0.501326  0.500341  1
  O  O26  1  0.177092  0.822908  0.660216  1
  O  O27  1  0.353184  0.176592  0.339391  1
  O  O28  1  0.498674  0.501326  0.500341  1
