# generated using pymatgen
data_La2Nd2LuSi4
_symmetry_space_group_name_H-M   'P 1'
_cell_length_a   7.85499800
_cell_length_b   7.85499800
_cell_length_c   15.14658300
_cell_angle_alpha   90.00000000
_cell_angle_beta   90.00000000
_cell_angle_gamma   90.00000000
_symmetry_Int_Tables_number   1
_chemical_formula_structural   La2Nd2LuSi4
_chemical_formula_sum   'La8 Nd8 Lu4 Si16'
_cell_volume   934.55922044
_cell_formula_units_Z   4
loop_
 _symmetry_equiv_pos_site_id
 _symmetry_equiv_pos_as_xyz
  1  'x, y, z'
loop_
 _atom_site_type_symbol
 _atom_site_label
 _atom_site_symmetry_multiplicity
 _atom_site_fract_x
 _atom_site_fract_y
 _atom_site_fract_z
 _atom_site_occupancy
  La  La0  1  0.986963  0.623717  0.052392  1
  La  La1  1  0.013037  0.376283  0.552392  1
  La  La2  1  0.623717  0.986963  0.947608  1
  La  La3  1  0.123717  0.513037  0.802392  1
  La  La4  1  0.876283  0.486963  0.302392  1
  La  La5  1  0.513037  0.123717  0.197608  1
  La  La6  1  0.486963  0.876283  0.697608  1
  La  La7  1  0.376283  0.013037  0.447608  1
  Nd  Nd8  1  0.372901  0.480506  0.372716  1
  Nd  Nd9  1  0.872901  0.019494  0.377284  1
  Nd  Nd10  1  0.980506  0.127099  0.122716  1
  Nd  Nd11  1  0.019494  0.872901  0.622716  1
  Nd  Nd12  1  0.627099  0.519494  0.872716  1
  Nd  Nd13  1  0.480506  0.372901  0.627284  1
  Nd  Nd14  1  0.519494  0.627099  0.127284  1
  Nd  Nd15  1  0.127099  0.980506  0.877284  1
  Lu  Lu16  1  0.689832  0.689832  0.500000  1
  Lu  Lu17  1  0.810168  0.189832  0.750000  1
  Lu  Lu18  1  0.189832  0.810168  0.250000  1
  Lu  Lu19  1  0.310168  0.310168  0.000000  1
  Si  Si20  1  0.077859  0.714500  0.436332  1
  Si  Si21  1  0.922141  0.285500  0.936332  1
  Si  Si22  1  0.714500  0.077859  0.563668  1
  Si  Si23  1  0.214501  0.422141  0.186332  1
  Si  Si24  1  0.785500  0.577859  0.686332  1
  Si  Si25  1  0.422141  0.214501  0.813668  1
  Si  Si26  1  0.577859  0.785500  0.313668  1
  Si  Si27  1  0.285500  0.922141  0.063668  1
  Si  Si28  1  0.829072  0.810403  0.795238  1
  Si  Si29  1  0.170928  0.189597  0.295238  1
  Si  Si30  1  0.810403  0.829072  0.204762  1
  Si  Si31  1  0.310403  0.670928  0.545238  1
  Si  Si32  1  0.689597  0.329072  0.045238  1
  Si  Si33  1  0.670928  0.310403  0.454762  1
  Si  Si34  1  0.329072  0.689597  0.954762  1
  Si  Si35  1  0.189597  0.170928  0.704762  1
