# generated using pymatgen
data_RbSc3O5
_symmetry_space_group_name_H-M   'P 1'
_cell_length_a   3.23071100
_cell_length_b   9.83054200
_cell_length_c   16.23854800
_cell_angle_alpha   90.00000000
_cell_angle_beta   90.00000000
_cell_angle_gamma   90.00000000
_symmetry_Int_Tables_number   1
_chemical_formula_structural   RbSc3O5
_chemical_formula_sum   'Rb4 Sc12 O20'
_cell_volume   515.73044145
_cell_formula_units_Z   4
loop_
 _symmetry_equiv_pos_site_id
 _symmetry_equiv_pos_as_xyz
  1  'x, y, z'
loop_
 _atom_site_type_symbol
 _atom_site_label
 _atom_site_symmetry_multiplicity
 _atom_site_fract_x
 _atom_site_fract_y
 _atom_site_fract_z
 _atom_site_occupancy
  Rb  Rb0  1  0.000000  0.720052  0.374887  1
  Rb  Rb1  1  0.500000  0.279948  0.874887  1
  Rb  Rb2  1  0.000000  0.220084  0.124728  1
  Rb  Rb3  1  0.500000  0.779916  0.624728  1
  Sc  Sc4  1  0.000000  0.643933  0.837231  1
  Sc  Sc5  1  0.500000  0.600214  0.011254  1
  Sc  Sc6  1  0.000000  0.566974  0.182226  1
  Sc  Sc7  1  0.500000  0.433026  0.682226  1
  Sc  Sc8  1  0.000000  0.399786  0.511254  1
  Sc  Sc9  1  0.500000  0.356067  0.337231  1
  Sc  Sc10  1  0.000000  0.144109  0.662722  1
  Sc  Sc11  1  0.500000  0.099279  0.488679  1
  Sc  Sc12  1  0.000000  0.066831  0.317679  1
  Sc  Sc13  1  0.500000  0.933169  0.817679  1
  Sc  Sc14  1  0.000000  0.900721  0.988679  1
  Sc  Sc15  1  0.500000  0.855891  0.162722  1
  O  O16  1  0.000000  0.728882  0.079816  1
  O  O17  1  0.500000  0.681696  0.228903  1
  O  O18  1  0.500000  0.559580  0.782865  1
  O  O19  1  0.000000  0.525617  0.947112  1
  O  O20  1  0.000000  0.520638  0.612150  1
  O  O21  1  0.500000  0.479362  0.112150  1
  O  O22  1  0.500000  0.474383  0.447112  1
  O  O23  1  0.000000  0.440420  0.282865  1
  O  O24  1  0.000000  0.318304  0.728903  1
  O  O25  1  0.500000  0.271118  0.579816  1
  O  O26  1  0.000000  0.228121  0.420435  1
  O  O27  1  0.500000  0.181781  0.271101  1
  O  O28  1  0.500000  0.059724  0.717126  1
  O  O29  1  0.000000  0.024850  0.552976  1
  O  O30  1  0.000000  0.021123  0.887669  1
  O  O31  1  0.500000  0.978877  0.387669  1
  O  O32  1  0.500000  0.975150  0.052976  1
  O  O33  1  0.000000  0.940276  0.217126  1
  O  O34  1  0.000000  0.818219  0.771101  1
  O  O35  1  0.500000  0.771879  0.920435  1
