# generated using pymatgen
data_Tm8Tl3Rh
_symmetry_space_group_name_H-M   'P 1'
_cell_length_a   10.26097100
_cell_length_b   10.26097114
_cell_length_c   7.03315600
_cell_angle_alpha   90.00000000
_cell_angle_beta   90.00000000
_cell_angle_gamma   119.99999634
_symmetry_Int_Tables_number   1
_chemical_formula_structural   Tm8Tl3Rh
_chemical_formula_sum   'Tm16 Tl6 Rh2'
_cell_volume   641.29495643
_cell_formula_units_Z   2
loop_
 _symmetry_equiv_pos_site_id
 _symmetry_equiv_pos_as_xyz
  1  'x, y, z'
loop_
 _atom_site_type_symbol
 _atom_site_label
 _atom_site_symmetry_multiplicity
 _atom_site_fract_x
 _atom_site_fract_y
 _atom_site_fract_z
 _atom_site_occupancy
  Tm  Tm0  1  0.534036  0.068074  0.516437  1
  Tm  Tm1  1  0.931926  0.465964  0.516437  1
  Tm  Tm2  1  0.534036  0.465964  0.516437  1
  Tm  Tm3  1  0.465964  0.931926  0.016437  1
  Tm  Tm4  1  0.068074  0.534036  0.016437  1
  Tm  Tm5  1  0.465964  0.534036  0.016437  1
  Tm  Tm6  1  0.176471  0.352941  0.718961  1
  Tm  Tm7  1  0.647059  0.823529  0.718961  1
  Tm  Tm8  1  0.176471  0.823529  0.718961  1
  Tm  Tm9  1  0.823529  0.647059  0.218961  1
  Tm  Tm10  1  0.352941  0.176471  0.218961  1
  Tm  Tm11  1  0.823529  0.176471  0.218961  1
  Tm  Tm12  1  0.666667  0.333333  0.896593  1
  Tm  Tm13  1  0.333333  0.666667  0.396593  1
  Tm  Tm14  1  0.000000  0.000000  0.498736  1
  Tm  Tm15  1  0.000000  0.000000  0.998736  1
  Tl  Tl16  1  0.837027  0.674056  0.764102  1
  Tl  Tl17  1  0.325944  0.162973  0.764102  1
  Tl  Tl18  1  0.837027  0.162973  0.764102  1
  Tl  Tl19  1  0.162973  0.325944  0.264102  1
  Tl  Tl20  1  0.674056  0.837027  0.264102  1
  Tl  Tl21  1  0.162973  0.837027  0.264102  1
  Rh  Rh22  1  0.666667  0.333333  0.285169  1
  Rh  Rh23  1  0.333333  0.666667  0.785169  1
