# generated using pymatgen
data_Ho9LuSi5Sn
_symmetry_space_group_name_H-M   'P 1'
_cell_length_a   8.47142916
_cell_length_b   8.49580544
_cell_length_c   6.33426821
_cell_angle_alpha   90.02847135
_cell_angle_beta   89.99275701
_cell_angle_gamma   119.88421812
_symmetry_Int_Tables_number   1
_chemical_formula_structural   Ho9LuSi5Sn
_chemical_formula_sum   'Ho9 Lu1 Si5 Sn1'
_cell_volume   395.26992550
_cell_formula_units_Z   1
loop_
 _symmetry_equiv_pos_site_id
 _symmetry_equiv_pos_as_xyz
  1  'x, y, z'
loop_
 _atom_site_type_symbol
 _atom_site_label
 _atom_site_symmetry_multiplicity
 _atom_site_fract_x
 _atom_site_fract_y
 _atom_site_fract_z
 _atom_site_occupancy
  Ho  Ho0  1  0.989839  0.748964  0.749505  1
  Ho  Ho1  1  0.998879  0.242727  0.250634  1
  Ho  Ho2  1  0.755785  0.757537  0.250533  1
  Ho  Ho3  1  0.765018  0.999712  0.749430  1
  Ho  Ho4  1  0.240623  0.251201  0.749250  1
  Ho  Ho5  1  0.241301  0.999689  0.250434  1
  Ho  Ho6  1  0.673680  0.342328  0.002955  1
  Ho  Ho7  1  0.673683  0.342185  0.496925  1
  Ho  Ho8  1  0.331454  0.657724  0.002964  1
  Lu  Lu9  1  0.331364  0.657442  0.497056  1
  Si  Si10  1  0.393062  0.392953  0.251604  1
  Si  Si11  1  0.002750  0.608204  0.251400  1
  Si  Si12  1  0.999847  0.395126  0.748430  1
  Si  Si13  1  0.603423  0.606015  0.748397  1
  Si  Si14  1  0.604572  0.998797  0.251241  1
  Sn  Sn15  1  0.394720  0.999397  0.749241  1
