# generated using pymatgen
data_Hf18MnRe5GeMo3
_symmetry_space_group_name_H-M   'P 1'
_cell_length_a   8.62201800
_cell_length_b   8.62201902
_cell_length_c   8.58349400
_cell_angle_alpha   90.00000000
_cell_angle_beta   90.00000000
_cell_angle_gamma   119.98252539
_symmetry_Int_Tables_number   1
_chemical_formula_structural   Hf18MnRe5GeMo3
_chemical_formula_sum   'Hf18 Mn1 Re5 Ge1 Mo3'
_cell_volume   552.69952034
_cell_formula_units_Z   1
loop_
 _symmetry_equiv_pos_site_id
 _symmetry_equiv_pos_as_xyz
  1  'x, y, z'
loop_
 _atom_site_type_symbol
 _atom_site_label
 _atom_site_symmetry_multiplicity
 _atom_site_fract_x
 _atom_site_fract_y
 _atom_site_fract_z
 _atom_site_occupancy
  Hf  Hf0  1  0.202630  0.797370  0.441862  1
  Hf  Hf1  1  0.202211  0.404855  0.442681  1
  Hf  Hf2  1  0.595145  0.797789  0.442681  1
  Hf  Hf3  1  0.806740  0.193260  0.546261  1
  Hf  Hf4  1  0.805554  0.612236  0.545021  1
  Hf  Hf5  1  0.387764  0.194446  0.545021  1
  Hf  Hf6  1  0.806740  0.193260  0.953739  1
  Hf  Hf7  1  0.805554  0.612236  0.954979  1
  Hf  Hf8  1  0.387764  0.194446  0.954979  1
  Hf  Hf9  1  0.202630  0.797370  0.058138  1
  Hf  Hf10  1  0.202211  0.404855  0.057319  1
  Hf  Hf11  1  0.595145  0.797789  0.057319  1
  Hf  Hf12  1  0.538941  0.461059  0.250000  1
  Hf  Hf13  1  0.539830  0.078767  0.250000  1
  Hf  Hf14  1  0.921233  0.460170  0.250000  1
  Hf  Hf15  1  0.460351  0.539649  0.750000  1
  Hf  Hf16  1  0.462324  0.921986  0.750000  1
  Hf  Hf17  1  0.078014  0.537676  0.750000  1
  Mn  Mn18  1  0.333873  0.666127  0.250000  1
  Re  Re19  1  0.889414  0.110586  0.250000  1
  Re  Re20  1  0.888909  0.777768  0.250000  1
  Re  Re21  1  0.222232  0.111091  0.250000  1
  Re  Re22  1  0.111098  0.223797  0.750000  1
  Re  Re23  1  0.776203  0.888902  0.750000  1
  Ge  Ge24  1  0.667053  0.332947  0.750000  1
  Mo  Mo25  1  0.110551  0.889449  0.750000  1
  Mo  Mo26  1  0.999944  0.000056  0.500694  1
  Mo  Mo27  1  0.999944  0.000056  0.999306  1
