# generated using pymatgen
data_CeTm3(Si4Tc3)2
_symmetry_space_group_name_H-M   'P 1'
_cell_length_a   6.75543521
_cell_length_b   6.80530052
_cell_length_c   6.76090296
_cell_angle_alpha   69.81555287
_cell_angle_beta   89.97036341
_cell_angle_gamma   88.44907894
_symmetry_Int_Tables_number   1
_chemical_formula_structural   CeTm3(Si4Tc3)2
_chemical_formula_sum   'Ce1 Tm3 Si8 Tc6'
_cell_volume   291.60933746
_cell_formula_units_Z   1
loop_
 _symmetry_equiv_pos_site_id
 _symmetry_equiv_pos_as_xyz
  1  'x, y, z'
loop_
 _atom_site_type_symbol
 _atom_site_label
 _atom_site_symmetry_multiplicity
 _atom_site_fract_x
 _atom_site_fract_y
 _atom_site_fract_z
 _atom_site_occupancy
  Ce  Ce0  1  0.336638  0.552029  0.812603  1
  Tm  Tm1  1  0.832735  0.938859  0.192648  1
  Tm  Tm2  1  0.668334  0.446157  0.190298  1
  Tm  Tm3  1  0.167777  0.063173  0.808493  1
  Si  Si4  1  0.548070  0.871426  0.905094  1
  Si  Si5  1  0.056817  0.619208  0.107722  1
  Si  Si6  1  0.453957  0.121060  0.101565  1
  Si  Si7  1  0.935458  0.384714  0.890249  1
  Si  Si8  1  0.139341  0.871478  0.494326  1
  Si  Si9  1  0.649022  0.629510  0.521126  1
  Si  Si10  1  0.860009  0.133011  0.504206  1
  Si  Si11  1  0.354321  0.368490  0.474238  1
  Tc  Tc12  1  0.499140  0.999690  0.501385  1
  Tc  Tc13  1  0.998343  0.496564  0.498959  1
  Tc  Tc14  1  0.855794  0.773831  0.765283  1
  Tc  Tc15  1  0.348352  0.753481  0.245892  1
  Tc  Tc16  1  0.146355  0.232634  0.230280  1
  Tc  Tc17  1  0.649537  0.244684  0.755633  1
