# generated using pymatgen
data_AgOs(S8F3)2
_symmetry_space_group_name_H-M   'P 1'
_cell_length_a   10.05735199
_cell_length_b   10.05735199
_cell_length_c   16.18068000
_cell_angle_alpha   79.63003956
_cell_angle_beta   79.63003957
_cell_angle_gamma   48.20850118
_symmetry_Int_Tables_number   1
_chemical_formula_structural   AgOs(S8F3)2
_chemical_formula_sum   'Ag2 Os2 S32 F12'
_cell_volume   1196.30666124
_cell_formula_units_Z   2
loop_
 _symmetry_equiv_pos_site_id
 _symmetry_equiv_pos_as_xyz
  1  'x, y, z'
loop_
 _atom_site_type_symbol
 _atom_site_label
 _atom_site_symmetry_multiplicity
 _atom_site_fract_x
 _atom_site_fract_y
 _atom_site_fract_z
 _atom_site_occupancy
  Ag  Ag0  1  0.835396  0.164604  0.750000  1
  Ag  Ag1  1  0.164604  0.835396  0.250000  1
  Os  Os2  1  0.500000  0.500000  0.000000  1
  Os  Os3  1  0.500000  0.500000  0.500000  1
  S  S4  1  0.997880  0.712475  0.437545  1
  S  S5  1  0.098544  0.065957  0.350736  1
  S  S6  1  0.043091  0.638275  0.165234  1
  S  S7  1  0.956909  0.361725  0.834766  1
  S  S8  1  0.934043  0.901456  0.149264  1
  S  S9  1  0.712475  0.997880  0.937545  1
  S  S10  1  0.107382  0.497780  0.372478  1
  S  S11  1  0.065957  0.098544  0.850736  1
  S  S12  1  0.298040  0.899409  0.670058  1
  S  S13  1  0.910477  0.729261  0.919253  1
  S  S14  1  0.681156  0.064913  0.213520  1
  S  S15  1  0.064913  0.681156  0.713520  1
  S  S16  1  0.520993  0.220296  0.756578  1
  S  S17  1  0.089523  0.270739  0.080747  1
  S  S18  1  0.502220  0.892618  0.127522  1
  S  S19  1  0.100591  0.701960  0.829942  1
  S  S20  1  0.287525  0.002120  0.062455  1
  S  S21  1  0.892618  0.502220  0.627522  1
  S  S22  1  0.935087  0.318844  0.286480  1
  S  S23  1  0.899409  0.298040  0.170058  1
  S  S24  1  0.270739  0.089523  0.580747  1
  S  S25  1  0.729261  0.910477  0.419253  1
  S  S26  1  0.361725  0.956909  0.334766  1
  S  S27  1  0.479007  0.779704  0.243422  1
  S  S28  1  0.002120  0.287525  0.562455  1
  S  S29  1  0.638275  0.043091  0.665234  1
  S  S30  1  0.497780  0.107382  0.872478  1
  S  S31  1  0.318844  0.935087  0.786480  1
  S  S32  1  0.701960  0.100591  0.329942  1
  S  S33  1  0.779704  0.479007  0.743422  1
  S  S34  1  0.220296  0.520993  0.256578  1
  S  S35  1  0.901456  0.934043  0.649264  1
  F  F36  1  0.455563  0.557603  0.114459  1
  F  F37  1  0.572564  0.637391  0.965731  1
  F  F38  1  0.257773  0.709889  0.979671  1
  F  F39  1  0.637391  0.572564  0.465731  1
  F  F40  1  0.427436  0.362609  0.034269  1
  F  F41  1  0.290111  0.742227  0.520329  1
  F  F42  1  0.742227  0.290111  0.020329  1
  F  F43  1  0.709889  0.257773  0.479671  1
  F  F44  1  0.544437  0.442397  0.885541  1
  F  F45  1  0.442397  0.544437  0.385541  1
  F  F46  1  0.362609  0.427436  0.534269  1
  F  F47  1  0.557603  0.455563  0.614459  1
