# generated using pymatgen
data_TbY9(Sn3Pb)2
_symmetry_space_group_name_H-M   'P 1'
_cell_length_a   8.20903502
_cell_length_b   8.21670101
_cell_length_c   15.56117000
_cell_angle_alpha   90.00334708
_cell_angle_beta   89.99567265
_cell_angle_gamma   89.99936570
_symmetry_Int_Tables_number   1
_chemical_formula_structural   TbY9(Sn3Pb)2
_chemical_formula_sum   'Tb2 Y18 Sn12 Pb4'
_cell_volume   1049.61937350
_cell_formula_units_Z   2
loop_
 _symmetry_equiv_pos_site_id
 _symmetry_equiv_pos_as_xyz
  1  'x, y, z'
loop_
 _atom_site_type_symbol
 _atom_site_label
 _atom_site_symmetry_multiplicity
 _atom_site_fract_x
 _atom_site_fract_y
 _atom_site_fract_z
 _atom_site_occupancy
  Tb  Tb0  1  0.773752  0.498431  0.249055  1
  Tb  Tb1  1  0.273750  0.001532  0.250957  1
  Y  Y2  1  0.396307  0.837429  0.880516  1
  Y  Y3  1  0.896357  0.662528  0.619447  1
  Y  Y4  1  0.603530  0.162585  0.380673  1
  Y  Y5  1  0.103542  0.337356  0.119363  1
  Y  Y6  1  0.607205  0.162916  0.118495  1
  Y  Y7  1  0.107157  0.337097  0.381544  1
  Y  Y8  1  0.392724  0.837027  0.618568  1
  Y  Y9  1  0.892679  0.662996  0.881392  1
  Y  Y10  1  0.561699  0.328976  0.891185  1
  Y  Y11  1  0.061750  0.171037  0.608834  1
  Y  Y12  1  0.438149  0.670814  0.391286  1
  Y  Y13  1  0.938197  0.829204  0.108685  1
  Y  Y14  1  0.449437  0.670639  0.107782  1
  Y  Y15  1  0.949398  0.829379  0.392209  1
  Y  Y16  1  0.550706  0.329232  0.607957  1
  Y  Y17  1  0.050625  0.170788  0.892060  1
  Y  Y18  1  0.226163  0.501563  0.748926  1
  Y  Y19  1  0.726170  0.998433  0.751048  1
  Sn  Sn20  1  0.729857  0.979986  0.956612  1
  Sn  Sn21  1  0.229929  0.520010  0.543369  1
  Sn  Sn22  1  0.270148  0.020168  0.456786  1
  Sn  Sn23  1  0.770206  0.479867  0.043221  1
  Sn  Sn24  1  0.591124  0.628515  0.749007  1
  Sn  Sn25  1  0.091172  0.871485  0.750961  1
  Sn  Sn26  1  0.408907  0.371414  0.249007  1
  Sn  Sn27  1  0.908969  0.128588  0.251032  1
  Sn  Sn28  1  0.361504  0.142739  0.751303  1
  Sn  Sn29  1  0.861592  0.357276  0.748706  1
  Sn  Sn30  1  0.638582  0.857434  0.251306  1
  Sn  Sn31  1  0.138724  0.642523  0.248715  1
  Pb  Pb32  1  0.265747  0.017246  0.042551  1
  Pb  Pb33  1  0.765728  0.482747  0.457440  1
  Pb  Pb34  1  0.734280  0.982891  0.542815  1
  Pb  Pb35  1  0.234236  0.517151  0.957187  1
