# generated using pymatgen
data_TbGdB6Ru
_symmetry_space_group_name_H-M   'P 1'
_cell_length_a   3.68694700
_cell_length_b   9.18753200
_cell_length_c   11.56025000
_cell_angle_alpha   90.00000000
_cell_angle_beta   90.00000000
_cell_angle_gamma   90.00000000
_symmetry_Int_Tables_number   1
_chemical_formula_structural   TbGdB6Ru
_chemical_formula_sum   'Tb4 Gd4 B24 Ru4'
_cell_volume   391.59125586
_cell_formula_units_Z   4
loop_
 _symmetry_equiv_pos_site_id
 _symmetry_equiv_pos_as_xyz
  1  'x, y, z'
loop_
 _atom_site_type_symbol
 _atom_site_label
 _atom_site_symmetry_multiplicity
 _atom_site_fract_x
 _atom_site_fract_y
 _atom_site_fract_z
 _atom_site_occupancy
  Tb  Tb0  1  0.000000  0.943857  0.372485  1
  Tb  Tb1  1  0.000000  0.056143  0.627515  1
  Tb  Tb2  1  0.000000  0.443857  0.127515  1
  Tb  Tb3  1  0.000000  0.556143  0.872485  1
  Gd  Gd4  1  0.000000  0.323737  0.413799  1
  Gd  Gd5  1  0.000000  0.676263  0.586201  1
  Gd  Gd6  1  0.000000  0.823737  0.086201  1
  Gd  Gd7  1  0.000000  0.176263  0.913799  1
  B  B8  1  0.500000  0.554186  0.432287  1
  B  B9  1  0.500000  0.445814  0.567713  1
  B  B10  1  0.500000  0.054186  0.067713  1
  B  B11  1  0.500000  0.945814  0.932287  1
  B  B12  1  0.500000  0.747225  0.419589  1
  B  B13  1  0.500000  0.252775  0.580411  1
  B  B14  1  0.500000  0.247225  0.080411  1
  B  B15  1  0.500000  0.752775  0.919589  1
  B  B16  1  0.500000  0.790431  0.266965  1
  B  B17  1  0.500000  0.209569  0.733035  1
  B  B18  1  0.500000  0.290431  0.233035  1
  B  B19  1  0.500000  0.709569  0.766965  1
  B  B20  1  0.500000  0.632434  0.185804  1
  B  B21  1  0.500000  0.367566  0.814196  1
  B  B22  1  0.500000  0.132434  0.314196  1
  B  B23  1  0.500000  0.867566  0.685804  1
  B  B24  1  0.500000  0.984787  0.212801  1
  B  B25  1  0.500000  0.015213  0.787199  1
  B  B26  1  0.500000  0.484787  0.287199  1
  B  B27  1  0.500000  0.515213  0.712801  1
  B  B28  1  0.500000  0.610596  0.030575  1
  B  B29  1  0.500000  0.389404  0.969425  1
  B  B30  1  0.500000  0.110596  0.469425  1
  B  B31  1  0.500000  0.889404  0.530575  1
  Ru  Ru32  1  0.000000  0.638156  0.321179  1
  Ru  Ru33  1  0.000000  0.361844  0.678821  1
  Ru  Ru34  1  0.000000  0.138156  0.178821  1
  Ru  Ru35  1  0.000000  0.861844  0.821179  1
