# generated using pymatgen
data_Lu5ReWC7
_symmetry_space_group_name_H-M   'P 1'
_cell_length_a   8.19781808
_cell_length_b   8.19781789
_cell_length_c   3.34261200
_cell_angle_alpha   90.00000000
_cell_angle_beta   90.00000000
_cell_angle_gamma   121.66783768
_symmetry_Int_Tables_number   1
_chemical_formula_structural   Lu5ReWC7
_chemical_formula_sum   'Lu5 Re1 W1 C7'
_cell_volume   191.19042295
_cell_formula_units_Z   1
loop_
 _symmetry_equiv_pos_site_id
 _symmetry_equiv_pos_as_xyz
  1  'x, y, z'
loop_
 _atom_site_type_symbol
 _atom_site_label
 _atom_site_symmetry_multiplicity
 _atom_site_fract_x
 _atom_site_fract_y
 _atom_site_fract_z
 _atom_site_occupancy
  Lu  Lu0  1  0.337475  0.079480  0.500000  1
  Lu  Lu1  1  0.665123  0.923435  0.500000  1
  Lu  Lu2  1  0.076565  0.334877  0.500000  1
  Lu  Lu3  1  0.920520  0.662525  0.500000  1
  Lu  Lu4  1  0.501165  0.498835  0.000000  1
  Re  Re5  1  0.714642  0.285358  0.000000  1
  W  W6  1  0.285196  0.714804  0.000000  1
  C  C7  1  0.169201  0.170173  0.000000  1
  C  C8  1  0.829827  0.830799  0.000000  1
  C  C9  1  0.000011  0.999989  0.000000  1
  C  C10  1  0.378546  0.621454  0.500000  1
  C  C11  1  0.622900  0.377100  0.500000  1
  C  C12  1  0.499883  0.001053  0.000000  1
  C  C13  1  0.998947  0.500117  0.000000  1
