# generated using pymatgen
data_Zr5Sc(CoSn)6
_symmetry_space_group_name_H-M   'P 1'
_cell_length_a   7.20761754
_cell_length_b   7.21840575
_cell_length_c   7.10310500
_cell_angle_alpha   90.00000000
_cell_angle_beta   90.00000000
_cell_angle_gamma   119.92999935
_symmetry_Int_Tables_number   1
_chemical_formula_structural   Zr5Sc(CoSn)6
_chemical_formula_sum   'Zr5 Sc1 Co6 Sn6'
_cell_volume   320.27113385
_cell_formula_units_Z   1
loop_
 _symmetry_equiv_pos_site_id
 _symmetry_equiv_pos_as_xyz
  1  'x, y, z'
loop_
 _atom_site_type_symbol
 _atom_site_label
 _atom_site_symmetry_multiplicity
 _atom_site_fract_x
 _atom_site_fract_y
 _atom_site_fract_z
 _atom_site_occupancy
  Zr  Zr0  1  0.603184  0.996756  0.750000  1
  Zr  Zr1  1  0.393056  0.399923  0.750000  1
  Zr  Zr2  1  0.002545  0.604736  0.750000  1
  Zr  Zr3  1  0.397231  0.395457  0.250000  1
  Zr  Zr4  1  0.996342  0.601857  0.250000  1
  Sc  Sc5  1  0.604506  0.003434  0.250000  1
  Co  Co6  1  0.667630  0.336666  0.972798  1
  Co  Co7  1  0.667630  0.336666  0.527202  1
  Co  Co8  1  0.330473  0.662490  0.014811  1
  Co  Co9  1  0.330473  0.662490  0.485189  1
  Co  Co10  1  0.999643  0.000240  0.750000  1
  Co  Co11  1  0.006703  0.999775  0.250000  1
  Sn  Sn12  1  0.270945  0.000734  0.999007  1
  Sn  Sn13  1  0.732511  0.734033  0.498060  1
  Sn  Sn14  1  0.996837  0.264987  0.497764  1
  Sn  Sn15  1  0.996837  0.264987  0.002236  1
  Sn  Sn16  1  0.732511  0.734033  0.001940  1
  Sn  Sn17  1  0.270945  0.000734  0.500993  1
