# generated using pymatgen
data_Sr8Tl2Cu3Ag2N5
_symmetry_space_group_name_H-M   'P 1'
_cell_length_a   11.34847745
_cell_length_b   11.34847855
_cell_length_c   11.34847837
_cell_angle_alpha   160.36809212
_cell_angle_beta   113.29045917
_cell_angle_gamma   70.28979280
_symmetry_Int_Tables_number   1
_chemical_formula_structural   Sr8Tl2Cu3Ag2N5
_chemical_formula_sum   'Sr8 Tl2 Cu3 Ag2 N5'
_cell_volume   448.09628223
_cell_formula_units_Z   1
loop_
 _symmetry_equiv_pos_site_id
 _symmetry_equiv_pos_as_xyz
  1  'x, y, z'
loop_
 _atom_site_type_symbol
 _atom_site_label
 _atom_site_symmetry_multiplicity
 _atom_site_fract_x
 _atom_site_fract_y
 _atom_site_fract_z
 _atom_site_occupancy
  Sr  Sr0  1  0.560197  0.708271  0.851925  1
  Sr  Sr1  1  0.749221  0.902344  0.846877  1
  Sr  Sr2  1  0.439803  0.291729  0.148075  1
  Sr  Sr3  1  0.856346  0.708271  0.148075  1
  Sr  Sr4  1  0.143654  0.291729  0.851925  1
  Sr  Sr5  1  0.250779  0.097656  0.153123  1
  Sr  Sr6  1  0.055468  0.902344  0.153123  1
  Sr  Sr7  1  0.944532  0.097656  0.846877  1
  Tl  Tl8  1  0.643549  0.500000  0.143549  1
  Tl  Tl9  1  0.356451  0.500000  0.856451  1
  Cu  Cu10  1  0.191458  0.691458  0.500000  1
  Cu  Cu11  1  0.808542  0.308542  0.500000  1
  Cu  Cu12  1  0.000000  0.500000  0.500000  1
  Ag  Ag13  1  0.419510  0.919510  0.500000  1
  Ag  Ag14  1  0.580490  0.080490  0.500000  1
  N  N15  1  0.345348  0.694364  0.650984  1
  N  N16  1  0.956620  0.305636  0.650984  1
  N  N17  1  0.043380  0.694364  0.349016  1
  N  N18  1  0.000000  0.000000  0.000000  1
  N  N19  1  0.654652  0.305636  0.349016  1
