# generated using pymatgen
data_Tm3(Cd2Ga)2
_symmetry_space_group_name_H-M   'P 1'
_cell_length_a   7.26818000
_cell_length_b   7.26817905
_cell_length_c   4.44480400
_cell_angle_alpha   90.00000000
_cell_angle_beta   90.00000000
_cell_angle_gamma   119.99999522
_symmetry_Int_Tables_number   1
_chemical_formula_structural   Tm3(Cd2Ga)2
_chemical_formula_sum   'Tm3 Cd4 Ga2'
_cell_volume   203.34549688
_cell_formula_units_Z   1
loop_
 _symmetry_equiv_pos_site_id
 _symmetry_equiv_pos_as_xyz
  1  'x, y, z'
loop_
 _atom_site_type_symbol
 _atom_site_label
 _atom_site_symmetry_multiplicity
 _atom_site_fract_x
 _atom_site_fract_y
 _atom_site_fract_z
 _atom_site_occupancy
  Tm  Tm0  1  0.000000  0.568384  0.000000  1
  Tm  Tm1  1  0.431616  0.431616  0.000000  1
  Tm  Tm2  1  0.568384  0.000000  0.000000  1
  Cd  Cd3  1  0.000000  0.253505  0.500000  1
  Cd  Cd4  1  0.746495  0.746495  0.500000  1
  Cd  Cd5  1  0.253505  0.000000  0.500000  1
  Cd  Cd6  1  0.000000  0.000000  0.000000  1
  Ga  Ga7  1  0.666667  0.333333  0.500000  1
  Ga  Ga8  1  0.333333  0.666667  0.500000  1
