# generated using pymatgen
data_CeY5
_symmetry_space_group_name_H-M   'P 1'
_cell_length_a   3.61186000
_cell_length_b   6.73654417
_cell_length_c   8.44105723
_cell_angle_alpha   76.89384994
_cell_angle_beta   90.00000000
_cell_angle_gamma   105.55002317
_symmetry_Int_Tables_number   1
_chemical_formula_structural   CeY5
_chemical_formula_sum   'Ce1 Y5'
_cell_volume   192.30658797
_cell_formula_units_Z   1
loop_
 _symmetry_equiv_pos_site_id
 _symmetry_equiv_pos_as_xyz
  1  'x, y, z'
loop_
 _atom_site_type_symbol
 _atom_site_label
 _atom_site_symmetry_multiplicity
 _atom_site_fract_x
 _atom_site_fract_y
 _atom_site_fract_z
 _atom_site_occupancy
  Ce  Ce0  1  0.387277  0.774554  0.723668  1
  Y  Y1  1  0.000811  0.001622  0.998393  1
  Y  Y2  1  0.723709  0.447418  0.054126  1
  Y  Y3  1  0.333189  0.666380  0.336802  1
  Y  Y4  1  0.055808  0.111614  0.387396  1
  Y  Y5  1  0.665871  0.331742  0.666281  1
