# generated using pymatgen
data_SrCeCuS3
_symmetry_space_group_name_H-M   'P 1'
_cell_length_a   10.68661000
_cell_length_b   4.02899100
_cell_length_c   13.00065300
_cell_angle_alpha   90.00000000
_cell_angle_beta   90.00000000
_cell_angle_gamma   90.00000000
_symmetry_Int_Tables_number   1
_chemical_formula_structural   SrCeCuS3
_chemical_formula_sum   'Sr4 Ce4 Cu4 S12'
_cell_volume   559.75943737
_cell_formula_units_Z   4
loop_
 _symmetry_equiv_pos_site_id
 _symmetry_equiv_pos_as_xyz
  1  'x, y, z'
loop_
 _atom_site_type_symbol
 _atom_site_label
 _atom_site_symmetry_multiplicity
 _atom_site_fract_x
 _atom_site_fract_y
 _atom_site_fract_z
 _atom_site_occupancy
  Sr  Sr0  1  0.280291  0.250000  0.002323  1
  Sr  Sr1  1  0.780291  0.250000  0.497677  1
  Sr  Sr2  1  0.219709  0.750001  0.502323  1
  Sr  Sr3  1  0.719709  0.750001  0.997677  1
  Ce  Ce4  1  0.985566  0.750001  0.238074  1
  Ce  Ce5  1  0.485566  0.750001  0.261926  1
  Ce  Ce6  1  0.514434  0.250000  0.738074  1
  Ce  Ce7  1  0.014434  0.250000  0.761926  1
  Cu  Cu8  1  0.735430  0.250000  0.223595  1
  Cu  Cu9  1  0.235430  0.250000  0.276405  1
  Cu  Cu10  1  0.764570  0.750001  0.723595  1
  Cu  Cu11  1  0.264570  0.750001  0.776405  1
  S  S12  1  0.898067  0.250000  0.104947  1
  S  S13  1  0.557454  0.250000  0.117568  1
  S  S14  1  0.241142  0.750001  0.174524  1
  S  S15  1  0.741142  0.750001  0.325476  1
  S  S16  1  0.057454  0.250000  0.382432  1
  S  S17  1  0.398067  0.250000  0.395053  1
  S  S18  1  0.601932  0.750001  0.604947  1
  S  S19  1  0.942546  0.750001  0.617568  1
  S  S20  1  0.258858  0.250000  0.674524  1
  S  S21  1  0.758858  0.250000  0.825476  1
  S  S22  1  0.442546  0.750001  0.882432  1
  S  S23  1  0.101932  0.750001  0.895053  1
