# generated using pymatgen
data_KNi9Ge2P3
_symmetry_space_group_name_H-M   'P 1'
_cell_length_a   6.69230000
_cell_length_b   6.69230103
_cell_length_c   10.80218800
_cell_angle_alpha   90.00000000
_cell_angle_beta   90.00000000
_cell_angle_gamma   119.99999490
_symmetry_Int_Tables_number   1
_chemical_formula_structural   KNi9Ge2P3
_chemical_formula_sum   'K2 Ni18 Ge4 P6'
_cell_volume   418.97996346
_cell_formula_units_Z   2
loop_
 _symmetry_equiv_pos_site_id
 _symmetry_equiv_pos_as_xyz
  1  'x, y, z'
loop_
 _atom_site_type_symbol
 _atom_site_label
 _atom_site_symmetry_multiplicity
 _atom_site_fract_x
 _atom_site_fract_y
 _atom_site_fract_z
 _atom_site_occupancy
  K  K0  1  0.000000  0.000000  0.000000  1
  K  K1  1  0.000000  0.000000  0.500000  1
  Ni  Ni2  1  0.539293  0.460707  0.116557  1
  Ni  Ni3  1  0.078587  0.539293  0.616557  1
  Ni  Ni4  1  0.460707  0.921413  0.616557  1
  Ni  Ni5  1  0.539293  0.078587  0.116557  1
  Ni  Ni6  1  0.921413  0.460707  0.116557  1
  Ni  Ni7  1  0.078587  0.539293  0.883443  1
  Ni  Ni8  1  0.460707  0.921413  0.883443  1
  Ni  Ni9  1  0.460707  0.539293  0.616557  1
  Ni  Ni10  1  0.460707  0.539293  0.883443  1
  Ni  Ni11  1  0.539293  0.460707  0.383443  1
  Ni  Ni12  1  0.921413  0.460707  0.383443  1
  Ni  Ni13  1  0.539293  0.078587  0.383443  1
  Ni  Ni14  1  0.200437  0.799563  0.250000  1
  Ni  Ni15  1  0.400874  0.200437  0.750000  1
  Ni  Ni16  1  0.799563  0.599126  0.750000  1
  Ni  Ni17  1  0.200437  0.400874  0.250000  1
  Ni  Ni18  1  0.599126  0.799563  0.250000  1
  Ni  Ni19  1  0.799563  0.200437  0.750000  1
  Ge  Ge20  1  0.333333  0.666667  0.062678  1
  Ge  Ge21  1  0.666667  0.333333  0.562678  1
  Ge  Ge22  1  0.666667  0.333333  0.937322  1
  Ge  Ge23  1  0.333333  0.666667  0.437322  1
  P  P24  1  0.828849  0.171151  0.250000  1
  P  P25  1  0.657696  0.828849  0.750000  1
  P  P26  1  0.171151  0.342304  0.750000  1
  P  P27  1  0.828849  0.657696  0.250000  1
  P  P28  1  0.342304  0.171151  0.250000  1
  P  P29  1  0.171151  0.828849  0.750000  1
