# generated using pymatgen
data_SrCa9(SiN3)4
_symmetry_space_group_name_H-M   'P 1'
_cell_length_a   5.83373036
_cell_length_b   5.79558887
_cell_length_c   12.83078655
_cell_angle_alpha   81.48921962
_cell_angle_beta   81.96223553
_cell_angle_gamma   63.76947845
_symmetry_Int_Tables_number   1
_chemical_formula_structural   SrCa9(SiN3)4
_chemical_formula_sum   'Sr1 Ca9 Si4 N12'
_cell_volume   383.49403117
_cell_formula_units_Z   1
loop_
 _symmetry_equiv_pos_site_id
 _symmetry_equiv_pos_as_xyz
  1  'x, y, z'
loop_
 _atom_site_type_symbol
 _atom_site_label
 _atom_site_symmetry_multiplicity
 _atom_site_fract_x
 _atom_site_fract_y
 _atom_site_fract_z
 _atom_site_occupancy
  Sr  Sr0  1  0.325626  0.791083  0.004443  1
  Ca  Ca1  1  0.612219  0.375047  0.256471  1
  Ca  Ca2  1  0.071203  0.236763  0.782805  1
  Ca  Ca3  1  0.387739  0.618424  0.746008  1
  Ca  Ca4  1  0.200330  0.675477  0.497993  1
  Ca  Ca5  1  0.800163  0.323531  0.502558  1
  Ca  Ca6  1  0.232397  0.071730  0.285809  1
  Ca  Ca7  1  0.677979  0.174732  0.998803  1
  Ca  Ca8  1  0.926735  0.764993  0.218597  1
  Ca  Ca9  1  0.765438  0.928758  0.713312  1
  Si  Si10  1  0.086798  0.363073  0.078223  1
  Si  Si11  1  0.352530  0.093340  0.574838  1
  Si  Si12  1  0.646338  0.905019  0.425043  1
  Si  Si13  1  0.914386  0.644908  0.920041  1
  N  N14  1  0.605904  0.695601  0.351503  1
  N  N15  1  0.101377  0.016150  0.624095  1
  N  N16  1  0.647133  0.790492  0.562505  1
  N  N17  1  0.993885  0.122352  0.131300  1
  N  N18  1  0.393727  0.303758  0.647594  1
  N  N19  1  0.351718  0.207207  0.437025  1
  N  N20  1  0.985559  0.898705  0.865281  1
  N  N21  1  0.705040  0.600254  0.848411  1
  N  N22  1  0.208534  0.348518  0.940916  1
  N  N23  1  0.897971  0.982303  0.375630  1
  N  N24  1  0.807684  0.675415  0.057800  1
  N  N25  1  0.301588  0.392368  0.152996  1
