# generated using pymatgen
data_TbPrFe3Co9P7
_symmetry_space_group_name_H-M   'P 1'
_cell_length_a   9.05238200
_cell_length_b   9.05238219
_cell_length_c   3.64445700
_cell_angle_alpha   90.00000000
_cell_angle_beta   90.00000000
_cell_angle_gamma   119.99999929
_symmetry_Int_Tables_number   1
_chemical_formula_structural   TbPrFe3Co9P7
_chemical_formula_sum   'Tb1 Pr1 Fe3 Co9 P7'
_cell_volume   258.63614552
_cell_formula_units_Z   1
loop_
 _symmetry_equiv_pos_site_id
 _symmetry_equiv_pos_as_xyz
  1  'x, y, z'
loop_
 _atom_site_type_symbol
 _atom_site_label
 _atom_site_symmetry_multiplicity
 _atom_site_fract_x
 _atom_site_fract_y
 _atom_site_fract_z
 _atom_site_occupancy
  Tb  Tb0  1  0.666667  0.333333  0.500000  1
  Pr  Pr1  1  0.333333  0.666667  0.000000  1
  Fe  Fe2  1  0.214944  0.120409  0.500000  1
  Fe  Fe3  1  0.879591  0.094537  0.500000  1
  Fe  Fe4  1  0.905463  0.785056  0.500000  1
  Co  Co5  1  0.430236  0.368505  0.000000  1
  Co  Co6  1  0.631495  0.061731  0.000000  1
  Co  Co7  1  0.938269  0.569764  0.000000  1
  Co  Co8  1  0.155517  0.883327  0.000000  1
  Co  Co9  1  0.116673  0.272189  0.000000  1
  Co  Co10  1  0.727811  0.844483  0.000000  1
  Co  Co11  1  0.385286  0.955034  0.500000  1
  Co  Co12  1  0.044966  0.430253  0.500000  1
  Co  Co13  1  0.569747  0.614714  0.500000  1
  P  P14  1  0.409402  0.111083  0.000000  1
  P  P15  1  0.888917  0.298319  0.000000  1
  P  P16  1  0.701681  0.590598  0.000000  1
  P  P17  1  0.105755  0.710146  0.500000  1
  P  P18  1  0.289854  0.395610  0.500000  1
  P  P19  1  0.604390  0.894245  0.500000  1
  P  P20  1  0.000000  0.000000  0.000000  1
