# generated using pymatgen
data_Zn3CrP7N12
_symmetry_space_group_name_H-M   'P 1'
_cell_length_a   7.14377241
_cell_length_b   7.12273222
_cell_length_c   7.14377300
_cell_angle_alpha   109.41156650
_cell_angle_beta   109.53080992
_cell_angle_gamma   109.41157290
_symmetry_Int_Tables_number   1
_chemical_formula_structural   Zn3CrP7N12
_chemical_formula_sum   'Zn3 Cr1 P7 N12'
_cell_volume   280.02650894
_cell_formula_units_Z   1
loop_
 _symmetry_equiv_pos_site_id
 _symmetry_equiv_pos_as_xyz
  1  'x, y, z'
loop_
 _atom_site_type_symbol
 _atom_site_label
 _atom_site_symmetry_multiplicity
 _atom_site_fract_x
 _atom_site_fract_y
 _atom_site_fract_z
 _atom_site_occupancy
  Zn  Zn0  1  0.677980  0.679010  0.677980  1
  Zn  Zn1  1  0.322020  0.001031  0.000000  1
  Zn  Zn2  1  0.000000  0.001031  0.322020  1
  Cr  Cr3  1  0.000000  0.339620  0.000000  1
  P  P4  1  0.750060  0.248279  0.497973  1
  P  P5  1  0.252086  0.750306  0.502027  1
  P  P6  1  0.502027  0.750306  0.252086  1
  P  P7  1  0.497973  0.248279  0.750060  1
  P  P8  1  0.747914  0.498220  0.249940  1
  P  P9  1  0.249940  0.498220  0.747914  1
  P  P10  1  0.000000  0.010207  0.000000  1
  N  N11  1  0.555899  0.267993  0.000000  1
  N  N12  1  0.448658  0.447384  0.719819  1
  N  N13  1  0.000000  0.267993  0.555899  1
  N  N14  1  0.271160  0.998726  0.551342  1
  N  N15  1  0.719819  0.447384  0.448658  1
  N  N16  1  0.000000  0.550114  0.270284  1
  N  N17  1  0.551342  0.998726  0.271160  1
  N  N18  1  0.444101  0.712094  0.444101  1
  N  N19  1  0.270284  0.550114  0.000000  1
  N  N20  1  0.729716  0.279830  0.729716  1
  N  N21  1  0.728840  0.727566  0.280181  1
  N  N22  1  0.280181  0.727566  0.728840  1
