# generated using pymatgen
data_Mo2OsRu4Rh
_symmetry_space_group_name_H-M   'P 1'
_cell_length_a   5.53028469
_cell_length_b   5.52121062
_cell_length_c   4.37219300
_cell_angle_alpha   90.00000000
_cell_angle_beta   90.00000000
_cell_angle_gamma   120.01941083
_symmetry_Int_Tables_number   1
_chemical_formula_structural   Mo2OsRu4Rh
_chemical_formula_sum   'Mo2 Os1 Ru4 Rh1'
_cell_volume   115.59173442
_cell_formula_units_Z   1
loop_
 _symmetry_equiv_pos_site_id
 _symmetry_equiv_pos_as_xyz
  1  'x, y, z'
loop_
 _atom_site_type_symbol
 _atom_site_label
 _atom_site_symmetry_multiplicity
 _atom_site_fract_x
 _atom_site_fract_y
 _atom_site_fract_z
 _atom_site_occupancy
  Mo  Mo0  1  0.665478  0.335907  0.250000  1
  Mo  Mo1  1  0.338116  0.665284  0.750000  1
  Os  Os2  1  0.332766  0.171324  0.750000  1
  Ru  Ru3  1  0.826105  0.666409  0.750000  1
  Ru  Ru4  1  0.167267  0.833219  0.250000  1
  Ru  Ru5  1  0.668029  0.830807  0.250000  1
  Ru  Ru6  1  0.169386  0.332921  0.250000  1
  Rh  Rh7  1  0.832854  0.164129  0.750000  1
