# generated using pymatgen
data_NdTh3Al6(Ga2Ir)6
_symmetry_space_group_name_H-M   'P 1'
_cell_length_a   7.67724455
_cell_length_b   7.68338301
_cell_length_c   9.53847463
_cell_angle_alpha   90.14484408
_cell_angle_beta   89.90555280
_cell_angle_gamma   119.70471546
_symmetry_Int_Tables_number   1
_chemical_formula_structural   NdTh3Al6(Ga2Ir)6
_chemical_formula_sum   'Nd1 Th3 Al6 Ga12 Ir6'
_cell_volume   488.70923553
_cell_formula_units_Z   1
loop_
 _symmetry_equiv_pos_site_id
 _symmetry_equiv_pos_as_xyz
  1  'x, y, z'
loop_
 _atom_site_type_symbol
 _atom_site_label
 _atom_site_symmetry_multiplicity
 _atom_site_fract_x
 _atom_site_fract_y
 _atom_site_fract_z
 _atom_site_occupancy
  Nd  Nd0  1  0.327761  0.001641  0.745019  1
  Th  Th1  1  0.998102  0.668575  0.251959  1
  Th  Th2  1  0.000877  0.332223  0.748044  1
  Th  Th3  1  0.671573  0.998205  0.256062  1
  Al  Al4  1  0.660589  0.994585  0.927456  1
  Al  Al5  1  0.336569  0.005034  0.067934  1
  Al  Al6  1  0.335169  0.333078  0.552220  1
  Al  Al7  1  0.663941  0.663734  0.451935  1
  Al  Al8  1  0.664902  0.664555  0.050847  1
  Al  Al9  1  0.334345  0.333065  0.945321  1
  Ga  Ga10  1  0.136832  0.131272  0.248807  1
  Ga  Ga11  1  0.868704  0.870997  0.750712  1
  Ga  Ga12  1  0.002565  0.333241  0.077007  1
  Ga  Ga13  1  0.000863  0.670147  0.921708  1
  Ga  Ga14  1  0.997569  0.668366  0.580020  1
  Ga  Ga15  1  0.334946  0.003937  0.422713  1
  Ga  Ga16  1  0.006940  0.335720  0.421141  1
  Ga  Ga17  1  0.661247  0.995922  0.583298  1
  Ga  Ga18  1  0.349071  0.546477  0.249557  1
  Ga  Ga19  1  0.650697  0.449106  0.750098  1
  Ga  Ga20  1  0.545251  0.344488  0.248650  1
  Ga  Ga21  1  0.453324  0.656001  0.751156  1
  Ir  Ir22  1  0.669875  0.326889  0.999901  1
  Ir  Ir23  1  0.331536  0.673183  0.002258  1
  Ir  Ir24  1  0.329485  0.667632  0.499167  1
  Ir  Ir25  1  0.673059  0.332521  0.497838  1
  Ir  Ir26  1  0.997446  0.999740  0.001570  1
  Ir  Ir27  1  0.996767  0.999663  0.497598  1
