# generated using pymatgen
data_TiMo(As2O7)2
_symmetry_space_group_name_H-M   'P 1'
_cell_length_a   4.99655778
_cell_length_b   7.34752976
_cell_length_c   8.29188500
_cell_angle_alpha   91.26620405
_cell_angle_beta   91.81319742
_cell_angle_gamma   104.87061069
_symmetry_Int_Tables_number   1
_chemical_formula_structural   TiMo(As2O7)2
_chemical_formula_sum   'Ti1 Mo1 As4 O14'
_cell_volume   293.92791747
_cell_formula_units_Z   1
loop_
 _symmetry_equiv_pos_site_id
 _symmetry_equiv_pos_as_xyz
  1  'x, y, z'
loop_
 _atom_site_type_symbol
 _atom_site_label
 _atom_site_symmetry_multiplicity
 _atom_site_fract_x
 _atom_site_fract_y
 _atom_site_fract_z
 _atom_site_occupancy
  Ti  Ti0  1  0.000000  0.000001  0.000000  1
  Mo  Mo1  1  0.500000  0.500000  0.500000  1
  As  As2  1  0.461473  0.865896  0.239530  1
  As  As3  1  0.890749  0.255234  0.306241  1
  As  As4  1  0.109250  0.744767  0.693759  1
  As  As5  1  0.538527  0.134104  0.760470  1
  O  O6  1  0.643189  0.845606  0.073345  1
  O  O7  1  0.948237  0.228088  0.107614  1
  O  O8  1  0.177301  0.945396  0.197562  1
  O  O9  1  0.717951  0.427254  0.318690  1
  O  O10  1  0.345894  0.666468  0.341280  1
  O  O11  1  0.680081  0.038820  0.374326  1
  O  O12  1  0.172078  0.282588  0.435280  1
  O  O13  1  0.827923  0.717412  0.564720  1
  O  O14  1  0.319918  0.961181  0.625674  1
  O  O15  1  0.654107  0.333532  0.658719  1
  O  O16  1  0.282049  0.572746  0.681310  1
  O  O17  1  0.822699  0.054605  0.802438  1
  O  O18  1  0.051764  0.771913  0.892386  1
  O  O19  1  0.356811  0.154396  0.926655  1
