# generated using pymatgen
data_Tb5Nd6Dy5(CdPt)4
_symmetry_space_group_name_H-M   'P 1'
_cell_length_a   9.79341459
_cell_length_b   9.80787413
_cell_length_c   9.80787268
_cell_angle_alpha   60.10364065
_cell_angle_beta   60.04875913
_cell_angle_gamma   60.04875578
_symmetry_Int_Tables_number   1
_chemical_formula_structural   Tb5Nd6Dy5(CdPt)4
_chemical_formula_sum   'Tb5 Nd6 Dy5 Cd4 Pt4'
_cell_volume   667.15697116
_cell_formula_units_Z   1
loop_
 _symmetry_equiv_pos_site_id
 _symmetry_equiv_pos_as_xyz
  1  'x, y, z'
loop_
 _atom_site_type_symbol
 _atom_site_label
 _atom_site_symmetry_multiplicity
 _atom_site_fract_x
 _atom_site_fract_y
 _atom_site_fract_z
 _atom_site_occupancy
  Tb  Tb0  1  0.350098  0.350623  0.350623  1
  Tb  Tb1  1  0.350763  0.351012  0.947462  1
  Tb  Tb2  1  0.350763  0.947462  0.351012  1
  Tb  Tb3  1  0.948654  0.350623  0.350623  1
  Tb  Tb4  1  0.811434  0.188566  0.188566  1
  Nd  Nd5  1  0.937893  0.562107  0.562107  1
  Nd  Nd6  1  0.561968  0.938032  0.938032  1
  Nd  Nd7  1  0.562182  0.938253  0.561846  1
  Nd  Nd8  1  0.937718  0.561846  0.938253  1
  Nd  Nd9  1  0.562182  0.561846  0.938253  1
  Nd  Nd10  1  0.937718  0.938253  0.561846  1
  Dy  Dy11  1  0.188460  0.811540  0.811540  1
  Dy  Dy12  1  0.188801  0.811572  0.188314  1
  Dy  Dy13  1  0.811314  0.188314  0.811572  1
  Dy  Dy14  1  0.188801  0.188314  0.811572  1
  Dy  Dy15  1  0.811314  0.811572  0.188314  1
  Cd  Cd16  1  0.579908  0.579868  0.579868  1
  Cd  Cd17  1  0.579894  0.580057  0.260157  1
  Cd  Cd18  1  0.579894  0.260157  0.580057  1
  Cd  Cd19  1  0.260357  0.579868  0.579868  1
  Pt  Pt20  1  0.143062  0.142629  0.142629  1
  Pt  Pt21  1  0.142571  0.142460  0.572397  1
  Pt  Pt22  1  0.142571  0.572397  0.142460  1
  Pt  Pt23  1  0.571678  0.142629  0.142629  1
