# generated using pymatgen
data_Y2TcNiRu2
_symmetry_space_group_name_H-M   'P 1'
_cell_length_a   5.40212538
_cell_length_b   5.33045592
_cell_length_c   5.40212546
_cell_angle_alpha   57.48226464
_cell_angle_beta   60.05443556
_cell_angle_gamma   57.48227087
_symmetry_Int_Tables_number   1
_chemical_formula_structural   Y2TcNiRu2
_chemical_formula_sum   'Y2 Tc1 Ni1 Ru2'
_cell_volume   105.66249100
_cell_formula_units_Z   1
loop_
 _symmetry_equiv_pos_site_id
 _symmetry_equiv_pos_as_xyz
  1  'x, y, z'
loop_
 _atom_site_type_symbol
 _atom_site_label
 _atom_site_symmetry_multiplicity
 _atom_site_fract_x
 _atom_site_fract_y
 _atom_site_fract_z
 _atom_site_occupancy
  Y  Y0  1  0.124833  0.120170  0.124833  1
  Y  Y1  1  0.875167  0.879830  0.875167  1
  Tc  Tc2  1  0.500000  0.000000  0.500000  1
  Ni  Ni3  1  0.500000  0.500000  0.500000  1
  Ru  Ru4  1  0.000000  0.500000  0.500000  1
  Ru  Ru5  1  0.500000  0.500000  0.000000  1
