# generated using pymatgen
data_Na4Sr2HfP4
_symmetry_space_group_name_H-M   'P 1'
_cell_length_a   9.56036949
_cell_length_b   9.56036888
_cell_length_c   7.49102759
_cell_angle_alpha   89.81997779
_cell_angle_beta   89.81997790
_cell_angle_gamma   120.48485863
_symmetry_Int_Tables_number   1
_chemical_formula_structural   Na4Sr2HfP4
_chemical_formula_sum   'Na8 Sr4 Hf2 P8'
_cell_volume   590.02442979
_cell_formula_units_Z   2
loop_
 _symmetry_equiv_pos_site_id
 _symmetry_equiv_pos_as_xyz
  1  'x, y, z'
loop_
 _atom_site_type_symbol
 _atom_site_label
 _atom_site_symmetry_multiplicity
 _atom_site_fract_x
 _atom_site_fract_y
 _atom_site_fract_z
 _atom_site_occupancy
  Na  Na0  1  0.468888  0.934377  0.387399  1
  Na  Na1  1  0.934377  0.468888  0.887399  1
  Na  Na2  1  0.869437  0.732449  0.207267  1
  Na  Na3  1  0.276279  0.128878  0.232872  1
  Na  Na4  1  0.855076  0.132543  0.224207  1
  Na  Na5  1  0.128878  0.276279  0.732872  1
  Na  Na6  1  0.732449  0.869437  0.707267  1
  Na  Na7  1  0.132543  0.855076  0.724207  1
  Sr  Sr8  1  0.059318  0.534870  0.391446  1
  Sr  Sr9  1  0.476316  0.537067  0.388922  1
  Sr  Sr10  1  0.534870  0.059318  0.891446  1
  Sr  Sr11  1  0.537067  0.476316  0.888922  1
  Hf  Hf12  1  0.662603  0.326815  0.497974  1
  Hf  Hf13  1  0.326815  0.662603  0.997974  1
  P  P14  1  0.664500  0.337127  0.164001  1
  P  P15  1  0.337127  0.664500  0.664001  1
  P  P16  1  0.193083  0.378542  0.115926  1
  P  P17  1  0.620195  0.807835  0.096005  1
  P  P18  1  0.191568  0.811247  0.103517  1
  P  P19  1  0.807835  0.620195  0.596005  1
  P  P20  1  0.378542  0.193083  0.615926  1
  P  P21  1  0.811247  0.191568  0.603517  1
