# generated using pymatgen
data_Li8Ac7LuGe8
_symmetry_space_group_name_H-M   'P 1'
_cell_length_a   9.23152300
_cell_length_b   9.23156178
_cell_length_c   7.95334700
_cell_angle_alpha   90.00026067
_cell_angle_beta   90.00014896
_cell_angle_gamma   120.00045947
_symmetry_Int_Tables_number   1
_chemical_formula_structural   Li8Ac7LuGe8
_chemical_formula_sum   'Li8 Ac7 Lu1 Ge8'
_cell_volume   586.98511472
_cell_formula_units_Z   1
loop_
 _symmetry_equiv_pos_site_id
 _symmetry_equiv_pos_as_xyz
  1  'x, y, z'
loop_
 _atom_site_type_symbol
 _atom_site_label
 _atom_site_symmetry_multiplicity
 _atom_site_fract_x
 _atom_site_fract_y
 _atom_site_fract_z
 _atom_site_occupancy
  Li  Li0  1  0.835343  0.164660  0.726590  1
  Li  Li1  1  0.835346  0.670699  0.726593  1
  Li  Li2  1  0.329314  0.164646  0.726581  1
  Li  Li3  1  0.163264  0.836730  0.203251  1
  Li  Li4  1  0.163262  0.326533  0.203259  1
  Li  Li5  1  0.673474  0.836733  0.203251  1
  Li  Li6  1  0.666672  0.333338  0.325093  1
  Li  Li7  1  0.333337  0.666670  0.835049  1
  Ac  Ac8  1  0.487670  0.512327  0.503659  1
  Ac  Ac9  1  0.487674  0.975349  0.503658  1
  Ac  Ac10  1  0.024650  0.512333  0.503664  1
  Ac  Ac11  1  0.512988  0.487011  0.004518  1
  Ac  Ac12  1  0.512990  0.025971  0.004533  1
  Ac  Ac13  1  0.974032  0.487012  0.004517  1
  Ac  Ac14  1  0.999995  0.000004  0.493574  1
  Lu  Lu15  1  0.999999  0.999989  0.987224  1
  Ge  Ge16  1  0.834880  0.165114  0.269168  1
  Ge  Ge17  1  0.834878  0.669767  0.269169  1
  Ge  Ge18  1  0.330233  0.165121  0.269177  1
  Ge  Ge19  1  0.162376  0.837630  0.786249  1
  Ge  Ge20  1  0.162366  0.324734  0.786256  1
  Ge  Ge21  1  0.675259  0.837628  0.786251  1
  Ge  Ge22  1  0.666660  0.333333  0.714222  1
  Ge  Ge23  1  0.333336  0.666668  0.222509  1
