# generated using pymatgen
data_Y3Sn3PtRh2
_symmetry_space_group_name_H-M   'P 1'
_cell_length_a   7.59603400
_cell_length_b   7.59603451
_cell_length_c   3.88661900
_cell_angle_alpha   90.00000000
_cell_angle_beta   90.00000000
_cell_angle_gamma   119.99999778
_symmetry_Int_Tables_number   1
_chemical_formula_structural   Y3Sn3PtRh2
_chemical_formula_sum   'Y3 Sn3 Pt1 Rh2'
_cell_volume   194.21216959
_cell_formula_units_Z   1
loop_
 _symmetry_equiv_pos_site_id
 _symmetry_equiv_pos_as_xyz
  1  'x, y, z'
loop_
 _atom_site_type_symbol
 _atom_site_label
 _atom_site_symmetry_multiplicity
 _atom_site_fract_x
 _atom_site_fract_y
 _atom_site_fract_z
 _atom_site_occupancy
  Y  Y0  1  0.408347  0.004165  0.500000  1
  Y  Y1  1  0.995835  0.404182  0.500000  1
  Y  Y2  1  0.595818  0.591653  0.500000  1
  Sn  Sn3  1  0.742906  0.003522  0.000000  1
  Sn  Sn4  1  0.996478  0.739384  0.000000  1
  Sn  Sn5  1  0.260616  0.257094  0.000000  1
  Pt  Pt6  1  0.333333  0.666667  0.000000  1
  Rh  Rh7  1  0.666667  0.333333  0.000000  1
  Rh  Rh8  1  0.000000  0.000000  0.500000  1
