# generated using pymatgen
data_La2TbAg(Ir2O7)2
_symmetry_space_group_name_H-M   'P 1'
_cell_length_a   7.42923687
_cell_length_b   7.42923704
_cell_length_c   7.25091500
_cell_angle_alpha   59.13613078
_cell_angle_beta   59.13613000
_cell_angle_gamma   60.18585366
_symmetry_Int_Tables_number   1
_chemical_formula_structural   La2TbAg(Ir2O7)2
_chemical_formula_sum   'La2 Tb1 Ag1 Ir4 O14'
_cell_volume   279.61473340
_cell_formula_units_Z   1
loop_
 _symmetry_equiv_pos_site_id
 _symmetry_equiv_pos_as_xyz
  1  'x, y, z'
loop_
 _atom_site_type_symbol
 _atom_site_label
 _atom_site_symmetry_multiplicity
 _atom_site_fract_x
 _atom_site_fract_y
 _atom_site_fract_z
 _atom_site_occupancy
  La  La0  1  0.625000  0.125000  0.125000  1
  La  La1  1  0.125000  0.625000  0.125000  1
  Tb  Tb2  1  0.125000  0.125000  0.125000  1
  Ag  Ag3  1  0.125000  0.125000  0.625000  1
  Ir  Ir4  1  0.625000  0.625000  0.625000  1
  Ir  Ir5  1  0.125000  0.625000  0.625000  1
  Ir  Ir6  1  0.625000  0.125000  0.625000  1
  Ir  Ir7  1  0.625000  0.625000  0.125000  1
  O  O8  1  0.947051  0.554405  0.553119  1
  O  O9  1  0.301753  0.301753  0.708894  1
  O  O10  1  0.955863  0.533969  0.960960  1
  O  O11  1  0.716031  0.294137  0.289040  1
  O  O12  1  0.542673  0.542673  0.960656  1
  O  O13  1  0.554405  0.947051  0.553119  1
  O  O14  1  0.533969  0.955863  0.960960  1
  O  O15  1  0.242398  0.242398  0.255917  1
  O  O16  1  0.302949  0.695595  0.696881  1
  O  O17  1  0.695595  0.302949  0.696881  1
  O  O18  1  0.007602  0.007602  0.994083  1
  O  O19  1  0.948247  0.948247  0.541106  1
  O  O20  1  0.294137  0.716031  0.289040  1
  O  O21  1  0.707327  0.707327  0.289344  1
