# generated using pymatgen
data_Tm4Mn2CoNiB16
_symmetry_space_group_name_H-M   'P 1'
_cell_length_a   3.36450900
_cell_length_b   5.86718426
_cell_length_c   11.35573698
_cell_angle_alpha   90.20046367
_cell_angle_beta   90.00000000
_cell_angle_gamma   90.00000000
_symmetry_Int_Tables_number   1
_chemical_formula_structural   Tm4Mn2CoNiB16
_chemical_formula_sum   'Tm4 Mn2 Co1 Ni1 B16'
_cell_volume   224.16308174
_cell_formula_units_Z   1
loop_
 _symmetry_equiv_pos_site_id
 _symmetry_equiv_pos_as_xyz
  1  'x, y, z'
loop_
 _atom_site_type_symbol
 _atom_site_label
 _atom_site_symmetry_multiplicity
 _atom_site_fract_x
 _atom_site_fract_y
 _atom_site_fract_z
 _atom_site_occupancy
  Tm  Tm0  1  0.000000  0.627176  0.350197  1
  Tm  Tm1  1  0.000000  0.372035  0.649120  1
  Tm  Tm2  1  0.000000  0.127774  0.150761  1
  Tm  Tm3  1  0.000000  0.872980  0.850001  1
  Mn  Mn4  1  0.000000  0.628267  0.084490  1
  Mn  Mn5  1  0.000000  0.372293  0.916134  1
  Co  Co6  1  0.000000  0.132269  0.411463  1
  Ni  Ni7  1  0.000000  0.863341  0.590957  1
  B  B8  1  0.500000  0.784102  0.184469  1
  B  B9  1  0.500000  0.215898  0.815464  1
  B  B10  1  0.500000  0.284438  0.315252  1
  B  B11  1  0.500000  0.714598  0.684947  1
  B  B12  1  0.500000  0.863490  0.032391  1
  B  B13  1  0.500000  0.136790  0.967808  1
  B  B14  1  0.500000  0.362128  0.466675  1
  B  B15  1  0.500000  0.637532  0.532195  1
  B  B16  1  0.500000  0.887941  0.451810  1
  B  B17  1  0.500000  0.114338  0.545846  1
  B  B18  1  0.500000  0.387901  0.046664  1
  B  B19  1  0.500000  0.612768  0.953677  1
  B  B20  1  0.500000  0.978730  0.308219  1
  B  B21  1  0.500000  0.022733  0.691467  1
  B  B22  1  0.500000  0.476407  0.191733  1
  B  B23  1  0.500000  0.524072  0.808260  1
