# generated using pymatgen
data_La4TeC4Cl
_symmetry_space_group_name_H-M   'P 1'
_cell_length_a   7.74137702
_cell_length_b   7.74137719
_cell_length_c   7.07958790
_cell_angle_alpha   80.33016052
_cell_angle_beta   80.33015852
_cell_angle_gamma   33.17498293
_symmetry_Int_Tables_number   1
_chemical_formula_structural   La4TeC4Cl
_chemical_formula_sum   'La4 Te1 C4 Cl1'
_cell_volume   228.56722858
_cell_formula_units_Z   1
loop_
 _symmetry_equiv_pos_site_id
 _symmetry_equiv_pos_as_xyz
  1  'x, y, z'
loop_
 _atom_site_type_symbol
 _atom_site_label
 _atom_site_symmetry_multiplicity
 _atom_site_fract_x
 _atom_site_fract_y
 _atom_site_fract_z
 _atom_site_occupancy
  La  La0  1  0.546598  0.151941  0.146319  1
  La  La1  1  0.145827  0.551369  0.648234  1
  La  La2  1  0.448631  0.854173  0.851766  1
  La  La3  1  0.848059  0.453402  0.353681  1
  Te  Te4  1  0.795887  0.204113  0.750000  1
  C  C5  1  0.353393  0.103314  0.470041  1
  C  C6  1  0.896686  0.646607  0.029959  1
  C  C7  1  0.639401  0.901216  0.525521  1
  C  C8  1  0.098784  0.360599  0.974479  1
  Cl  Cl9  1  0.226735  0.773265  0.250000  1
