# generated using pymatgen
data_Dy13Ho3(AlIr)4
_symmetry_space_group_name_H-M   'P 1'
_cell_length_a   9.55864150
_cell_length_b   9.55847151
_cell_length_c   9.55370448
_cell_angle_alpha   59.93409964
_cell_angle_beta   59.93987362
_cell_angle_gamma   59.92381795
_symmetry_Int_Tables_number   1
_chemical_formula_structural   Dy13Ho3(AlIr)4
_chemical_formula_sum   'Dy13 Ho3 Al4 Ir4'
_cell_volume   616.27838694
_cell_formula_units_Z   1
loop_
 _symmetry_equiv_pos_site_id
 _symmetry_equiv_pos_as_xyz
  1  'x, y, z'
loop_
 _atom_site_type_symbol
 _atom_site_label
 _atom_site_symmetry_multiplicity
 _atom_site_fract_x
 _atom_site_fract_y
 _atom_site_fract_z
 _atom_site_occupancy
  Dy  Dy0  1  0.438219  0.438114  0.061785  1
  Dy  Dy1  1  0.647209  0.647225  0.056084  1
  Dy  Dy2  1  0.193979  0.806475  0.194131  1
  Dy  Dy3  1  0.061742  0.437581  0.061910  1
  Dy  Dy4  1  0.194955  0.806021  0.805875  1
  Dy  Dy5  1  0.061637  0.438264  0.438156  1
  Dy  Dy6  1  0.806203  0.194013  0.194374  1
  Dy  Dy7  1  0.648968  0.648963  0.648782  1
  Dy  Dy8  1  0.805819  0.194913  0.805961  1
  Dy  Dy9  1  0.194364  0.194153  0.806215  1
  Dy  Dy10  1  0.056063  0.647239  0.647161  1
  Dy  Dy11  1  0.437643  0.061688  0.062007  1
  Dy  Dy12  1  0.062024  0.061887  0.437397  1
  Ho  Ho13  1  0.647277  0.055692  0.647209  1
  Ho  Ho14  1  0.805668  0.806031  0.195159  1
  Ho  Ho15  1  0.438491  0.061444  0.438358  1
  Al  Al16  1  0.422186  0.421767  0.422120  1
  Al  Al17  1  0.422345  0.422062  0.733192  1
  Al  Al18  1  0.422325  0.733474  0.422161  1
  Al  Al19  1  0.733253  0.422144  0.422269  1
  Ir  Ir20  1  0.425358  0.858751  0.857843  1
  Ir  Ir21  1  0.858003  0.858580  0.858428  1
  Ir  Ir22  1  0.858415  0.424879  0.858340  1
  Ir  Ir23  1  0.857853  0.858639  0.425084  1
