# generated using pymatgen
data_Y3CoMoP6Ir7
_symmetry_space_group_name_H-M   'P 1'
_cell_length_a   3.93430300
_cell_length_b   11.09528800
_cell_length_c   12.77803000
_cell_angle_alpha   90.00000000
_cell_angle_beta   90.00000000
_cell_angle_gamma   90.00000000
_symmetry_Int_Tables_number   1
_chemical_formula_structural   Y3CoMoP6Ir7
_chemical_formula_sum   'Y6 Co2 Mo2 P12 Ir14'
_cell_volume   557.78943888
_cell_formula_units_Z   2
loop_
 _symmetry_equiv_pos_site_id
 _symmetry_equiv_pos_as_xyz
  1  'x, y, z'
loop_
 _atom_site_type_symbol
 _atom_site_label
 _atom_site_symmetry_multiplicity
 _atom_site_fract_x
 _atom_site_fract_y
 _atom_site_fract_z
 _atom_site_occupancy
  Y  Y0  1  0.000000  0.500000  0.521947  1
  Y  Y1  1  0.500000  0.000000  0.478053  1
  Y  Y2  1  0.500000  0.817725  0.201205  1
  Y  Y3  1  0.500000  0.182275  0.201205  1
  Y  Y4  1  0.000000  0.682275  0.798795  1
  Y  Y5  1  0.000000  0.317725  0.798795  1
  Co  Co6  1  0.000000  0.500000  0.994694  1
  Co  Co7  1  0.500000  0.000000  0.005306  1
  Mo  Mo8  1  0.500000  0.500000  0.157615  1
  Mo  Mo9  1  0.000000  0.000000  0.842385  1
  P  P10  1  0.500000  0.500000  0.878922  1
  P  P11  1  0.000000  0.000000  0.121078  1
  P  P12  1  0.500000  0.500000  0.345969  1
  P  P13  1  0.000000  0.000000  0.654031  1
  P  P14  1  0.500000  0.314800  0.618935  1
  P  P15  1  0.500000  0.685200  0.618935  1
  P  P16  1  0.000000  0.185200  0.381065  1
  P  P17  1  0.000000  0.814800  0.381065  1
  P  P18  1  0.500000  0.849844  0.892319  1
  P  P19  1  0.500000  0.150156  0.892319  1
  P  P20  1  0.000000  0.650156  0.107681  1
  P  P21  1  0.000000  0.349844  0.107681  1
  Ir  Ir22  1  0.500000  0.500000  0.700491  1
  Ir  Ir23  1  0.000000  0.000000  0.299509  1
  Ir  Ir24  1  0.500000  0.334730  0.985959  1
  Ir  Ir25  1  0.500000  0.665270  0.985959  1
  Ir  Ir26  1  0.000000  0.165270  0.014041  1
  Ir  Ir27  1  0.000000  0.834730  0.014041  1
  Ir  Ir28  1  0.500000  0.296721  0.431224  1
  Ir  Ir29  1  0.500000  0.703279  0.431224  1
  Ir  Ir30  1  0.000000  0.203279  0.568776  1
  Ir  Ir31  1  0.000000  0.796721  0.568776  1
  Ir  Ir32  1  0.500000  0.872436  0.713064  1
  Ir  Ir33  1  0.500000  0.127564  0.713064  1
  Ir  Ir34  1  0.000000  0.627564  0.286936  1
  Ir  Ir35  1  0.000000  0.372436  0.286936  1
