# generated using pymatgen
data_La3GaGeIrRh
_symmetry_space_group_name_H-M   'P 1'
_cell_length_a   5.82044291
_cell_length_b   8.30334630
_cell_length_c   13.64442685
_cell_angle_alpha   89.98871655
_cell_angle_beta   89.96107946
_cell_angle_gamma   90.08437370
_symmetry_Int_Tables_number   1
_chemical_formula_structural   La3GaGeIrRh
_chemical_formula_sum   'La12 Ga4 Ge4 Ir4 Rh4'
_cell_volume   659.42271404
_cell_formula_units_Z   4
loop_
 _symmetry_equiv_pos_site_id
 _symmetry_equiv_pos_as_xyz
  1  'x, y, z'
loop_
 _atom_site_type_symbol
 _atom_site_label
 _atom_site_symmetry_multiplicity
 _atom_site_fract_x
 _atom_site_fract_y
 _atom_site_fract_z
 _atom_site_occupancy
  La  La0  1  0.646067  0.251387  0.249893  1
  La  La1  1  0.354210  0.749646  0.749859  1
  La  La2  1  0.353888  0.751132  0.250076  1
  La  La3  1  0.646383  0.247833  0.750182  1
  La  La4  1  0.156836  0.395602  0.097780  1
  La  La5  1  0.843217  0.604011  0.902103  1
  La  La6  1  0.843190  0.604208  0.597986  1
  La  La7  1  0.842920  0.895868  0.402222  1
  La  La8  1  0.155064  0.396749  0.402007  1
  La  La9  1  0.155264  0.103185  0.597773  1
  La  La10  1  0.155349  0.103409  0.902153  1
  La  La11  1  0.844646  0.896954  0.097975  1
  Ga  Ga12  1  0.641089  0.250107  0.999795  1
  Ga  Ga13  1  0.359099  0.749901  0.000195  1
  Ga  Ga14  1  0.359579  0.750039  0.500015  1
  Ga  Ga15  1  0.641362  0.249958  0.499992  1
  Ge  Ge16  1  0.147511  0.105303  0.250020  1
  Ge  Ge17  1  0.852444  0.894946  0.750091  1
  Ge  Ge18  1  0.852932  0.604759  0.249950  1
  Ge  Ge19  1  0.146992  0.394964  0.749905  1
  Ir  Ir20  1  0.378244  0.032838  0.092859  1
  Ir  Ir21  1  0.621642  0.967183  0.907102  1
  Ir  Ir22  1  0.622132  0.967783  0.592848  1
  Ir  Ir23  1  0.621824  0.532284  0.407256  1
  Rh  Rh24  1  0.378964  0.032139  0.407093  1
  Rh  Rh25  1  0.379237  0.467832  0.592836  1
  Rh  Rh26  1  0.378754  0.468350  0.907208  1
  Rh  Rh27  1  0.621163  0.531629  0.092825  1
