# generated using pymatgen
data_NdHo5Al24(Os3Ru)2
_symmetry_space_group_name_H-M   'P 1'
_cell_length_a   8.81642570
_cell_length_b   8.81642654
_cell_length_c   9.57070000
_cell_angle_alpha   90.00000000
_cell_angle_beta   90.00000000
_cell_angle_gamma   119.79075468
_symmetry_Int_Tables_number   1
_chemical_formula_structural   NdHo5Al24(Os3Ru)2
_chemical_formula_sum   'Nd1 Ho5 Al24 Os6 Ru2'
_cell_volume   645.61160976
_cell_formula_units_Z   1
loop_
 _symmetry_equiv_pos_site_id
 _symmetry_equiv_pos_as_xyz
  1  'x, y, z'
loop_
 _atom_site_type_symbol
 _atom_site_label
 _atom_site_symmetry_multiplicity
 _atom_site_fract_x
 _atom_site_fract_y
 _atom_site_fract_z
 _atom_site_occupancy
  Nd  Nd0  1  0.807946  0.192054  0.750000  1
  Ho  Ho1  1  0.193271  0.387223  0.250000  1
  Ho  Ho2  1  0.805773  0.611445  0.750000  1
  Ho  Ho3  1  0.612777  0.806729  0.250000  1
  Ho  Ho4  1  0.388555  0.194227  0.750000  1
  Ho  Ho5  1  0.193265  0.806735  0.250000  1
  Al  Al6  1  0.333038  0.666962  0.016588  1
  Al  Al7  1  0.666408  0.333592  0.986054  1
  Al  Al8  1  0.666408  0.333592  0.513946  1
  Al  Al9  1  0.333038  0.666962  0.483412  1
  Al  Al10  1  0.163764  0.324786  0.575204  1
  Al  Al11  1  0.838220  0.676815  0.423076  1
  Al  Al12  1  0.675214  0.836236  0.575204  1
  Al  Al13  1  0.838220  0.676815  0.076924  1
  Al  Al14  1  0.323185  0.161780  0.423076  1
  Al  Al15  1  0.163764  0.324786  0.924796  1
  Al  Al16  1  0.161949  0.838051  0.575455  1
  Al  Al17  1  0.323185  0.161780  0.076924  1
  Al  Al18  1  0.837975  0.162025  0.421089  1
  Al  Al19  1  0.675214  0.836236  0.924796  1
  Al  Al20  1  0.837975  0.162025  0.078911  1
  Al  Al21  1  0.161949  0.838051  0.924545  1
  Al  Al22  1  0.559583  0.120799  0.250000  1
  Al  Al23  1  0.436878  0.876336  0.750000  1
  Al  Al24  1  0.879201  0.440417  0.250000  1
  Al  Al25  1  0.123664  0.563122  0.750000  1
  Al  Al26  1  0.560218  0.439782  0.250000  1
  Al  Al27  1  0.439541  0.560459  0.750000  1
  Al  Al28  1  0.999728  0.000272  0.250000  1
  Al  Al29  1  0.002731  0.997269  0.750000  1
  Os  Os30  1  0.498557  0.999309  0.001155  1
  Os  Os31  1  0.000691  0.501443  0.001155  1
  Os  Os32  1  0.498557  0.999309  0.498845  1
  Os  Os33  1  0.499748  0.500252  0.000585  1
  Os  Os34  1  0.000691  0.501443  0.498845  1
  Os  Os35  1  0.499748  0.500252  0.499415  1
  Ru  Ru36  1  0.999687  0.000313  0.000238  1
  Ru  Ru37  1  0.999687  0.000313  0.499762  1
