# generated using pymatgen
data_FeBi6(SbO9)2
_symmetry_space_group_name_H-M   'P 1'
_cell_length_a   9.27301800
_cell_length_b   9.27301786
_cell_length_c   5.25728700
_cell_angle_alpha   90.00000000
_cell_angle_beta   90.00000000
_cell_angle_gamma   120.00000049
_symmetry_Int_Tables_number   1
_chemical_formula_structural   FeBi6(SbO9)2
_chemical_formula_sum   'Fe1 Bi6 Sb2 O18'
_cell_volume   391.50247773
_cell_formula_units_Z   1
loop_
 _symmetry_equiv_pos_site_id
 _symmetry_equiv_pos_as_xyz
  1  'x, y, z'
loop_
 _atom_site_type_symbol
 _atom_site_label
 _atom_site_symmetry_multiplicity
 _atom_site_fract_x
 _atom_site_fract_y
 _atom_site_fract_z
 _atom_site_occupancy
  Fe  Fe0  1  0.000000  0.000000  0.500000  1
  Bi  Bi1  1  0.000000  0.368698  0.500000  1
  Bi  Bi2  1  0.284028  0.284028  0.000000  1
  Bi  Bi3  1  0.000000  0.715972  0.000000  1
  Bi  Bi4  1  0.631302  0.631302  0.500000  1
  Bi  Bi5  1  0.368698  0.000000  0.500000  1
  Bi  Bi6  1  0.715972  0.000000  0.000000  1
  Sb  Sb7  1  0.333333  0.666667  0.002362  1
  Sb  Sb8  1  0.666667  0.333333  0.997638  1
  O  O9  1  0.087422  0.207500  0.717471  1
  O  O10  1  0.229808  0.457834  0.221450  1
  O  O11  1  0.128356  0.597864  0.790794  1
  O  O12  1  0.402136  0.530492  0.790794  1
  O  O13  1  0.228027  0.770192  0.221450  1
  O  O14  1  0.120078  0.912578  0.717471  1
  O  O15  1  0.542166  0.771973  0.221450  1
  O  O16  1  0.207500  0.087422  0.282529  1
  O  O17  1  0.469508  0.871644  0.790794  1
  O  O18  1  0.792500  0.879922  0.717471  1
  O  O19  1  0.457834  0.229808  0.778550  1
  O  O20  1  0.597864  0.128356  0.209206  1
  O  O21  1  0.530492  0.402136  0.209206  1
  O  O22  1  0.770192  0.228027  0.778550  1
  O  O23  1  0.912578  0.120078  0.282529  1
  O  O24  1  0.771973  0.542166  0.778550  1
  O  O25  1  0.871644  0.469508  0.209206  1
  O  O26  1  0.879922  0.792500  0.282529  1
