# generated using pymatgen
data_Lu2GaB2Ir4Ru
_symmetry_space_group_name_H-M   'P 1'
_cell_length_a   9.56369200
_cell_length_b   9.56369200
_cell_length_c   3.07904100
_cell_angle_alpha   90.00000000
_cell_angle_beta   90.00000000
_cell_angle_gamma   90.00000000
_symmetry_Int_Tables_number   1
_chemical_formula_structural   Lu2GaB2Ir4Ru
_chemical_formula_sum   'Lu4 Ga2 B4 Ir8 Ru2'
_cell_volume   281.62203621
_cell_formula_units_Z   2
loop_
 _symmetry_equiv_pos_site_id
 _symmetry_equiv_pos_as_xyz
  1  'x, y, z'
loop_
 _atom_site_type_symbol
 _atom_site_label
 _atom_site_symmetry_multiplicity
 _atom_site_fract_x
 _atom_site_fract_y
 _atom_site_fract_z
 _atom_site_occupancy
  Lu  Lu0  1  0.674079  0.174079  0.000000  1
  Lu  Lu1  1  0.325921  0.825921  0.000000  1
  Lu  Lu2  1  0.174079  0.325921  0.000000  1
  Lu  Lu3  1  0.825921  0.674079  0.000000  1
  Ga  Ga4  1  0.000000  0.000000  0.000000  1
  Ga  Ga5  1  0.500000  0.500000  0.000000  1
  B  B6  1  0.122121  0.622121  0.000000  1
  B  B7  1  0.877879  0.377879  0.000000  1
  B  B8  1  0.622121  0.877879  0.000000  1
  B  B9  1  0.377879  0.122121  0.000000  1
  Ir  Ir10  1  0.217112  0.070114  0.500000  1
  Ir  Ir11  1  0.782888  0.929886  0.500000  1
  Ir  Ir12  1  0.070114  0.782888  0.500000  1
  Ir  Ir13  1  0.717112  0.429886  0.500000  1
  Ir  Ir14  1  0.929886  0.217112  0.500000  1
  Ir  Ir15  1  0.282888  0.570114  0.500000  1
  Ir  Ir16  1  0.570114  0.717112  0.500000  1
  Ir  Ir17  1  0.429886  0.282888  0.500000  1
  Ru  Ru18  1  0.500000  0.000000  0.500000  1
  Ru  Ru19  1  0.000000  0.500000  0.500000  1
