# generated using pymatgen
data_Ca2GdTaN4
_symmetry_space_group_name_H-M   'P 1'
_cell_length_a   5.92685110
_cell_length_b   5.93218699
_cell_length_c   4.95175702
_cell_angle_alpha   65.00637111
_cell_angle_beta   65.37604270
_cell_angle_gamma   49.36013309
_symmetry_Int_Tables_number   1
_chemical_formula_structural   Ca2GdTaN4
_chemical_formula_sum   'Ca2 Gd1 Ta1 N4'
_cell_volume   117.17792276
_cell_formula_units_Z   1
loop_
 _symmetry_equiv_pos_site_id
 _symmetry_equiv_pos_as_xyz
  1  'x, y, z'
loop_
 _atom_site_type_symbol
 _atom_site_label
 _atom_site_symmetry_multiplicity
 _atom_site_fract_x
 _atom_site_fract_y
 _atom_site_fract_z
 _atom_site_occupancy
  Ca  Ca0  1  0.251178  0.248822  0.248822  1
  Ca  Ca1  1  0.505444  0.494556  0.494556  1
  Gd  Gd2  1  0.754752  0.745248  0.745248  1
  Ta  Ta3  1  0.046010  0.953990  0.953990  1
  N  N4  1  0.004103  0.987949  0.566256  1
  N  N5  1  0.197186  0.230554  0.796692  1
  N  N6  1  0.441692  0.566256  0.987949  1
  N  N7  1  0.775569  0.796692  0.230554  1
