# generated using pymatgen
data_CsRb3Zn4(SiAs2)4
_symmetry_space_group_name_H-M   'P 1'
_cell_length_a   8.51473341
_cell_length_b   8.28704156
_cell_length_c   8.48644339
_cell_angle_alpha   71.30822034
_cell_angle_beta   76.19826172
_cell_angle_gamma   73.33487442
_symmetry_Int_Tables_number   1
_chemical_formula_structural   CsRb3Zn4(SiAs2)4
_chemical_formula_sum   'Cs1 Rb3 Zn4 Si4 As8'
_cell_volume   536.26708828
_cell_formula_units_Z   1
loop_
 _symmetry_equiv_pos_site_id
 _symmetry_equiv_pos_as_xyz
  1  'x, y, z'
loop_
 _atom_site_type_symbol
 _atom_site_label
 _atom_site_symmetry_multiplicity
 _atom_site_fract_x
 _atom_site_fract_y
 _atom_site_fract_z
 _atom_site_occupancy
  Cs  Cs0  1  0.453609  0.770840  0.319250  1
  Rb  Rb1  1  0.546610  0.232340  0.681353  1
  Rb  Rb2  1  0.439627  0.799967  0.815653  1
  Rb  Rb3  1  0.560537  0.201128  0.183642  1
  Zn  Zn4  1  0.997497  0.893837  0.685299  1
  Zn  Zn5  1  0.003976  0.105883  0.313768  1
  Zn  Zn6  1  0.963491  0.812614  0.174097  1
  Zn  Zn7  1  0.036256  0.187948  0.825387  1
  Si  Si8  1  0.961729  0.587802  0.594986  1
  Si  Si9  1  0.038048  0.411705  0.405797  1
  Si  Si10  1  0.141060  0.447675  0.979050  1
  Si  Si11  1  0.856204  0.551847  0.021891  1
  As  As12  1  0.824599  0.877708  0.454319  1
  As  As13  1  0.176696  0.122947  0.546428  1
  As  As14  1  0.794331  0.399647  0.314541  1
  As  As15  1  0.206445  0.595421  0.687978  1
  As  As16  1  0.790455  0.866666  0.955016  1
  As  As17  1  0.210406  0.134886  0.042204  1
  As  As18  1  0.780775  0.442345  0.825084  1
  As  As19  1  0.217651  0.556796  0.174256  1
