# generated using pymatgen
data_K4Sr2ZrSb4
_symmetry_space_group_name_H-M   'P 1'
_cell_length_a   11.07505400
_cell_length_b   11.07505483
_cell_length_c   8.32544938
_cell_angle_alpha   88.06366081
_cell_angle_beta   88.06366466
_cell_angle_gamma   119.52779035
_symmetry_Int_Tables_number   1
_chemical_formula_structural   K4Sr2ZrSb4
_chemical_formula_sum   'K8 Sr4 Zr2 Sb8'
_cell_volume   886.53741116
_cell_formula_units_Z   2
loop_
 _symmetry_equiv_pos_site_id
 _symmetry_equiv_pos_as_xyz
  1  'x, y, z'
loop_
 _atom_site_type_symbol
 _atom_site_label
 _atom_site_symmetry_multiplicity
 _atom_site_fract_x
 _atom_site_fract_y
 _atom_site_fract_z
 _atom_site_occupancy
  K  K0  1  0.053548  0.523240  0.622255  1
  K  K1  1  0.523240  0.053548  0.122255  1
  K  K2  1  0.283348  0.137057  0.835007  1
  K  K3  1  0.870735  0.727867  0.772440  1
  K  K4  1  0.859112  0.146400  0.809745  1
  K  K5  1  0.727867  0.870735  0.272440  1
  K  K6  1  0.137057  0.283348  0.335007  1
  K  K7  1  0.146400  0.859112  0.309745  1
  Sr  Sr8  1  0.470016  0.934658  0.614198  1
  Sr  Sr9  1  0.473105  0.522966  0.628834  1
  Sr  Sr10  1  0.934658  0.470016  0.114198  1
  Sr  Sr11  1  0.522966  0.473105  0.128834  1
  Zr  Zr12  1  0.664547  0.334959  0.512283  1
  Zr  Zr13  1  0.334959  0.664547  0.012283  1
  Sb  Sb14  1  0.608580  0.795290  0.871837  1
  Sb  Sb15  1  0.197682  0.386004  0.924357  1
  Sb  Sb16  1  0.189933  0.796185  0.902145  1
  Sb  Sb17  1  0.386004  0.197682  0.424357  1
  Sb  Sb18  1  0.795290  0.608580  0.371837  1
  Sb  Sb19  1  0.796185  0.189933  0.402145  1
  Sb  Sb20  1  0.668790  0.355534  0.852532  1
  Sb  Sb21  1  0.355534  0.668790  0.352532  1
