# generated using pymatgen
data_Ac3Eu(SnPd)4
_symmetry_space_group_name_H-M   'P 1'
_cell_length_a   4.97869300
_cell_length_b   8.02415929
_cell_length_c   8.32269800
_cell_angle_alpha   89.98464812
_cell_angle_beta   90.00000000
_cell_angle_gamma   90.00000000
_symmetry_Int_Tables_number   1
_chemical_formula_structural   Ac3Eu(SnPd)4
_chemical_formula_sum   'Ac3 Eu1 Sn4 Pd4'
_cell_volume   332.49032234
_cell_formula_units_Z   1
loop_
 _symmetry_equiv_pos_site_id
 _symmetry_equiv_pos_as_xyz
  1  'x, y, z'
loop_
 _atom_site_type_symbol
 _atom_site_label
 _atom_site_symmetry_multiplicity
 _atom_site_fract_x
 _atom_site_fract_y
 _atom_site_fract_z
 _atom_site_occupancy
  Ac  Ac0  1  0.750000  0.019227  0.206496  1
  Ac  Ac1  1  0.250000  0.978421  0.790180  1
  Ac  Ac2  1  0.750000  0.515570  0.302722  1
  Eu  Eu3  1  0.250000  0.482699  0.705879  1
  Sn  Sn4  1  0.750000  0.192297  0.591855  1
  Sn  Sn5  1  0.250000  0.808479  0.412480  1
  Sn  Sn6  1  0.750000  0.676335  0.908838  1
  Sn  Sn7  1  0.250000  0.316161  0.080838  1
  Pd  Pd8  1  0.750000  0.797237  0.582967  1
  Pd  Pd9  1  0.250000  0.208561  0.420975  1
  Pd  Pd10  1  0.750000  0.307320  0.916622  1
  Pd  Pd11  1  0.250000  0.697691  0.080150  1
