# generated using pymatgen
data_Ce2Nd(RhPb)3
_symmetry_space_group_name_H-M   'P 1'
_cell_length_a   7.77155630
_cell_length_b   7.77155646
_cell_length_c   4.00930000
_cell_angle_alpha   90.00000000
_cell_angle_beta   90.00000000
_cell_angle_gamma   120.68361243
_symmetry_Int_Tables_number   1
_chemical_formula_structural   Ce2Nd(RhPb)3
_chemical_formula_sum   'Ce2 Nd1 Rh3 Pb3'
_cell_volume   208.24861921
_cell_formula_units_Z   1
loop_
 _symmetry_equiv_pos_site_id
 _symmetry_equiv_pos_as_xyz
  1  'x, y, z'
loop_
 _atom_site_type_symbol
 _atom_site_label
 _atom_site_symmetry_multiplicity
 _atom_site_fract_x
 _atom_site_fract_y
 _atom_site_fract_z
 _atom_site_occupancy
  Ce  Ce0  1  0.589156  0.999451  0.500000  1
  Ce  Ce1  1  0.999451  0.589156  0.500000  1
  Nd  Nd2  1  0.406827  0.406827  0.500000  1
  Rh  Rh3  1  0.993761  0.993761  0.500000  1
  Rh  Rh4  1  0.679600  0.331072  0.000000  1
  Rh  Rh5  1  0.331072  0.679600  0.000000  1
  Pb  Pb6  1  0.737511  0.737511  0.000000  1
  Pb  Pb7  1  0.258949  0.003674  0.000000  1
  Pb  Pb8  1  0.003674  0.258949  0.000000  1
