# generated using pymatgen
data_La4Dy3Er3Pt8
_symmetry_space_group_name_H-M   'P 1'
_cell_length_a   7.67383200
_cell_length_b   7.81944069
_cell_length_c   14.83813800
_cell_angle_alpha   90.06276609
_cell_angle_beta   90.00000000
_cell_angle_gamma   90.00000000
_symmetry_Int_Tables_number   1
_chemical_formula_structural   La4Dy3Er3Pt8
_chemical_formula_sum   'La8 Dy6 Er6 Pt16'
_cell_volume   890.36303749
_cell_formula_units_Z   2
loop_
 _symmetry_equiv_pos_site_id
 _symmetry_equiv_pos_as_xyz
  1  'x, y, z'
loop_
 _atom_site_type_symbol
 _atom_site_label
 _atom_site_symmetry_multiplicity
 _atom_site_fract_x
 _atom_site_fract_y
 _atom_site_fract_z
 _atom_site_occupancy
  La  La0  1  0.496166  0.324592  0.903180  1
  La  La1  1  0.996166  0.175408  0.596820  1
  La  La2  1  0.503997  0.676510  0.402253  1
  La  La3  1  0.003997  0.823490  0.097747  1
  La  La4  1  0.504209  0.675969  0.097684  1
  La  La5  1  0.004209  0.824031  0.402316  1
  La  La6  1  0.496205  0.323665  0.596882  1
  La  La7  1  0.996205  0.176335  0.903118  1
  Dy  Dy8  1  0.338659  0.832703  0.622232  1
  Dy  Dy9  1  0.838659  0.667297  0.877768  1
  Dy  Dy10  1  0.174309  0.495709  0.749884  1
  Dy  Dy11  1  0.674309  0.004291  0.750116  1
  Dy  Dy12  1  0.825318  0.504195  0.250066  1
  Dy  Dy13  1  0.325318  0.995805  0.249934  1
  Er  Er14  1  0.338157  0.833830  0.877087  1
  Er  Er15  1  0.838157  0.666170  0.622913  1
  Er  Er16  1  0.661551  0.167039  0.376637  1
  Er  Er17  1  0.161551  0.332961  0.123363  1
  Er  Er18  1  0.661009  0.166791  0.123094  1
  Er  Er19  1  0.161009  0.333209  0.376906  1
  Pt  Pt20  1  0.323925  0.036247  0.044654  1
  Pt  Pt21  1  0.823925  0.463753  0.455346  1
  Pt  Pt22  1  0.677337  0.963246  0.543466  1
  Pt  Pt23  1  0.177337  0.536754  0.956534  1
  Pt  Pt24  1  0.673271  0.965849  0.955506  1
  Pt  Pt25  1  0.173271  0.534151  0.544494  1
  Pt  Pt26  1  0.326120  0.036734  0.454306  1
  Pt  Pt27  1  0.826120  0.463266  0.045694  1
  Pt  Pt28  1  0.542363  0.630846  0.750142  1
  Pt  Pt29  1  0.042363  0.869154  0.749858  1
  Pt  Pt30  1  0.457065  0.368411  0.249872  1
  Pt  Pt31  1  0.957065  0.131589  0.250128  1
  Pt  Pt32  1  0.306029  0.136032  0.750432  1
  Pt  Pt33  1  0.806029  0.363968  0.749568  1
  Pt  Pt34  1  0.694309  0.865215  0.249819  1
  Pt  Pt35  1  0.194309  0.634785  0.250181  1
