# generated using pymatgen
data_Tb2Pr(ZnPt)4
_symmetry_space_group_name_H-M   'P 1'
_cell_length_a   8.29385161
_cell_length_b   8.29385189
_cell_length_c   8.29385163
_cell_angle_alpha   151.64812700
_cell_angle_beta   125.86071051
_cell_angle_gamma   62.23381323
_symmetry_Int_Tables_number   1
_chemical_formula_structural   Tb2Pr(ZnPt)4
_chemical_formula_sum   'Tb2 Pr1 Zn4 Pt4'
_cell_volume   217.73644822
_cell_formula_units_Z   1
loop_
 _symmetry_equiv_pos_site_id
 _symmetry_equiv_pos_as_xyz
  1  'x, y, z'
loop_
 _atom_site_type_symbol
 _atom_site_label
 _atom_site_symmetry_multiplicity
 _atom_site_fract_x
 _atom_site_fract_y
 _atom_site_fract_z
 _atom_site_occupancy
  Tb  Tb0  1  0.874368  0.874368  0.000000  1
  Tb  Tb1  1  0.125632  0.125632  0.000000  1
  Pr  Pr2  1  0.500000  0.000000  0.500000  1
  Zn  Zn3  1  0.477367  0.674146  0.803221  1
  Zn  Zn4  1  0.870924  0.674146  0.196779  1
  Zn  Zn5  1  0.129076  0.325854  0.803221  1
  Zn  Zn6  1  0.522633  0.325854  0.196779  1
  Pt  Pt7  1  0.276975  0.776975  0.500000  1
  Pt  Pt8  1  0.723025  0.223025  0.500000  1
  Pt  Pt9  1  0.809492  0.500000  0.309492  1
  Pt  Pt10  1  0.190508  0.500000  0.690508  1
