# generated using pymatgen
data_Cs10Re3Tc3Se14
_symmetry_space_group_name_H-M   'P 1'
_cell_length_a   11.52395381
_cell_length_b   11.52853785
_cell_length_c   11.72542748
_cell_angle_alpha   59.56884888
_cell_angle_beta   59.52891698
_cell_angle_gamma   60.06901810
_symmetry_Int_Tables_number   1
_chemical_formula_structural   Cs10Re3Tc3Se14
_chemical_formula_sum   'Cs10 Re3 Tc3 Se14'
_cell_volume   1094.50309137
_cell_formula_units_Z   1
loop_
 _symmetry_equiv_pos_site_id
 _symmetry_equiv_pos_as_xyz
  1  'x, y, z'
loop_
 _atom_site_type_symbol
 _atom_site_label
 _atom_site_symmetry_multiplicity
 _atom_site_fract_x
 _atom_site_fract_y
 _atom_site_fract_z
 _atom_site_occupancy
  Cs  Cs0  1  0.010074  0.010918  0.988145  1
  Cs  Cs1  1  0.423573  0.986699  0.003764  1
  Cs  Cs2  1  0.414169  0.996606  0.582843  1
  Cs  Cs3  1  0.850752  0.851170  0.858218  1
  Cs  Cs4  1  0.837332  0.837561  0.433406  1
  Cs  Cs5  1  0.995684  0.413748  0.583351  1
  Cs  Cs6  1  0.030268  0.031927  0.443471  1
  Cs  Cs7  1  0.985727  0.423278  0.004735  1
  Cs  Cs8  1  0.187266  0.575547  0.117272  1
  Cs  Cs9  1  0.575706  0.187796  0.116996  1
  Re  Re10  1  0.382955  0.615533  0.613911  1
  Re  Re11  1  0.382380  0.382163  0.617854  1
  Re  Re12  1  0.381440  0.614675  0.387845  1
  Tc  Tc13  1  0.616200  0.382626  0.613886  1
  Tc  Tc14  1  0.616259  0.615837  0.381848  1
  Tc  Tc15  1  0.615384  0.381029  0.387339  1
  Se  Se16  1  0.220682  0.220880  0.781877  1
  Se  Se17  1  0.211124  0.778488  0.768700  1
  Se  Se18  1  0.388684  0.388997  0.829578  1
  Se  Se19  1  0.163792  0.608710  0.613795  1
  Se  Se20  1  0.609715  0.610434  0.606706  1
  Se  Se21  1  0.205423  0.779157  0.244938  1
  Se  Se22  1  0.387132  0.387472  0.393681  1
  Se  Se23  1  0.394130  0.831949  0.386369  1
  Se  Se24  1  0.608214  0.166749  0.612447  1
  Se  Se25  1  0.780501  0.208789  0.770109  1
  Se  Se26  1  0.830012  0.394834  0.386890  1
  Se  Se27  1  0.606922  0.607677  0.172963  1
  Se  Se28  1  0.781654  0.781237  0.208171  1
  Se  Se29  1  0.781646  0.202317  0.243697  1
