# generated using pymatgen
data_SrLa6Er3Si8O3
_symmetry_space_group_name_H-M   'P 1'
_cell_length_a   10.77631247
_cell_length_b   10.77631149
_cell_length_c   4.54457300
_cell_angle_alpha   90.00000000
_cell_angle_beta   90.00000000
_cell_angle_gamma   120.03370451
_symmetry_Int_Tables_number   1
_chemical_formula_structural   SrLa6Er3Si8O3
_chemical_formula_sum   'Sr1 La6 Er3 Si8 O3'
_cell_volume   456.89502406
_cell_formula_units_Z   1
loop_
 _symmetry_equiv_pos_site_id
 _symmetry_equiv_pos_as_xyz
  1  'x, y, z'
loop_
 _atom_site_type_symbol
 _atom_site_label
 _atom_site_symmetry_multiplicity
 _atom_site_fract_x
 _atom_site_fract_y
 _atom_site_fract_z
 _atom_site_occupancy
  Sr  Sr0  1  0.212758  0.787242  0.000000  1
  La  La1  1  0.575342  0.789134  0.000000  1
  La  La2  1  0.788764  0.576064  0.000000  1
  La  La3  1  0.000651  0.999349  0.000000  1
  La  La4  1  0.210866  0.424658  0.000000  1
  La  La5  1  0.423936  0.211236  0.000000  1
  La  La6  1  0.787606  0.212394  0.000000  1
  Er  Er7  1  0.001904  0.501090  0.500000  1
  Er  Er8  1  0.500058  0.499942  0.500000  1
  Er  Er9  1  0.498910  0.998096  0.500000  1
  Si  Si10  1  0.997144  0.778690  0.500000  1
  Si  Si11  1  0.999684  0.223262  0.500000  1
  Si  Si12  1  0.223475  0.224724  0.500000  1
  Si  Si13  1  0.776738  0.000316  0.500000  1
  Si  Si14  1  0.336545  0.663455  0.500000  1
  Si  Si15  1  0.221310  0.002856  0.500000  1
  Si  Si16  1  0.667172  0.332828  0.500000  1
  Si  Si17  1  0.775276  0.776525  0.500000  1
  O  O18  1  0.996093  0.494682  0.000000  1
  O  O19  1  0.500451  0.499549  0.000000  1
  O  O20  1  0.505318  0.003907  0.000000  1
