# generated using pymatgen
data_Dy13Tm3In3AgRh4
_symmetry_space_group_name_H-M   'P 1'
_cell_length_a   9.60250457
_cell_length_b   9.60046107
_cell_length_c   9.59369822
_cell_angle_alpha   59.97657133
_cell_angle_beta   59.96994755
_cell_angle_gamma   59.99330222
_symmetry_Int_Tables_number   1
_chemical_formula_structural   Dy13Tm3In3AgRh4
_chemical_formula_sum   'Dy13 Tm3 In3 Ag1 Rh4'
_cell_volume   625.10078242
_cell_formula_units_Z   1
loop_
 _symmetry_equiv_pos_site_id
 _symmetry_equiv_pos_as_xyz
  1  'x, y, z'
loop_
 _atom_site_type_symbol
 _atom_site_label
 _atom_site_symmetry_multiplicity
 _atom_site_fract_x
 _atom_site_fract_y
 _atom_site_fract_z
 _atom_site_occupancy
  Dy  Dy0  1  0.937482  0.937564  0.556943  1
  Dy  Dy1  1  0.149888  0.148909  0.551303  1
  Dy  Dy2  1  0.568023  0.937569  0.556941  1
  Dy  Dy3  1  0.150933  0.149495  0.149385  1
  Dy  Dy4  1  0.310199  0.311137  0.689321  1
  Dy  Dy5  1  0.938242  0.567004  0.556514  1
  Dy  Dy6  1  0.563969  0.563593  0.936366  1
  Dy  Dy7  1  0.564208  0.935965  0.935627  1
  Dy  Dy8  1  0.936079  0.563597  0.936364  1
  Dy  Dy9  1  0.149701  0.552080  0.148515  1
  Dy  Dy10  1  0.310391  0.689690  0.689537  1
  Dy  Dy11  1  0.689345  0.311137  0.689331  1
  Dy  Dy12  1  0.550204  0.149486  0.149381  1
  Tm  Tm13  1  0.687701  0.313407  0.311183  1
  Tm  Tm14  1  0.687444  0.687687  0.312047  1
  Tm  Tm15  1  0.312837  0.687668  0.312049  1
  In  In16  1  0.244827  0.917175  0.921555  1
  In  In17  1  0.916353  0.244965  0.922342  1
  In  In18  1  0.916447  0.917177  0.921552  1
  Ag  Ag19  1  0.916458  0.916015  0.251078  1
  Rh  Rh20  1  0.357752  0.357988  0.357909  1
  Rh  Rh21  1  0.926238  0.358069  0.357909  1
  Rh  Rh22  1  0.357079  0.357113  0.928744  1
  Rh  Rh23  1  0.358198  0.925510  0.358102  1
