# generated using pymatgen
data_Ta12Al8Co3IrN4
_symmetry_space_group_name_H-M   'P 1'
_cell_length_a   8.19711296
_cell_length_b   8.19711209
_cell_length_c   8.19711186
_cell_angle_alpha   59.86300114
_cell_angle_beta   59.86299819
_cell_angle_gamma   59.86300611
_symmetry_Int_Tables_number   1
_chemical_formula_structural   Ta12Al8Co3IrN4
_chemical_formula_sum   'Ta12 Al8 Co3 Ir1 N4'
_cell_volume   388.25355260
_cell_formula_units_Z   1
loop_
 _symmetry_equiv_pos_site_id
 _symmetry_equiv_pos_as_xyz
  1  'x, y, z'
loop_
 _atom_site_type_symbol
 _atom_site_label
 _atom_site_symmetry_multiplicity
 _atom_site_fract_x
 _atom_site_fract_y
 _atom_site_fract_z
 _atom_site_occupancy
  Ta  Ta0  1  0.811990  0.811990  0.187745  1
  Ta  Ta1  1  0.062255  0.438010  0.438010  1
  Ta  Ta2  1  0.438810  0.061476  0.061476  1
  Ta  Ta3  1  0.061476  0.061476  0.438810  1
  Ta  Ta4  1  0.061476  0.438810  0.061476  1
  Ta  Ta5  1  0.438010  0.062255  0.438010  1
  Ta  Ta6  1  0.188524  0.811190  0.188524  1
  Ta  Ta7  1  0.187745  0.811990  0.811990  1
  Ta  Ta8  1  0.811190  0.188524  0.188524  1
  Ta  Ta9  1  0.811990  0.187745  0.811990  1
  Ta  Ta10  1  0.438010  0.438010  0.062255  1
  Ta  Ta11  1  0.188524  0.188524  0.811190  1
  Al  Al12  1  0.413728  0.746908  0.413728  1
  Al  Al13  1  0.836272  0.836272  0.503092  1
  Al  Al14  1  0.503092  0.836272  0.836272  1
  Al  Al15  1  0.832729  0.832729  0.832729  1
  Al  Al16  1  0.746908  0.413728  0.413728  1
  Al  Al17  1  0.417271  0.417271  0.417271  1
  Al  Al18  1  0.413728  0.413728  0.746908  1
  Al  Al19  1  0.836272  0.503092  0.836272  1
  Co  Co20  1  0.625000  0.125000  0.625000  1
  Co  Co21  1  0.625000  0.625000  0.125000  1
  Co  Co22  1  0.125000  0.625000  0.625000  1
  Ir  Ir23  1  0.625000  0.625000  0.625000  1
  N  N24  1  0.125000  0.625000  0.125000  1
  N  N25  1  0.125000  0.125000  0.625000  1
  N  N26  1  0.625000  0.125000  0.125000  1
  N  N27  1  0.125000  0.125000  0.125000  1
