# generated using pymatgen
data_Ta7Nb3(CoB)10
_symmetry_space_group_name_H-M   'P 1'
_cell_length_a   3.28160300
_cell_length_b   5.92505164
_cell_length_c   17.04358386
_cell_angle_alpha   89.94651888
_cell_angle_beta   90.00000000
_cell_angle_gamma   90.00000000
_symmetry_Int_Tables_number   1
_chemical_formula_structural   Ta7Nb3(CoB)10
_chemical_formula_sum   'Ta7 Nb3 Co10 B10'
_cell_volume   331.38962896
_cell_formula_units_Z   1
loop_
 _symmetry_equiv_pos_site_id
 _symmetry_equiv_pos_as_xyz
  1  'x, y, z'
loop_
 _atom_site_type_symbol
 _atom_site_label
 _atom_site_symmetry_multiplicity
 _atom_site_fract_x
 _atom_site_fract_y
 _atom_site_fract_z
 _atom_site_occupancy
  Ta  Ta0  1  0.500000  0.528172  0.820708  1
  Ta  Ta1  1  0.000000  0.978099  0.375092  1
  Ta  Ta2  1  0.000000  0.977749  0.625036  1
  Ta  Ta3  1  0.500000  0.021960  0.124887  1
  Ta  Ta4  1  0.500000  0.021907  0.875217  1
  Ta  Ta5  1  0.000000  0.356178  0.500060  1
  Ta  Ta6  1  0.500000  0.643751  0.999848  1
  Nb  Nb7  1  0.000000  0.471893  0.320697  1
  Nb  Nb8  1  0.000000  0.471695  0.679080  1
  Nb  Nb9  1  0.500000  0.528065  0.179233  1
  Co  Co10  1  0.000000  0.856977  0.226343  1
  Co  Co11  1  0.000000  0.855754  0.774044  1
  Co  Co12  1  0.500000  0.142931  0.273791  1
  Co  Co13  1  0.500000  0.143281  0.726424  1
  Co  Co14  1  0.000000  0.349963  0.071181  1
  Co  Co15  1  0.000000  0.350698  0.928230  1
  Co  Co16  1  0.500000  0.650448  0.428743  1
  Co  Co17  1  0.500000  0.650450  0.571190  1
  Co  Co18  1  0.000000  0.992241  0.999920  1
  Co  Co19  1  0.500000  0.007515  0.500002  1
  B  B20  1  0.000000  0.229014  0.201907  1
  B  B21  1  0.000000  0.231673  0.798434  1
  B  B22  1  0.500000  0.770782  0.298042  1
  B  B23  1  0.500000  0.769408  0.702098  1
  B  B24  1  0.000000  0.730786  0.100411  1
  B  B25  1  0.000000  0.729989  0.899164  1
  B  B26  1  0.500000  0.269539  0.399552  1
  B  B27  1  0.500000  0.269251  0.600496  1
  B  B28  1  0.000000  0.768008  0.500069  1
  B  B29  1  0.500000  0.231823  0.000099  1
