# generated using pymatgen
data_La2Nd14Cd4Ir3Au
_symmetry_space_group_name_H-M   'P 1'
_cell_length_a   10.02336127
_cell_length_b   10.02336137
_cell_length_c   10.02498604
_cell_angle_alpha   60.24276702
_cell_angle_beta   60.24275637
_cell_angle_gamma   60.17370605
_symmetry_Int_Tables_number   1
_chemical_formula_structural   La2Nd14Cd4Ir3Au
_chemical_formula_sum   'La2 Nd14 Cd4 Ir3 Au1'
_cell_volume   715.73205569
_cell_formula_units_Z   1
loop_
 _symmetry_equiv_pos_site_id
 _symmetry_equiv_pos_as_xyz
  1  'x, y, z'
loop_
 _atom_site_type_symbol
 _atom_site_label
 _atom_site_symmetry_multiplicity
 _atom_site_fract_x
 _atom_site_fract_y
 _atom_site_fract_z
 _atom_site_occupancy
  La  La0  1  0.344619  0.344619  0.346175  1
  La  La1  1  0.356053  0.356053  0.947227  1
  Nd  Nd2  1  0.355967  0.944489  0.356390  1
  Nd  Nd3  1  0.944489  0.355967  0.356390  1
  Nd  Nd4  1  0.800893  0.191128  0.190373  1
  Nd  Nd5  1  0.188937  0.811251  0.809799  1
  Nd  Nd6  1  0.191128  0.800893  0.190373  1
  Nd  Nd7  1  0.811251  0.188937  0.809799  1
  Nd  Nd8  1  0.190209  0.190209  0.801438  1
  Nd  Nd9  1  0.810491  0.810491  0.188747  1
  Nd  Nd10  1  0.939246  0.563545  0.563878  1
  Nd  Nd11  1  0.563905  0.938533  0.938886  1
  Nd  Nd12  1  0.563545  0.939246  0.563878  1
  Nd  Nd13  1  0.938533  0.563905  0.938886  1
  Nd  Nd14  1  0.564201  0.564201  0.938913  1
  Nd  Nd15  1  0.938862  0.938862  0.564008  1
  Cd  Cd16  1  0.581671  0.581671  0.579648  1
  Cd  Cd17  1  0.580007  0.580007  0.259256  1
  Cd  Cd18  1  0.580617  0.258839  0.579230  1
  Cd  Cd19  1  0.258839  0.580617  0.579230  1
  Ir  Ir20  1  0.140647  0.140647  0.572306  1
  Ir  Ir21  1  0.140800  0.572565  0.140173  1
  Ir  Ir22  1  0.572565  0.140800  0.140173  1
  Au  Au23  1  0.142526  0.142526  0.144825  1
