# generated using pymatgen
data_Tb4Zn2OsRu5
_symmetry_space_group_name_H-M   'P 1'
_cell_length_a   5.34809901
_cell_length_b   5.27939762
_cell_length_c   8.89104900
_cell_angle_alpha   90.00000000
_cell_angle_beta   90.00000000
_cell_angle_gamma   119.06227902
_symmetry_Int_Tables_number   1
_chemical_formula_structural   Tb4Zn2OsRu5
_chemical_formula_sum   'Tb4 Zn2 Os1 Ru5'
_cell_volume   219.42902167
_cell_formula_units_Z   1
loop_
 _symmetry_equiv_pos_site_id
 _symmetry_equiv_pos_as_xyz
  1  'x, y, z'
loop_
 _atom_site_type_symbol
 _atom_site_label
 _atom_site_symmetry_multiplicity
 _atom_site_fract_x
 _atom_site_fract_y
 _atom_site_fract_z
 _atom_site_occupancy
  Tb  Tb0  1  0.325157  0.664848  0.431088  1
  Tb  Tb1  1  0.658176  0.329970  0.558461  1
  Tb  Tb2  1  0.658176  0.329970  0.941539  1
  Tb  Tb3  1  0.325157  0.664848  0.068912  1
  Zn  Zn4  1  0.185081  0.838030  0.750000  1
  Zn  Zn5  1  0.182224  0.345343  0.750000  1
  Os  Os6  1  0.840134  0.161033  0.250000  1
  Ru  Ru7  1  0.976809  0.996996  0.499526  1
  Ru  Ru8  1  0.976809  0.996996  0.000474  1
  Ru  Ru9  1  0.829954  0.658311  0.250000  1
  Ru  Ru10  1  0.355967  0.174610  0.250000  1
  Ru  Ru11  1  0.686359  0.839043  0.750000  1
