# generated using pymatgen
data_LiEu4(Si2Pt)5
_symmetry_space_group_name_H-M   'P 1'
_cell_length_a   8.38023526
_cell_length_b   8.38023549
_cell_length_c   8.38023581
_cell_angle_alpha   137.99021760
_cell_angle_beta   105.45042369
_cell_angle_gamma   89.45940485
_symmetry_Int_Tables_number   1
_chemical_formula_structural   LiEu4(Si2Pt)5
_chemical_formula_sum   'Li1 Eu4 Si10 Pt5'
_cell_volume   363.07130137
_cell_formula_units_Z   1
loop_
 _symmetry_equiv_pos_site_id
 _symmetry_equiv_pos_as_xyz
  1  'x, y, z'
loop_
 _atom_site_type_symbol
 _atom_site_label
 _atom_site_symmetry_multiplicity
 _atom_site_fract_x
 _atom_site_fract_y
 _atom_site_fract_z
 _atom_site_occupancy
  Li  Li0  1  0.500000  0.750000  0.250000  1
  Eu  Eu1  1  0.109140  0.869396  0.232185  1
  Eu  Eu2  1  0.890860  0.123044  0.760256  1
  Eu  Eu3  1  0.637212  0.376956  0.267815  1
  Eu  Eu4  1  0.362788  0.630604  0.739744  1
  Si  Si5  1  0.000000  0.750000  0.750000  1
  Si  Si6  1  0.000000  0.250000  0.250000  1
  Si  Si7  1  0.271175  0.021175  0.750000  1
  Si  Si8  1  0.728825  0.478825  0.750000  1
  Si  Si9  1  0.730325  0.980325  0.250000  1
  Si  Si10  1  0.269675  0.519675  0.250000  1
  Si  Si11  1  0.765157  0.610547  0.143558  1
  Si  Si12  1  0.234843  0.378401  0.845390  1
  Si  Si13  1  0.466989  0.121599  0.356442  1
  Si  Si14  1  0.533011  0.889453  0.654610  1
  Pt  Pt15  1  0.500000  0.250000  0.750000  1
  Pt  Pt16  1  0.024743  0.634349  0.387345  1
  Pt  Pt17  1  0.975257  0.362602  0.609606  1
  Pt  Pt18  1  0.247005  0.137398  0.112655  1
  Pt  Pt19  1  0.752995  0.865651  0.890394  1
