# generated using pymatgen
data_TiSi4Mo3Ir4
_symmetry_space_group_name_H-M   'P 1'
_cell_length_a   3.87076200
_cell_length_b   6.25657806
_cell_length_c   7.17863455
_cell_angle_alpha   89.81461813
_cell_angle_beta   90.00000000
_cell_angle_gamma   90.00000000
_symmetry_Int_Tables_number   1
_chemical_formula_structural   TiSi4Mo3Ir4
_chemical_formula_sum   'Ti1 Si4 Mo3 Ir4'
_cell_volume   173.84928437
_cell_formula_units_Z   1
loop_
 _symmetry_equiv_pos_site_id
 _symmetry_equiv_pos_as_xyz
  1  'x, y, z'
loop_
 _atom_site_type_symbol
 _atom_site_label
 _atom_site_symmetry_multiplicity
 _atom_site_fract_x
 _atom_site_fract_y
 _atom_site_fract_z
 _atom_site_occupancy
  Ti  Ti0  1  0.750000  0.473866  0.322855  1
  Si  Si1  1  0.250000  0.766293  0.378167  1
  Si  Si2  1  0.250000  0.257482  0.120191  1
  Si  Si3  1  0.750000  0.235014  0.625913  1
  Si  Si4  1  0.750000  0.738600  0.877965  1
  Mo  Mo5  1  0.250000  0.025835  0.828423  1
  Mo  Mo6  1  0.250000  0.526895  0.674635  1
  Mo  Mo7  1  0.750000  0.975095  0.168481  1
  Ir  Ir8  1  0.250000  0.150747  0.438330  1
  Ir  Ir9  1  0.250000  0.644499  0.065774  1
  Ir  Ir10  1  0.750000  0.852020  0.561007  1
  Ir  Ir11  1  0.750000  0.353653  0.938261  1
