# generated using pymatgen
data_MnBe5(SiRu2)6
_symmetry_space_group_name_H-M   'P 1'
_cell_length_a   4.08243900
_cell_length_b   5.76210400
_cell_length_c   12.22554000
_cell_angle_alpha   90.00000000
_cell_angle_beta   89.99937724
_cell_angle_gamma   90.00000000
_symmetry_Int_Tables_number   1
_chemical_formula_structural   MnBe5(SiRu2)6
_chemical_formula_sum   'Mn1 Be5 Si6 Ru12'
_cell_volume   287.58673332
_cell_formula_units_Z   1
loop_
 _symmetry_equiv_pos_site_id
 _symmetry_equiv_pos_as_xyz
  1  'x, y, z'
loop_
 _atom_site_type_symbol
 _atom_site_label
 _atom_site_symmetry_multiplicity
 _atom_site_fract_x
 _atom_site_fract_y
 _atom_site_fract_z
 _atom_site_occupancy
  Mn  Mn0  1  0.000000  0.500001  0.000000  1
  Be  Be1  1  0.499760  0.000000  0.167752  1
  Be  Be2  1  0.999681  0.500001  0.333085  1
  Be  Be3  1  0.500000  0.000000  0.500000  1
  Be  Be4  1  0.000320  0.500001  0.666915  1
  Be  Be5  1  0.500240  0.000000  0.832248  1
  Si  Si6  1  0.000000  0.000000  0.000000  1
  Si  Si7  1  0.499816  0.500001  0.167627  1
  Si  Si8  1  0.999740  0.000000  0.338236  1
  Si  Si9  1  0.500000  0.500001  0.500000  1
  Si  Si10  1  0.000261  0.000000  0.661764  1
  Si  Si11  1  0.500184  0.500001  0.832374  1
  Ru  Ru12  1  0.500000  0.245021  0.000000  1
  Ru  Ru13  1  0.500000  0.754979  0.000000  1
  Ru  Ru14  1  0.999840  0.246913  0.168998  1
  Ru  Ru15  1  0.999840  0.753087  0.168998  1
  Ru  Ru16  1  0.499800  0.249418  0.333508  1
  Ru  Ru17  1  0.499800  0.750583  0.333508  1
  Ru  Ru18  1  0.000000  0.252638  0.500000  1
  Ru  Ru19  1  0.000000  0.747362  0.500000  1
  Ru  Ru20  1  0.500201  0.249418  0.666492  1
  Ru  Ru21  1  0.500201  0.750583  0.666492  1
  Ru  Ru22  1  0.000160  0.246913  0.831002  1
  Ru  Ru23  1  0.000160  0.753087  0.831002  1
