# generated using pymatgen
data_Ba8NbRe(IrO10)2
_symmetry_space_group_name_H-M   'P 1'
_cell_length_a   5.80013100
_cell_length_b   7.53718831
_cell_length_c   11.73223295
_cell_angle_alpha   89.44545641
_cell_angle_beta   90.00000000
_cell_angle_gamma   90.00000000
_symmetry_Int_Tables_number   1
_chemical_formula_structural   Ba8NbRe(IrO10)2
_chemical_formula_sum   'Ba8 Nb1 Re1 Ir2 O20'
_cell_volume   512.87024613
_cell_formula_units_Z   1
loop_
 _symmetry_equiv_pos_site_id
 _symmetry_equiv_pos_as_xyz
  1  'x, y, z'
loop_
 _atom_site_type_symbol
 _atom_site_label
 _atom_site_symmetry_multiplicity
 _atom_site_fract_x
 _atom_site_fract_y
 _atom_site_fract_z
 _atom_site_occupancy
  Ba  Ba0  1  0.750000  0.484222  0.278105  1
  Ba  Ba1  1  0.250000  0.527257  0.718472  1
  Ba  Ba2  1  0.750000  0.980154  0.205867  1
  Ba  Ba3  1  0.250000  0.023721  0.796866  1
  Ba  Ba4  1  0.750000  0.163495  0.588909  1
  Ba  Ba5  1  0.250000  0.822354  0.413260  1
  Ba  Ba6  1  0.750000  0.658818  0.924056  1
  Ba  Ba7  1  0.250000  0.319014  0.074731  1
  Nb  Nb8  1  0.250000  0.814563  0.071932  1
  Re  Re9  1  0.250000  0.325621  0.438741  1
  Ir  Ir10  1  0.750000  0.169948  0.936616  1
  Ir  Ir11  1  0.750000  0.669952  0.558339  1
  O  O12  1  0.482364  0.180690  0.391140  1
  O  O13  1  0.990233  0.821628  0.608349  1
  O  O14  1  0.000422  0.672127  0.123253  1
  O  O15  1  0.508301  0.323613  0.881402  1
  O  O16  1  0.509767  0.821628  0.608349  1
  O  O17  1  0.017636  0.180690  0.391140  1
  O  O18  1  0.991699  0.323613  0.881402  1
  O  O19  1  0.499578  0.672127  0.123253  1
  O  O20  1  0.495237  0.497060  0.498293  1
  O  O21  1  0.004763  0.497060  0.498293  1
  O  O22  1  0.991500  0.006850  0.998518  1
  O  O23  1  0.508500  0.006850  0.998518  1
  O  O24  1  0.750000  0.290550  0.088417  1
  O  O25  1  0.250000  0.721858  0.909032  1
  O  O26  1  0.750000  0.781959  0.404221  1
  O  O27  1  0.250000  0.228308  0.590118  1
  O  O28  1  0.750000  0.033474  0.798165  1
  O  O29  1  0.250000  0.982570  0.198330  1
  O  O30  1  0.750000  0.530663  0.694661  1
  O  O31  1  0.250000  0.467560  0.309252  1
