# generated using pymatgen
data_Cs6DyHoI12
_symmetry_space_group_name_H-M   'P 1'
_cell_length_a   10.66655001
_cell_length_b   10.66776701
_cell_length_c   8.82964200
_cell_angle_alpha   90.00000000
_cell_angle_beta   90.00000000
_cell_angle_gamma   89.99441392
_symmetry_Int_Tables_number   1
_chemical_formula_structural   Cs6DyHoI12
_chemical_formula_sum   'Cs6 Dy1 Ho1 I12'
_cell_volume   1004.70968634
_cell_formula_units_Z   1
loop_
 _symmetry_equiv_pos_site_id
 _symmetry_equiv_pos_as_xyz
  1  'x, y, z'
loop_
 _atom_site_type_symbol
 _atom_site_label
 _atom_site_symmetry_multiplicity
 _atom_site_fract_x
 _atom_site_fract_y
 _atom_site_fract_z
 _atom_site_occupancy
  Cs  Cs0  1  0.000000  0.000000  0.500000  1
  Cs  Cs1  1  0.000000  0.000000  0.000000  1
  Cs  Cs2  1  0.233277  0.587046  0.500000  1
  Cs  Cs3  1  0.766723  0.412954  0.500000  1
  Cs  Cs4  1  0.412948  0.233255  0.000000  1
  Cs  Cs5  1  0.587052  0.766745  0.000000  1
  Dy  Dy6  1  0.500000  0.000000  0.500000  1
  Ho  Ho7  1  0.000000  0.500000  0.000000  1
  I  I8  1  0.694662  0.059453  0.744103  1
  I  I9  1  0.305338  0.940547  0.744103  1
  I  I10  1  0.940605  0.694449  0.243844  1
  I  I11  1  0.059395  0.305551  0.243844  1
  I  I12  1  0.305338  0.940547  0.255897  1
  I  I13  1  0.694662  0.059453  0.255897  1
  I  I14  1  0.059395  0.305551  0.756156  1
  I  I15  1  0.940605  0.694449  0.756156  1
  I  I16  1  0.570863  0.724439  0.500000  1
  I  I17  1  0.429137  0.275561  0.500000  1
  I  I18  1  0.275244  0.570782  0.000000  1
  I  I19  1  0.724756  0.429218  0.000000  1
