# generated using pymatgen
data_TbY7Hf12Si15Au
_symmetry_space_group_name_H-M   'P 1'
_cell_length_a   7.29193464
_cell_length_b   7.32957377
_cell_length_c   13.42784006
_cell_angle_alpha   89.93135356
_cell_angle_beta   89.95821151
_cell_angle_gamma   89.99717217
_symmetry_Int_Tables_number   1
_chemical_formula_structural   TbY7Hf12Si15Au
_chemical_formula_sum   'Tb1 Y7 Hf12 Si15 Au1'
_cell_volume   717.67401101
_cell_formula_units_Z   1
loop_
 _symmetry_equiv_pos_site_id
 _symmetry_equiv_pos_as_xyz
  1  'x, y, z'
loop_
 _atom_site_type_symbol
 _atom_site_label
 _atom_site_symmetry_multiplicity
 _atom_site_fract_x
 _atom_site_fract_y
 _atom_site_fract_z
 _atom_site_occupancy
  Tb  Tb0  1  0.662255  0.997187  0.283635  1
  Y  Y1  1  0.991536  0.346737  0.213989  1
  Y  Y2  1  0.004229  0.655433  0.715384  1
  Y  Y3  1  0.154616  0.498934  0.467061  1
  Y  Y4  1  0.504351  0.842839  0.033398  1
  Y  Y5  1  0.843957  0.502666  0.964891  1
  Y  Y6  1  0.497406  0.154106  0.537658  1
  Y  Y7  1  0.343080  0.997656  0.784851  1
  Hf  Hf8  1  0.174920  0.176382  0.998848  1
  Hf  Hf9  1  0.826258  0.825200  0.500545  1
  Hf  Hf10  1  0.325349  0.680397  0.249216  1
  Hf  Hf11  1  0.675418  0.324576  0.750211  1
  Hf  Hf12  1  0.146741  0.996722  0.374748  1
  Hf  Hf13  1  0.851079  0.003831  0.874509  1
  Hf  Hf14  1  0.504714  0.650145  0.624919  1
  Hf  Hf15  1  0.351126  0.495295  0.874934  1
  Hf  Hf16  1  0.494973  0.350417  0.121725  1
  Hf  Hf17  1  0.652130  0.509958  0.380054  1
  Hf  Hf18  1  0.995724  0.148643  0.626538  1
  Hf  Hf19  1  0.001629  0.849445  0.123693  1
  Si  Si20  1  0.637426  0.705845  0.817995  1
  Si  Si21  1  0.204809  0.863078  0.567898  1
  Si  Si22  1  0.137535  0.795622  0.932173  1
  Si  Si23  1  0.795337  0.137273  0.066351  1
  Si  Si24  1  0.860586  0.201094  0.435038  1
  Si  Si25  1  0.295703  0.363088  0.682939  1
  Si  Si26  1  0.704483  0.638135  0.181784  1
  Si  Si27  1  0.292345  0.045143  0.181916  1
  Si  Si28  1  0.705360  0.950806  0.685836  1
  Si  Si29  1  0.448819  0.794794  0.435749  1
  Si  Si30  1  0.204775  0.549701  0.063770  1
  Si  Si31  1  0.548690  0.204708  0.934608  1
  Si  Si32  1  0.794651  0.450046  0.566572  1
  Si  Si33  1  0.048075  0.295523  0.814940  1
  Si  Si34  1  0.951718  0.704547  0.313488  1
  Au  Au35  1  0.368199  0.294029  0.318135  1
