# generated using pymatgen
data_PrCd(CuPd)2
_symmetry_space_group_name_H-M   'P 1'
_cell_length_a   5.32015709
_cell_length_b   5.56127732
_cell_length_c   5.32015589
_cell_angle_alpha   58.48907742
_cell_angle_beta   58.60657253
_cell_angle_gamma   58.48907299
_symmetry_Int_Tables_number   1
_chemical_formula_structural   PrCd(CuPd)2
_chemical_formula_sum   'Pr1 Cd1 Cu2 Pd2'
_cell_volume   107.55632818
_cell_formula_units_Z   1
loop_
 _symmetry_equiv_pos_site_id
 _symmetry_equiv_pos_as_xyz
  1  'x, y, z'
loop_
 _atom_site_type_symbol
 _atom_site_label
 _atom_site_symmetry_multiplicity
 _atom_site_fract_x
 _atom_site_fract_y
 _atom_site_fract_z
 _atom_site_occupancy
  Pr  Pr0  1  0.749621  0.750379  0.749621  1
  Cd  Cd1  1  0.991990  0.008010  0.991990  1
  Cu  Cu2  1  0.877220  0.371091  0.380600  1
  Cu  Cu3  1  0.380600  0.371091  0.877220  1
  Pd  Pd4  1  0.375285  0.876579  0.375285  1
  Pd  Pd5  1  0.375285  0.372851  0.375285  1
