# generated using pymatgen
data_La8GaCuPd23
_symmetry_space_group_name_H-M   'P 1'
_cell_length_a   8.51788600
_cell_length_b   8.56466800
_cell_length_c   8.56466800
_cell_angle_alpha   90.00000000
_cell_angle_beta   90.00000000
_cell_angle_gamma   90.00000000
_symmetry_Int_Tables_number   1
_chemical_formula_structural   La8GaCuPd23
_chemical_formula_sum   'La8 Ga1 Cu1 Pd23'
_cell_volume   624.81707396
_cell_formula_units_Z   1
loop_
 _symmetry_equiv_pos_site_id
 _symmetry_equiv_pos_as_xyz
  1  'x, y, z'
loop_
 _atom_site_type_symbol
 _atom_site_label
 _atom_site_symmetry_multiplicity
 _atom_site_fract_x
 _atom_site_fract_y
 _atom_site_fract_z
 _atom_site_occupancy
  La  La0  1  0.249871  0.253702  0.253702  1
  La  La1  1  0.746426  0.747341  0.747341  1
  La  La2  1  0.746426  0.747341  0.252659  1
  La  La3  1  0.746426  0.252659  0.747341  1
  La  La4  1  0.249871  0.253702  0.746298  1
  La  La5  1  0.249871  0.746298  0.253702  1
  La  La6  1  0.249871  0.746298  0.746298  1
  La  La7  1  0.746426  0.252659  0.252659  1
  Ga  Ga8  1  0.017247  0.000000  0.000000  1
  Cu  Cu9  1  0.324847  0.000000  0.000000  1
  Pd  Pd10  1  0.259162  0.500000  0.000000  1
  Pd  Pd11  1  0.736679  0.500000  0.000000  1
  Pd  Pd12  1  0.998455  0.260036  0.500000  1
  Pd  Pd13  1  0.496538  0.258051  0.000000  1
  Pd  Pd14  1  0.998455  0.739964  0.500000  1
  Pd  Pd15  1  0.496538  0.741949  0.000000  1
  Pd  Pd16  1  0.496538  0.000000  0.258051  1
  Pd  Pd17  1  0.259162  0.000000  0.500000  1
  Pd  Pd18  1  0.496538  0.000000  0.741949  1
  Pd  Pd19  1  0.736679  0.000000  0.500000  1
  Pd  Pd20  1  0.998455  0.500000  0.260036  1
  Pd  Pd21  1  0.998455  0.500000  0.739964  1
  Pd  Pd22  1  0.252760  0.500000  0.500000  1
  Pd  Pd23  1  0.745213  0.500000  0.500000  1
  Pd  Pd24  1  0.498765  0.252554  0.500000  1
  Pd  Pd25  1  0.498765  0.747446  0.500000  1
  Pd  Pd26  1  0.498765  0.500000  0.252554  1
  Pd  Pd27  1  0.498765  0.500000  0.747446  1
  Pd  Pd28  1  0.714611  0.000000  0.000000  1
  Pd  Pd29  1  0.998354  0.292798  0.000000  1
  Pd  Pd30  1  0.998354  0.707202  0.000000  1
  Pd  Pd31  1  0.998354  0.000000  0.292798  1
  Pd  Pd32  1  0.998354  0.000000  0.707202  1
