# generated using pymatgen
data_Pr2GeRhBr
_symmetry_space_group_name_H-M   'P 1'
_cell_length_a   4.38136300
_cell_length_b   4.38136081
_cell_length_c   16.23805400
_cell_angle_alpha   90.00000000
_cell_angle_beta   90.00000000
_cell_angle_gamma   119.99999387
_symmetry_Int_Tables_number   1
_chemical_formula_structural   Pr2GeRhBr
_chemical_formula_sum   'Pr4 Ge2 Rh2 Br2'
_cell_volume   269.94972888
_cell_formula_units_Z   2
loop_
 _symmetry_equiv_pos_site_id
 _symmetry_equiv_pos_as_xyz
  1  'x, y, z'
loop_
 _atom_site_type_symbol
 _atom_site_label
 _atom_site_symmetry_multiplicity
 _atom_site_fract_x
 _atom_site_fract_y
 _atom_site_fract_z
 _atom_site_occupancy
  Pr  Pr0  1  0.000000  0.000000  0.609853  1
  Pr  Pr1  1  0.000000  0.000000  0.393836  1
  Pr  Pr2  1  0.000000  0.000000  0.109853  1
  Pr  Pr3  1  0.000000  0.000000  0.893836  1
  Ge  Ge4  1  0.666667  0.333333  0.508015  1
  Ge  Ge5  1  0.333333  0.666667  0.008015  1
  Rh  Rh6  1  0.666667  0.333333  0.991888  1
  Rh  Rh7  1  0.333333  0.666667  0.491888  1
  Br  Br8  1  0.666667  0.333333  0.246409  1
  Br  Br9  1  0.333333  0.666667  0.746409  1
