# generated using pymatgen
data_Dy4Ho4Er4Co5Sn
_symmetry_space_group_name_H-M   'P 1'
_cell_length_a   8.23815596
_cell_length_b   8.23815683
_cell_length_c   8.23815545
_cell_angle_alpha   107.03163725
_cell_angle_beta   110.58447120
_cell_angle_gamma   110.82485398
_symmetry_Int_Tables_number   1
_chemical_formula_structural   Dy4Ho4Er4Co5Sn
_chemical_formula_sum   'Dy4 Ho4 Er4 Co5 Sn1'
_cell_volume   429.81183145
_cell_formula_units_Z   1
loop_
 _symmetry_equiv_pos_site_id
 _symmetry_equiv_pos_as_xyz
  1  'x, y, z'
loop_
 _atom_site_type_symbol
 _atom_site_label
 _atom_site_symmetry_multiplicity
 _atom_site_fract_x
 _atom_site_fract_y
 _atom_site_fract_z
 _atom_site_occupancy
  Dy  Dy0  1  0.193740  0.209839  0.403580  1
  Dy  Dy1  1  0.806260  0.790161  0.596420  1
  Dy  Dy2  1  0.193740  0.790161  0.983900  1
  Dy  Dy3  1  0.806260  0.209839  0.016100  1
  Ho  Ho4  1  0.475952  0.290691  0.185261  1
  Ho  Ho5  1  0.105428  0.290691  0.814739  1
  Ho  Ho6  1  0.894572  0.709309  0.185261  1
  Ho  Ho7  1  0.524048  0.709309  0.814739  1
  Er  Er8  1  0.306639  0.620760  0.314121  1
  Er  Er9  1  0.306639  0.992519  0.685879  1
  Er  Er10  1  0.693361  0.379240  0.685879  1
  Er  Er11  1  0.693361  0.007481  0.314121  1
  Co  Co12  1  0.500000  0.612134  0.112134  1
  Co  Co13  1  0.500000  0.387866  0.887866  1
  Co  Co14  1  0.377821  0.000000  0.377821  1
  Co  Co15  1  0.622179  0.000000  0.622179  1
  Co  Co16  1  0.000000  0.000000  0.000000  1
  Sn  Sn17  1  0.000000  0.500000  0.500000  1
