# generated using pymatgen
data_Tm10Ga3Bi2Os
_symmetry_space_group_name_H-M   'P 1'
_cell_length_a   8.63139446
_cell_length_b   8.63139447
_cell_length_c   8.71748403
_cell_angle_alpha   125.85654581
_cell_angle_beta   125.85654531
_cell_angle_gamma   79.44376471
_symmetry_Int_Tables_number   1
_chemical_formula_structural   Tm10Ga3Bi2Os
_chemical_formula_sum   'Tm10 Ga3 Bi2 Os1'
_cell_volume   413.78861517
_cell_formula_units_Z   1
loop_
 _symmetry_equiv_pos_site_id
 _symmetry_equiv_pos_as_xyz
  1  'x, y, z'
loop_
 _atom_site_type_symbol
 _atom_site_label
 _atom_site_symmetry_multiplicity
 _atom_site_fract_x
 _atom_site_fract_y
 _atom_site_fract_z
 _atom_site_occupancy
  Tm  Tm0  1  0.010233  0.005069  0.015303  1
  Tm  Tm1  1  0.494931  0.489767  0.984697  1
  Tm  Tm2  1  0.782575  0.297140  0.798420  1
  Tm  Tm3  1  0.202860  0.717425  0.201580  1
  Tm  Tm4  1  0.484155  0.998720  0.201580  1
  Tm  Tm5  1  0.305995  0.461182  0.500000  1
  Tm  Tm6  1  0.038818  0.194005  0.500000  1
  Tm  Tm7  1  0.501280  0.015845  0.798420  1
  Tm  Tm8  1  0.705511  0.516628  0.500000  1
  Tm  Tm9  1  0.983372  0.794489  0.500000  1
  Ga  Ga10  1  0.138272  0.644270  0.782543  1
  Ga  Ga11  1  0.855730  0.361728  0.217457  1
  Ga  Ga12  1  0.635623  0.864377  0.500000  1
  Bi  Bi13  1  0.244407  0.255593  0.000000  1
  Bi  Bi14  1  0.744407  0.755593  0.000000  1
  Os  Os15  1  0.371830  0.128170  0.500000  1
