# generated using pymatgen
data_HoEr3Tc3B16Os
_symmetry_space_group_name_H-M   'P 1'
_cell_length_a   3.57606100
_cell_length_b   5.95597031
_cell_length_c   11.52293500
_cell_angle_alpha   90.11067794
_cell_angle_beta   90.00000000
_cell_angle_gamma   90.00000000
_symmetry_Int_Tables_number   1
_chemical_formula_structural   HoEr3Tc3B16Os
_chemical_formula_sum   'Ho1 Er3 Tc3 B16 Os1'
_cell_volume   245.42553401
_cell_formula_units_Z   1
loop_
 _symmetry_equiv_pos_site_id
 _symmetry_equiv_pos_as_xyz
  1  'x, y, z'
loop_
 _atom_site_type_symbol
 _atom_site_label
 _atom_site_symmetry_multiplicity
 _atom_site_fract_x
 _atom_site_fract_y
 _atom_site_fract_z
 _atom_site_occupancy
  Ho  Ho0  1  0.000000  0.872901  0.849595  1
  Er  Er1  1  0.000000  0.629613  0.350628  1
  Er  Er2  1  0.000000  0.371238  0.648398  1
  Er  Er3  1  0.000000  0.127178  0.151254  1
  Tc  Tc4  1  0.000000  0.632231  0.087274  1
  Tc  Tc5  1  0.000000  0.367374  0.911915  1
  Tc  Tc6  1  0.000000  0.139195  0.409525  1
  B  B7  1  0.500000  0.788329  0.185367  1
  B  B8  1  0.500000  0.211175  0.814510  1
  B  B9  1  0.500000  0.288638  0.314458  1
  B  B10  1  0.500000  0.710606  0.685288  1
  B  B11  1  0.500000  0.864875  0.031727  1
  B  B12  1  0.500000  0.134840  0.968459  1
  B  B13  1  0.500000  0.365057  0.469643  1
  B  B14  1  0.500000  0.635916  0.530686  1
  B  B15  1  0.500000  0.886795  0.452704  1
  B  B16  1  0.500000  0.113294  0.547380  1
  B  B17  1  0.500000  0.386019  0.047510  1
  B  B18  1  0.500000  0.613007  0.952422  1
  B  B19  1  0.500000  0.975316  0.307631  1
  B  B20  1  0.500000  0.025190  0.692099  1
  B  B21  1  0.500000  0.478247  0.192854  1
  B  B22  1  0.500000  0.522117  0.807003  1
  Os  Os23  1  0.000000  0.860847  0.591669  1
