# generated using pymatgen
data_ErTh3(Sc3Ga4)2
_symmetry_space_group_name_H-M   'P 1'
_cell_length_a   7.37757094
_cell_length_b   7.65404759
_cell_length_c   14.54388563
_cell_angle_alpha   89.92418917
_cell_angle_beta   90.13685215
_cell_angle_gamma   90.11557580
_symmetry_Int_Tables_number   1
_chemical_formula_structural   ErTh3(Sc3Ga4)2
_chemical_formula_sum   'Er2 Th6 Sc12 Ga16'
_cell_volume   821.26346498
_cell_formula_units_Z   2
loop_
 _symmetry_equiv_pos_site_id
 _symmetry_equiv_pos_as_xyz
  1  'x, y, z'
loop_
 _atom_site_type_symbol
 _atom_site_label
 _atom_site_symmetry_multiplicity
 _atom_site_fract_x
 _atom_site_fract_y
 _atom_site_fract_z
 _atom_site_occupancy
  Er  Er0  1  0.509540  0.321079  0.405562  1
  Er  Er1  1  0.490460  0.678921  0.594438  1
  Th  Th2  1  0.010706  0.177716  0.096133  1
  Th  Th3  1  0.989294  0.822284  0.903867  1
  Th  Th4  1  0.489080  0.677221  0.905466  1
  Th  Th5  1  0.988203  0.821704  0.594480  1
  Th  Th6  1  0.510920  0.322779  0.094534  1
  Th  Th7  1  0.011797  0.178296  0.405520  1
  Sc  Sc8  1  0.165443  0.500922  0.747853  1
  Sc  Sc9  1  0.834557  0.499078  0.252147  1
  Sc  Sc10  1  0.337159  0.000980  0.251811  1
  Sc  Sc11  1  0.662841  0.999020  0.748189  1
  Sc  Sc12  1  0.329159  0.171531  0.623865  1
  Sc  Sc13  1  0.670841  0.828469  0.376135  1
  Sc  Sc14  1  0.172439  0.669905  0.376203  1
  Sc  Sc15  1  0.669496  0.827935  0.125444  1
  Sc  Sc16  1  0.827561  0.330095  0.623797  1
  Sc  Sc17  1  0.330504  0.172065  0.874556  1
  Sc  Sc18  1  0.828557  0.328990  0.873881  1
  Sc  Sc19  1  0.171443  0.671010  0.126119  1
  Ga  Ga20  1  0.031425  0.119322  0.749852  1
  Ga  Ga21  1  0.968575  0.880678  0.250148  1
  Ga  Ga22  1  0.470089  0.618847  0.251410  1
  Ga  Ga23  1  0.529911  0.381153  0.748590  1
  Ga  Ga24  1  0.288048  0.873128  0.748927  1
  Ga  Ga25  1  0.711952  0.126872  0.251073  1
  Ga  Ga26  1  0.215992  0.373941  0.251375  1
  Ga  Ga27  1  0.784008  0.626059  0.748625  1
  Ga  Ga28  1  0.165298  0.465539  0.541312  1
  Ga  Ga29  1  0.834702  0.534461  0.458688  1
  Ga  Ga30  1  0.343110  0.962728  0.459392  1
  Ga  Ga31  1  0.840145  0.539467  0.040526  1
  Ga  Ga32  1  0.656890  0.037272  0.540608  1
  Ga  Ga33  1  0.159855  0.460533  0.959474  1
  Ga  Ga34  1  0.660596  0.039138  0.959104  1
  Ga  Ga35  1  0.339404  0.960862  0.040896  1
