# generated using pymatgen
data_SmY3B4I5
_symmetry_space_group_name_H-M   'P 1'
_cell_length_a   9.66500312
_cell_length_b   9.66500367
_cell_length_c   9.81334607
_cell_angle_alpha   75.62444335
_cell_angle_beta   75.62444276
_cell_angle_gamma   25.69847743
_symmetry_Int_Tables_number   1
_chemical_formula_structural   SmY3B4I5
_chemical_formula_sum   'Sm1 Y3 B4 I5'
_cell_volume   384.40285917
_cell_formula_units_Z   1
loop_
 _symmetry_equiv_pos_site_id
 _symmetry_equiv_pos_as_xyz
  1  'x, y, z'
loop_
 _atom_site_type_symbol
 _atom_site_label
 _atom_site_symmetry_multiplicity
 _atom_site_fract_x
 _atom_site_fract_y
 _atom_site_fract_z
 _atom_site_occupancy
  Sm  Sm0  1  0.869841  0.869841  0.064145  1
  Y  Y1  1  0.503555  0.503555  0.756104  1
  Y  Y2  1  0.498470  0.498470  0.242514  1
  Y  Y3  1  0.130268  0.130268  0.934800  1
  B  B4  1  0.315931  0.687228  0.999022  1
  B  B5  1  0.687228  0.315931  0.999022  1
  B  B6  1  0.001570  0.001570  0.097354  1
  B  B7  1  0.001559  0.001559  0.900618  1
  I  I8  1  0.674608  0.674608  0.687721  1
  I  I9  1  0.327425  0.327425  0.317778  1
  I  I10  1  0.328078  0.328078  0.847964  1
  I  I11  1  0.673367  0.673367  0.144536  1
  I  I12  1  0.002398  0.002398  0.498623  1
