# generated using pymatgen
data_Li2AcLu2Al7
_symmetry_space_group_name_H-M   'P 1'
_cell_length_a   9.36471229
_cell_length_b   9.36471173
_cell_length_c   9.36471100
_cell_angle_alpha   34.39799715
_cell_angle_beta   34.39800211
_cell_angle_gamma   34.39799237
_symmetry_Int_Tables_number   1
_chemical_formula_structural   Li2AcLu2Al7
_chemical_formula_sum   'Li2 Ac1 Lu2 Al7'
_cell_volume   233.79501801
_cell_formula_units_Z   1
loop_
 _symmetry_equiv_pos_site_id
 _symmetry_equiv_pos_as_xyz
  1  'x, y, z'
loop_
 _atom_site_type_symbol
 _atom_site_label
 _atom_site_symmetry_multiplicity
 _atom_site_fract_x
 _atom_site_fract_y
 _atom_site_fract_z
 _atom_site_occupancy
  Li  Li0  1  0.664436  0.664436  0.664436  1
  Li  Li1  1  0.335564  0.335564  0.335564  1
  Ac  Ac2  1  0.000000  0.000000  0.000000  1
  Lu  Lu3  1  0.142295  0.142295  0.142295  1
  Lu  Lu4  1  0.857705  0.857705  0.857705  1
  Al  Al5  1  0.411549  0.411549  0.922025  1
  Al  Al6  1  0.922025  0.411549  0.411549  1
  Al  Al7  1  0.500000  0.500000  0.500000  1
  Al  Al8  1  0.588451  0.588451  0.077975  1
  Al  Al9  1  0.411549  0.922025  0.411549  1
  Al  Al10  1  0.077975  0.588451  0.588451  1
  Al  Al11  1  0.588451  0.077975  0.588451  1
