# generated using pymatgen
data_Tm3Pa3Co16(P6W)2
_symmetry_space_group_name_H-M   'P 1'
_cell_length_a   3.72515300
_cell_length_b   10.52099436
_cell_length_c   12.19488734
_cell_angle_alpha   89.93016593
_cell_angle_beta   90.00000000
_cell_angle_gamma   90.00000000
_symmetry_Int_Tables_number   1
_chemical_formula_structural   Tm3Pa3Co16(P6W)2
_chemical_formula_sum   'Tm3 Pa3 Co16 P12 W2'
_cell_volume   477.94549491
_cell_formula_units_Z   1
loop_
 _symmetry_equiv_pos_site_id
 _symmetry_equiv_pos_as_xyz
  1  'x, y, z'
loop_
 _atom_site_type_symbol
 _atom_site_label
 _atom_site_symmetry_multiplicity
 _atom_site_fract_x
 _atom_site_fract_y
 _atom_site_fract_z
 _atom_site_occupancy
  Tm  Tm0  1  0.500000  0.183040  0.205066  1
  Tm  Tm1  1  0.000000  0.681242  0.795286  1
  Tm  Tm2  1  0.000000  0.319124  0.794048  1
  Pa  Pa3  1  0.000000  0.499946  0.531587  1
  Pa  Pa4  1  0.500000  0.000676  0.471561  1
  Pa  Pa5  1  0.500000  0.822075  0.208203  1
  Co  Co6  1  0.500000  0.499416  0.696077  1
  Co  Co7  1  0.000000  0.994464  0.300377  1
  Co  Co8  1  0.000000  0.499370  0.985243  1
  Co  Co9  1  0.500000  0.000220  0.013303  1
  Co  Co10  1  0.500000  0.333571  0.988455  1
  Co  Co11  1  0.500000  0.667347  0.989169  1
  Co  Co12  1  0.000000  0.168703  0.009692  1
  Co  Co13  1  0.000000  0.834512  0.011576  1
  Co  Co14  1  0.500000  0.298231  0.432785  1
  Co  Co15  1  0.500000  0.698526  0.432022  1
  Co  Co16  1  0.000000  0.199336  0.566013  1
  Co  Co17  1  0.000000  0.800969  0.570946  1
  Co  Co18  1  0.500000  0.879566  0.710299  1
  Co  Co19  1  0.500000  0.121226  0.708770  1
  Co  Co20  1  0.000000  0.622010  0.288884  1
  Co  Co21  1  0.000000  0.378186  0.290882  1
  P  P22  1  0.500000  0.499882  0.876252  1
  P  P23  1  0.000000  0.004580  0.119573  1
  P  P24  1  0.500000  0.498782  0.349749  1
  P  P25  1  0.000000  0.999592  0.651750  1
  P  P26  1  0.500000  0.307648  0.617698  1
  P  P27  1  0.500000  0.692171  0.619001  1
  P  P28  1  0.000000  0.189821  0.380901  1
  P  P29  1  0.000000  0.805880  0.388791  1
  P  P30  1  0.500000  0.843531  0.892548  1
  P  P31  1  0.500000  0.158027  0.892023  1
  P  P32  1  0.000000  0.654344  0.103845  1
  P  P33  1  0.000000  0.343939  0.106481  1
  W  W34  1  0.500000  0.499587  0.155439  1
  W  W35  1  0.000000  0.000458  0.845705  1
