# generated using pymatgen
data_Hf3Zr3Si6OsRu5
_symmetry_space_group_name_H-M   'P 1'
_cell_length_a   7.63113746
_cell_length_b   7.63589477
_cell_length_c   7.62764450
_cell_angle_alpha   127.94665403
_cell_angle_beta   121.88843519
_cell_angle_gamma   81.73108479
_symmetry_Int_Tables_number   1
_chemical_formula_structural   Hf3Zr3Si6OsRu5
_chemical_formula_sum   'Hf3 Zr3 Si6 Os1 Ru5'
_cell_volume   286.51842203
_cell_formula_units_Z   1
loop_
 _symmetry_equiv_pos_site_id
 _symmetry_equiv_pos_as_xyz
  1  'x, y, z'
loop_
 _atom_site_type_symbol
 _atom_site_label
 _atom_site_symmetry_multiplicity
 _atom_site_fract_x
 _atom_site_fract_y
 _atom_site_fract_z
 _atom_site_occupancy
  Hf  Hf0  1  0.252768  0.835762  0.083470  1
  Hf  Hf1  1  0.052438  0.255622  0.703735  1
  Hf  Hf2  1  0.946425  0.651837  0.204742  1
  Zr  Zr3  1  0.470693  0.698150  0.728666  1
  Zr  Zr4  1  0.529396  0.258273  0.227918  1
  Zr  Zr5  1  0.746654  0.830178  0.582975  1
  Si  Si6  1  0.275840  0.266700  0.490006  1
  Si  Si7  1  0.725718  0.221529  0.996489  1
  Si  Si8  1  0.324889  0.587441  0.247901  1
  Si  Si9  1  0.673416  0.922922  0.261297  1
  Si  Si10  1  0.161088  0.922594  0.748819  1
  Si  Si11  1  0.840192  0.587292  0.762839  1
  Os  Os12  1  0.495108  0.499696  0.994818  1
  Ru  Ru13  1  0.005016  0.499327  0.504540  1
  Ru  Ru14  1  0.094865  0.254785  0.101581  1
  Ru  Ru15  1  0.905834  0.007061  0.160413  1
  Ru  Ru16  1  0.346656  0.006495  0.600393  1
  Ru  Ru17  1  0.653006  0.253937  0.659000  1
