# generated using pymatgen
data_TbEr11(GaCo2)2
_symmetry_space_group_name_H-M   'P 1'
_cell_length_a   8.22084471
_cell_length_b   8.22084524
_cell_length_c   8.20008909
_cell_angle_alpha   106.93132908
_cell_angle_beta   109.44447090
_cell_angle_gamma   112.17627926
_symmetry_Int_Tables_number   1
_chemical_formula_structural   TbEr11(GaCo2)2
_chemical_formula_sum   'Tb1 Er11 Ga2 Co4'
_cell_volume   425.20845808
_cell_formula_units_Z   1
loop_
 _symmetry_equiv_pos_site_id
 _symmetry_equiv_pos_as_xyz
  1  'x, y, z'
loop_
 _atom_site_type_symbol
 _atom_site_label
 _atom_site_symmetry_multiplicity
 _atom_site_fract_x
 _atom_site_fract_y
 _atom_site_fract_z
 _atom_site_occupancy
  Tb  Tb0  1  0.696745  0.263445  0.960190  1
  Er  Er1  1  0.301033  0.738027  0.039060  1
  Er  Er2  1  0.697714  0.738871  0.436586  1
  Er  Er3  1  0.301490  0.261021  0.562511  1
  Er  Er4  1  0.811631  0.136807  0.326911  1
  Er  Er5  1  0.810716  0.484589  0.672098  1
  Er  Er6  1  0.187509  0.861382  0.672098  1
  Er  Er7  1  0.190104  0.515280  0.326911  1
  Er  Er8  1  0.600528  0.780831  0.819886  1
  Er  Er9  1  0.961819  0.781134  0.180603  1
  Er  Er10  1  0.039056  0.219357  0.819886  1
  Er  Er11  1  0.399469  0.218784  0.180603  1
  Ga  Ga12  1  0.497226  0.502330  0.999556  1
  Ga  Ga13  1  0.498527  0.999368  0.497894  1
  Co  Co14  1  0.840752  0.500863  0.341615  1
  Co  Co15  1  0.162789  0.499207  0.661997  1
  Co  Co16  1  0.004801  0.114636  0.119437  1
  Co  Co17  1  0.998089  0.884070  0.882159  1
