# generated using pymatgen
data_Er3Zr5(Ta3Si4)4
_symmetry_space_group_name_H-M   'P 1'
_cell_length_a   6.92803490
_cell_length_b   6.92498866
_cell_length_c   12.83373534
_cell_angle_alpha   89.96703332
_cell_angle_beta   90.07589695
_cell_angle_gamma   89.87119182
_symmetry_Int_Tables_number   1
_chemical_formula_structural   Er3Zr5(Ta3Si4)4
_chemical_formula_sum   'Er3 Zr5 Ta12 Si16'
_cell_volume   615.71631497
_cell_formula_units_Z   1
loop_
 _symmetry_equiv_pos_site_id
 _symmetry_equiv_pos_as_xyz
  1  'x, y, z'
loop_
 _atom_site_type_symbol
 _atom_site_label
 _atom_site_symmetry_multiplicity
 _atom_site_fract_x
 _atom_site_fract_y
 _atom_site_fract_z
 _atom_site_occupancy
  Er  Er0  1  0.999258  0.660384  0.031130  1
  Er  Er1  1  0.001027  0.338729  0.530741  1
  Er  Er2  1  0.660522  0.999301  0.968914  1
  Zr  Zr3  1  0.160596  0.497997  0.781490  1
  Zr  Zr4  1  0.839600  0.501884  0.282122  1
  Zr  Zr5  1  0.497989  0.160840  0.218817  1
  Zr  Zr6  1  0.501655  0.840406  0.718210  1
  Zr  Zr7  1  0.342466  0.995737  0.468508  1
  Ta  Ta8  1  0.347337  0.506416  0.375732  1
  Ta  Ta9  1  0.844936  0.995793  0.373528  1
  Ta  Ta10  1  0.005563  0.154588  0.127956  1
  Ta  Ta11  1  0.994902  0.847259  0.625854  1
  Ta  Ta12  1  0.651889  0.493313  0.874471  1
  Ta  Ta13  1  0.504422  0.347786  0.623709  1
  Ta  Ta14  1  0.493530  0.652216  0.125576  1
  Ta  Ta15  1  0.154961  0.004716  0.872299  1
  Ta  Ta16  1  0.668188  0.671218  0.500181  1
  Ta  Ta17  1  0.829895  0.169822  0.749314  1
  Ta  Ta18  1  0.170581  0.830627  0.250936  1
  Ta  Ta19  1  0.330531  0.330591  0.000106  1
  Si  Si20  1  0.044206  0.704063  0.436170  1
  Si  Si21  1  0.957374  0.296988  0.936010  1
  Si  Si22  1  0.700171  0.043568  0.563588  1
  Si  Si23  1  0.202225  0.455478  0.187506  1
  Si  Si24  1  0.797962  0.543842  0.686967  1
  Si  Si25  1  0.455577  0.202170  0.812785  1
  Si  Si26  1  0.543279  0.798858  0.313434  1
  Si  Si27  1  0.297579  0.957320  0.063921  1
  Si  Si28  1  0.866365  0.792383  0.819006  1
  Si  Si29  1  0.135975  0.205735  0.321115  1
  Si  Si30  1  0.792279  0.866364  0.181178  1
  Si  Si31  1  0.294357  0.637669  0.572522  1
  Si  Si32  1  0.705655  0.364713  0.073034  1
  Si  Si33  1  0.633109  0.292912  0.426704  1
  Si  Si34  1  0.364728  0.705262  0.927063  1
  Si  Si35  1  0.209314  0.133053  0.679397  1
