# generated using pymatgen
data_KBr15
_symmetry_space_group_name_H-M   'P 1'
_cell_length_a   5.47424415
_cell_length_b   13.21534750
_cell_length_c   14.33963388
_cell_angle_alpha   49.94886277
_cell_angle_beta   105.08367680
_cell_angle_gamma   105.94455515
_symmetry_Int_Tables_number   1
_chemical_formula_structural   KBr15
_chemical_formula_sum   'K1 Br15'
_cell_volume   758.61378596
_cell_formula_units_Z   1
loop_
 _symmetry_equiv_pos_site_id
 _symmetry_equiv_pos_as_xyz
  1  'x, y, z'
loop_
 _atom_site_type_symbol
 _atom_site_label
 _atom_site_symmetry_multiplicity
 _atom_site_fract_x
 _atom_site_fract_y
 _atom_site_fract_z
 _atom_site_occupancy
  K  K0  1  0.370280  0.537076  0.952109  1
  Br  Br1  1  0.985876  0.454662  0.504081  1
  Br  Br2  1  0.326636  0.931018  0.551272  1
  Br  Br3  1  0.606770  0.010559  0.987724  1
  Br  Br4  1  0.975117  0.323806  0.331453  1
  Br  Br5  1  0.802608  0.219944  0.627963  1
  Br  Br6  1  0.911184  0.849497  0.179741  1
  Br  Br7  1  0.964294  0.738885  0.862985  1
  Br  Br8  1  0.964244  0.511659  0.117435  1
  Br  Br9  1  0.302072  0.879262  0.926513  1
  Br  Br10  1  0.379283  0.080822  0.306765  1
  Br  Br11  1  0.888033  0.453795  0.698173  1
  Br  Br12  1  0.754227  0.376089  0.890031  1
  Br  Br13  1  0.413601  0.214309  0.088344  1
  Br  Br14  1  0.129475  0.706901  0.619202  1
  Br  Br15  1  0.226299  0.711716  0.356211  1
