# generated using pymatgen
data_Ta3NbCo3Si4Ir
_symmetry_space_group_name_H-M   'P 1'
_cell_length_a   3.69951900
_cell_length_b   6.29380812
_cell_length_c   7.13609305
_cell_angle_alpha   90.39059660
_cell_angle_beta   90.00000000
_cell_angle_gamma   90.00000000
_symmetry_Int_Tables_number   1
_chemical_formula_structural   Ta3NbCo3Si4Ir
_chemical_formula_sum   'Ta3 Nb1 Co3 Si4 Ir1'
_cell_volume   166.15337698
_cell_formula_units_Z   1
loop_
 _symmetry_equiv_pos_site_id
 _symmetry_equiv_pos_as_xyz
  1  'x, y, z'
loop_
 _atom_site_type_symbol
 _atom_site_label
 _atom_site_symmetry_multiplicity
 _atom_site_fract_x
 _atom_site_fract_y
 _atom_site_fract_z
 _atom_site_occupancy
  Ta  Ta0  1  0.250000  0.975606  0.327876  1
  Ta  Ta1  1  0.750000  0.016919  0.676682  1
  Ta  Ta2  1  0.250000  0.479524  0.179895  1
  Nb  Nb3  1  0.750000  0.527220  0.820037  1
  Co  Co4  1  0.250000  0.856061  0.935765  1
  Co  Co5  1  0.250000  0.359703  0.559460  1
  Co  Co6  1  0.750000  0.641642  0.436601  1
  Si  Si7  1  0.250000  0.231919  0.866823  1
  Si  Si8  1  0.250000  0.723081  0.620153  1
  Si  Si9  1  0.750000  0.767133  0.121928  1
  Si  Si10  1  0.750000  0.277952  0.390072  1
  Ir  Ir11  1  0.750000  0.143238  0.064710  1
