# generated using pymatgen
data_Tb7Y3Si5As
_symmetry_space_group_name_H-M   'P 1'
_cell_length_a   8.48236500
_cell_length_b   8.49485280
_cell_length_c   6.36732500
_cell_angle_alpha   90.00000000
_cell_angle_beta   90.00000000
_cell_angle_gamma   119.95137938
_symmetry_Int_Tables_number   1
_chemical_formula_structural   Tb7Y3Si5As
_chemical_formula_sum   'Tb7 Y3 Si5 As1'
_cell_volume   397.53285756
_cell_formula_units_Z   1
loop_
 _symmetry_equiv_pos_site_id
 _symmetry_equiv_pos_as_xyz
  1  'x, y, z'
loop_
 _atom_site_type_symbol
 _atom_site_label
 _atom_site_symmetry_multiplicity
 _atom_site_fract_x
 _atom_site_fract_y
 _atom_site_fract_z
 _atom_site_occupancy
  Tb  Tb0  1  0.996738  0.753322  0.750000  1
  Tb  Tb1  1  0.757600  0.000000  0.750000  1
  Tb  Tb2  1  0.243415  0.246678  0.750000  1
  Tb  Tb3  1  0.333043  0.664091  0.498941  1
  Tb  Tb4  1  0.668952  0.335909  0.001059  1
  Tb  Tb5  1  0.668952  0.335909  0.498941  1
  Tb  Tb6  1  0.333043  0.664091  0.001059  1
  Y  Y7  1  0.000206  0.244357  0.250000  1
  Y  Y8  1  0.755850  0.755643  0.250000  1
  Y  Y9  1  0.243882  0.000000  0.250000  1
  Si  Si10  1  0.393414  0.392286  0.250000  1
  Si  Si11  1  0.001130  0.607714  0.250000  1
  Si  Si12  1  0.999746  0.393513  0.750000  1
  Si  Si13  1  0.606234  0.606487  0.750000  1
  Si  Si14  1  0.607710  0.000000  0.250000  1
  As  As15  1  0.390085  0.000000  0.750000  1
