# generated using pymatgen
data_Lu3U5(B6W)4
_symmetry_space_group_name_H-M   'P 1'
_cell_length_a   3.61184300
_cell_length_b   9.34315311
_cell_length_c   11.45126836
_cell_angle_alpha   89.94415794
_cell_angle_beta   90.00000000
_cell_angle_gamma   90.00000000
_symmetry_Int_Tables_number   1
_chemical_formula_structural   Lu3U5(B6W)4
_chemical_formula_sum   'Lu3 U5 B24 W4'
_cell_volume   386.43434322
_cell_formula_units_Z   1
loop_
 _symmetry_equiv_pos_site_id
 _symmetry_equiv_pos_as_xyz
  1  'x, y, z'
loop_
 _atom_site_type_symbol
 _atom_site_label
 _atom_site_symmetry_multiplicity
 _atom_site_fract_x
 _atom_site_fract_y
 _atom_site_fract_z
 _atom_site_occupancy
  Lu  Lu0  1  0.000000  0.337169  0.408038  1
  Lu  Lu1  1  0.000000  0.662877  0.591333  1
  Lu  Lu2  1  0.000000  0.835549  0.092922  1
  U  U3  1  0.000000  0.163448  0.907085  1
  U  U4  1  0.000000  0.956202  0.396332  1
  U  U5  1  0.000000  0.043350  0.603277  1
  U  U6  1  0.000000  0.457118  0.104180  1
  U  U7  1  0.000000  0.544675  0.896644  1
  B  B8  1  0.500000  0.549430  0.433351  1
  B  B9  1  0.500000  0.449943  0.567729  1
  B  B10  1  0.500000  0.051409  0.066028  1
  B  B11  1  0.500000  0.951106  0.931439  1
  B  B12  1  0.500000  0.743165  0.425561  1
  B  B13  1  0.500000  0.257191  0.574598  1
  B  B14  1  0.500000  0.243599  0.074359  1
  B  B15  1  0.500000  0.755818  0.924481  1
  B  B16  1  0.500000  0.803870  0.275292  1
  B  B17  1  0.500000  0.195844  0.726649  1
  B  B18  1  0.500000  0.303597  0.225023  1
  B  B19  1  0.500000  0.696327  0.774994  1
  B  B20  1  0.500000  0.644141  0.187385  1
  B  B21  1  0.500000  0.355038  0.813006  1
  B  B22  1  0.500000  0.144475  0.312316  1
  B  B23  1  0.500000  0.854602  0.687205  1
  B  B24  1  0.500000  0.986657  0.220440  1
  B  B25  1  0.500000  0.014760  0.780761  1
  B  B26  1  0.500000  0.485742  0.280341  1
  B  B27  1  0.500000  0.513937  0.719559  1
  B  B28  1  0.500000  0.641843  0.039485  1
  B  B29  1  0.500000  0.356935  0.959998  1
  B  B30  1  0.500000  0.141688  0.460203  1
  B  B31  1  0.500000  0.858321  0.539563  1
  W  W32  1  0.000000  0.645639  0.318834  1
  W  W33  1  0.000000  0.352812  0.683150  1
  W  W34  1  0.000000  0.145307  0.178419  1
  W  W35  1  0.000000  0.856415  0.820024  1
