# generated using pymatgen
data_LiSmHoP2
_symmetry_space_group_name_H-M   'P 1'
_cell_length_a   4.08387100
_cell_length_b   4.08387036
_cell_length_c   14.00645000
_cell_angle_alpha   90.00000000
_cell_angle_beta   90.00000000
_cell_angle_gamma   120.00001331
_symmetry_Int_Tables_number   1
_chemical_formula_structural   LiSmHoP2
_chemical_formula_sum   'Li2 Sm2 Ho2 P4'
_cell_volume   202.30313404
_cell_formula_units_Z   2
loop_
 _symmetry_equiv_pos_site_id
 _symmetry_equiv_pos_as_xyz
  1  'x, y, z'
loop_
 _atom_site_type_symbol
 _atom_site_label
 _atom_site_symmetry_multiplicity
 _atom_site_fract_x
 _atom_site_fract_y
 _atom_site_fract_z
 _atom_site_occupancy
  Li  Li0  1  0.000000  0.000000  0.747290  1
  Li  Li1  1  0.000000  0.000000  0.247290  1
  Sm  Sm2  1  0.666667  0.333333  0.390172  1
  Sm  Sm3  1  0.333333  0.666667  0.890172  1
  Ho  Ho4  1  0.333333  0.666667  0.610519  1
  Ho  Ho5  1  0.666667  0.333333  0.110519  1
  P  P6  1  0.333333  0.666667  0.246990  1
  P  P7  1  0.000000  0.000000  0.005029  1
  P  P8  1  0.000000  0.000000  0.505029  1
  P  P9  1  0.666667  0.333333  0.746990  1
