# generated using pymatgen
data_Ba3PrEr3O9
_symmetry_space_group_name_H-M   'P 1'
_cell_length_a   9.25971110
_cell_length_b   9.25971067
_cell_length_c   9.25971086
_cell_angle_alpha   38.95754929
_cell_angle_beta   38.95754682
_cell_angle_gamma   38.95754563
_symmetry_Int_Tables_number   1
_chemical_formula_structural   Ba3PrEr3O9
_chemical_formula_sum   'Ba3 Pr1 Er3 O9'
_cell_volume   282.23966769
_cell_formula_units_Z   1
loop_
 _symmetry_equiv_pos_site_id
 _symmetry_equiv_pos_as_xyz
  1  'x, y, z'
loop_
 _atom_site_type_symbol
 _atom_site_label
 _atom_site_symmetry_multiplicity
 _atom_site_fract_x
 _atom_site_fract_y
 _atom_site_fract_z
 _atom_site_occupancy
  Ba  Ba0  1  0.000241  0.000241  0.000241  1
  Ba  Ba1  1  0.831982  0.831982  0.831982  1
  Ba  Ba2  1  0.403003  0.403003  0.403003  1
  Pr  Pr3  1  0.572762  0.572762  0.572762  1
  Er  Er4  1  0.134928  0.134928  0.134928  1
  Er  Er5  1  0.260498  0.260498  0.260498  1
  Er  Er6  1  0.700154  0.700154  0.700154  1
  O  O7  1  0.431938  0.972915  0.526711  1
  O  O8  1  0.972915  0.526711  0.431938  1
  O  O9  1  0.526711  0.431938  0.972915  1
  O  O10  1  0.261458  0.896885  0.430326  1
  O  O11  1  0.896885  0.430326  0.261458  1
  O  O12  1  0.430326  0.261458  0.896885  1
  O  O13  1  0.413759  0.858002  0.978237  1
  O  O14  1  0.978237  0.413759  0.858002  1
  O  O15  1  0.858002  0.978237  0.413759  1
