# generated using pymatgen
data_DyEr3Al24Pt7Au2
_symmetry_space_group_name_H-M   'P 1'
_cell_length_a   7.56048332
_cell_length_b   7.57320383
_cell_length_c   13.13385919
_cell_angle_alpha   84.54826762
_cell_angle_beta   79.00038879
_cell_angle_gamma   59.93124649
_symmetry_Int_Tables_number   1
_chemical_formula_structural   DyEr3Al24Pt7Au2
_chemical_formula_sum   'Dy1 Er3 Al24 Pt7 Au2'
_cell_volume   638.84858691
_cell_formula_units_Z   1
loop_
 _symmetry_equiv_pos_site_id
 _symmetry_equiv_pos_as_xyz
  1  'x, y, z'
loop_
 _atom_site_type_symbol
 _atom_site_label
 _atom_site_symmetry_multiplicity
 _atom_site_fract_x
 _atom_site_fract_y
 _atom_site_fract_z
 _atom_site_occupancy
  Dy  Dy0  1  0.266263  0.501040  0.190088  1
  Er  Er1  1  0.392869  0.169281  0.808544  1
  Er  Er2  1  0.607062  0.830730  0.191368  1
  Er  Er3  1  0.733885  0.499026  0.809356  1
  Al  Al4  1  0.682768  0.834290  0.944550  1
  Al  Al5  1  0.317330  0.165237  0.055033  1
  Al  Al6  1  0.145919  0.839233  0.562366  1
  Al  Al7  1  0.854042  0.160856  0.437780  1
  Al  Al8  1  0.488281  0.159231  0.559577  1
  Al  Al9  1  0.511742  0.840708  0.440545  1
  Al  Al10  1  0.223656  0.160460  0.325313  1
  Al  Al11  1  0.776214  0.839315  0.675138  1
  Al  Al12  1  0.440181  0.506271  0.675155  1
  Al  Al13  1  0.559920  0.493702  0.325298  1
  Al  Al14  1  0.108912  0.155031  0.673642  1
  Al  Al15  1  0.890735  0.845191  0.326768  1
  Al  Al16  1  0.353890  0.498411  0.943966  1
  Al  Al17  1  0.646932  0.501569  0.055239  1
  Al  Al18  1  0.015697  0.167904  0.953105  1
  Al  Al19  1  0.984015  0.832536  0.046399  1
  Al  Al20  1  0.195606  0.499332  0.437602  1
  Al  Al21  1  0.804302  0.500610  0.562605  1
  Al  Al22  1  0.732842  0.164030  0.183213  1
  Al  Al23  1  0.267740  0.835549  0.816845  1
  Al  Al24  1  0.060266  0.633443  0.817726  1
  Al  Al25  1  0.939306  0.366428  0.182258  1
  Al  Al26  1  0.853750  0.043081  0.816389  1
  Al  Al27  1  0.146102  0.957558  0.183676  1
  Pt  Pt28  1  0.657165  0.171647  0.999757  1
  Pt  Pt29  1  0.342900  0.828346  0.000169  1
  Pt  Pt30  1  0.537286  0.166683  0.362095  1
  Pt  Pt31  1  0.462935  0.833045  0.638110  1
  Pt  Pt32  1  0.779453  0.175493  0.636933  1
  Pt  Pt33  1  0.220383  0.824780  0.363295  1
  Pt  Pt34  1  0.999992  0.499965  0.999933  1
  Au  Au35  1  0.120059  0.490618  0.638042  1
  Au  Au36  1  0.879601  0.509367  0.362122  1
