# generated using pymatgen
data_Ca5Tb(Si3Ru)8
_symmetry_space_group_name_H-M   'P 1'
_cell_length_a   10.17675377
_cell_length_b   10.17675363
_cell_length_c   8.17251875
_cell_angle_alpha   89.99596973
_cell_angle_beta   89.99596812
_cell_angle_gamma   132.63000617
_symmetry_Int_Tables_number   1
_chemical_formula_structural   Ca5Tb(Si3Ru)8
_chemical_formula_sum   'Ca5 Tb1 Si24 Ru8'
_cell_volume   622.73072168
_cell_formula_units_Z   1
loop_
 _symmetry_equiv_pos_site_id
 _symmetry_equiv_pos_as_xyz
  1  'x, y, z'
loop_
 _atom_site_type_symbol
 _atom_site_label
 _atom_site_symmetry_multiplicity
 _atom_site_fract_x
 _atom_site_fract_y
 _atom_site_fract_z
 _atom_site_occupancy
  Ca  Ca0  1  0.500000  0.500000  0.500000  1
  Ca  Ca1  1  0.501745  0.001742  0.749891  1
  Ca  Ca2  1  0.998258  0.498255  0.250109  1
  Ca  Ca3  1  0.498255  0.998258  0.250109  1
  Ca  Ca4  1  0.001742  0.501745  0.749891  1
  Tb  Tb5  1  0.000000  0.000000  0.000000  1
  Si  Si6  1  0.793865  0.206135  0.500000  1
  Si  Si7  1  0.293898  0.706102  0.000000  1
  Si  Si8  1  0.206135  0.793865  0.500000  1
  Si  Si9  1  0.706102  0.293898  0.000000  1
  Si  Si10  1  0.334996  0.334996  0.831775  1
  Si  Si11  1  0.665004  0.665004  0.168225  1
  Si  Si12  1  0.167509  0.167509  0.334508  1
  Si  Si13  1  0.832491  0.832491  0.665492  1
  Si  Si14  1  0.123708  0.890167  0.728122  1
  Si  Si15  1  0.109833  0.876292  0.271878  1
  Si  Si16  1  0.608531  0.376070  0.229814  1
  Si  Si17  1  0.623930  0.391469  0.770186  1
  Si  Si18  1  0.876292  0.109833  0.271878  1
  Si  Si19  1  0.890167  0.123708  0.728122  1
  Si  Si20  1  0.391469  0.623930  0.770186  1
  Si  Si21  1  0.376070  0.608531  0.229814  1
  Si  Si22  1  0.346100  0.113445  0.506841  1
  Si  Si23  1  0.886555  0.653900  0.493159  1
  Si  Si24  1  0.389203  0.155219  0.006552  1
  Si  Si25  1  0.844781  0.610797  0.993448  1
  Si  Si26  1  0.653900  0.886555  0.493159  1
  Si  Si27  1  0.113445  0.346100  0.506841  1
  Si  Si28  1  0.610797  0.844781  0.993448  1
  Si  Si29  1  0.155219  0.389203  0.006552  1
  Ru  Ru30  1  0.668688  0.331312  0.500000  1
  Ru  Ru31  1  0.167999  0.832001  0.000000  1
  Ru  Ru32  1  0.331312  0.668688  0.500000  1
  Ru  Ru33  1  0.832001  0.167999  0.000000  1
  Ru  Ru34  1  0.124892  0.124892  0.627100  1
  Ru  Ru35  1  0.875108  0.875108  0.372900  1
  Ru  Ru36  1  0.371920  0.371920  0.123846  1
  Ru  Ru37  1  0.628080  0.628080  0.876154  1
