# generated using pymatgen
data_Dy4Fe8P12(Ir3W)3
_symmetry_space_group_name_H-M   'P 1'
_cell_length_a   3.85712500
_cell_length_b   10.51799121
_cell_length_c   12.33790228
_cell_angle_alpha   90.49654706
_cell_angle_beta   90.00000000
_cell_angle_gamma   90.00000000
_symmetry_Int_Tables_number   1
_chemical_formula_structural   Dy4Fe8P12(Ir3W)3
_chemical_formula_sum   'Dy4 Fe8 P12 Ir9 W3'
_cell_volume   500.52011330
_cell_formula_units_Z   1
loop_
 _symmetry_equiv_pos_site_id
 _symmetry_equiv_pos_as_xyz
  1  'x, y, z'
loop_
 _atom_site_type_symbol
 _atom_site_label
 _atom_site_symmetry_multiplicity
 _atom_site_fract_x
 _atom_site_fract_y
 _atom_site_fract_z
 _atom_site_occupancy
  Dy  Dy0  1  0.250000  0.581834  0.712275  1
  Dy  Dy1  1  0.250000  0.919809  0.212019  1
  Dy  Dy2  1  0.750000  0.421477  0.286267  1
  Dy  Dy3  1  0.750000  0.079435  0.790705  1
  Fe  Fe4  1  0.250000  0.877936  0.695470  1
  Fe  Fe5  1  0.250000  0.617995  0.194393  1
  Fe  Fe6  1  0.750000  0.119252  0.306190  1
  Fe  Fe7  1  0.750000  0.379833  0.801609  1
  Fe  Fe8  1  0.250000  0.461052  0.935582  1
  Fe  Fe9  1  0.250000  0.042968  0.440724  1
  Fe  Fe10  1  0.750000  0.537846  0.061197  1
  Fe  Fe11  1  0.750000  0.964846  0.563533  1
  P  P12  1  0.250000  0.433330  0.109759  1
  P  P13  1  0.250000  0.060733  0.615777  1
  P  P14  1  0.750000  0.565449  0.887470  1
  P  P15  1  0.750000  0.935256  0.389787  1
  P  P16  1  0.250000  0.271911  0.865411  1
  P  P17  1  0.250000  0.226644  0.362820  1
  P  P18  1  0.750000  0.726351  0.134439  1
  P  P19  1  0.750000  0.775523  0.633828  1
  P  P20  1  0.250000  0.599595  0.379511  1
  P  P21  1  0.250000  0.899252  0.880876  1
  P  P22  1  0.750000  0.402002  0.619822  1
  P  P23  1  0.750000  0.100782  0.120074  1
  Ir  Ir24  1  0.750000  0.211107  0.512895  1
  Ir  Ir25  1  0.250000  0.405397  0.476691  1
  Ir  Ir26  1  0.250000  0.094248  0.976466  1
  Ir  Ir27  1  0.750000  0.593871  0.522719  1
  Ir  Ir28  1  0.750000  0.905670  0.024785  1
  Ir  Ir29  1  0.250000  0.226244  0.176051  1
  Ir  Ir30  1  0.250000  0.269675  0.676574  1
  Ir  Ir31  1  0.750000  0.773059  0.823033  1
  Ir  Ir32  1  0.750000  0.728760  0.323069  1
  W  W33  1  0.250000  0.701624  0.990534  1
  W  W34  1  0.250000  0.793252  0.488165  1
  W  W35  1  0.750000  0.295983  0.009482  1
