# generated using pymatgen
data_Ce2Nd4Cu3Sb8Pd3
_symmetry_space_group_name_H-M   'P 1'
_cell_length_a   8.52323940
_cell_length_b   8.52693683
_cell_length_c   8.51902532
_cell_angle_alpha   108.95375378
_cell_angle_beta   109.95580728
_cell_angle_gamma   109.61762907
_symmetry_Int_Tables_number   1
_chemical_formula_structural   Ce2Nd4Cu3Sb8Pd3
_chemical_formula_sum   'Ce2 Nd4 Cu3 Sb8 Pd3'
_cell_volume   475.91569735
_cell_formula_units_Z   1
loop_
 _symmetry_equiv_pos_site_id
 _symmetry_equiv_pos_as_xyz
  1  'x, y, z'
loop_
 _atom_site_type_symbol
 _atom_site_label
 _atom_site_symmetry_multiplicity
 _atom_site_fract_x
 _atom_site_fract_y
 _atom_site_fract_z
 _atom_site_occupancy
  Ce  Ce0  1  0.873808  0.124718  0.749590  1
  Ce  Ce1  1  0.127839  0.753504  0.878334  1
  Nd  Nd2  1  0.750305  0.874821  0.127606  1
  Nd  Nd3  1  0.248915  0.623575  0.374645  1
  Nd  Nd4  1  0.626322  0.376938  0.249292  1
  Nd  Nd5  1  0.374170  0.250168  0.621973  1
  Cu  Cu6  1  0.623783  0.750724  0.376472  1
  Cu  Cu7  1  0.873595  0.247068  0.123406  1
  Cu  Cu8  1  0.374974  0.627371  0.751626  1
  Sb  Sb9  1  0.504099  0.996445  0.339758  1
  Sb  Sb10  1  0.002952  0.340813  0.497888  1
  Sb  Sb11  1  0.340678  0.504848  0.000560  1
  Sb  Sb12  1  0.993339  0.835185  0.497680  1
  Sb  Sb13  1  0.659707  0.664273  0.659941  1
  Sb  Sb14  1  0.838416  0.494183  0.002740  1
  Sb  Sb15  1  0.155261  0.164505  0.159912  1
  Sb  Sb16  1  0.503797  0.997625  0.840604  1
  Pd  Pd17  1  0.124717  0.872724  0.244059  1
  Pd  Pd18  1  0.244266  0.121247  0.873179  1
  Pd  Pd19  1  0.759055  0.379266  0.630734  1
