# generated using pymatgen
data_Er16In3HgIrPt3
_symmetry_space_group_name_H-M   'P 1'
_cell_length_a   9.60100626
_cell_length_b   9.61673614
_cell_length_c   9.58098700
_cell_angle_alpha   60.12289766
_cell_angle_beta   60.06895474
_cell_angle_gamma   60.23659950
_symmetry_Int_Tables_number   1
_chemical_formula_structural   Er16In3HgIrPt3
_chemical_formula_sum   'Er16 In3 Hg1 Ir1 Pt3'
_cell_volume   627.53867004
_cell_formula_units_Z   1
loop_
 _symmetry_equiv_pos_site_id
 _symmetry_equiv_pos_as_xyz
  1  'x, y, z'
loop_
 _atom_site_type_symbol
 _atom_site_label
 _atom_site_symmetry_multiplicity
 _atom_site_fract_x
 _atom_site_fract_y
 _atom_site_fract_z
 _atom_site_occupancy
  Er  Er0  1  0.058255  0.062807  0.439469  1
  Er  Er1  1  0.645642  0.060639  0.646860  1
  Er  Er2  1  0.191461  0.806810  0.192052  1
  Er  Er3  1  0.435340  0.062895  0.437649  1
  Er  Er4  1  0.187495  0.193798  0.809353  1
  Er  Er5  1  0.651511  0.646857  0.651736  1
  Er  Er6  1  0.053562  0.644744  0.650847  1
  Er  Er7  1  0.435340  0.062895  0.064115  1
  Er  Er8  1  0.651511  0.646857  0.049896  1
  Er  Er9  1  0.191461  0.806810  0.809676  1
  Er  Er10  1  0.807871  0.193275  0.811237  1
  Er  Er11  1  0.807871  0.193275  0.187617  1
  Er  Er12  1  0.808834  0.808719  0.191223  1
  Er  Er13  1  0.059242  0.435418  0.440114  1
  Er  Er14  1  0.435963  0.435019  0.064509  1
  Er  Er15  1  0.059242  0.435418  0.065226  1
  In  In16  1  0.418345  0.417456  0.748776  1
  In  In17  1  0.419751  0.747759  0.416244  1
  In  In18  1  0.418345  0.417456  0.415421  1
  Hg  Hg19  1  0.761572  0.413890  0.412268  1
  Ir  Ir20  1  0.859689  0.426150  0.857081  1
  Pt  Pt21  1  0.857444  0.860128  0.854077  1
  Pt  Pt22  1  0.426810  0.860793  0.856199  1
  Pt  Pt23  1  0.857444  0.860128  0.428352  1
