# generated using pymatgen
data_Tb15ThMgIn3Ir4
_symmetry_space_group_name_H-M   'P 1'
_cell_length_a   9.74626890
_cell_length_b   9.72110861
_cell_length_c   9.74626749
_cell_angle_alpha   60.11867405
_cell_angle_beta   60.15192812
_cell_angle_gamma   60.11867401
_symmetry_Int_Tables_number   1
_chemical_formula_structural   Tb15ThMgIn3Ir4
_chemical_formula_sum   'Tb15 Th1 Mg1 In3 Ir4'
_cell_volume   654.86558772
_cell_formula_units_Z   1
loop_
 _symmetry_equiv_pos_site_id
 _symmetry_equiv_pos_as_xyz
  1  'x, y, z'
loop_
 _atom_site_type_symbol
 _atom_site_label
 _atom_site_symmetry_multiplicity
 _atom_site_fract_x
 _atom_site_fract_y
 _atom_site_fract_z
 _atom_site_occupancy
  Tb  Tb0  1  0.941908  0.940029  0.558860  1
  Tb  Tb1  1  0.939664  0.558576  0.939664  1
  Tb  Tb2  1  0.314071  0.685650  0.314071  1
  Tb  Tb3  1  0.937050  0.561285  0.563150  1
  Tb  Tb4  1  0.313235  0.310656  0.690876  1
  Tb  Tb5  1  0.097740  0.099796  0.097740  1
  Tb  Tb6  1  0.563150  0.561285  0.937050  1
  Tb  Tb7  1  0.099711  0.101214  0.700777  1
  Tb  Tb8  1  0.690849  0.308577  0.690849  1
  Tb  Tb9  1  0.689648  0.688681  0.311166  1
  Tb  Tb10  1  0.690876  0.310656  0.313235  1
  Tb  Tb11  1  0.311166  0.688681  0.689648  1
  Tb  Tb12  1  0.561513  0.936736  0.561513  1
  Tb  Tb13  1  0.700777  0.101214  0.099711  1
  Tb  Tb14  1  0.558860  0.940029  0.941908  1
  Th  Th15  1  0.096967  0.710261  0.096967  1
  Mg  Mg16  1  0.327175  0.327818  0.327175  1
  In  In17  1  0.002542  0.332255  0.332284  1
  In  In18  1  0.332297  0.002509  0.332297  1
  In  In19  1  0.332284  0.332255  0.002542  1
  Ir  Ir20  1  0.892563  0.892649  0.892563  1
  Ir  Ir21  1  0.891254  0.892201  0.323748  1
  Ir  Ir22  1  0.323748  0.892201  0.891254  1
  Ir  Ir23  1  0.890955  0.324784  0.890955  1
