# generated using pymatgen
data_Sc5Tc3P12(Ir5Ru3)2
_symmetry_space_group_name_H-M   'P 1'
_cell_length_a   12.51217100
_cell_length_b   12.51217080
_cell_length_c   3.91834900
_cell_angle_alpha   90.00000000
_cell_angle_beta   90.00000000
_cell_angle_gamma   119.99999789
_symmetry_Int_Tables_number   1
_chemical_formula_structural   Sc5Tc3P12(Ir5Ru3)2
_chemical_formula_sum   'Sc5 Tc3 P12 Ir10 Ru6'
_cell_volume   531.25018149
_cell_formula_units_Z   1
loop_
 _symmetry_equiv_pos_site_id
 _symmetry_equiv_pos_as_xyz
  1  'x, y, z'
loop_
 _atom_site_type_symbol
 _atom_site_label
 _atom_site_symmetry_multiplicity
 _atom_site_fract_x
 _atom_site_fract_y
 _atom_site_fract_z
 _atom_site_occupancy
  Sc  Sc0  1  0.333333  0.666667  0.000000  1
  Sc  Sc1  1  0.666667  0.333333  0.000000  1
  Sc  Sc2  1  0.811543  0.000000  0.500000  1
  Sc  Sc3  1  0.000000  0.811543  0.500000  1
  Sc  Sc4  1  0.188457  0.188457  0.500000  1
  Tc  Tc5  1  0.450871  0.000000  0.000000  1
  Tc  Tc6  1  0.000000  0.450871  0.000000  1
  Tc  Tc7  1  0.549129  0.549129  0.000000  1
  P  P8  1  0.178936  0.000000  0.000000  1
  P  P9  1  0.000000  0.178936  0.000000  1
  P  P10  1  0.821064  0.821064  0.000000  1
  P  P11  1  0.170795  0.480116  0.500000  1
  P  P12  1  0.519884  0.690678  0.500000  1
  P  P13  1  0.309322  0.829205  0.500000  1
  P  P14  1  0.690678  0.519884  0.500000  1
  P  P15  1  0.829205  0.309322  0.500000  1
  P  P16  1  0.480116  0.170795  0.500000  1
  P  P17  1  0.637522  0.000000  0.000000  1
  P  P18  1  0.000000  0.637522  0.000000  1
  P  P19  1  0.362478  0.362478  0.000000  1
  Ir  Ir20  1  0.362404  0.494847  0.500000  1
  Ir  Ir21  1  0.505153  0.867557  0.500000  1
  Ir  Ir22  1  0.132443  0.637596  0.500000  1
  Ir  Ir23  1  0.867557  0.505153  0.500000  1
  Ir  Ir24  1  0.637596  0.132443  0.500000  1
  Ir  Ir25  1  0.494847  0.362404  0.500000  1
  Ir  Ir26  1  0.280620  0.000000  0.500000  1
  Ir  Ir27  1  0.000000  0.280620  0.500000  1
  Ir  Ir28  1  0.719380  0.719380  0.500000  1
  Ir  Ir29  1  0.000000  0.000000  0.000000  1
  Ru  Ru30  1  0.182060  0.375470  0.000000  1
  Ru  Ru31  1  0.624530  0.806591  0.000000  1
  Ru  Ru32  1  0.193409  0.817940  0.000000  1
  Ru  Ru33  1  0.806591  0.624530  0.000000  1
  Ru  Ru34  1  0.817940  0.193409  0.000000  1
  Ru  Ru35  1  0.375470  0.182060  0.000000  1
