# generated using pymatgen
data_ThReN3
_symmetry_space_group_name_H-M   'P 1'
_cell_length_a   5.54436700
_cell_length_b   5.73151100
_cell_length_c   7.83947200
_cell_angle_alpha   90.00000000
_cell_angle_beta   90.00000000
_cell_angle_gamma   90.00000000
_symmetry_Int_Tables_number   1
_chemical_formula_structural   ThReN3
_chemical_formula_sum   'Th4 Re4 N12'
_cell_volume   249.11960894
_cell_formula_units_Z   4
loop_
 _symmetry_equiv_pos_site_id
 _symmetry_equiv_pos_as_xyz
  1  'x, y, z'
loop_
 _atom_site_type_symbol
 _atom_site_label
 _atom_site_symmetry_multiplicity
 _atom_site_fract_x
 _atom_site_fract_y
 _atom_site_fract_z
 _atom_site_occupancy
  Th  Th0  1  0.489154  0.449388  0.250000  1
  Th  Th1  1  0.010846  0.949388  0.250000  1
  Th  Th2  1  0.510846  0.550612  0.750000  1
  Th  Th3  1  0.989154  0.050612  0.750000  1
  Re  Re4  1  0.500000  0.000000  0.500000  1
  Re  Re5  1  0.000000  0.500000  0.000000  1
  Re  Re6  1  0.000000  0.500000  0.500000  1
  Re  Re7  1  0.500000  0.000000  0.000000  1
  N  N8  1  0.702130  0.292963  0.541456  1
  N  N9  1  0.297870  0.707037  0.041456  1
  N  N10  1  0.202130  0.207037  0.041456  1
  N  N11  1  0.427983  0.986189  0.750000  1
  N  N12  1  0.927983  0.513811  0.250000  1
  N  N13  1  0.297870  0.707037  0.458544  1
  N  N14  1  0.797870  0.792963  0.958544  1
  N  N15  1  0.702130  0.292963  0.958544  1
  N  N16  1  0.797870  0.792963  0.541456  1
  N  N17  1  0.072017  0.486189  0.750000  1
  N  N18  1  0.202130  0.207037  0.458544  1
  N  N19  1  0.572017  0.013811  0.250000  1
