# generated using pymatgen
data_K14ZnFe7Se16
_symmetry_space_group_name_H-M   'P 1'
_cell_length_a   11.55247300
_cell_length_b   11.62942473
_cell_length_c   8.26474600
_cell_angle_alpha   89.46249860
_cell_angle_beta   90.00000000
_cell_angle_gamma   90.00000000
_symmetry_Int_Tables_number   1
_chemical_formula_structural   K14ZnFe7Se16
_chemical_formula_sum   'K14 Zn1 Fe7 Se16'
_cell_volume   1110.30832098
_cell_formula_units_Z   1
loop_
 _symmetry_equiv_pos_site_id
 _symmetry_equiv_pos_as_xyz
  1  'x, y, z'
loop_
 _atom_site_type_symbol
 _atom_site_label
 _atom_site_symmetry_multiplicity
 _atom_site_fract_x
 _atom_site_fract_y
 _atom_site_fract_z
 _atom_site_occupancy
  K  K0  1  0.000000  0.999014  0.000495  1
  K  K1  1  0.500000  0.503111  0.500174  1
  K  K2  1  0.500000  0.996933  0.966642  1
  K  K3  1  0.500000  0.994772  0.457660  1
  K  K4  1  0.000000  0.503417  0.539830  1
  K  K5  1  0.000000  0.500275  0.035018  1
  K  K6  1  0.755807  0.246532  0.001687  1
  K  K7  1  0.754217  0.755199  0.002239  1
  K  K8  1  0.244193  0.246532  0.001687  1
  K  K9  1  0.245783  0.755199  0.002239  1
  K  K10  1  0.733769  0.268524  0.498086  1
  K  K11  1  0.730997  0.732601  0.499776  1
  K  K12  1  0.266231  0.268524  0.498086  1
  K  K13  1  0.269003  0.732601  0.499776  1
  Zn  Zn14  1  0.500000  0.368511  0.869572  1
  Fe  Fe15  1  0.500000  0.617714  0.891104  1
  Fe  Fe16  1  0.880920  0.000763  0.384249  1
  Fe  Fe17  1  0.119080  0.000763  0.384249  1
  Fe  Fe18  1  0.000000  0.117563  0.617621  1
  Fe  Fe19  1  0.000000  0.881669  0.616939  1
  Fe  Fe20  1  0.613814  0.504055  0.117224  1
  Fe  Fe21  1  0.386186  0.504055  0.117224  1
  Se  Se22  1  0.500000  0.323409  0.172357  1
  Se  Se23  1  0.500000  0.681998  0.179406  1
  Se  Se24  1  0.826046  0.999137  0.658758  1
  Se  Se25  1  0.173954  0.999137  0.658758  1
  Se  Se26  1  0.000000  0.173586  0.342397  1
  Se  Se27  1  0.000000  0.828305  0.342707  1
  Se  Se28  1  0.675975  0.499084  0.826032  1
  Se  Se29  1  0.324025  0.499084  0.826032  1
  Se  Se30  1  0.500000  0.785266  0.718347  1
  Se  Se31  1  0.500000  0.204658  0.701954  1
  Se  Se32  1  0.272087  0.000870  0.202985  1
  Se  Se33  1  0.727913  0.000870  0.202985  1
  Se  Se34  1  0.000000  0.727435  0.797071  1
  Se  Se35  1  0.000000  0.271427  0.794710  1
  Se  Se36  1  0.216303  0.503705  0.286965  1
  Se  Se37  1  0.783697  0.503705  0.286965  1
