# generated using pymatgen
data_Tm10Ag3Os
_symmetry_space_group_name_H-M   'P 1'
_cell_length_a   9.34943908
_cell_length_b   9.35018725
_cell_length_c   9.57667301
_cell_angle_alpha   89.99640222
_cell_angle_beta   90.00533466
_cell_angle_gamma   119.98356572
_symmetry_Int_Tables_number   1
_chemical_formula_structural   Tm10Ag3Os
_chemical_formula_sum   'Tm20 Ag6 Os2'
_cell_volume   725.14198258
_cell_formula_units_Z   2
loop_
 _symmetry_equiv_pos_site_id
 _symmetry_equiv_pos_as_xyz
  1  'x, y, z'
loop_
 _atom_site_type_symbol
 _atom_site_label
 _atom_site_symmetry_multiplicity
 _atom_site_fract_x
 _atom_site_fract_y
 _atom_site_fract_z
 _atom_site_occupancy
  Tm  Tm0  1  0.999994  0.999992  0.500049  1
  Tm  Tm1  1  0.000005  0.000013  0.999948  1
  Tm  Tm2  1  0.538822  0.461197  0.249975  1
  Tm  Tm3  1  0.538820  0.077687  0.249996  1
  Tm  Tm4  1  0.922308  0.461189  0.249989  1
  Tm  Tm5  1  0.461188  0.538793  0.750018  1
  Tm  Tm6  1  0.461185  0.922343  0.750009  1
  Tm  Tm7  1  0.077672  0.538811  0.750013  1
  Tm  Tm8  1  0.208847  0.791143  0.443472  1
  Tm  Tm9  1  0.208890  0.417720  0.443444  1
  Tm  Tm10  1  0.582296  0.791111  0.443464  1
  Tm  Tm11  1  0.791176  0.208844  0.556556  1
  Tm  Tm12  1  0.791099  0.582273  0.556543  1
  Tm  Tm13  1  0.417689  0.208884  0.556542  1
  Tm  Tm14  1  0.791154  0.208865  0.943502  1
  Tm  Tm15  1  0.791127  0.582314  0.943428  1
  Tm  Tm16  1  0.417660  0.208877  0.943425  1
  Tm  Tm17  1  0.208858  0.791121  0.056488  1
  Tm  Tm18  1  0.208884  0.417690  0.056570  1
  Tm  Tm19  1  0.582340  0.791124  0.056570  1
  Ag  Ag20  1  0.883622  0.116388  0.249938  1
  Ag  Ag21  1  0.883570  0.767193  0.249947  1
  Ag  Ag22  1  0.232800  0.116430  0.249968  1
  Ag  Ag23  1  0.116408  0.883593  0.750065  1
  Ag  Ag24  1  0.116419  0.232830  0.750047  1
  Ag  Ag25  1  0.767175  0.883572  0.750033  1
  Os  Os26  1  0.333332  0.666668  0.249977  1
  Os  Os27  1  0.666663  0.333333  0.750023  1
