# generated using pymatgen
data_Hf5Be4SnIr10
_symmetry_space_group_name_H-M   'P 1'
_cell_length_a   9.43063400
_cell_length_b   9.43063400
_cell_length_c   3.35671500
_cell_angle_alpha   90.00000000
_cell_angle_beta   90.00000000
_cell_angle_gamma   90.00000000
_symmetry_Int_Tables_number   1
_chemical_formula_structural   Hf5Be4SnIr10
_chemical_formula_sum   'Hf5 Be4 Sn1 Ir10'
_cell_volume   298.53568410
_cell_formula_units_Z   1
loop_
 _symmetry_equiv_pos_site_id
 _symmetry_equiv_pos_as_xyz
  1  'x, y, z'
loop_
 _atom_site_type_symbol
 _atom_site_label
 _atom_site_symmetry_multiplicity
 _atom_site_fract_x
 _atom_site_fract_y
 _atom_site_fract_z
 _atom_site_occupancy
  Hf  Hf0  1  0.176028  0.675172  0.000000  1
  Hf  Hf1  1  0.324828  0.176028  0.000000  1
  Hf  Hf2  1  0.823972  0.324828  0.000000  1
  Hf  Hf3  1  0.675172  0.823972  0.000000  1
  Hf  Hf4  1  0.000000  0.000000  0.000000  1
  Be  Be5  1  0.380985  0.880393  0.000000  1
  Be  Be6  1  0.119607  0.380985  0.000000  1
  Be  Be7  1  0.880393  0.619015  0.000000  1
  Be  Be8  1  0.619015  0.119607  0.000000  1
  Sn  Sn9  1  0.500000  0.500000  0.000000  1
  Ir  Ir10  1  0.216315  0.927675  0.500000  1
  Ir  Ir11  1  0.927675  0.783685  0.500000  1
  Ir  Ir12  1  0.427047  0.716304  0.500000  1
  Ir  Ir13  1  0.572953  0.283696  0.500000  1
  Ir  Ir14  1  0.716304  0.572953  0.500000  1
  Ir  Ir15  1  0.283696  0.427047  0.500000  1
  Ir  Ir16  1  0.072325  0.216315  0.500000  1
  Ir  Ir17  1  0.000000  0.500000  0.500000  1
  Ir  Ir18  1  0.500000  0.000000  0.500000  1
  Ir  Ir19  1  0.783685  0.072325  0.500000  1
