# generated using pymatgen
data_Y8InHgRh2
_symmetry_space_group_name_H-M   'P 1'
_cell_length_a   9.65961689
_cell_length_b   9.65961703
_cell_length_c   9.67521000
_cell_angle_alpha   59.94659372
_cell_angle_beta   59.94659326
_cell_angle_gamma   59.96818266
_symmetry_Int_Tables_number   1
_chemical_formula_structural   Y8InHgRh2
_chemical_formula_sum   'Y16 In2 Hg2 Rh4'
_cell_volume   637.69027088
_cell_formula_units_Z   2
loop_
 _symmetry_equiv_pos_site_id
 _symmetry_equiv_pos_as_xyz
  1  'x, y, z'
loop_
 _atom_site_type_symbol
 _atom_site_label
 _atom_site_symmetry_multiplicity
 _atom_site_fract_x
 _atom_site_fract_y
 _atom_site_fract_z
 _atom_site_occupancy
  Y  Y0  1  0.601236  0.601236  0.599170  1
  Y  Y1  1  0.601236  0.601236  0.198360  1
  Y  Y2  1  0.602106  0.197763  0.600066  1
  Y  Y3  1  0.197763  0.602106  0.600066  1
  Y  Y4  1  0.059365  0.440152  0.440313  1
  Y  Y5  1  0.440152  0.059365  0.060169  1
  Y  Y6  1  0.440152  0.059365  0.440313  1
  Y  Y7  1  0.059365  0.440152  0.060169  1
  Y  Y8  1  0.439555  0.439555  0.060445  1
  Y  Y9  1  0.058582  0.058582  0.441418  1
  Y  Y10  1  0.189536  0.813694  0.812456  1
  Y  Y11  1  0.813694  0.189536  0.184314  1
  Y  Y12  1  0.813694  0.189536  0.812456  1
  Y  Y13  1  0.189536  0.813694  0.184314  1
  Y  Y14  1  0.814312  0.814312  0.185688  1
  Y  Y15  1  0.188375  0.188375  0.811625  1
  In  In16  1  0.831059  0.831059  0.833737  1
  In  In17  1  0.831059  0.831059  0.504145  1
  Hg  Hg18  1  0.835359  0.492632  0.836004  1
  Hg  Hg19  1  0.492632  0.835359  0.836004  1
  Rh  Rh20  1  0.392653  0.392653  0.392533  1
  Rh  Rh21  1  0.392653  0.392653  0.822161  1
  Rh  Rh22  1  0.392940  0.822986  0.392038  1
  Rh  Rh23  1  0.822986  0.392940  0.392038  1
