# generated using pymatgen
data_PrTi2ZnAu3
_symmetry_space_group_name_H-M   'P 1'
_cell_length_a   5.73984608
_cell_length_b   5.73984770
_cell_length_c   5.67508500
_cell_angle_alpha   101.95313768
_cell_angle_beta   101.95313092
_cell_angle_gamma   126.18898509
_symmetry_Int_Tables_number   1
_chemical_formula_structural   PrTi2ZnAu3
_chemical_formula_sum   'Pr1 Ti2 Zn1 Au3'
_cell_volume   134.16649110
_cell_formula_units_Z   1
loop_
 _symmetry_equiv_pos_site_id
 _symmetry_equiv_pos_as_xyz
  1  'x, y, z'
loop_
 _atom_site_type_symbol
 _atom_site_label
 _atom_site_symmetry_multiplicity
 _atom_site_fract_x
 _atom_site_fract_y
 _atom_site_fract_z
 _atom_site_occupancy
  Pr  Pr0  1  0.002825  0.997175  0.000000  1
  Ti  Ti1  1  0.248881  0.751119  0.500000  1
  Ti  Ti2  1  0.748881  0.251119  0.500000  1
  Zn  Zn3  1  0.307022  0.692978  0.000000  1
  Au  Au4  1  0.306009  0.316476  0.622484  1
  Au  Au5  1  0.683524  0.693991  0.377516  1
  Au  Au6  1  0.702860  0.297140  0.000000  1
