# generated using pymatgen
data_Lu2BeSiI2
_symmetry_space_group_name_H-M   'P 1'
_cell_length_a   3.91889800
_cell_length_b   3.91889817
_cell_length_c   11.61304400
_cell_angle_alpha   90.00000000
_cell_angle_beta   90.00000000
_cell_angle_gamma   119.99998166
_symmetry_Int_Tables_number   1
_chemical_formula_structural   Lu2BeSiI2
_chemical_formula_sum   'Lu2 Be1 Si1 I2'
_cell_volume   154.45597828
_cell_formula_units_Z   1
loop_
 _symmetry_equiv_pos_site_id
 _symmetry_equiv_pos_as_xyz
  1  'x, y, z'
loop_
 _atom_site_type_symbol
 _atom_site_label
 _atom_site_symmetry_multiplicity
 _atom_site_fract_x
 _atom_site_fract_y
 _atom_site_fract_z
 _atom_site_occupancy
  Lu  Lu0  1  0.000000  0.000000  0.161247  1
  Lu  Lu1  1  0.000000  0.000000  0.836553  1
  Be  Be2  1  0.333333  0.666667  0.013284  1
  Si  Si3  1  0.666667  0.333333  0.989846  1
  I  I4  1  0.333333  0.666667  0.661489  1
  I  I5  1  0.666667  0.333333  0.337581  1
