# generated using pymatgen
data_LaTb4PrIrBr10
_symmetry_space_group_name_H-M   'P 1'
_cell_length_a   7.51605384
_cell_length_b   9.45996325
_cell_length_c   9.43188163
_cell_angle_alpha   109.32266640
_cell_angle_beta   96.79370654
_cell_angle_gamma   104.28063647
_symmetry_Int_Tables_number   1
_chemical_formula_structural   LaTb4PrIrBr10
_chemical_formula_sum   'La1 Tb4 Pr1 Ir1 Br10'
_cell_volume   598.45705336
_cell_formula_units_Z   1
loop_
 _symmetry_equiv_pos_site_id
 _symmetry_equiv_pos_as_xyz
  1  'x, y, z'
loop_
 _atom_site_type_symbol
 _atom_site_label
 _atom_site_symmetry_multiplicity
 _atom_site_fract_x
 _atom_site_fract_y
 _atom_site_fract_z
 _atom_site_occupancy
  La  La0  1  0.030490  0.701195  0.900955  1
  Tb  Tb1  1  0.638870  0.868659  0.816940  1
  Tb  Tb2  1  0.361095  0.132438  0.183198  1
  Tb  Tb3  1  0.125022  0.043659  0.750448  1
  Tb  Tb4  1  0.875451  0.956247  0.249730  1
  Pr  Pr5  1  0.969711  0.296323  0.098649  1
  Ir  Ir6  1  0.000387  0.996845  0.998999  1
  Br  Br7  1  0.540047  0.171660  0.917927  1
  Br  Br8  1  0.462229  0.830376  0.083504  1
  Br  Br9  1  0.753928  0.917369  0.543853  1
  Br  Br10  1  0.246481  0.083162  0.456417  1
  Br  Br11  1  0.092461  0.359850  0.823897  1
  Br  Br12  1  0.906721  0.639717  0.178462  1
  Br  Br13  1  0.224782  0.753344  0.642948  1
  Br  Br14  1  0.776857  0.248724  0.355353  1
  Br  Br15  1  0.629873  0.553198  0.725540  1
  Br  Br16  1  0.365597  0.447234  0.273180  1
