# generated using pymatgen
data_Tb2Mo(SeO4)3
_symmetry_space_group_name_H-M   'P 1'
_cell_length_a   6.61932179
_cell_length_b   7.18473371
_cell_length_c   10.91894232
_cell_angle_alpha   84.92428462
_cell_angle_beta   73.29021809
_cell_angle_gamma   86.50074207
_symmetry_Int_Tables_number   1
_chemical_formula_structural   Tb2Mo(SeO4)3
_chemical_formula_sum   'Tb4 Mo2 Se6 O24'
_cell_volume   495.06088222
_cell_formula_units_Z   2
loop_
 _symmetry_equiv_pos_site_id
 _symmetry_equiv_pos_as_xyz
  1  'x, y, z'
loop_
 _atom_site_type_symbol
 _atom_site_label
 _atom_site_symmetry_multiplicity
 _atom_site_fract_x
 _atom_site_fract_y
 _atom_site_fract_z
 _atom_site_occupancy
  Tb  Tb0  1  0.732706  0.638528  0.508765  1
  Tb  Tb1  1  0.267294  0.361472  0.491235  1
  Tb  Tb2  1  0.204669  0.181730  0.168122  1
  Tb  Tb3  1  0.795331  0.818270  0.831878  1
  Mo  Mo4  1  0.722213  0.893023  0.206561  1
  Mo  Mo5  1  0.277787  0.106977  0.793439  1
  Se  Se6  1  0.201662  0.660136  0.216307  1
  Se  Se7  1  0.798338  0.339864  0.783693  1
  Se  Se8  1  0.657468  0.362767  0.142469  1
  Se  Se9  1  0.342532  0.637233  0.857531  1
  Se  Se10  1  0.789011  0.140183  0.493306  1
  Se  Se11  1  0.210989  0.859817  0.506694  1
  O  O12  1  0.693163  0.672899  0.299197  1
  O  O13  1  0.306837  0.327101  0.700803  1
  O  O14  1  0.718566  0.960554  0.416805  1
  O  O15  1  0.281434  0.039446  0.583195  1
  O  O16  1  0.451595  0.974159  0.233080  1
  O  O17  1  0.548405  0.025841  0.766920  1
  O  O18  1  0.823616  0.170942  0.178762  1
  O  O19  1  0.176384  0.829058  0.821238  1
  O  O20  1  0.784145  0.832865  0.045536  1
  O  O21  1  0.215855  0.167135  0.954464  1
  O  O22  1  0.058183  0.873067  0.195376  1
  O  O23  1  0.941817  0.126933  0.804624  1
  O  O24  1  0.099483  0.498204  0.148825  1
  O  O25  1  0.900517  0.501796  0.851175  1
  O  O26  1  0.082485  0.601647  0.382386  1
  O  O27  1  0.917515  0.398353  0.617614  1
  O  O28  1  0.549996  0.272259  0.037845  1
  O  O29  1  0.450004  0.727741  0.962155  1
  O  O30  1  0.425295  0.346756  0.270292  1
  O  O31  1  0.574705  0.653244  0.729708  1
  O  O32  1  0.041867  0.191166  0.392670  1
  O  O33  1  0.958133  0.808834  0.607330  1
  O  O34  1  0.641213  0.338249  0.460114  1
  O  O35  1  0.358787  0.661751  0.539886  1
