# generated using pymatgen
data_TmLu2Al8(SiOs)4
_symmetry_space_group_name_H-M   'P 1'
_cell_length_a   8.66733660
_cell_length_b   8.66733591
_cell_length_c   9.38029300
_cell_angle_alpha   90.00000000
_cell_angle_beta   90.00000000
_cell_angle_gamma   120.10213438
_symmetry_Int_Tables_number   1
_chemical_formula_structural   TmLu2Al8(SiOs)4
_chemical_formula_sum   'Tm2 Lu4 Al16 Si8 Os8'
_cell_volume   609.63577113
_cell_formula_units_Z   2
loop_
 _symmetry_equiv_pos_site_id
 _symmetry_equiv_pos_as_xyz
  1  'x, y, z'
loop_
 _atom_site_type_symbol
 _atom_site_label
 _atom_site_symmetry_multiplicity
 _atom_site_fract_x
 _atom_site_fract_y
 _atom_site_fract_z
 _atom_site_occupancy
  Tm  Tm0  1  0.195562  0.804438  0.250000  1
  Tm  Tm1  1  0.804438  0.195562  0.750000  1
  Lu  Lu2  1  0.193309  0.389980  0.250000  1
  Lu  Lu3  1  0.806691  0.610020  0.750000  1
  Lu  Lu4  1  0.610020  0.806691  0.250000  1
  Lu  Lu5  1  0.389980  0.193309  0.750000  1
  Al  Al6  1  0.165431  0.328900  0.578858  1
  Al  Al7  1  0.834569  0.671100  0.421142  1
  Al  Al8  1  0.671100  0.834569  0.578858  1
  Al  Al9  1  0.834569  0.671100  0.078858  1
  Al  Al10  1  0.328900  0.165431  0.421142  1
  Al  Al11  1  0.165431  0.328900  0.921142  1
  Al  Al12  1  0.164447  0.835553  0.579027  1
  Al  Al13  1  0.328900  0.165431  0.078858  1
  Al  Al14  1  0.835553  0.164447  0.420973  1
  Al  Al15  1  0.671100  0.834569  0.921142  1
  Al  Al16  1  0.835553  0.164447  0.079027  1
  Al  Al17  1  0.164447  0.835553  0.920973  1
  Al  Al18  1  0.564657  0.435343  0.250000  1
  Al  Al19  1  0.435343  0.564657  0.750000  1
  Al  Al20  1  0.000070  0.999930  0.250000  1
  Al  Al21  1  0.999930  0.000070  0.750000  1
  Si  Si22  1  0.335067  0.664933  0.042168  1
  Si  Si23  1  0.664933  0.335067  0.957832  1
  Si  Si24  1  0.664933  0.335067  0.542168  1
  Si  Si25  1  0.335067  0.664933  0.457832  1
  Si  Si26  1  0.563663  0.123816  0.250000  1
  Si  Si27  1  0.436337  0.876184  0.750000  1
  Si  Si28  1  0.876184  0.436337  0.250000  1
  Si  Si29  1  0.123816  0.563663  0.750000  1
  Os  Os30  1  0.500000  0.000000  0.000000  1
  Os  Os31  1  0.000000  0.500000  0.000000  1
  Os  Os32  1  0.500000  0.000000  0.500000  1
  Os  Os33  1  0.500000  0.500000  0.000000  1
  Os  Os34  1  0.000000  0.500000  0.500000  1
  Os  Os35  1  0.500000  0.500000  0.500000  1
  Os  Os36  1  0.000000  0.000000  0.000000  1
  Os  Os37  1  0.000000  0.000000  0.500000  1
