# generated using pymatgen
data_LaTb5DyCoI12
_symmetry_space_group_name_H-M   'P 1'
_cell_length_a   9.80792430
_cell_length_b   9.80597183
_cell_length_c   9.80939641
_cell_angle_alpha   106.34338709
_cell_angle_beta   106.35370036
_cell_angle_gamma   106.34942638
_symmetry_Int_Tables_number   1
_chemical_formula_structural   LaTb5DyCoI12
_chemical_formula_sum   'La1 Tb5 Dy1 Co1 I12'
_cell_volume   799.24395302
_cell_formula_units_Z   1
loop_
 _symmetry_equiv_pos_site_id
 _symmetry_equiv_pos_as_xyz
  1  'x, y, z'
loop_
 _atom_site_type_symbol
 _atom_site_label
 _atom_site_symmetry_multiplicity
 _atom_site_fract_x
 _atom_site_fract_y
 _atom_site_fract_z
 _atom_site_occupancy
  La  La0  1  0.995712  0.995682  0.995729  1
  Tb  Tb1  1  0.517209  0.588895  0.784505  1
  Tb  Tb2  1  0.784478  0.517094  0.589107  1
  Tb  Tb3  1  0.589176  0.784717  0.517287  1
  Tb  Tb4  1  0.481108  0.409232  0.214382  1
  Tb  Tb5  1  0.214343  0.480998  0.409376  1
  Dy  Dy6  1  0.409754  0.215215  0.481265  1
  Co  Co7  1  0.499513  0.499340  0.499578  1
  I  I8  1  0.276226  0.822480  0.426318  1
  I  I9  1  0.426239  0.276028  0.822005  1
  I  I10  1  0.822313  0.426284  0.276175  1
  I  I11  1  0.722158  0.176196  0.572041  1
  I  I12  1  0.572161  0.722548  0.176278  1
  I  I13  1  0.176241  0.572161  0.722550  1
  I  I14  1  0.044742  0.122867  0.350172  1
  I  I15  1  0.350070  0.044486  0.123104  1
  I  I16  1  0.122871  0.350058  0.044446  1
  I  I17  1  0.953590  0.874517  0.642935  1
  I  I18  1  0.642933  0.953602  0.874501  1
  I  I19  1  0.874530  0.642967  0.953614  1
