# generated using pymatgen
data_ZrCo5B3
_symmetry_space_group_name_H-M   'P 1'
_cell_length_a   5.65563172
_cell_length_b   5.65563178
_cell_length_c   5.65563195
_cell_angle_alpha   95.92727033
_cell_angle_beta   95.92727559
_cell_angle_gamma   95.92728361
_symmetry_Int_Tables_number   1
_chemical_formula_structural   ZrCo5B3
_chemical_formula_sum   'Zr2 Co10 B6'
_cell_volume   177.78221758
_cell_formula_units_Z   2
loop_
 _symmetry_equiv_pos_site_id
 _symmetry_equiv_pos_as_xyz
  1  'x, y, z'
loop_
 _atom_site_type_symbol
 _atom_site_label
 _atom_site_symmetry_multiplicity
 _atom_site_fract_x
 _atom_site_fract_y
 _atom_site_fract_z
 _atom_site_occupancy
  Zr  Zr0  1  0.687056  0.687056  0.687056  1
  Zr  Zr1  1  0.312944  0.312944  0.312944  1
  Co  Co2  1  0.000000  0.000000  0.000000  1
  Co  Co3  1  0.000000  0.000000  0.500000  1
  Co  Co4  1  0.500000  0.000000  0.000000  1
  Co  Co5  1  0.000000  0.500000  0.000000  1
  Co  Co6  1  0.705544  0.200630  0.705544  1
  Co  Co7  1  0.705544  0.705544  0.200630  1
  Co  Co8  1  0.200630  0.705544  0.705544  1
  Co  Co9  1  0.294456  0.799370  0.294456  1
  Co  Co10  1  0.294456  0.294456  0.799370  1
  Co  Co11  1  0.799370  0.294456  0.294456  1
  B  B12  1  0.615405  0.384595  0.000000  1
  B  B13  1  0.000000  0.615405  0.384595  1
  B  B14  1  0.384595  0.000000  0.615405  1
  B  B15  1  0.000000  0.384595  0.615405  1
  B  B16  1  0.615405  0.000000  0.384595  1
  B  B17  1  0.384595  0.615405  0.000000  1
