# generated using pymatgen
data_Th12In11Sb
_symmetry_space_group_name_H-M   'P 1'
_cell_length_a   10.86484137
_cell_length_b   9.90163866
_cell_length_c   6.56475800
_cell_angle_alpha   90.00003472
_cell_angle_beta   90.00001582
_cell_angle_gamma   90.14239076
_symmetry_Int_Tables_number   1
_chemical_formula_structural   Th12In11Sb
_chemical_formula_sum   'Th12 In11 Sb1'
_cell_volume   706.23273424
_cell_formula_units_Z   1
loop_
 _symmetry_equiv_pos_site_id
 _symmetry_equiv_pos_as_xyz
  1  'x, y, z'
loop_
 _atom_site_type_symbol
 _atom_site_label
 _atom_site_symmetry_multiplicity
 _atom_site_fract_x
 _atom_site_fract_y
 _atom_site_fract_z
 _atom_site_occupancy
  Th  Th0  1  0.611801  0.246471  0.000673  1
  Th  Th1  1  0.388463  0.751955  0.000094  1
  Th  Th2  1  0.315191  0.372235  0.250001  1
  Th  Th3  1  0.881956  0.463735  0.250001  1
  Th  Th4  1  0.681994  0.872180  0.250001  1
  Th  Th5  1  0.120375  0.966583  0.250002  1
  Th  Th6  1  0.611801  0.246470  0.499328  1
  Th  Th7  1  0.388463  0.751955  0.499907  1
  Th  Th8  1  0.880378  0.035024  0.749999  1
  Th  Th9  1  0.317036  0.126743  0.749999  1
  Th  Th10  1  0.118567  0.535885  0.749999  1
  Th  Th11  1  0.683907  0.628611  0.749999  1
  In  In12  1  0.075798  0.250257  0.998496  1
  In  In13  1  0.924583  0.750419  0.001484  1
  In  In14  1  0.857550  0.126567  0.250001  1
  In  In15  1  0.589466  0.551297  0.250001  1
  In  In16  1  0.143239  0.629031  0.250001  1
  In  In17  1  0.075798  0.250257  0.501505  1
  In  In18  1  0.924583  0.750419  0.498517  1
  In  In19  1  0.855626  0.373109  0.749999  1
  In  In20  1  0.411226  0.447641  0.749999  1
  In  In21  1  0.142435  0.872068  0.749999  1
  In  In22  1  0.591148  0.945277  0.749999  1
  Sb  Sb23  1  0.408614  0.055811  0.250001  1
