# generated using pymatgen
data_Tb3Y17(Cd3Os)2
_symmetry_space_group_name_H-M   'P 1'
_cell_length_a   9.64345000
_cell_length_b   9.64344954
_cell_length_c   9.91763100
_cell_angle_alpha   89.99999117
_cell_angle_beta   90.00001172
_cell_angle_gamma   120.00002716
_symmetry_Int_Tables_number   1
_chemical_formula_structural   Tb3Y17(Cd3Os)2
_chemical_formula_sum   'Tb3 Y17 Cd6 Os2'
_cell_volume   798.73608293
_cell_formula_units_Z   1
loop_
 _symmetry_equiv_pos_site_id
 _symmetry_equiv_pos_as_xyz
  1  'x, y, z'
loop_
 _atom_site_type_symbol
 _atom_site_label
 _atom_site_symmetry_multiplicity
 _atom_site_fract_x
 _atom_site_fract_y
 _atom_site_fract_z
 _atom_site_occupancy
  Tb  Tb0  1  0.209768  0.790232  0.440223  1
  Tb  Tb1  1  0.209768  0.419536  0.440223  1
  Tb  Tb2  1  0.580464  0.790232  0.440223  1
  Y  Y3  1  0.000000  0.000000  0.499875  1
  Y  Y4  1  0.000000  0.000000  0.000191  1
  Y  Y5  1  0.790256  0.209744  0.559604  1
  Y  Y6  1  0.790256  0.580511  0.559604  1
  Y  Y7  1  0.419489  0.209744  0.559604  1
  Y  Y8  1  0.790250  0.209750  0.940406  1
  Y  Y9  1  0.790250  0.580499  0.940406  1
  Y  Y10  1  0.419501  0.209750  0.940406  1
  Y  Y11  1  0.209674  0.790326  0.059495  1
  Y  Y12  1  0.209674  0.419349  0.059495  1
  Y  Y13  1  0.580651  0.790326  0.059495  1
  Y  Y14  1  0.540286  0.459714  0.250013  1
  Y  Y15  1  0.540286  0.080571  0.250013  1
  Y  Y16  1  0.919429  0.459714  0.250013  1
  Y  Y17  1  0.459723  0.540277  0.750006  1
  Y  Y18  1  0.459723  0.919446  0.750006  1
  Y  Y19  1  0.080554  0.540277  0.750006  1
  Cd  Cd20  1  0.885477  0.114523  0.249897  1
  Cd  Cd21  1  0.885477  0.770956  0.249897  1
  Cd  Cd22  1  0.229044  0.114523  0.249897  1
  Cd  Cd23  1  0.114531  0.885469  0.750138  1
  Cd  Cd24  1  0.114531  0.229061  0.750138  1
  Cd  Cd25  1  0.770939  0.885469  0.750138  1
  Os  Os26  1  0.333333  0.666667  0.250773  1
  Os  Os27  1  0.666667  0.333333  0.749818  1
