# generated using pymatgen
data_ZnNiAg4(SnO4)2
_symmetry_space_group_name_H-M   'P 1'
_cell_length_a   5.51661810
_cell_length_b   6.37642547
_cell_length_c   7.36216698
_cell_angle_alpha   64.20951630
_cell_angle_beta   104.55153821
_cell_angle_gamma   90.02317914
_symmetry_Int_Tables_number   1
_chemical_formula_structural   ZnNiAg4(SnO4)2
_chemical_formula_sum   'Zn1 Ni1 Ag4 Sn2 O8'
_cell_volume   223.92856911
_cell_formula_units_Z   1
loop_
 _symmetry_equiv_pos_site_id
 _symmetry_equiv_pos_as_xyz
  1  'x, y, z'
loop_
 _atom_site_type_symbol
 _atom_site_label
 _atom_site_symmetry_multiplicity
 _atom_site_fract_x
 _atom_site_fract_y
 _atom_site_fract_z
 _atom_site_occupancy
  Zn  Zn0  1  0.500127  0.256276  0.500074  1
  Ni  Ni1  1  0.999848  0.496657  0.499916  1
  Ag  Ag2  1  0.999137  0.001516  0.997542  1
  Ag  Ag3  1  0.498544  0.251127  0.996960  1
  Ag  Ag4  1  0.000800  0.499102  0.002527  1
  Ag  Ag5  1  0.501495  0.748216  0.002962  1
  Sn  Sn6  1  0.499828  0.740587  0.499979  1
  Sn  Sn7  1  0.000189  0.008841  0.500026  1
  O  O8  1  0.889558  0.671581  0.666260  1
  O  O9  1  0.388200  0.906536  0.667619  1
  O  O10  1  0.892348  0.165744  0.666007  1
  O  O11  1  0.385295  0.420421  0.666023  1
  O  O12  1  0.110397  0.838621  0.333789  1
  O  O13  1  0.611868  0.074980  0.332332  1
  O  O14  1  0.107819  0.332529  0.334049  1
  O  O15  1  0.614551  0.587265  0.333933  1
