# generated using pymatgen
data_Y2Ho2Al4IrPd3
_symmetry_space_group_name_H-M   'P 1'
_cell_length_a   4.42716000
_cell_length_b   6.85342023
_cell_length_c   7.80315727
_cell_angle_alpha   90.09840912
_cell_angle_beta   90.00000000
_cell_angle_gamma   90.00000000
_symmetry_Int_Tables_number   1
_chemical_formula_structural   Y2Ho2Al4IrPd3
_chemical_formula_sum   'Y2 Ho2 Al4 Ir1 Pd3'
_cell_volume   236.75671185
_cell_formula_units_Z   1
loop_
 _symmetry_equiv_pos_site_id
 _symmetry_equiv_pos_as_xyz
  1  'x, y, z'
loop_
 _atom_site_type_symbol
 _atom_site_label
 _atom_site_symmetry_multiplicity
 _atom_site_fract_x
 _atom_site_fract_y
 _atom_site_fract_z
 _atom_site_occupancy
  Y  Y0  1  0.250000  0.035222  0.678753  1
  Y  Y1  1  0.250000  0.531581  0.819171  1
  Ho  Ho2  1  0.750000  0.977250  0.319882  1
  Ho  Ho3  1  0.750000  0.463666  0.183909  1
  Al  Al4  1  0.250000  0.147215  0.064964  1
  Al  Al5  1  0.250000  0.639583  0.436726  1
  Al  Al6  1  0.750000  0.854741  0.939368  1
  Al  Al7  1  0.750000  0.353350  0.559675  1
  Ir  Ir8  1  0.250000  0.268768  0.380176  1
  Pd  Pd9  1  0.250000  0.772605  0.117978  1
  Pd  Pd10  1  0.750000  0.728320  0.617878  1
  Pd  Pd11  1  0.750000  0.227701  0.881520  1
