# generated using pymatgen
data_SmEr3Si2(P4O15)2
_symmetry_space_group_name_H-M   'P 1'
_cell_length_a   5.57207149
_cell_length_b   7.07123724
_cell_length_c   16.54063429
_cell_angle_alpha   89.80880331
_cell_angle_beta   89.95602534
_cell_angle_gamma   90.00426164
_symmetry_Int_Tables_number   1
_chemical_formula_structural   SmEr3Si2(P4O15)2
_chemical_formula_sum   'Sm1 Er3 Si2 P8 O30'
_cell_volume   651.72097672
_cell_formula_units_Z   1
loop_
 _symmetry_equiv_pos_site_id
 _symmetry_equiv_pos_as_xyz
  1  'x, y, z'
loop_
 _atom_site_type_symbol
 _atom_site_label
 _atom_site_symmetry_multiplicity
 _atom_site_fract_x
 _atom_site_fract_y
 _atom_site_fract_z
 _atom_site_occupancy
  Sm  Sm0  1  0.133308  0.905447  0.718616  1
  Er  Er1  1  0.864331  0.405156  0.783173  1
  Er  Er2  1  0.865168  0.595272  0.217515  1
  Er  Er3  1  0.134187  0.095416  0.282015  1
  Si  Si4  1  0.459437  0.499043  0.498970  1
  Si  Si5  1  0.541234  0.000640  0.001329  1
  P  P6  1  0.692473  0.909934  0.833787  1
  P  P7  1  0.692067  0.090447  0.170729  1
  P  P8  1  0.306913  0.589805  0.329386  1
  P  P9  1  0.308428  0.410411  0.669751  1
  P  P10  1  0.641130  0.136895  0.423493  1
  P  P11  1  0.645034  0.862016  0.571334  1
  P  P12  1  0.357975  0.364047  0.925525  1
  P  P13  1  0.357881  0.636177  0.075017  1
  O  O14  1  0.643310  0.335473  0.467406  1
  O  O15  1  0.646523  0.661099  0.529362  1
  O  O16  1  0.357409  0.163196  0.968273  1
  O  O17  1  0.355527  0.837293  0.032462  1
  O  O18  1  0.715079  0.076704  0.073908  1
  O  O19  1  0.721941  0.924847  0.930301  1
  O  O20  1  0.286255  0.426137  0.572915  1
  O  O21  1  0.283270  0.573526  0.426357  1
  O  O22  1  0.830854  0.078888  0.796052  1
  O  O23  1  0.837078  0.923494  0.207174  1
  O  O24  1  0.161490  0.424101  0.292493  1
  O  O25  1  0.161408  0.573945  0.707146  1
  O  O26  1  0.426437  0.908346  0.815947  1
  O  O27  1  0.426269  0.090425  0.190449  1
  O  O28  1  0.572681  0.590083  0.309382  1
  O  O29  1  0.573668  0.409944  0.690379  1
  O  O30  1  0.831688  0.733502  0.805116  1
  O  O31  1  0.834380  0.266152  0.198304  1
  O  O32  1  0.165154  0.766326  0.301921  1
  O  O33  1  0.164513  0.235687  0.697342  1
  O  O34  1  0.424379  0.118615  0.370488  1
  O  O35  1  0.431657  0.881560  0.625747  1
  O  O36  1  0.575591  0.386523  0.873004  1
  O  O37  1  0.576340  0.614876  0.127183  1
  O  O38  1  0.881899  0.105617  0.385535  1
  O  O39  1  0.886771  0.896411  0.607433  1
  O  O40  1  0.118293  0.394668  0.886540  1
  O  O41  1  0.118267  0.604245  0.113850  1
  O  O42  1  0.598612  0.997298  0.496723  1
  O  O43  1  0.393691  0.500308  0.000171  1
