# generated using pymatgen
data_Na4Sr2HfAs4
_symmetry_space_group_name_H-M   'P 1'
_cell_length_a   9.78800612
_cell_length_b   9.78800623
_cell_length_c   7.68171123
_cell_angle_alpha   89.81779681
_cell_angle_beta   89.81779180
_cell_angle_gamma   120.36841829
_symmetry_Int_Tables_number   1
_chemical_formula_structural   Na4Sr2HfAs4
_chemical_formula_sum   'Na8 Sr4 Hf2 As8'
_cell_volume   634.95640469
_cell_formula_units_Z   2
loop_
 _symmetry_equiv_pos_site_id
 _symmetry_equiv_pos_as_xyz
  1  'x, y, z'
loop_
 _atom_site_type_symbol
 _atom_site_label
 _atom_site_symmetry_multiplicity
 _atom_site_fract_x
 _atom_site_fract_y
 _atom_site_fract_z
 _atom_site_occupancy
  Na  Na0  1  0.469315  0.935467  0.383351  1
  Na  Na1  1  0.935467  0.469315  0.883351  1
  Na  Na2  1  0.867095  0.729357  0.207472  1
  Na  Na3  1  0.277742  0.131544  0.228087  1
  Na  Na4  1  0.855376  0.133929  0.221338  1
  Na  Na5  1  0.131544  0.277742  0.728087  1
  Na  Na6  1  0.729357  0.867095  0.707472  1
  Na  Na7  1  0.133929  0.855376  0.721338  1
  Sr  Sr8  1  0.058104  0.533538  0.387978  1
  Sr  Sr9  1  0.476716  0.535480  0.385425  1
  Sr  Sr10  1  0.533538  0.058104  0.887978  1
  Sr  Sr11  1  0.535480  0.476716  0.885425  1
  Hf  Hf12  1  0.663021  0.327080  0.496563  1
  Hf  Hf13  1  0.327080  0.663021  0.996563  1
  As  As14  1  0.191435  0.375450  0.113485  1
  As  As15  1  0.623054  0.809755  0.095918  1
  As  As16  1  0.190235  0.813505  0.103191  1
  As  As17  1  0.809755  0.623054  0.595918  1
  As  As18  1  0.375450  0.191435  0.613485  1
  As  As19  1  0.813505  0.190235  0.603191  1
  As  As20  1  0.665479  0.337338  0.159493  1
  As  As21  1  0.337338  0.665479  0.659493  1
