# generated using pymatgen
data_Th3AlHg2PdPt2
_symmetry_space_group_name_H-M   'P 1'
_cell_length_a   7.77045135
_cell_length_b   7.60299389
_cell_length_c   4.00241400
_cell_angle_alpha   90.00000000
_cell_angle_beta   90.00000000
_cell_angle_gamma   119.28966194
_symmetry_Int_Tables_number   1
_chemical_formula_structural   Th3AlHg2PdPt2
_chemical_formula_sum   'Th3 Al1 Hg2 Pd1 Pt2'
_cell_volume   206.22810238
_cell_formula_units_Z   1
loop_
 _symmetry_equiv_pos_site_id
 _symmetry_equiv_pos_as_xyz
  1  'x, y, z'
loop_
 _atom_site_type_symbol
 _atom_site_label
 _atom_site_symmetry_multiplicity
 _atom_site_fract_x
 _atom_site_fract_y
 _atom_site_fract_z
 _atom_site_occupancy
  Th  Th0  1  0.408345  0.411433  0.500000  1
  Th  Th1  1  0.591655  0.003088  0.500000  1
  Th  Th2  1  0.000000  0.585213  0.500000  1
  Al  Al3  1  0.000000  0.246965  0.000000  1
  Hg  Hg4  1  0.747815  0.748652  0.000000  1
  Hg  Hg5  1  0.252185  0.000836  0.000000  1
  Pd  Pd6  1  0.000000  0.041329  0.500000  1
  Pt  Pt7  1  0.689540  0.326012  0.000000  1
  Pt  Pt8  1  0.310460  0.636471  0.000000  1
