# generated using pymatgen
data_Y2SiNiSe
_symmetry_space_group_name_H-M   'P 1'
_cell_length_a   4.01239300
_cell_length_b   4.01239302
_cell_length_c   14.83722000
_cell_angle_alpha   90.00000000
_cell_angle_beta   90.00000000
_cell_angle_gamma   120.00000810
_symmetry_Int_Tables_number   1
_chemical_formula_structural   Y2SiNiSe
_chemical_formula_sum   'Y4 Si2 Ni2 Se2'
_cell_volume   206.86645046
_cell_formula_units_Z   2
loop_
 _symmetry_equiv_pos_site_id
 _symmetry_equiv_pos_as_xyz
  1  'x, y, z'
loop_
 _atom_site_type_symbol
 _atom_site_label
 _atom_site_symmetry_multiplicity
 _atom_site_fract_x
 _atom_site_fract_y
 _atom_site_fract_z
 _atom_site_occupancy
  Y  Y0  1  0.666667  0.333333  0.376320  1
  Y  Y1  1  0.333333  0.666667  0.876320  1
  Y  Y2  1  0.333333  0.666667  0.623680  1
  Y  Y3  1  0.666667  0.333333  0.123680  1
  Si  Si4  1  0.333333  0.666667  0.250000  1
  Si  Si5  1  0.666667  0.333333  0.750000  1
  Ni  Ni6  1  0.000000  0.000000  0.750000  1
  Ni  Ni7  1  0.000000  0.000000  0.250000  1
  Se  Se8  1  0.000000  0.000000  0.000000  1
  Se  Se9  1  0.000000  0.000000  0.500000  1
