# generated using pymatgen
data_RbNdSiS4
_symmetry_space_group_name_H-M   'P 1'
_cell_length_a   6.76265400
_cell_length_b   6.55227999
_cell_length_c   18.27821155
_cell_angle_alpha   72.20270685
_cell_angle_beta   90.00000000
_cell_angle_gamma   90.00000000
_symmetry_Int_Tables_number   1
_chemical_formula_structural   RbNdSiS4
_chemical_formula_sum   'Rb4 Nd4 Si4 S16'
_cell_volume   771.16244976
_cell_formula_units_Z   4
loop_
 _symmetry_equiv_pos_site_id
 _symmetry_equiv_pos_as_xyz
  1  'x, y, z'
loop_
 _atom_site_type_symbol
 _atom_site_label
 _atom_site_symmetry_multiplicity
 _atom_site_fract_x
 _atom_site_fract_y
 _atom_site_fract_z
 _atom_site_occupancy
  Rb  Rb0  1  0.249294  0.716650  0.034857  1
  Rb  Rb1  1  0.250706  0.716650  0.534857  1
  Rb  Rb2  1  0.749294  0.283350  0.465143  1
  Rb  Rb3  1  0.750706  0.283350  0.965143  1
  Nd  Nd4  1  0.771688  0.228024  0.226741  1
  Nd  Nd5  1  0.228312  0.771976  0.773259  1
  Nd  Nd6  1  0.728312  0.228024  0.726741  1
  Nd  Nd7  1  0.271688  0.771976  0.273259  1
  Si  Si8  1  0.260912  0.214931  0.837060  1
  Si  Si9  1  0.239088  0.214931  0.337060  1
  Si  Si10  1  0.760912  0.785069  0.662940  1
  Si  Si11  1  0.739088  0.785069  0.162940  1
  S  S12  1  0.498875  0.977608  0.649651  1
  S  S13  1  0.188923  0.406975  0.220744  1
  S  S14  1  0.501125  0.022392  0.350349  1
  S  S15  1  0.998875  0.022392  0.850349  1
  S  S16  1  0.311077  0.406975  0.720744  1
  S  S17  1  0.256226  0.410035  0.910215  1
  S  S18  1  0.743774  0.589965  0.089785  1
  S  S19  1  0.811077  0.593025  0.779256  1
  S  S20  1  0.756226  0.589965  0.589785  1
  S  S21  1  0.243774  0.410035  0.410215  1
  S  S22  1  0.491949  0.980396  0.859519  1
  S  S23  1  0.991949  0.019604  0.640481  1
  S  S24  1  0.508051  0.019604  0.140481  1
  S  S25  1  0.001125  0.977608  0.149651  1
  S  S26  1  0.008051  0.980396  0.359519  1
  S  S27  1  0.688923  0.593025  0.279256  1
