# generated using pymatgen
data_Ba2Si3Ni18P7
_symmetry_space_group_name_H-M   'P 1'
_cell_length_a   6.60053900
_cell_length_b   6.60070096
_cell_length_c   10.78105300
_cell_angle_alpha   89.99942872
_cell_angle_beta   90.00005261
_cell_angle_gamma   119.99833703
_symmetry_Int_Tables_number   1
_chemical_formula_structural   Ba2Si3Ni18P7
_chemical_formula_sum   'Ba2 Si3 Ni18 P7'
_cell_volume   406.78838976
_cell_formula_units_Z   1
loop_
 _symmetry_equiv_pos_site_id
 _symmetry_equiv_pos_as_xyz
  1  'x, y, z'
loop_
 _atom_site_type_symbol
 _atom_site_label
 _atom_site_symmetry_multiplicity
 _atom_site_fract_x
 _atom_site_fract_y
 _atom_site_fract_z
 _atom_site_occupancy
  Ba  Ba0  1  0.999981  0.999978  0.000264  1
  Ba  Ba1  1  0.999984  0.999983  0.500052  1
  Si  Si2  1  0.333336  0.666677  0.064639  1
  Si  Si3  1  0.666657  0.333315  0.564461  1
  Si  Si4  1  0.666659  0.333317  0.935213  1
  Ni  Ni5  1  0.538751  0.077496  0.110063  1
  Ni  Ni6  1  0.461228  0.538778  0.609486  1
  Ni  Ni7  1  0.077546  0.538777  0.609489  1
  Ni  Ni8  1  0.922524  0.461263  0.110038  1
  Ni  Ni9  1  0.538743  0.461264  0.110047  1
  Ni  Ni10  1  0.461271  0.922541  0.889158  1
  Ni  Ni11  1  0.461273  0.538750  0.889132  1
  Ni  Ni12  1  0.461224  0.922448  0.609469  1
  Ni  Ni13  1  0.077481  0.538750  0.889120  1
  Ni  Ni14  1  0.928667  0.464333  0.391204  1
  Ni  Ni15  1  0.535669  0.071345  0.391198  1
  Ni  Ni16  1  0.535658  0.464339  0.391206  1
  Ni  Ni17  1  0.202888  0.405785  0.249223  1
  Ni  Ni18  1  0.796731  0.203241  0.749679  1
  Ni  Ni19  1  0.406541  0.203255  0.749676  1
  Ni  Ni20  1  0.594209  0.797106  0.249226  1
  Ni  Ni21  1  0.202894  0.797103  0.249222  1
  Ni  Ni22  1  0.796733  0.593462  0.749672  1
  P  P23  1  0.824557  0.649111  0.250370  1
  P  P24  1  0.173984  0.826061  0.749797  1
  P  P25  1  0.652063  0.826040  0.749798  1
  P  P26  1  0.350865  0.175438  0.250373  1
  P  P27  1  0.824571  0.175437  0.250371  1
  P  P28  1  0.173979  0.347929  0.749796  1
  P  P29  1  0.333332  0.666680  0.438558  1
