# generated using pymatgen
data_Ho2Er8Cd3Fe
_symmetry_space_group_name_H-M   'P 1'
_cell_length_a   9.48656800
_cell_length_b   9.48268739
_cell_length_c   9.66492300
_cell_angle_alpha   90.00000000
_cell_angle_beta   90.00000000
_cell_angle_gamma   119.98775848
_symmetry_Int_Tables_number   1
_chemical_formula_structural   Ho2Er8Cd3Fe
_chemical_formula_sum   'Ho4 Er16 Cd6 Fe2'
_cell_volume   753.04884452
_cell_formula_units_Z   2
loop_
 _symmetry_equiv_pos_site_id
 _symmetry_equiv_pos_as_xyz
  1  'x, y, z'
loop_
 _atom_site_type_symbol
 _atom_site_label
 _atom_site_symmetry_multiplicity
 _atom_site_fract_x
 _atom_site_fract_y
 _atom_site_fract_z
 _atom_site_occupancy
  Ho  Ho0  1  0.916343  0.458158  0.250000  1
  Ho  Ho1  1  0.458364  0.541458  0.750000  1
  Ho  Ho2  1  0.458354  0.916889  0.750000  1
  Ho  Ho3  1  0.082709  0.541365  0.750000  1
  Er  Er4  1  0.000083  0.000029  0.499800  1
  Er  Er5  1  0.000083  0.000029  0.000200  1
  Er  Er6  1  0.541534  0.458264  0.250000  1
  Er  Er7  1  0.541528  0.083269  0.250000  1
  Er  Er8  1  0.212226  0.788342  0.436319  1
  Er  Er9  1  0.212252  0.423915  0.436329  1
  Er  Er10  1  0.576268  0.788137  0.436274  1
  Er  Er11  1  0.787756  0.211767  0.563317  1
  Er  Er12  1  0.787750  0.575980  0.563310  1
  Er  Er13  1  0.424162  0.212061  0.563195  1
  Er  Er14  1  0.787756  0.211767  0.936683  1
  Er  Er15  1  0.787750  0.575980  0.936690  1
  Er  Er16  1  0.424162  0.212061  0.936805  1
  Er  Er17  1  0.212226  0.788342  0.063681  1
  Er  Er18  1  0.212252  0.423915  0.063671  1
  Er  Er19  1  0.576268  0.788137  0.063726  1
  Cd  Cd20  1  0.884700  0.114329  0.250000  1
  Cd  Cd21  1  0.884703  0.770367  0.250000  1
  Cd  Cd22  1  0.229987  0.114992  0.250000  1
  Cd  Cd23  1  0.114628  0.885705  0.750000  1
  Cd  Cd24  1  0.114649  0.228959  0.750000  1
  Cd  Cd25  1  0.771009  0.885528  0.750000  1
  Fe  Fe26  1  0.333648  0.666830  0.250000  1
  Fe  Fe27  1  0.666845  0.333424  0.750000  1
