# generated using pymatgen
data_Nd3Pa(InRh2)2
_symmetry_space_group_name_H-M   'P 1'
_cell_length_a   7.77983369
_cell_length_b   7.77983337
_cell_length_c   3.76620200
_cell_angle_alpha   90.00000000
_cell_angle_beta   90.00000000
_cell_angle_gamma   92.54917806
_symmetry_Int_Tables_number   1
_chemical_formula_structural   Nd3Pa(InRh2)2
_chemical_formula_sum   'Nd3 Pa1 In2 Rh4'
_cell_volume   227.72684725
_cell_formula_units_Z   1
loop_
 _symmetry_equiv_pos_site_id
 _symmetry_equiv_pos_as_xyz
  1  'x, y, z'
loop_
 _atom_site_type_symbol
 _atom_site_label
 _atom_site_symmetry_multiplicity
 _atom_site_fract_x
 _atom_site_fract_y
 _atom_site_fract_z
 _atom_site_occupancy
  Nd  Nd0  1  0.325665  0.825665  0.500000  1
  Nd  Nd1  1  0.832939  0.669399  0.500000  1
  Nd  Nd2  1  0.169399  0.332939  0.500000  1
  Pa  Pa3  1  0.662678  0.162678  0.500000  1
  In  In4  1  0.499843  0.506856  0.000000  1
  In  In5  1  0.006856  0.999843  0.000000  1
  Rh  Rh6  1  0.393873  0.146666  0.000000  1
  Rh  Rh7  1  0.121489  0.621489  0.000000  1
  Rh  Rh8  1  0.840591  0.340591  0.000000  1
  Rh  Rh9  1  0.646666  0.893873  0.000000  1
