# generated using pymatgen
data_Hf6Zn5PdC2
_symmetry_space_group_name_H-M   'P 1'
_cell_length_a   8.59005955
_cell_length_b   8.59006005
_cell_length_c   8.61314000
_cell_angle_alpha   59.91108082
_cell_angle_beta   59.91107890
_cell_angle_gamma   59.71228351
_symmetry_Int_Tables_number   1
_chemical_formula_structural   Hf6Zn5PdC2
_chemical_formula_sum   'Hf12 Zn10 Pd2 C4'
_cell_volume   447.81966405
_cell_formula_units_Z   2
loop_
 _symmetry_equiv_pos_site_id
 _symmetry_equiv_pos_as_xyz
  1  'x, y, z'
loop_
 _atom_site_type_symbol
 _atom_site_label
 _atom_site_symmetry_multiplicity
 _atom_site_fract_x
 _atom_site_fract_y
 _atom_site_fract_z
 _atom_site_occupancy
  Hf  Hf0  1  0.439122  0.439122  0.060878  1
  Hf  Hf1  1  0.059837  0.437857  0.064145  1
  Hf  Hf2  1  0.437857  0.059837  0.064145  1
  Hf  Hf3  1  0.061509  0.061509  0.438491  1
  Hf  Hf4  1  0.437857  0.059837  0.438161  1
  Hf  Hf5  1  0.059837  0.437857  0.438161  1
  Hf  Hf6  1  0.810878  0.810878  0.189122  1
  Hf  Hf7  1  0.190163  0.812143  0.185855  1
  Hf  Hf8  1  0.812143  0.190163  0.185855  1
  Hf  Hf9  1  0.188491  0.188491  0.811509  1
  Hf  Hf10  1  0.812143  0.190163  0.811839  1
  Hf  Hf11  1  0.190163  0.812143  0.811839  1
  Zn  Zn12  1  0.832852  0.832852  0.501691  1
  Zn  Zn13  1  0.832863  0.503722  0.831708  1
  Zn  Zn14  1  0.503722  0.832863  0.831708  1
  Zn  Zn15  1  0.832852  0.832852  0.832604  1
  Zn  Zn16  1  0.417148  0.417148  0.748309  1
  Zn  Zn17  1  0.417137  0.746278  0.418292  1
  Zn  Zn18  1  0.746278  0.417137  0.418292  1
  Zn  Zn19  1  0.417148  0.417148  0.417396  1
  Zn  Zn20  1  0.625000  0.125000  0.625000  1
  Zn  Zn21  1  0.125000  0.625000  0.625000  1
  Pd  Pd22  1  0.625000  0.625000  0.125000  1
  Pd  Pd23  1  0.625000  0.625000  0.625000  1
  C  C24  1  0.125000  0.125000  0.625000  1
  C  C25  1  0.125000  0.625000  0.125000  1
  C  C26  1  0.625000  0.125000  0.125000  1
  C  C27  1  0.125000  0.125000  0.125000  1
