# generated using pymatgen
data_Ti2GeIr4Rh
_symmetry_space_group_name_H-M   'P 1'
_cell_length_a   3.97769300
_cell_length_b   5.45330000
_cell_length_c   10.76936300
_cell_angle_alpha   90.00000000
_cell_angle_beta   90.00000000
_cell_angle_gamma   90.00000000
_symmetry_Int_Tables_number   1
_chemical_formula_structural   Ti2GeIr4Rh
_chemical_formula_sum   'Ti4 Ge2 Ir8 Rh2'
_cell_volume   233.60421084
_cell_formula_units_Z   2
loop_
 _symmetry_equiv_pos_site_id
 _symmetry_equiv_pos_as_xyz
  1  'x, y, z'
loop_
 _atom_site_type_symbol
 _atom_site_label
 _atom_site_symmetry_multiplicity
 _atom_site_fract_x
 _atom_site_fract_y
 _atom_site_fract_z
 _atom_site_occupancy
  Ti  Ti0  1  0.500000  0.321301  0.140439  1
  Ti  Ti1  1  0.500000  0.678699  0.859561  1
  Ti  Ti2  1  0.500000  0.821301  0.359561  1
  Ti  Ti3  1  0.500000  0.178699  0.640439  1
  Ge  Ge4  1  0.000000  0.000000  0.000000  1
  Ge  Ge5  1  0.000000  0.500000  0.500000  1
  Ir  Ir6  1  0.000000  0.064737  0.248046  1
  Ir  Ir7  1  0.000000  0.935263  0.751954  1
  Ir  Ir8  1  0.000000  0.564737  0.251954  1
  Ir  Ir9  1  0.000000  0.435263  0.748046  1
  Ir  Ir10  1  0.500000  0.307686  0.388140  1
  Ir  Ir11  1  0.500000  0.692314  0.611860  1
  Ir  Ir12  1  0.500000  0.807686  0.111860  1
  Ir  Ir13  1  0.500000  0.192314  0.888140  1
  Rh  Rh14  1  0.000000  0.000000  0.500000  1
  Rh  Rh15  1  0.000000  0.500000  0.000000  1
