# generated using pymatgen
data_K2Rb6PuAs4
_symmetry_space_group_name_H-M   'P 1'
_cell_length_a   11.44256750
_cell_length_b   11.44256722
_cell_length_c   11.44256700
_cell_angle_alpha   59.99999775
_cell_angle_beta   59.99999857
_cell_angle_gamma   60.00000157
_symmetry_Int_Tables_number   1
_chemical_formula_structural   K2Rb6PuAs4
_chemical_formula_sum   'K4 Rb12 Pu2 As8'
_cell_volume   1059.38889207
_cell_formula_units_Z   2
loop_
 _symmetry_equiv_pos_site_id
 _symmetry_equiv_pos_as_xyz
  1  'x, y, z'
loop_
 _atom_site_type_symbol
 _atom_site_label
 _atom_site_symmetry_multiplicity
 _atom_site_fract_x
 _atom_site_fract_y
 _atom_site_fract_z
 _atom_site_occupancy
  K  K0  1  0.625000  0.125000  0.625000  1
  K  K1  1  0.625000  0.625000  0.125000  1
  K  K2  1  0.125000  0.625000  0.625000  1
  K  K3  1  0.625000  0.625000  0.625000  1
  Rb  Rb4  1  0.033234  0.033234  0.466766  1
  Rb  Rb5  1  0.783234  0.216766  0.216766  1
  Rb  Rb6  1  0.216766  0.783234  0.783234  1
  Rb  Rb7  1  0.783234  0.783234  0.216766  1
  Rb  Rb8  1  0.783234  0.216766  0.783234  1
  Rb  Rb9  1  0.216766  0.783234  0.216766  1
  Rb  Rb10  1  0.466766  0.033234  0.466766  1
  Rb  Rb11  1  0.466766  0.033234  0.033234  1
  Rb  Rb12  1  0.033234  0.466766  0.466766  1
  Rb  Rb13  1  0.033234  0.466766  0.033234  1
  Rb  Rb14  1  0.216766  0.216766  0.783234  1
  Rb  Rb15  1  0.466766  0.466766  0.033234  1
  Pu  Pu16  1  0.750000  0.750000  0.750000  1
  Pu  Pu17  1  0.500000  0.500000  0.500000  1
  As  As18  1  0.399261  0.802216  0.399261  1
  As  As19  1  0.850739  0.850739  0.447784  1
  As  As20  1  0.447784  0.850739  0.850739  1
  As  As21  1  0.850739  0.850739  0.850739  1
  As  As22  1  0.802216  0.399261  0.399261  1
  As  As23  1  0.399261  0.399261  0.399261  1
  As  As24  1  0.399261  0.399261  0.802216  1
  As  As25  1  0.850739  0.447784  0.850739  1
