# generated using pymatgen
data_CsMoF4
_symmetry_space_group_name_H-M   'P 1'
_cell_length_a   7.06661200
_cell_length_b   8.16918600
_cell_length_c   8.13800300
_cell_angle_alpha   90.00000000
_cell_angle_beta   90.00000000
_cell_angle_gamma   90.00000000
_symmetry_Int_Tables_number   1
_chemical_formula_structural   CsMoF4
_chemical_formula_sum   'Cs4 Mo4 F16'
_cell_volume   469.79444429
_cell_formula_units_Z   4
loop_
 _symmetry_equiv_pos_site_id
 _symmetry_equiv_pos_as_xyz
  1  'x, y, z'
loop_
 _atom_site_type_symbol
 _atom_site_label
 _atom_site_symmetry_multiplicity
 _atom_site_fract_x
 _atom_site_fract_y
 _atom_site_fract_z
 _atom_site_occupancy
  Cs  Cs0  1  0.522069  0.500000  0.500000  1
  Cs  Cs1  1  0.477931  0.000000  0.000000  1
  Cs  Cs2  1  0.490129  0.500000  0.000000  1
  Cs  Cs3  1  0.509871  0.000000  0.500000  1
  Mo  Mo4  1  0.000000  0.250000  0.250000  1
  Mo  Mo5  1  0.000000  0.750000  0.250000  1
  Mo  Mo6  1  0.000000  0.250000  0.750000  1
  Mo  Mo7  1  0.000000  0.750000  0.750000  1
  F  F8  1  0.951950  0.500000  0.308053  1
  F  F9  1  0.951950  0.500000  0.691947  1
  F  F10  1  0.048050  0.000000  0.191947  1
  F  F11  1  0.048050  0.000000  0.808053  1
  F  F12  1  0.955141  0.188356  0.500000  1
  F  F13  1  0.955141  0.811644  0.500000  1
  F  F14  1  0.044859  0.311644  0.000000  1
  F  F15  1  0.044859  0.688356  0.000000  1
  F  F16  1  0.709686  0.228467  0.218717  1
  F  F17  1  0.709686  0.771533  0.218717  1
  F  F18  1  0.709686  0.228467  0.781283  1
  F  F19  1  0.709686  0.771533  0.781283  1
  F  F20  1  0.290314  0.271533  0.281283  1
  F  F21  1  0.290314  0.728467  0.281283  1
  F  F22  1  0.290314  0.271533  0.718717  1
  F  F23  1  0.290314  0.728467  0.718717  1
