# generated using pymatgen
data_Ba3SrRh2O9
_symmetry_space_group_name_H-M   'P 1'
_cell_length_a   6.01770286
_cell_length_b   6.01770187
_cell_length_c   15.32902716
_cell_angle_alpha   88.64078845
_cell_angle_beta   88.64078758
_cell_angle_gamma   119.44824012
_symmetry_Int_Tables_number   1
_chemical_formula_structural   Ba3SrRh2O9
_chemical_formula_sum   'Ba6 Sr2 Rh4 O18'
_cell_volume   482.85118267
_cell_formula_units_Z   2
loop_
 _symmetry_equiv_pos_site_id
 _symmetry_equiv_pos_as_xyz
  1  'x, y, z'
loop_
 _atom_site_type_symbol
 _atom_site_label
 _atom_site_symmetry_multiplicity
 _atom_site_fract_x
 _atom_site_fract_y
 _atom_site_fract_z
 _atom_site_occupancy
  Ba  Ba0  1  0.346851  0.675004  0.899195  1
  Ba  Ba1  1  0.324996  0.653149  0.600805  1
  Ba  Ba2  1  0.653149  0.324996  0.100805  1
  Ba  Ba3  1  0.675004  0.346851  0.399195  1
  Ba  Ba4  1  0.992490  0.007510  0.750000  1
  Ba  Ba5  1  0.007510  0.992490  0.250000  1
  Sr  Sr6  1  0.000000  0.000000  0.500000  1
  Sr  Sr7  1  0.000000  0.000000  0.000000  1
  Rh  Rh8  1  0.693767  0.359073  0.838404  1
  Rh  Rh9  1  0.640927  0.306233  0.661596  1
  Rh  Rh10  1  0.359073  0.693767  0.338404  1
  Rh  Rh11  1  0.306233  0.640927  0.161596  1
  O  O12  1  0.877500  0.687861  0.891495  1
  O  O13  1  0.312139  0.122500  0.608505  1
  O  O14  1  0.122500  0.312139  0.108505  1
  O  O15  1  0.687861  0.877500  0.391495  1
  O  O16  1  0.883880  0.227194  0.899675  1
  O  O17  1  0.772806  0.116120  0.600325  1
  O  O18  1  0.116120  0.772806  0.100325  1
  O  O19  1  0.227194  0.883880  0.399675  1
  O  O20  1  0.421414  0.229353  0.926859  1
  O  O21  1  0.770647  0.578586  0.573141  1
  O  O22  1  0.578586  0.770647  0.073141  1
  O  O23  1  0.229353  0.421414  0.426859  1
  O  O24  1  0.484568  0.515432  0.250000  1
  O  O25  1  0.515432  0.484568  0.750000  1
  O  O26  1  0.482410  0.958871  0.234878  1
  O  O27  1  0.041129  0.517590  0.265122  1
  O  O28  1  0.517590  0.041129  0.765122  1
  O  O29  1  0.958871  0.482410  0.734878  1
