# generated using pymatgen
data_SmHo4(RhO6)2
_symmetry_space_group_name_H-M   'P 1'
_cell_length_a   6.86461654
_cell_length_b   6.86461621
_cell_length_c   7.31134613
_cell_angle_alpha   74.48462197
_cell_angle_beta   74.48461927
_cell_angle_gamma   51.07582119
_symmetry_Int_Tables_number   1
_chemical_formula_structural   SmHo4(RhO6)2
_chemical_formula_sum   'Sm1 Ho4 Rh2 O12'
_cell_volume   255.98884122
_cell_formula_units_Z   1
loop_
 _symmetry_equiv_pos_site_id
 _symmetry_equiv_pos_as_xyz
  1  'x, y, z'
loop_
 _atom_site_type_symbol
 _atom_site_label
 _atom_site_symmetry_multiplicity
 _atom_site_fract_x
 _atom_site_fract_y
 _atom_site_fract_z
 _atom_site_occupancy
  Sm  Sm0  1  0.000000  0.000000  0.500000  1
  Ho  Ho1  1  0.302556  0.302556  0.359834  1
  Ho  Ho2  1  0.697444  0.697444  0.640166  1
  Ho  Ho3  1  0.308204  0.308204  0.830152  1
  Ho  Ho4  1  0.691796  0.691796  0.169848  1
  Rh  Rh5  1  0.752469  0.247531  0.000000  1
  Rh  Rh6  1  0.247531  0.752469  0.000000  1
  O  O7  1  0.900945  0.431565  0.915824  1
  O  O8  1  0.431565  0.900945  0.915824  1
  O  O9  1  0.099055  0.568435  0.084176  1
  O  O10  1  0.568435  0.099055  0.084176  1
  O  O11  1  0.097009  0.590930  0.576254  1
  O  O12  1  0.590930  0.097009  0.576254  1
  O  O13  1  0.902991  0.409070  0.423746  1
  O  O14  1  0.409070  0.902991  0.423746  1
  O  O15  1  0.999824  0.999824  0.820206  1
  O  O16  1  0.000176  0.000176  0.179794  1
  O  O17  1  0.499990  0.499990  0.808932  1
  O  O18  1  0.500010  0.500010  0.191068  1
