# generated using pymatgen
data_Hf2Zr8CuBiPb6
_symmetry_space_group_name_H-M   'P 1'
_cell_length_a   8.87933600
_cell_length_b   8.87933676
_cell_length_c   6.01782400
_cell_angle_alpha   90.00000000
_cell_angle_beta   90.00000000
_cell_angle_gamma   119.99998972
_symmetry_Int_Tables_number   1
_chemical_formula_structural   Hf2Zr8CuBiPb6
_chemical_formula_sum   'Hf2 Zr8 Cu1 Bi1 Pb6'
_cell_volume   410.89530269
_cell_formula_units_Z   1
loop_
 _symmetry_equiv_pos_site_id
 _symmetry_equiv_pos_as_xyz
  1  'x, y, z'
loop_
 _atom_site_type_symbol
 _atom_site_label
 _atom_site_symmetry_multiplicity
 _atom_site_fract_x
 _atom_site_fract_y
 _atom_site_fract_z
 _atom_site_occupancy
  Hf  Hf0  1  0.666667  0.333333  0.500000  1
  Hf  Hf1  1  0.333333  0.666667  0.500000  1
  Zr  Zr2  1  0.333333  0.666667  0.000000  1
  Zr  Zr3  1  0.666667  0.333333  0.000000  1
  Zr  Zr4  1  0.728405  0.728405  0.230788  1
  Zr  Zr5  1  0.271595  0.000000  0.230788  1
  Zr  Zr6  1  0.000000  0.271595  0.230788  1
  Zr  Zr7  1  0.271595  0.271595  0.769212  1
  Zr  Zr8  1  0.728405  0.000000  0.769212  1
  Zr  Zr9  1  0.000000  0.728405  0.769212  1
  Cu  Cu10  1  0.000000  0.000000  0.000000  1
  Bi  Bi11  1  0.000000  0.000000  0.500000  1
  Pb  Pb12  1  0.386385  0.386385  0.256592  1
  Pb  Pb13  1  0.613615  0.000000  0.256592  1
  Pb  Pb14  1  0.000000  0.613615  0.256592  1
  Pb  Pb15  1  0.613615  0.613615  0.743408  1
  Pb  Pb16  1  0.386385  0.000000  0.743408  1
  Pb  Pb17  1  0.000000  0.386385  0.743408  1
