# generated using pymatgen
data_LaLu3(Si5Os3)2
_symmetry_space_group_name_H-M   'P 1'
_cell_length_a   8.16324842
_cell_length_b   8.14315984
_cell_length_c   5.78428065
_cell_angle_alpha   70.66823099
_cell_angle_beta   70.46333780
_cell_angle_gamma   94.13571555
_symmetry_Int_Tables_number   1
_chemical_formula_structural   LaLu3(Si5Os3)2
_chemical_formula_sum   'La1 Lu3 Si10 Os6'
_cell_volume   334.63578410
_cell_formula_units_Z   1
loop_
 _symmetry_equiv_pos_site_id
 _symmetry_equiv_pos_as_xyz
  1  'x, y, z'
loop_
 _atom_site_type_symbol
 _atom_site_label
 _atom_site_symmetry_multiplicity
 _atom_site_fract_x
 _atom_site_fract_y
 _atom_site_fract_z
 _atom_site_occupancy
  La  La0  1  0.867557  0.601124  0.756053  1
  Lu  Lu1  1  0.399986  0.130082  0.746843  1
  Lu  Lu2  1  0.131752  0.399788  0.245078  1
  Lu  Lu3  1  0.600794  0.867985  0.254001  1
  Si  Si4  1  0.072006  0.261835  0.832353  1
  Si  Si5  1  0.736619  0.937532  0.665744  1
  Si  Si6  1  0.932749  0.739734  0.165966  1
  Si  Si7  1  0.259709  0.068632  0.333087  1
  Si  Si8  1  0.210198  0.797503  0.749310  1
  Si  Si9  1  0.793375  0.205997  0.248065  1
  Si  Si10  1  0.507098  0.484286  0.754296  1
  Si  Si11  1  0.485435  0.510316  0.251160  1
  Si  Si12  1  0.774351  0.220407  0.751200  1
  Si  Si13  1  0.228345  0.775295  0.245702  1
  Os  Os14  1  0.257794  0.545167  0.631018  1
  Os  Os15  1  0.457067  0.745523  0.866670  1
  Os  Os16  1  0.742786  0.453371  0.372902  1
  Os  Os17  1  0.541399  0.250621  0.132517  1
  Os  Os18  1  0.003315  0.999950  0.749293  1
  Os  Os19  1  0.997664  0.004854  0.248742  1
