# generated using pymatgen
data_Lu6MoO12
_symmetry_space_group_name_H-M   'P 1'
_cell_length_a   6.33391019
_cell_length_b   6.33391050
_cell_length_c   6.33391061
_cell_angle_alpha   98.77919303
_cell_angle_beta   98.77920009
_cell_angle_gamma   98.77920755
_symmetry_Int_Tables_number   1
_chemical_formula_structural   Lu6MoO12
_chemical_formula_sum   'Lu6 Mo1 O12'
_cell_volume   244.12797635
_cell_formula_units_Z   1
loop_
 _symmetry_equiv_pos_site_id
 _symmetry_equiv_pos_as_xyz
  1  'x, y, z'
loop_
 _atom_site_type_symbol
 _atom_site_label
 _atom_site_symmetry_multiplicity
 _atom_site_fract_x
 _atom_site_fract_y
 _atom_site_fract_z
 _atom_site_occupancy
  Lu  Lu0  1  0.320045  0.611285  0.144175  1
  Lu  Lu1  1  0.611284  0.144175  0.320045  1
  Lu  Lu2  1  0.855825  0.679956  0.388715  1
  Lu  Lu3  1  0.144175  0.320045  0.611285  1
  Lu  Lu4  1  0.388716  0.855825  0.679955  1
  Lu  Lu5  1  0.679955  0.388716  0.855825  1
  Mo  Mo6  1  0.000000  0.000000  0.000000  1
  O  O7  1  0.917747  0.698513  0.036421  1
  O  O8  1  0.301487  0.963578  0.082254  1
  O  O9  1  0.588525  0.427615  0.177402  1
  O  O10  1  0.963579  0.082254  0.301487  1
  O  O11  1  0.572385  0.822598  0.411476  1
  O  O12  1  0.177402  0.588525  0.427616  1
  O  O13  1  0.822598  0.411476  0.572384  1
  O  O14  1  0.427616  0.177402  0.588524  1
  O  O15  1  0.036421  0.917746  0.698513  1
  O  O16  1  0.411475  0.572385  0.822598  1
  O  O17  1  0.698513  0.036422  0.917746  1
  O  O18  1  0.082254  0.301488  0.963579  1
