# generated using pymatgen
data_Nd3Lu3Th2(CdIr)2
_symmetry_space_group_name_H-M   'P 1'
_cell_length_a   9.78662090
_cell_length_b   9.78662155
_cell_length_c   9.78662000
_cell_angle_alpha   59.99999848
_cell_angle_beta   59.99999628
_cell_angle_gamma   59.99999972
_symmetry_Int_Tables_number   1
_chemical_formula_structural   Nd3Lu3Th2(CdIr)2
_chemical_formula_sum   'Nd6 Lu6 Th4 Cd4 Ir4'
_cell_volume   662.80117506
_cell_formula_units_Z   2
loop_
 _symmetry_equiv_pos_site_id
 _symmetry_equiv_pos_as_xyz
  1  'x, y, z'
loop_
 _atom_site_type_symbol
 _atom_site_label
 _atom_site_symmetry_multiplicity
 _atom_site_fract_x
 _atom_site_fract_y
 _atom_site_fract_z
 _atom_site_occupancy
  Nd  Nd0  1  0.939030  0.560970  0.560970  1
  Nd  Nd1  1  0.560970  0.939030  0.939030  1
  Nd  Nd2  1  0.560970  0.939030  0.560970  1
  Nd  Nd3  1  0.939030  0.560970  0.939030  1
  Nd  Nd4  1  0.560970  0.560970  0.939030  1
  Nd  Nd5  1  0.939030  0.939030  0.560970  1
  Lu  Lu6  1  0.816171  0.183829  0.183829  1
  Lu  Lu7  1  0.183829  0.816171  0.816171  1
  Lu  Lu8  1  0.183829  0.816171  0.183829  1
  Lu  Lu9  1  0.816171  0.183829  0.816171  1
  Lu  Lu10  1  0.183829  0.183829  0.816171  1
  Lu  Lu11  1  0.816171  0.816171  0.183829  1
  Th  Th12  1  0.349133  0.349133  0.349133  1
  Th  Th13  1  0.349133  0.349133  0.952603  1
  Th  Th14  1  0.349133  0.952603  0.349133  1
  Th  Th15  1  0.952603  0.349133  0.349133  1
  Cd  Cd16  1  0.580213  0.580213  0.580213  1
  Cd  Cd17  1  0.580213  0.580213  0.259359  1
  Cd  Cd18  1  0.580213  0.259359  0.580213  1
  Cd  Cd19  1  0.259359  0.580213  0.580213  1
  Ir  Ir20  1  0.142183  0.142183  0.142183  1
  Ir  Ir21  1  0.142183  0.142183  0.573449  1
  Ir  Ir22  1  0.142183  0.573449  0.142183  1
  Ir  Ir23  1  0.573449  0.142183  0.142183  1
