# generated using pymatgen
data_Zr6Zn15Si(AgAu)4
_symmetry_space_group_name_H-M   'P 1'
_cell_length_a   8.94437377
_cell_length_b   8.93637666
_cell_length_c   8.93637668
_cell_angle_alpha   60.03237476
_cell_angle_beta   60.11824830
_cell_angle_gamma   60.11824705
_symmetry_Int_Tables_number   1
_chemical_formula_structural   Zr6Zn15Si(AgAu)4
_chemical_formula_sum   'Zr6 Zn15 Si1 Ag4 Au4'
_cell_volume   506.10230085
_cell_formula_units_Z   1
loop_
 _symmetry_equiv_pos_site_id
 _symmetry_equiv_pos_as_xyz
  1  'x, y, z'
loop_
 _atom_site_type_symbol
 _atom_site_label
 _atom_site_symmetry_multiplicity
 _atom_site_fract_x
 _atom_site_fract_y
 _atom_site_fract_z
 _atom_site_occupancy
  Zr  Zr0  1  0.710017  0.287748  0.287748  1
  Zr  Zr1  1  0.295850  0.706724  0.706724  1
  Zr  Zr2  1  0.290468  0.709518  0.290399  1
  Zr  Zr3  1  0.707113  0.293001  0.711801  1
  Zr  Zr4  1  0.290468  0.290399  0.709518  1
  Zr  Zr5  1  0.707113  0.711801  0.293001  1
  Zn  Zn6  1  0.500074  0.999474  0.999474  1
  Zn  Zn7  1  0.001012  0.498954  0.498954  1
  Zn  Zn8  1  0.999365  0.500502  0.001230  1
  Zn  Zn9  1  0.499230  0.001110  0.500283  1
  Zn  Zn10  1  0.999365  0.001230  0.500502  1
  Zn  Zn11  1  0.499230  0.500283  0.001110  1
  Zn  Zn12  1  0.336685  0.337478  0.337478  1
  Zn  Zn13  1  0.663726  0.663520  0.663520  1
  Zn  Zn14  1  0.336183  0.337044  0.989610  1
  Zn  Zn15  1  0.336183  0.989610  0.337044  1
  Zn  Zn16  1  0.662831  0.662815  0.012418  1
  Zn  Zn17  1  0.662831  0.012418  0.662815  1
  Zn  Zn18  1  0.986780  0.337740  0.337740  1
  Zn  Zn19  1  0.011352  0.663232  0.663232  1
  Zn  Zn20  1  0.998991  0.000740  0.000740  1
  Si  Si21  1  0.502313  0.497645  0.497645  1
  Ag  Ag22  1  0.122225  0.122386  0.122386  1
  Ag  Ag23  1  0.880161  0.877231  0.877231  1
  Ag  Ag24  1  0.120868  0.120539  0.634989  1
  Ag  Ag25  1  0.120868  0.634989  0.120539  1
  Au  Au26  1  0.880759  0.876850  0.365604  1
  Au  Au27  1  0.880759  0.365604  0.876850  1
  Au  Au28  1  0.634215  0.120595  0.120595  1
  Au  Au29  1  0.362965  0.878820  0.878820  1
