# generated using pymatgen
data_Er2TcOs3
_symmetry_space_group_name_H-M   'P 1'
_cell_length_a   5.37476643
_cell_length_b   5.22456639
_cell_length_c   8.85493500
_cell_angle_alpha   90.00000000
_cell_angle_beta   90.00000000
_cell_angle_gamma   119.60119816
_symmetry_Int_Tables_number   1
_chemical_formula_structural   Er2TcOs3
_chemical_formula_sum   'Er4 Tc2 Os6'
_cell_volume   216.20071210
_cell_formula_units_Z   2
loop_
 _symmetry_equiv_pos_site_id
 _symmetry_equiv_pos_as_xyz
  1  'x, y, z'
loop_
 _atom_site_type_symbol
 _atom_site_label
 _atom_site_symmetry_multiplicity
 _atom_site_fract_x
 _atom_site_fract_y
 _atom_site_fract_z
 _atom_site_occupancy
  Er  Er0  1  0.669521  0.334624  0.563045  1
  Er  Er1  1  0.331416  0.665458  0.433827  1
  Er  Er2  1  0.331416  0.665458  0.066173  1
  Er  Er3  1  0.669521  0.334624  0.936955  1
  Tc  Tc4  1  0.172330  0.344781  0.750000  1
  Tc  Tc5  1  0.169824  0.827719  0.750000  1
  Os  Os6  1  0.002158  0.000275  0.498940  1
  Os  Os7  1  0.002158  0.000275  0.001060  1
  Os  Os8  1  0.654833  0.826830  0.750000  1
  Os  Os9  1  0.825899  0.656415  0.250000  1
  Os  Os10  1  0.826472  0.170960  0.250000  1
  Os  Os11  1  0.344453  0.172578  0.250000  1
