# generated using pymatgen
data_Hf11Ti5(Rh2C)4
_symmetry_space_group_name_H-M   'P 1'
_cell_length_a   8.60505316
_cell_length_b   8.60505376
_cell_length_c   8.61244300
_cell_angle_alpha   59.97158621
_cell_angle_beta   59.97158390
_cell_angle_gamma   59.67497438
_symmetry_Int_Tables_number   1
_chemical_formula_structural   Hf11Ti5(Rh2C)4
_chemical_formula_sum   'Hf11 Ti5 Rh8 C4'
_cell_volume   449.62929659
_cell_formula_units_Z   1
loop_
 _symmetry_equiv_pos_site_id
 _symmetry_equiv_pos_as_xyz
  1  'x, y, z'
loop_
 _atom_site_type_symbol
 _atom_site_label
 _atom_site_symmetry_multiplicity
 _atom_site_fract_x
 _atom_site_fract_y
 _atom_site_fract_z
 _atom_site_occupancy
  Hf  Hf0  1  0.188368  0.188368  0.811632  1
  Hf  Hf1  1  0.812269  0.186553  0.813124  1
  Hf  Hf2  1  0.186553  0.812269  0.188054  1
  Hf  Hf3  1  0.186553  0.812269  0.813124  1
  Hf  Hf4  1  0.812269  0.186553  0.188054  1
  Hf  Hf5  1  0.437161  0.437161  0.062839  1
  Hf  Hf6  1  0.062416  0.062416  0.437584  1
  Hf  Hf7  1  0.440556  0.059238  0.437131  1
  Hf  Hf8  1  0.059238  0.440556  0.063074  1
  Hf  Hf9  1  0.059238  0.440556  0.437131  1
  Hf  Hf10  1  0.440556  0.059238  0.063074  1
  Ti  Ti11  1  0.124654  0.625439  0.624954  1
  Ti  Ti12  1  0.625439  0.124654  0.624954  1
  Ti  Ti13  1  0.626018  0.626018  0.126142  1
  Ti  Ti14  1  0.626018  0.626018  0.621822  1
  Ti  Ti15  1  0.817205  0.817205  0.182795  1
  Rh  Rh16  1  0.751392  0.414759  0.416923  1
  Rh  Rh17  1  0.414759  0.751392  0.416923  1
  Rh  Rh18  1  0.416243  0.416243  0.751668  1
  Rh  Rh19  1  0.416243  0.416243  0.415843  1
  Rh  Rh20  1  0.498884  0.833137  0.833991  1
  Rh  Rh21  1  0.833137  0.498884  0.833991  1
  Rh  Rh22  1  0.833276  0.833276  0.498232  1
  Rh  Rh23  1  0.833276  0.833276  0.835217  1
  C  C24  1  0.629161  0.118653  0.126093  1
  C  C25  1  0.118653  0.629161  0.126093  1
  C  C26  1  0.125232  0.125232  0.624806  1
  C  C27  1  0.125232  0.125232  0.124731  1
