# generated using pymatgen
data_Zr10Ga4Bi2S
_symmetry_space_group_name_H-M   'P 1'
_cell_length_a   8.40350935
_cell_length_b   8.38268858
_cell_length_c   5.82747164
_cell_angle_alpha   89.91957306
_cell_angle_beta   90.16045547
_cell_angle_gamma   120.08220874
_symmetry_Int_Tables_number   1
_chemical_formula_structural   Zr10Ga4Bi2S
_chemical_formula_sum   'Zr10 Ga4 Bi2 S1'
_cell_volume   355.21619319
_cell_formula_units_Z   1
loop_
 _symmetry_equiv_pos_site_id
 _symmetry_equiv_pos_as_xyz
  1  'x, y, z'
loop_
 _atom_site_type_symbol
 _atom_site_label
 _atom_site_symmetry_multiplicity
 _atom_site_fract_x
 _atom_site_fract_y
 _atom_site_fract_z
 _atom_site_occupancy
  Zr  Zr0  1  0.012603  0.763451  0.235486  1
  Zr  Zr1  1  0.249152  0.236549  0.235486  1
  Zr  Zr2  1  0.740749  0.000000  0.242327  1
  Zr  Zr3  1  0.000435  0.253238  0.757702  1
  Zr  Zr4  1  0.747197  0.746762  0.757702  1
  Zr  Zr5  1  0.255980  0.000000  0.759646  1
  Zr  Zr6  1  0.340383  0.682639  0.507739  1
  Zr  Zr7  1  0.657745  0.317361  0.507739  1
  Zr  Zr8  1  0.658082  0.319119  0.991204  1
  Zr  Zr9  1  0.338962  0.680881  0.991204  1
  Ga  Ga10  1  0.394434  0.000000  0.247960  1
  Ga  Ga11  1  0.996842  0.608277  0.751683  1
  Ga  Ga12  1  0.388565  0.391723  0.751683  1
  Ga  Ga13  1  0.612139  0.000000  0.754143  1
  Bi  Bi14  1  0.004741  0.400024  0.252197  1
  Bi  Bi15  1  0.604717  0.599976  0.252197  1
  S  S16  1  0.997276  0.000000  0.503904  1
