# generated using pymatgen
data_Cr5Ga3(MoO4)12
_symmetry_space_group_name_H-M   'P 1'
_cell_length_a   9.40277600
_cell_length_b   9.49202800
_cell_length_c   13.07108300
_cell_angle_alpha   90.00000000
_cell_angle_beta   90.00000000
_cell_angle_gamma   90.00000000
_symmetry_Int_Tables_number   1
_chemical_formula_structural   Cr5Ga3(MoO4)12
_chemical_formula_sum   'Cr5 Ga3 Mo12 O48'
_cell_volume   1166.61262810
_cell_formula_units_Z   1
loop_
 _symmetry_equiv_pos_site_id
 _symmetry_equiv_pos_as_xyz
  1  'x, y, z'
loop_
 _atom_site_type_symbol
 _atom_site_label
 _atom_site_symmetry_multiplicity
 _atom_site_fract_x
 _atom_site_fract_y
 _atom_site_fract_z
 _atom_site_occupancy
  Cr  Cr0  1  0.249964  0.465054  0.118090  1
  Cr  Cr1  1  0.749999  0.534785  0.881740  1
  Cr  Cr2  1  0.749891  0.965364  0.118130  1
  Cr  Cr3  1  0.250013  0.965231  0.381955  1
  Cr  Cr4  1  0.749947  0.465135  0.382022  1
  Ga  Ga5  1  0.250067  0.534423  0.619022  1
  Ga  Ga6  1  0.749938  0.034515  0.619071  1
  Ga  Ga7  1  0.249981  0.034460  0.880907  1
  Mo  Mo8  1  0.104941  0.616012  0.355427  1
  Mo  Mo9  1  0.027456  0.750617  0.999714  1
  Mo  Mo10  1  0.973414  0.249738  0.999689  1
  Mo  Mo11  1  0.895037  0.116006  0.355436  1
  Mo  Mo12  1  0.895936  0.383196  0.645007  1
  Mo  Mo13  1  0.604330  0.884186  0.854504  1
  Mo  Mo14  1  0.473006  0.250263  0.500506  1
  Mo  Mo15  1  0.395042  0.116044  0.144702  1
  Mo  Mo16  1  0.527022  0.750288  0.500552  1
  Mo  Mo17  1  0.104452  0.883528  0.645487  1
  Mo  Mo18  1  0.394780  0.383378  0.854380  1
  Mo  Mo19  1  0.604595  0.616414  0.145001  1
  O  O20  1  0.820439  0.429242  0.524196  1
  O  O21  1  0.915382  0.908938  0.641748  1
  O  O22  1  0.679861  0.929559  0.975517  1
  O  O23  1  0.084691  0.160651  0.908733  1
  O  O24  1  0.679856  0.570420  0.023822  1
  O  O25  1  0.415558  0.661049  0.591353  1
  O  O26  1  0.085080  0.408702  0.641435  1
  O  O27  1  0.320243  0.069716  0.023474  1
  O  O28  1  0.360899  0.299147  0.169155  1
  O  O29  1  0.139156  0.799105  0.330923  1
  O  O30  1  0.415275  0.909496  0.858292  1
  O  O31  1  0.083304  0.338597  0.091384  1
  O  O32  1  0.136443  0.874382  0.932504  1
  O  O33  1  0.860813  0.299065  0.330838  1
  O  O34  1  0.638671  0.701174  0.830438  1
  O  O35  1  0.916600  0.838593  0.091212  1
  O  O36  1  0.864094  0.127158  0.067294  1
  O  O37  1  0.359437  0.200127  0.831020  1
  O  O38  1  0.584201  0.091941  0.141992  1
  O  O39  1  0.084155  0.091799  0.358066  1
  O  O40  1  0.179863  0.569699  0.476644  1
  O  O41  1  0.817977  0.005573  0.259054  1
  O  O42  1  0.416898  0.838631  0.408737  1
  O  O43  1  0.363713  0.127486  0.433053  1
  O  O44  1  0.320122  0.429882  0.975426  1
  O  O45  1  0.860176  0.200029  0.668779  1
  O  O46  1  0.915826  0.591741  0.358011  1
  O  O47  1  0.140035  0.700322  0.668816  1
  O  O48  1  0.864601  0.372751  0.931857  1
  O  O49  1  0.364323  0.374220  0.567781  1
  O  O50  1  0.415586  0.592031  0.142098  1
  O  O51  1  0.182042  0.505579  0.259050  1
  O  O52  1  0.638855  0.799400  0.169379  1
  O  O53  1  0.182107  0.993724  0.742015  1
  O  O54  1  0.820185  0.069610  0.476662  1
  O  O55  1  0.583728  0.408020  0.857363  1
  O  O56  1  0.179769  0.929654  0.524649  1
  O  O57  1  0.317316  0.493994  0.758004  1
  O  O58  1  0.583090  0.338551  0.408661  1
  O  O59  1  0.818615  0.493910  0.740981  1
  O  O60  1  0.681606  0.505771  0.241180  1
  O  O61  1  0.916655  0.661845  0.908412  1
  O  O62  1  0.636247  0.627466  0.433071  1
  O  O63  1  0.317997  0.005627  0.241085  1
  O  O64  1  0.635871  0.874176  0.567812  1
  O  O65  1  0.136157  0.627458  0.067364  1
  O  O66  1  0.584454  0.161039  0.591319  1
  O  O67  1  0.682218  0.994314  0.757999  1
