# generated using pymatgen
data_Gd2Sn4IrRu
_symmetry_space_group_name_H-M   'P 1'
_cell_length_a   5.87809800
_cell_length_b   5.87809789
_cell_length_c   7.64846000
_cell_angle_alpha   90.00000000
_cell_angle_beta   90.00000000
_cell_angle_gamma   136.45757014
_symmetry_Int_Tables_number   1
_chemical_formula_structural   Gd2Sn4IrRu
_chemical_formula_sum   'Gd2 Sn4 Ir1 Ru1'
_cell_volume   182.05327571
_cell_formula_units_Z   1
loop_
 _symmetry_equiv_pos_site_id
 _symmetry_equiv_pos_as_xyz
  1  'x, y, z'
loop_
 _atom_site_type_symbol
 _atom_site_label
 _atom_site_symmetry_multiplicity
 _atom_site_fract_x
 _atom_site_fract_y
 _atom_site_fract_z
 _atom_site_occupancy
  Gd  Gd0  1  0.931154  0.068846  0.750000  1
  Gd  Gd1  1  0.069860  0.930140  0.250000  1
  Sn  Sn2  1  0.642284  0.357716  0.953029  1
  Sn  Sn3  1  0.642284  0.357716  0.546971  1
  Sn  Sn4  1  0.357118  0.642882  0.045725  1
  Sn  Sn5  1  0.357118  0.642882  0.454275  1
  Ir  Ir6  1  0.788344  0.211656  0.250000  1
  Ru  Ru7  1  0.211839  0.788161  0.750000  1
