# generated using pymatgen
data_Nd13Y3MgHg3Ir4
_symmetry_space_group_name_H-M   'P 1'
_cell_length_a   9.84914923
_cell_length_b   9.87591783
_cell_length_c   9.89218857
_cell_angle_alpha   60.42433025
_cell_angle_beta   60.35899436
_cell_angle_gamma   60.45076476
_symmetry_Int_Tables_number   1
_chemical_formula_structural   Nd13Y3MgHg3Ir4
_chemical_formula_sum   'Nd13 Y3 Mg1 Hg3 Ir4'
_cell_volume   686.71127863
_cell_formula_units_Z   1
loop_
 _symmetry_equiv_pos_site_id
 _symmetry_equiv_pos_as_xyz
  1  'x, y, z'
loop_
 _atom_site_type_symbol
 _atom_site_label
 _atom_site_symmetry_multiplicity
 _atom_site_fract_x
 _atom_site_fract_y
 _atom_site_fract_z
 _atom_site_occupancy
  Nd  Nd0  1  0.060339  0.437612  0.440150  1
  Nd  Nd1  1  0.058799  0.058263  0.443520  1
  Nd  Nd2  1  0.439870  0.057958  0.440571  1
  Nd  Nd3  1  0.810541  0.190070  0.188791  1
  Nd  Nd4  1  0.441335  0.060202  0.058450  1
  Nd  Nd5  1  0.189467  0.811398  0.187754  1
  Nd  Nd6  1  0.439519  0.437607  0.059569  1
  Nd  Nd7  1  0.809671  0.809471  0.188377  1
  Nd  Nd8  1  0.188181  0.187844  0.810476  1
  Nd  Nd9  1  0.046526  0.652000  0.651988  1
  Nd  Nd10  1  0.647572  0.648730  0.651825  1
  Nd  Nd11  1  0.060842  0.440501  0.059021  1
  Nd  Nd12  1  0.650809  0.651896  0.044922  1
  Y  Y13  1  0.652501  0.045130  0.652922  1
  Y  Y14  1  0.808829  0.191119  0.805721  1
  Y  Y15  1  0.190640  0.809992  0.806504  1
  Mg  Mg16  1  0.431428  0.427865  0.431072  1
  Hg  Hg17  1  0.415218  0.411608  0.754573  1
  Hg  Hg18  1  0.753892  0.410370  0.416408  1
  Hg  Hg19  1  0.412291  0.754369  0.414853  1
  Ir  Ir20  1  0.858156  0.863259  0.855499  1
  Ir  Ir21  1  0.855375  0.422908  0.857018  1
  Ir  Ir22  1  0.854170  0.860733  0.425812  1
  Ir  Ir23  1  0.424031  0.859097  0.854204  1
