# generated using pymatgen
data_Tm3Sc3Si2Os
_symmetry_space_group_name_H-M   'P 1'
_cell_length_a   7.35461700
_cell_length_b   7.35461711
_cell_length_c   4.22237200
_cell_angle_alpha   90.00000000
_cell_angle_beta   90.00000000
_cell_angle_gamma   120.00000399
_symmetry_Int_Tables_number   1
_chemical_formula_structural   Tm3Sc3Si2Os
_chemical_formula_sum   'Tm3 Sc3 Si2 Os1'
_cell_volume   197.79132348
_cell_formula_units_Z   1
loop_
 _symmetry_equiv_pos_site_id
 _symmetry_equiv_pos_as_xyz
  1  'x, y, z'
loop_
 _atom_site_type_symbol
 _atom_site_label
 _atom_site_symmetry_multiplicity
 _atom_site_fract_x
 _atom_site_fract_y
 _atom_site_fract_z
 _atom_site_occupancy
  Tm  Tm0  1  0.413971  0.000000  0.000000  1
  Tm  Tm1  1  0.000000  0.413972  0.000000  1
  Tm  Tm2  1  0.586029  0.586030  0.000000  1
  Sc  Sc3  1  0.757363  0.000000  0.500000  1
  Sc  Sc4  1  0.242636  0.242636  0.500000  1
  Sc  Sc5  1  0.000000  0.757363  0.500000  1
  Si  Si6  1  0.666666  0.333333  0.500000  1
  Si  Si7  1  0.333333  0.666667  0.500000  1
  Os  Os8  1  0.000000  0.000000  0.000000  1
