# generated using pymatgen
data_Sr16Bi11
_symmetry_space_group_name_H-M   'P 1'
_cell_length_a   12.19016400
_cell_length_b   13.23481400
_cell_length_c   13.24158700
_cell_angle_alpha   90.00000000
_cell_angle_beta   90.00000000
_cell_angle_gamma   90.00000000
_symmetry_Int_Tables_number   1
_chemical_formula_structural   Sr16Bi11
_chemical_formula_sum   'Sr32 Bi22'
_cell_volume   2136.32552190
_cell_formula_units_Z   2
loop_
 _symmetry_equiv_pos_site_id
 _symmetry_equiv_pos_as_xyz
  1  'x, y, z'
loop_
 _atom_site_type_symbol
 _atom_site_label
 _atom_site_symmetry_multiplicity
 _atom_site_fract_x
 _atom_site_fract_y
 _atom_site_fract_z
 _atom_site_occupancy
  Sr  Sr0  1  0.860006  0.500000  0.000000  1
  Sr  Sr1  1  0.139994  0.000000  0.500000  1
  Sr  Sr2  1  0.499419  0.631196  0.131184  1
  Sr  Sr3  1  0.500581  0.131196  0.368816  1
  Sr  Sr4  1  0.499419  0.368804  0.868816  1
  Sr  Sr5  1  0.500581  0.868804  0.631184  1
  Sr  Sr6  1  0.000532  0.792339  0.087552  1
  Sr  Sr7  1  0.999468  0.292339  0.412448  1
  Sr  Sr8  1  0.000532  0.207661  0.912448  1
  Sr  Sr9  1  0.999468  0.707661  0.587552  1
  Sr  Sr10  1  0.998458  0.088010  0.207316  1
  Sr  Sr11  1  0.001542  0.588010  0.292684  1
  Sr  Sr12  1  0.998458  0.911990  0.792684  1
  Sr  Sr13  1  0.001542  0.411990  0.707316  1
  Sr  Sr14  1  0.212880  0.500000  0.000000  1
  Sr  Sr15  1  0.787120  0.000000  0.500000  1
  Sr  Sr16  1  0.710111  0.923931  0.209967  1
  Sr  Sr17  1  0.289889  0.423931  0.290033  1
  Sr  Sr18  1  0.710111  0.076069  0.790033  1
  Sr  Sr19  1  0.289889  0.576069  0.709967  1
  Sr  Sr20  1  0.289931  0.208634  0.075681  1
  Sr  Sr21  1  0.710069  0.708634  0.424319  1
  Sr  Sr22  1  0.289931  0.791366  0.924319  1
  Sr  Sr23  1  0.710069  0.291366  0.575681  1
  Sr  Sr24  1  0.687589  0.570793  0.705477  1
  Sr  Sr25  1  0.312411  0.070793  0.794523  1
  Sr  Sr26  1  0.687589  0.429207  0.294523  1
  Sr  Sr27  1  0.312411  0.929207  0.205477  1
  Sr  Sr28  1  0.317816  0.701418  0.430264  1
  Sr  Sr29  1  0.682184  0.201418  0.069736  1
  Sr  Sr30  1  0.317816  0.298582  0.569736  1
  Sr  Sr31  1  0.682184  0.798582  0.930264  1
  Bi  Bi32  1  0.849692  0.500000  0.500000  1
  Bi  Bi33  1  0.150308  0.000000  0.000000  1
  Bi  Bi34  1  0.152793  0.500000  0.500000  1
  Bi  Bi35  1  0.847207  0.000000  0.000000  1
  Bi  Bi36  1  0.966887  0.854617  0.354284  1
  Bi  Bi37  1  0.033113  0.354617  0.145716  1
  Bi  Bi38  1  0.966887  0.145383  0.645716  1
  Bi  Bi39  1  0.033113  0.645383  0.854284  1
  Bi  Bi40  1  0.512857  0.873851  0.374088  1
  Bi  Bi41  1  0.487143  0.373851  0.125912  1
  Bi  Bi42  1  0.512857  0.126149  0.625912  1
  Bi  Bi43  1  0.487143  0.626149  0.874088  1
  Bi  Bi44  1  0.764299  0.665290  0.164628  1
  Bi  Bi45  1  0.235701  0.165290  0.335372  1
  Bi  Bi46  1  0.764299  0.334710  0.835372  1
  Bi  Bi47  1  0.235701  0.834710  0.664628  1
  Bi  Bi48  1  0.237242  0.679868  0.181028  1
  Bi  Bi49  1  0.762758  0.179868  0.318972  1
  Bi  Bi50  1  0.237242  0.320132  0.818972  1
  Bi  Bi51  1  0.762758  0.820132  0.681028  1
  Bi  Bi52  1  0.505304  0.500000  0.500000  1
  Bi  Bi53  1  0.494696  0.000000  0.000000  1
