# generated using pymatgen
data_Ta4Nb2Co16Si6P
_symmetry_space_group_name_H-M   'P 1'
_cell_length_a   7.89961149
_cell_length_b   7.88702369
_cell_length_c   7.88702487
_cell_angle_alpha   60.14395974
_cell_angle_beta   59.96283186
_cell_angle_gamma   59.96283619
_symmetry_Int_Tables_number   1
_chemical_formula_structural   Ta4Nb2Co16Si6P
_chemical_formula_sum   'Ta4 Nb2 Co16 Si6 P1'
_cell_volume   347.65031974
_cell_formula_units_Z   1
loop_
 _symmetry_equiv_pos_site_id
 _symmetry_equiv_pos_as_xyz
  1  'x, y, z'
loop_
 _atom_site_type_symbol
 _atom_site_label
 _atom_site_symmetry_multiplicity
 _atom_site_fract_x
 _atom_site_fract_y
 _atom_site_fract_z
 _atom_site_occupancy
  Ta  Ta0  1  0.201663  0.796097  0.203880  1
  Ta  Ta1  1  0.202564  0.797212  0.797718  1
  Ta  Ta2  1  0.797436  0.202282  0.202788  1
  Ta  Ta3  1  0.798337  0.796120  0.203903  1
  Nb  Nb4  1  0.201800  0.203282  0.796681  1
  Nb  Nb5  1  0.798200  0.203319  0.796718  1
  Co  Co6  1  0.171343  0.162790  0.163853  1
  Co  Co7  1  0.498043  0.836114  0.837174  1
  Co  Co8  1  0.833184  0.498583  0.835005  1
  Co  Co9  1  0.834076  0.834776  0.497029  1
  Co  Co10  1  0.165924  0.502971  0.165224  1
  Co  Co11  1  0.166816  0.164995  0.501417  1
  Co  Co12  1  0.501957  0.162826  0.163886  1
  Co  Co13  1  0.828657  0.836147  0.837210  1
  Co  Co14  1  0.382403  0.380972  0.379875  1
  Co  Co15  1  0.143267  0.620101  0.619001  1
  Co  Co16  1  0.618501  0.144939  0.618014  1
  Co  Co17  1  0.618137  0.618755  0.144924  1
  Co  Co18  1  0.381863  0.855076  0.381245  1
  Co  Co19  1  0.381499  0.381986  0.855061  1
  Co  Co20  1  0.856733  0.380999  0.379899  1
  Co  Co21  1  0.617597  0.620125  0.619028  1
  Si  Si22  1  0.500000  0.499830  0.500170  1
  Si  Si23  1  0.000045  0.499937  0.000098  1
  Si  Si24  1  0.000000  0.500023  0.499977  1
  Si  Si25  1  0.500080  0.999901  0.500067  1
  Si  Si26  1  0.999955  0.999902  0.500063  1
  Si  Si27  1  0.499920  0.499933  0.000099  1
  P  P28  1  0.500000  0.000005  0.999995  1
