# generated using pymatgen
data_Er3ThCdOs
_symmetry_space_group_name_H-M   'P 1'
_cell_length_a   9.67254552
_cell_length_b   9.67254606
_cell_length_c   9.67254700
_cell_angle_alpha   60.00000022
_cell_angle_beta   59.99999836
_cell_angle_gamma   60.00000274
_symmetry_Int_Tables_number   1
_chemical_formula_structural   Er3ThCdOs
_chemical_formula_sum   'Er12 Th4 Cd4 Os4'
_cell_volume   639.89312486
_cell_formula_units_Z   4
loop_
 _symmetry_equiv_pos_site_id
 _symmetry_equiv_pos_as_xyz
  1  'x, y, z'
loop_
 _atom_site_type_symbol
 _atom_site_label
 _atom_site_symmetry_multiplicity
 _atom_site_fract_x
 _atom_site_fract_y
 _atom_site_fract_z
 _atom_site_occupancy
  Er  Er0  1  0.062136  0.437864  0.437864  1
  Er  Er1  1  0.437864  0.062136  0.062136  1
  Er  Er2  1  0.437864  0.062136  0.437864  1
  Er  Er3  1  0.062136  0.437864  0.062136  1
  Er  Er4  1  0.437864  0.437864  0.062136  1
  Er  Er5  1  0.062136  0.062136  0.437864  1
  Er  Er6  1  0.186909  0.813091  0.813091  1
  Er  Er7  1  0.813091  0.186909  0.186909  1
  Er  Er8  1  0.813091  0.186909  0.813091  1
  Er  Er9  1  0.186909  0.813091  0.186909  1
  Er  Er10  1  0.813091  0.813091  0.186909  1
  Er  Er11  1  0.186909  0.186909  0.813091  1
  Th  Th12  1  0.598432  0.598432  0.598432  1
  Th  Th13  1  0.598432  0.598432  0.204703  1
  Th  Th14  1  0.598432  0.204703  0.598432  1
  Th  Th15  1  0.204703  0.598432  0.598432  1
  Cd  Cd16  1  0.832297  0.832297  0.832297  1
  Cd  Cd17  1  0.832297  0.832297  0.503108  1
  Cd  Cd18  1  0.832297  0.503108  0.832297  1
  Cd  Cd19  1  0.503108  0.832297  0.832297  1
  Os  Os20  1  0.391746  0.391746  0.391746  1
  Os  Os21  1  0.391746  0.391746  0.824761  1
  Os  Os22  1  0.391746  0.824761  0.391746  1
  Os  Os23  1  0.824761  0.391746  0.391746  1
