# generated using pymatgen
data_La3Ce2Nd5Ir4
_symmetry_space_group_name_H-M   'P 1'
_cell_length_a   6.70184106
_cell_length_b   7.28308908
_cell_length_c   9.01231200
_cell_angle_alpha   95.97254319
_cell_angle_beta   111.58325472
_cell_angle_gamma   90.58836587
_symmetry_Int_Tables_number   1
_chemical_formula_structural   La3Ce2Nd5Ir4
_chemical_formula_sum   'La3 Ce2 Nd5 Ir4'
_cell_volume   406.26725687
_cell_formula_units_Z   1
loop_
 _symmetry_equiv_pos_site_id
 _symmetry_equiv_pos_as_xyz
  1  'x, y, z'
loop_
 _atom_site_type_symbol
 _atom_site_label
 _atom_site_symmetry_multiplicity
 _atom_site_fract_x
 _atom_site_fract_y
 _atom_site_fract_z
 _atom_site_occupancy
  La  La0  1  0.977312  0.923175  0.185505  1
  La  La1  1  0.791765  0.577059  0.816090  1
  La  La2  1  0.023193  0.080033  0.815898  1
  Ce  Ce3  1  0.428838  0.750588  0.998890  1
  Ce  Ce4  1  0.572566  0.248999  0.001392  1
  Nd  Nd5  1  0.210220  0.425800  0.184346  1
  Nd  Nd6  1  0.643493  0.814569  0.434050  1
  Nd  Nd7  1  0.208505  0.682499  0.563437  1
  Nd  Nd8  1  0.354178  0.184961  0.565749  1
  Nd  Nd9  1  0.786204  0.315401  0.433478  1
  Ir  Ir10  1  0.795291  0.572264  0.204915  1
  Ir  Ir11  1  0.591519  0.926717  0.796055  1
  Ir  Ir12  1  0.205518  0.427502  0.796646  1
  Ir  Ir13  1  0.411395  0.070432  0.203547  1
