# generated using pymatgen
data_PrNdAl20FeRh3
_symmetry_space_group_name_H-M   'P 1'
_cell_length_a   6.86801042
_cell_length_b   6.86802868
_cell_length_c   9.18391280
_cell_angle_alpha   89.93897844
_cell_angle_beta   90.11793802
_cell_angle_gamma   97.41790809
_symmetry_Int_Tables_number   1
_chemical_formula_structural   PrNdAl20FeRh3
_chemical_formula_sum   'Pr1 Nd1 Al20 Fe1 Rh3'
_cell_volume   429.57576139
_cell_formula_units_Z   1
loop_
 _symmetry_equiv_pos_site_id
 _symmetry_equiv_pos_as_xyz
  1  'x, y, z'
loop_
 _atom_site_type_symbol
 _atom_site_label
 _atom_site_symmetry_multiplicity
 _atom_site_fract_x
 _atom_site_fract_y
 _atom_site_fract_z
 _atom_site_occupancy
  Pr  Pr0  1  0.125646  0.872339  0.248937  1
  Nd  Nd1  1  0.874359  0.127851  0.751103  1
  Al  Al2  1  0.621917  0.379247  0.550804  1
  Al  Al3  1  0.378219  0.620609  0.450445  1
  Al  Al4  1  0.372679  0.618717  0.046402  1
  Al  Al5  1  0.627411  0.380878  0.952356  1
  Al  Al6  1  0.223427  0.224831  0.499508  1
  Al  Al7  1  0.776331  0.775578  0.501601  1
  Al  Al8  1  0.780069  0.771794  0.001486  1
  Al  Al9  1  0.219485  0.228100  0.997594  1
  Al  Al10  1  0.844364  0.163579  0.101245  1
  Al  Al11  1  0.155051  0.836802  0.898349  1
  Al  Al12  1  0.158527  0.841637  0.604859  1
  Al  Al13  1  0.840900  0.159010  0.395450  1
  Al  Al14  1  0.861562  0.589579  0.754766  1
  Al  Al15  1  0.138535  0.409481  0.245149  1
  Al  Al16  1  0.407176  0.141224  0.751083  1
  Al  Al17  1  0.593641  0.858557  0.248928  1
  Al  Al18  1  0.222931  0.482178  0.756142  1
  Al  Al19  1  0.776707  0.517718  0.243625  1
  Al  Al20  1  0.519167  0.773672  0.750956  1
  Al  Al21  1  0.480917  0.226751  0.249035  1
  Fe  Fe22  1  0.000387  0.500246  0.999735  1
  Rh  Rh23  1  0.000007  0.499815  0.500436  1
  Rh  Rh24  1  0.500265  0.999806  0.999541  1
  Rh  Rh25  1  0.500317  0.999999  0.500464  1
