# generated using pymatgen
data_Tb2(YPb)3
_symmetry_space_group_name_H-M   'P 1'
_cell_length_a   9.09708200
_cell_length_b   9.09708104
_cell_length_c   6.68989900
_cell_angle_alpha   90.00000000
_cell_angle_beta   90.00000000
_cell_angle_gamma   120.00000350
_symmetry_Int_Tables_number   1
_chemical_formula_structural   Tb2(YPb)3
_chemical_formula_sum   'Tb4 Y6 Pb6'
_cell_volume   479.46217405
_cell_formula_units_Z   2
loop_
 _symmetry_equiv_pos_site_id
 _symmetry_equiv_pos_as_xyz
  1  'x, y, z'
loop_
 _atom_site_type_symbol
 _atom_site_label
 _atom_site_symmetry_multiplicity
 _atom_site_fract_x
 _atom_site_fract_y
 _atom_site_fract_z
 _atom_site_occupancy
  Tb  Tb0  1  0.666667  0.333333  0.000000  1
  Tb  Tb1  1  0.333333  0.666667  0.000000  1
  Tb  Tb2  1  0.333333  0.666667  0.500000  1
  Tb  Tb3  1  0.666667  0.333333  0.500000  1
  Y  Y4  1  0.761185  0.761185  0.750000  1
  Y  Y5  1  0.238815  0.000000  0.750000  1
  Y  Y6  1  0.000000  0.238815  0.750000  1
  Y  Y7  1  0.238815  0.238815  0.250000  1
  Y  Y8  1  0.761185  0.000000  0.250000  1
  Y  Y9  1  0.000000  0.761185  0.250000  1
  Pb  Pb10  1  0.394197  0.394197  0.750000  1
  Pb  Pb11  1  0.605803  0.000000  0.750000  1
  Pb  Pb12  1  0.000000  0.605803  0.750000  1
  Pb  Pb13  1  0.605803  0.605803  0.250000  1
  Pb  Pb14  1  0.394197  0.000000  0.250000  1
  Pb  Pb15  1  0.000000  0.394197  0.250000  1
