# generated using pymatgen
data_Lu4Ga3Os3Ru2
_symmetry_space_group_name_H-M   'P 1'
_cell_length_a   5.27625500
_cell_length_b   5.27625487
_cell_length_c   8.85208800
_cell_angle_alpha   90.00000000
_cell_angle_beta   90.00000000
_cell_angle_gamma   119.99999457
_symmetry_Int_Tables_number   1
_chemical_formula_structural   Lu4Ga3Os3Ru2
_chemical_formula_sum   'Lu4 Ga3 Os3 Ru2'
_cell_volume   213.41646422
_cell_formula_units_Z   1
loop_
 _symmetry_equiv_pos_site_id
 _symmetry_equiv_pos_as_xyz
  1  'x, y, z'
loop_
 _atom_site_type_symbol
 _atom_site_label
 _atom_site_symmetry_multiplicity
 _atom_site_fract_x
 _atom_site_fract_y
 _atom_site_fract_z
 _atom_site_occupancy
  Lu  Lu0  1  0.666667  0.333332  0.066073  1
  Lu  Lu1  1  0.666667  0.333332  0.433927  1
  Lu  Lu2  1  0.333334  0.666667  0.556345  1
  Lu  Lu3  1  0.333334  0.666667  0.943656  1
  Ga  Ga4  1  0.332827  0.166414  0.750000  1
  Ga  Ga5  1  0.833586  0.166414  0.750000  1
  Ga  Ga6  1  0.833587  0.667172  0.750000  1
  Os  Os7  1  0.170355  0.340709  0.250000  1
  Os  Os8  1  0.170355  0.829645  0.250000  1
  Os  Os9  1  0.659290  0.829645  0.250000  1
  Ru  Ru10  1  0.000000  0.000000  0.999971  1
  Ru  Ru11  1  0.000000  0.000000  0.500029  1
