# generated using pymatgen
data_EuAl2ZnGa
_symmetry_space_group_name_H-M   'P 1'
_cell_length_a   4.24302936
_cell_length_b   4.24303010
_cell_length_c   6.31676452
_cell_angle_alpha   70.37548386
_cell_angle_beta   70.37547102
_cell_angle_gamma   89.99999539
_symmetry_Int_Tables_number   1
_chemical_formula_structural   EuAl2ZnGa
_chemical_formula_sum   'Eu1 Al2 Zn1 Ga1'
_cell_volume   100.07610830
_cell_formula_units_Z   1
loop_
 _symmetry_equiv_pos_site_id
 _symmetry_equiv_pos_as_xyz
  1  'x, y, z'
loop_
 _atom_site_type_symbol
 _atom_site_label
 _atom_site_symmetry_multiplicity
 _atom_site_fract_x
 _atom_site_fract_y
 _atom_site_fract_z
 _atom_site_occupancy
  Eu  Eu0  1  0.997974  0.997974  0.004052  1
  Al  Al1  1  0.748338  0.248338  0.503323  1
  Al  Al2  1  0.248338  0.748338  0.503323  1
  Zn  Zn3  1  0.613830  0.613830  0.772339  1
  Ga  Ga4  1  0.391519  0.391519  0.216963  1
