# generated using pymatgen
data_Dy2TmMn8CoP6
_symmetry_space_group_name_H-M   'P 1'
_cell_length_a   3.62941100
_cell_length_b   10.84741400
_cell_length_c   12.61298700
_cell_angle_alpha   90.00000000
_cell_angle_beta   90.00000000
_cell_angle_gamma   90.00000000
_symmetry_Int_Tables_number   1
_chemical_formula_structural   Dy2TmMn8CoP6
_chemical_formula_sum   'Dy4 Tm2 Mn16 Co2 P12'
_cell_volume   496.56981314
_cell_formula_units_Z   2
loop_
 _symmetry_equiv_pos_site_id
 _symmetry_equiv_pos_as_xyz
  1  'x, y, z'
loop_
 _atom_site_type_symbol
 _atom_site_label
 _atom_site_symmetry_multiplicity
 _atom_site_fract_x
 _atom_site_fract_y
 _atom_site_fract_z
 _atom_site_occupancy
  Dy  Dy0  1  0.000000  0.500000  0.532211  1
  Dy  Dy1  1  0.500000  0.000000  0.468314  1
  Dy  Dy2  1  0.500000  0.822823  0.206512  1
  Dy  Dy3  1  0.500000  0.177177  0.206512  1
  Tm  Tm4  1  0.000000  0.676438  0.793321  1
  Tm  Tm5  1  0.000000  0.323562  0.793321  1
  Mn  Mn6  1  0.500000  0.500000  0.165782  1
  Mn  Mn7  1  0.000000  0.000000  0.833880  1
  Mn  Mn8  1  0.000000  0.500000  0.991789  1
  Mn  Mn9  1  0.500000  0.000000  0.006643  1
  Mn  Mn10  1  0.500000  0.333210  0.996362  1
  Mn  Mn11  1  0.500000  0.666790  0.996362  1
  Mn  Mn12  1  0.000000  0.167792  0.002224  1
  Mn  Mn13  1  0.000000  0.832208  0.002224  1
  Mn  Mn14  1  0.500000  0.298307  0.432935  1
  Mn  Mn15  1  0.500000  0.701693  0.432935  1
  Mn  Mn16  1  0.000000  0.202219  0.568407  1
  Mn  Mn17  1  0.000000  0.797781  0.568407  1
  Mn  Mn18  1  0.500000  0.880574  0.702970  1
  Mn  Mn19  1  0.500000  0.119426  0.702970  1
  Mn  Mn20  1  0.000000  0.618612  0.297429  1
  Mn  Mn21  1  0.000000  0.381388  0.297429  1
  Co  Co22  1  0.500000  0.500000  0.706403  1
  Co  Co23  1  0.000000  0.000000  0.294511  1
  P  P24  1  0.500000  0.500000  0.879983  1
  P  P25  1  0.000000  0.000000  0.118563  1
  P  P26  1  0.500000  0.500000  0.359120  1
  P  P27  1  0.000000  0.000000  0.641399  1
  P  P28  1  0.500000  0.318379  0.620008  1
  P  P29  1  0.500000  0.681621  0.620008  1
  P  P30  1  0.000000  0.182231  0.381560  1
  P  P31  1  0.000000  0.817769  0.381560  1
  P  P32  1  0.500000  0.843982  0.884304  1
  P  P33  1  0.500000  0.156018  0.884304  1
  P  P34  1  0.000000  0.654474  0.114668  1
  P  P35  1  0.000000  0.345526  0.114668  1
