# generated using pymatgen
data_Li4AcYb3Si8
_symmetry_space_group_name_H-M   'P 1'
_cell_length_a   3.84739900
_cell_length_b   7.94325593
_cell_length_c   10.72733996
_cell_angle_alpha   90.07909849
_cell_angle_beta   90.00000000
_cell_angle_gamma   90.00000000
_symmetry_Int_Tables_number   1
_chemical_formula_structural   Li4AcYb3Si8
_chemical_formula_sum   'Li4 Ac1 Yb3 Si8'
_cell_volume   327.83658235
_cell_formula_units_Z   1
loop_
 _symmetry_equiv_pos_site_id
 _symmetry_equiv_pos_as_xyz
  1  'x, y, z'
loop_
 _atom_site_type_symbol
 _atom_site_label
 _atom_site_symmetry_multiplicity
 _atom_site_fract_x
 _atom_site_fract_y
 _atom_site_fract_z
 _atom_site_occupancy
  Li  Li0  1  0.250000  0.995147  0.390109  1
  Li  Li1  1  0.250000  0.499717  0.105368  1
  Li  Li2  1  0.750000  0.000612  0.612668  1
  Li  Li3  1  0.750000  0.504383  0.889621  1
  Ac  Ac4  1  0.750000  0.363605  0.366157  1
  Yb  Yb5  1  0.250000  0.132343  0.866079  1
  Yb  Yb6  1  0.250000  0.635125  0.635994  1
  Yb  Yb7  1  0.750000  0.864646  0.132902  1
  Si  Si8  1  0.250000  0.227395  0.579490  1
  Si  Si9  1  0.250000  0.736267  0.930541  1
  Si  Si10  1  0.750000  0.770293  0.432070  1
  Si  Si11  1  0.750000  0.264375  0.063662  1
  Si  Si12  1  0.250000  0.675872  0.320948  1
  Si  Si13  1  0.250000  0.158418  0.168213  1
  Si  Si14  1  0.750000  0.335788  0.681473  1
  Si  Si15  1  0.750000  0.836015  0.824708  1
