# generated using pymatgen
data_Ti10ZnCuSn5Sb
_symmetry_space_group_name_H-M   'P 1'
_cell_length_a   8.22446243
_cell_length_b   8.22275657
_cell_length_c   5.55534063
_cell_angle_alpha   89.95603445
_cell_angle_beta   90.08790591
_cell_angle_gamma   120.00687085
_symmetry_Int_Tables_number   1
_chemical_formula_structural   Ti10ZnCuSn5Sb
_chemical_formula_sum   'Ti10 Zn1 Cu1 Sn5 Sb1'
_cell_volume   325.33867656
_cell_formula_units_Z   1
loop_
 _symmetry_equiv_pos_site_id
 _symmetry_equiv_pos_as_xyz
  1  'x, y, z'
loop_
 _atom_site_type_symbol
 _atom_site_label
 _atom_site_symmetry_multiplicity
 _atom_site_fract_x
 _atom_site_fract_y
 _atom_site_fract_z
 _atom_site_occupancy
  Ti  Ti0  1  0.270735  0.000000  0.752410  1
  Ti  Ti1  1  0.729680  0.000000  0.247763  1
  Ti  Ti2  1  0.997244  0.266970  0.752844  1
  Ti  Ti3  1  0.999689  0.729436  0.247138  1
  Ti  Ti4  1  0.730274  0.733030  0.752844  1
  Ti  Ti5  1  0.270253  0.270564  0.247138  1
  Ti  Ti6  1  0.334567  0.668599  0.499756  1
  Ti  Ti7  1  0.665970  0.331401  0.499756  1
  Ti  Ti8  1  0.666076  0.331652  0.000569  1
  Ti  Ti9  1  0.334422  0.668348  0.000569  1
  Zn  Zn10  1  0.001987  0.000000  0.498158  1
  Cu  Cu11  1  0.003151  0.000000  0.000909  1
  Sn  Sn12  1  0.381361  0.000000  0.250533  1
  Sn  Sn13  1  0.998956  0.616050  0.749482  1
  Sn  Sn14  1  0.000835  0.383981  0.250578  1
  Sn  Sn15  1  0.382906  0.383950  0.749482  1
  Sn  Sn16  1  0.616854  0.616019  0.250578  1
  Sb  Sb17  1  0.615043  0.000000  0.749492  1
