# generated using pymatgen
data_Ba3AlS4Cl
_symmetry_space_group_name_H-M   'P 1'
_cell_length_a   8.57050600
_cell_length_b   9.64318300
_cell_length_c   12.38822000
_cell_angle_alpha   90.00000000
_cell_angle_beta   90.00000000
_cell_angle_gamma   90.00000000
_symmetry_Int_Tables_number   1
_chemical_formula_structural   Ba3AlS4Cl
_chemical_formula_sum   'Ba12 Al4 S16 Cl4'
_cell_volume   1023.84869507
_cell_formula_units_Z   4
loop_
 _symmetry_equiv_pos_site_id
 _symmetry_equiv_pos_as_xyz
  1  'x, y, z'
loop_
 _atom_site_type_symbol
 _atom_site_label
 _atom_site_symmetry_multiplicity
 _atom_site_fract_x
 _atom_site_fract_y
 _atom_site_fract_z
 _atom_site_occupancy
  Ba  Ba0  1  0.413795  0.750000  0.477682  1
  Ba  Ba1  1  0.086205  0.750000  0.977682  1
  Ba  Ba2  1  0.586205  0.250000  0.522318  1
  Ba  Ba3  1  0.913795  0.250000  0.022318  1
  Ba  Ba4  1  0.911420  0.521009  0.333159  1
  Ba  Ba5  1  0.588580  0.978991  0.833159  1
  Ba  Ba6  1  0.088580  0.021009  0.666841  1
  Ba  Ba7  1  0.411420  0.478991  0.166841  1
  Ba  Ba8  1  0.088580  0.478991  0.666841  1
  Ba  Ba9  1  0.411420  0.021009  0.166841  1
  Ba  Ba10  1  0.911420  0.978991  0.333159  1
  Ba  Ba11  1  0.588580  0.521009  0.833159  1
  Al  Al12  1  0.688743  0.750000  0.104594  1
  Al  Al13  1  0.811257  0.750000  0.604594  1
  Al  Al14  1  0.311257  0.250000  0.895406  1
  Al  Al15  1  0.188743  0.250000  0.395406  1
  S  S16  1  0.812150  0.551227  0.071223  1
  S  S17  1  0.687850  0.948773  0.571223  1
  S  S18  1  0.187850  0.051227  0.928777  1
  S  S19  1  0.312150  0.448773  0.428777  1
  S  S20  1  0.187850  0.448773  0.928777  1
  S  S21  1  0.312150  0.051227  0.428777  1
  S  S22  1  0.812150  0.948773  0.071223  1
  S  S23  1  0.687850  0.551227  0.571223  1
  S  S24  1  0.636562  0.750000  0.283077  1
  S  S25  1  0.863438  0.750000  0.783077  1
  S  S26  1  0.363438  0.250000  0.716923  1
  S  S27  1  0.136562  0.250000  0.216923  1
  S  S28  1  0.466281  0.750000  0.007003  1
  S  S29  1  0.033719  0.750000  0.507003  1
  S  S30  1  0.533719  0.250000  0.992997  1
  S  S31  1  0.966281  0.250000  0.492997  1
  Cl  Cl32  1  0.167497  0.750000  0.229789  1
  Cl  Cl33  1  0.332503  0.750000  0.729789  1
  Cl  Cl34  1  0.832503  0.250000  0.770211  1
  Cl  Cl35  1  0.667497  0.250000  0.270211  1
