# generated using pymatgen
data_Sc12Si12Ir3Ru
_symmetry_space_group_name_H-M   'P 1'
_cell_length_a   4.04797200
_cell_length_b   10.22280028
_cell_length_c   11.66248131
_cell_angle_alpha   90.02659830
_cell_angle_beta   90.00000000
_cell_angle_gamma   90.00000000
_symmetry_Int_Tables_number   1
_chemical_formula_structural   Sc12Si12Ir3Ru
_chemical_formula_sum   'Sc12 Si12 Ir3 Ru1'
_cell_volume   482.61219293
_cell_formula_units_Z   1
loop_
 _symmetry_equiv_pos_site_id
 _symmetry_equiv_pos_as_xyz
  1  'x, y, z'
loop_
 _atom_site_type_symbol
 _atom_site_label
 _atom_site_symmetry_multiplicity
 _atom_site_fract_x
 _atom_site_fract_y
 _atom_site_fract_z
 _atom_site_occupancy
  Sc  Sc0  1  0.250000  0.876705  0.019567  1
  Sc  Sc1  1  0.250000  0.622354  0.520373  1
  Sc  Sc2  1  0.750000  0.122633  0.980494  1
  Sc  Sc3  1  0.750000  0.376908  0.480698  1
  Sc  Sc4  1  0.250000  0.919764  0.602249  1
  Sc  Sc5  1  0.250000  0.580539  0.102683  1
  Sc  Sc6  1  0.750000  0.079910  0.397274  1
  Sc  Sc7  1  0.750000  0.419776  0.897616  1
  Sc  Sc8  1  0.250000  0.658270  0.798461  1
  Sc  Sc9  1  0.250000  0.841445  0.299237  1
  Sc  Sc10  1  0.750000  0.341940  0.200687  1
  Sc  Sc11  1  0.750000  0.158310  0.700812  1
  Si  Si12  1  0.250000  0.014203  0.821521  1
  Si  Si13  1  0.250000  0.485992  0.321548  1
  Si  Si14  1  0.750000  0.985916  0.178714  1
  Si  Si15  1  0.750000  0.512849  0.679263  1
  Si  Si16  1  0.250000  0.250791  0.841256  1
  Si  Si17  1  0.250000  0.250126  0.342015  1
  Si  Si18  1  0.750000  0.750555  0.157815  1
  Si  Si19  1  0.750000  0.750228  0.657845  1
  Si  Si20  1  0.250000  0.193591  0.545614  1
  Si  Si21  1  0.250000  0.306393  0.045381  1
  Si  Si22  1  0.750000  0.806974  0.454541  1
  Si  Si23  1  0.750000  0.692766  0.954369  1
  Ir  Ir24  1  0.250000  0.110156  0.176148  1
  Ir  Ir25  1  0.750000  0.610723  0.323545  1
  Ir  Ir26  1  0.750000  0.889736  0.824057  1
  Ru  Ru27  1  0.250000  0.390445  0.676217  1
