# generated using pymatgen
data_Cs4Yb(EuI4)3
_symmetry_space_group_name_H-M   'P 1'
_cell_length_a   4.87171900
_cell_length_b   10.80755698
_cell_length_c   18.29713760
_cell_angle_alpha   90.40790567
_cell_angle_beta   90.00000000
_cell_angle_gamma   90.00000000
_symmetry_Int_Tables_number   1
_chemical_formula_structural   Cs4Yb(EuI4)3
_chemical_formula_sum   'Cs4 Yb1 Eu3 I12'
_cell_volume   963.34514296
_cell_formula_units_Z   1
loop_
 _symmetry_equiv_pos_site_id
 _symmetry_equiv_pos_as_xyz
  1  'x, y, z'
loop_
 _atom_site_type_symbol
 _atom_site_label
 _atom_site_symmetry_multiplicity
 _atom_site_fract_x
 _atom_site_fract_y
 _atom_site_fract_z
 _atom_site_occupancy
  Cs  Cs0  1  0.750000  0.579767  0.172796  1
  Cs  Cs1  1  0.250000  0.419995  0.827311  1
  Cs  Cs2  1  0.750000  0.079849  0.326221  1
  Cs  Cs3  1  0.250000  0.921364  0.673606  1
  Yb  Yb4  1  0.750000  0.836491  0.941070  1
  Eu  Eu5  1  0.250000  0.662271  0.441313  1
  Eu  Eu6  1  0.750000  0.337967  0.559024  1
  Eu  Eu7  1  0.250000  0.161615  0.058578  1
  I  I8  1  0.750000  0.833505  0.503813  1
  I  I9  1  0.250000  0.166594  0.496477  1
  I  I10  1  0.750000  0.332928  0.996986  1
  I  I11  1  0.250000  0.674717  0.998566  1
  I  I12  1  0.250000  0.529789  0.604975  1
  I  I13  1  0.750000  0.470520  0.395529  1
  I  I14  1  0.250000  0.018916  0.897249  1
  I  I15  1  0.750000  0.968089  0.101153  1
  I  I16  1  0.250000  0.795595  0.286775  1
  I  I17  1  0.750000  0.204740  0.713384  1
  I  I18  1  0.250000  0.296794  0.213734  1
  I  I19  1  0.750000  0.708492  0.791439  1
