# generated using pymatgen
data_YbEr2Al3Ge2Pt
_symmetry_space_group_name_H-M   'P 1'
_cell_length_a   6.99714400
_cell_length_b   6.96501974
_cell_length_c   4.22672600
_cell_angle_alpha   90.00000000
_cell_angle_beta   90.00000000
_cell_angle_gamma   120.15268892
_symmetry_Int_Tables_number   1
_chemical_formula_structural   YbEr2Al3Ge2Pt
_chemical_formula_sum   'Yb1 Er2 Al3 Ge2 Pt1'
_cell_volume   178.11792571
_cell_formula_units_Z   1
loop_
 _symmetry_equiv_pos_site_id
 _symmetry_equiv_pos_as_xyz
  1  'x, y, z'
loop_
 _atom_site_type_symbol
 _atom_site_label
 _atom_site_symmetry_multiplicity
 _atom_site_fract_x
 _atom_site_fract_y
 _atom_site_fract_z
 _atom_site_occupancy
  Yb  Yb0  1  0.416882  0.000000  0.000000  1
  Er  Er1  1  0.001205  0.415941  0.000000  1
  Er  Er2  1  0.585263  0.584058  0.000000  1
  Al  Al3  1  0.767174  0.000000  0.499999  1
  Al  Al4  1  0.231601  0.235658  0.499999  1
  Al  Al5  1  0.995943  0.764342  0.499999  1
  Ge  Ge6  1  0.670980  0.337518  0.499999  1
  Ge  Ge7  1  0.333462  0.662482  0.499999  1
  Pt  Pt8  1  0.997492  0.000000  0.000000  1
