# generated using pymatgen
data_Th14Re3Ni2Ru
_symmetry_space_group_name_H-M   'P 1'
_cell_length_a   9.92236011
_cell_length_b   9.99428652
_cell_length_c   6.30277961
_cell_angle_alpha   89.72877292
_cell_angle_beta   90.16818488
_cell_angle_gamma   119.47387766
_symmetry_Int_Tables_number   1
_chemical_formula_structural   Th14Re3Ni2Ru
_chemical_formula_sum   'Th14 Re3 Ni2 Ru1'
_cell_volume   544.13000195
_cell_formula_units_Z   1
loop_
 _symmetry_equiv_pos_site_id
 _symmetry_equiv_pos_as_xyz
  1  'x, y, z'
loop_
 _atom_site_type_symbol
 _atom_site_label
 _atom_site_symmetry_multiplicity
 _atom_site_fract_x
 _atom_site_fract_y
 _atom_site_fract_z
 _atom_site_occupancy
  Th  Th0  1  0.331411  0.666589  0.035622  1
  Th  Th1  1  0.664801  0.333301  0.538485  1
  Th  Th2  1  0.128172  0.875045  0.246498  1
  Th  Th3  1  0.252681  0.124562  0.745233  1
  Th  Th4  1  0.874574  0.745804  0.753470  1
  Th  Th5  1  0.129474  0.256037  0.254157  1
  Th  Th6  1  0.752107  0.875293  0.254645  1
  Th  Th7  1  0.877234  0.124655  0.753636  1
  Th  Th8  1  0.535948  0.458507  0.044319  1
  Th  Th9  1  0.077899  0.543417  0.544136  1
  Th  Th10  1  0.458293  0.918244  0.545208  1
  Th  Th11  1  0.544125  0.080708  0.046158  1
  Th  Th12  1  0.914978  0.452274  0.044446  1
  Th  Th13  1  0.463251  0.546204  0.545940  1
  Re  Re14  1  0.625775  0.820293  0.805628  1
  Re  Re15  1  0.186713  0.373006  0.799719  1
  Re  Re16  1  0.815631  0.625616  0.300370  1
  Ni  Ni17  1  0.372836  0.182562  0.299863  1
  Ni  Ni18  1  0.188539  0.816087  0.800272  1
  Ru  Ru19  1  0.805558  0.181796  0.302197  1
