# generated using pymatgen
data_Rb8ScSb(WBr12)2
_symmetry_space_group_name_H-M   'P 1'
_cell_length_a   13.48477164
_cell_length_b   13.48477194
_cell_length_c   13.48477164
_cell_angle_alpha   132.06068750
_cell_angle_beta   132.06069062
_cell_angle_gamma   70.13319082
_symmetry_Int_Tables_number   1
_chemical_formula_structural   Rb8ScSb(WBr12)2
_chemical_formula_sum   'Rb8 Sc1 Sb1 W2 Br24'
_cell_volume   1324.93346636
_cell_formula_units_Z   1
loop_
 _symmetry_equiv_pos_site_id
 _symmetry_equiv_pos_as_xyz
  1  'x, y, z'
loop_
 _atom_site_type_symbol
 _atom_site_label
 _atom_site_symmetry_multiplicity
 _atom_site_fract_x
 _atom_site_fract_y
 _atom_site_fract_z
 _atom_site_occupancy
  Rb  Rb0  1  0.087583  0.619251  0.961599  1
  Rb  Rb1  1  0.380749  0.912417  0.038401  1
  Rb  Rb2  1  0.657652  0.619251  0.531666  1
  Rb  Rb3  1  0.380749  0.342348  0.468334  1
  Rb  Rb4  1  0.874016  0.342348  0.961599  1
  Rb  Rb5  1  0.874016  0.912417  0.531666  1
  Rb  Rb6  1  0.087583  0.125984  0.468334  1
  Rb  Rb7  1  0.657652  0.125984  0.038401  1
  Sc  Sc8  1  0.750000  0.250000  0.500000  1
  Sb  Sb9  1  0.000000  0.000000  0.000000  1
  W  W10  1  0.500000  0.500000  0.000000  1
  W  W11  1  0.250000  0.750000  0.500000  1
  Br  Br12  1  0.253024  0.996156  0.256869  1
  Br  Br13  1  0.003844  0.746976  0.743131  1
  Br  Br14  1  0.251529  0.981669  0.730141  1
  Br  Br15  1  0.746368  0.490006  0.743639  1
  Br  Br16  1  0.478612  0.748471  0.730141  1
  Br  Br17  1  0.127490  0.127490  0.000000  1
  Br  Br18  1  0.499158  0.728951  0.229794  1
  Br  Br19  1  0.871198  0.371198  0.500000  1
  Br  Br20  1  0.003844  0.260713  0.256869  1
  Br  Br21  1  0.385541  0.385541  0.000000  1
  Br  Br22  1  0.614459  0.614459  0.000000  1
  Br  Br23  1  0.499158  0.269364  0.770206  1
  Br  Br24  1  0.271049  0.500842  0.770206  1
  Br  Br25  1  0.509994  0.253632  0.256361  1
  Br  Br26  1  0.363947  0.863947  0.500000  1
  Br  Br27  1  0.628802  0.128802  0.500000  1
  Br  Br28  1  0.251529  0.521388  0.269859  1
  Br  Br29  1  0.136053  0.636053  0.500000  1
  Br  Br30  1  0.018331  0.748471  0.269859  1
  Br  Br31  1  0.997271  0.253632  0.743639  1
  Br  Br32  1  0.739287  0.996156  0.743131  1
  Br  Br33  1  0.730636  0.500842  0.229794  1
  Br  Br34  1  0.746368  0.002729  0.256361  1
  Br  Br35  1  0.872510  0.872510  0.000000  1
