# generated using pymatgen
data_Tb4Er4Lu4Co5Bi
_symmetry_space_group_name_H-M   'P 1'
_cell_length_a   8.24812985
_cell_length_b   8.24813050
_cell_length_c   8.24813035
_cell_angle_alpha   111.31602383
_cell_angle_beta   110.52319087
_cell_angle_gamma   106.61276521
_symmetry_Int_Tables_number   1
_chemical_formula_structural   Tb4Er4Lu4Co5Bi
_chemical_formula_sum   'Tb4 Er4 Lu4 Co5 Bi1'
_cell_volume   431.13802046
_cell_formula_units_Z   1
loop_
 _symmetry_equiv_pos_site_id
 _symmetry_equiv_pos_as_xyz
  1  'x, y, z'
loop_
 _atom_site_type_symbol
 _atom_site_label
 _atom_site_symmetry_multiplicity
 _atom_site_fract_x
 _atom_site_fract_y
 _atom_site_fract_z
 _atom_site_occupancy
  Tb  Tb0  1  0.596115  0.791905  0.804210  1
  Tb  Tb1  1  0.403885  0.208095  0.195790  1
  Tb  Tb2  1  0.987696  0.791905  0.195790  1
  Tb  Tb3  1  0.012304  0.208095  0.804210  1
  Er  Er4  1  0.817858  0.710271  0.528129  1
  Er  Er5  1  0.182142  0.289729  0.471871  1
  Er  Er6  1  0.182142  0.710271  0.892414  1
  Er  Er7  1  0.817858  0.289729  0.107586  1
  Lu  Lu8  1  0.686538  0.375241  0.688703  1
  Lu  Lu9  1  0.313462  0.624759  0.311297  1
  Lu  Lu10  1  0.686538  0.997835  0.311297  1
  Lu  Lu11  1  0.313462  0.002165  0.688703  1
  Co  Co12  1  0.622445  0.000000  0.622445  1
  Co  Co13  1  0.377555  0.000000  0.377555  1
  Co  Co14  1  0.112065  0.612065  0.500000  1
  Co  Co15  1  0.887935  0.387935  0.500000  1
  Co  Co16  1  0.000000  0.000000  0.000000  1
  Bi  Bi17  1  0.500000  0.500000  0.000000  1
