# generated using pymatgen
data_Dy16Cd2Ni3Hg2Os
_symmetry_space_group_name_H-M   'P 1'
_cell_length_a   9.58717504
_cell_length_b   9.58717489
_cell_length_c   9.59883231
_cell_angle_alpha   59.57477726
_cell_angle_beta   59.57477978
_cell_angle_gamma   59.60883465
_symmetry_Int_Tables_number   1
_chemical_formula_structural   Dy16Cd2Ni3Hg2Os
_chemical_formula_sum   'Dy16 Cd2 Ni3 Hg2 Os1'
_cell_volume   617.98739272
_cell_formula_units_Z   1
loop_
 _symmetry_equiv_pos_site_id
 _symmetry_equiv_pos_as_xyz
  1  'x, y, z'
loop_
 _atom_site_type_symbol
 _atom_site_label
 _atom_site_symmetry_multiplicity
 _atom_site_fract_x
 _atom_site_fract_y
 _atom_site_fract_z
 _atom_site_occupancy
  Dy  Dy0  1  0.597978  0.597978  0.597721  1
  Dy  Dy1  1  0.601306  0.601306  0.203397  1
  Dy  Dy2  1  0.602048  0.201650  0.601682  1
  Dy  Dy3  1  0.201650  0.602048  0.601682  1
  Dy  Dy4  1  0.060126  0.437996  0.438834  1
  Dy  Dy5  1  0.436148  0.060632  0.060825  1
  Dy  Dy6  1  0.437996  0.060126  0.438834  1
  Dy  Dy7  1  0.060632  0.436148  0.060825  1
  Dy  Dy8  1  0.437872  0.437872  0.060562  1
  Dy  Dy9  1  0.060019  0.060019  0.437298  1
  Dy  Dy10  1  0.185311  0.814826  0.815588  1
  Dy  Dy11  1  0.806477  0.187722  0.189715  1
  Dy  Dy12  1  0.814826  0.185311  0.815588  1
  Dy  Dy13  1  0.187722  0.806477  0.189715  1
  Dy  Dy14  1  0.814760  0.814760  0.187078  1
  Dy  Dy15  1  0.188076  0.188076  0.807145  1
  Cd  Cd16  1  0.829791  0.506683  0.830059  1
  Cd  Cd17  1  0.506683  0.829791  0.830059  1
  Ni  Ni18  1  0.392456  0.392456  0.825029  1
  Ni  Ni19  1  0.392250  0.825399  0.392501  1
  Ni  Ni20  1  0.825399  0.392250  0.392501  1
  Hg  Hg21  1  0.833671  0.833671  0.834883  1
  Hg  Hg22  1  0.833645  0.833645  0.494422  1
  Os  Os23  1  0.393157  0.393157  0.394057  1
