# generated using pymatgen
data_Tm3Cd2In3Os
_symmetry_space_group_name_H-M   'P 1'
_cell_length_a   8.20927300
_cell_length_b   8.20927278
_cell_length_c   3.60648400
_cell_angle_alpha   90.00000000
_cell_angle_beta   90.00000000
_cell_angle_gamma   120.00000383
_symmetry_Int_Tables_number   1
_chemical_formula_structural   Tm3Cd2In3Os
_chemical_formula_sum   'Tm3 Cd2 In3 Os1'
_cell_volume   210.48638526
_cell_formula_units_Z   1
loop_
 _symmetry_equiv_pos_site_id
 _symmetry_equiv_pos_as_xyz
  1  'x, y, z'
loop_
 _atom_site_type_symbol
 _atom_site_label
 _atom_site_symmetry_multiplicity
 _atom_site_fract_x
 _atom_site_fract_y
 _atom_site_fract_z
 _atom_site_occupancy
  Tm  Tm0  1  0.955298  0.368144  0.500000  1
  Tm  Tm1  1  0.631856  0.587154  0.500000  1
  Tm  Tm2  1  0.412846  0.044702  0.500000  1
  Cd  Cd3  1  0.333333  0.666667  0.000000  1
  Cd  Cd4  1  0.000000  0.000000  0.500000  1
  In  In5  1  0.286430  0.292265  0.000000  1
  In  In6  1  0.005835  0.713570  0.000000  1
  In  In7  1  0.707735  0.994165  0.000000  1
  Os  Os8  1  0.666667  0.333333  0.000000  1
