# generated using pymatgen
data_Th4In3Co2
_symmetry_space_group_name_H-M   'P 1'
_cell_length_a   3.69333300
_cell_length_b   7.69075935
_cell_length_c   8.39052026
_cell_angle_alpha   71.64813645
_cell_angle_beta   90.00000000
_cell_angle_gamma   90.00000000
_symmetry_Int_Tables_number   1
_chemical_formula_structural   Th4In3Co2
_chemical_formula_sum   'Th4 In3 Co2'
_cell_volume   226.20763125
_cell_formula_units_Z   1
loop_
 _symmetry_equiv_pos_site_id
 _symmetry_equiv_pos_as_xyz
  1  'x, y, z'
loop_
 _atom_site_type_symbol
 _atom_site_label
 _atom_site_symmetry_multiplicity
 _atom_site_fract_x
 _atom_site_fract_y
 _atom_site_fract_z
 _atom_site_occupancy
  Th  Th0  1  0.500000  0.915741  0.209369  1
  Th  Th1  1  0.500000  0.084259  0.790631  1
  Th  Th2  1  0.500000  0.394137  0.331587  1
  Th  Th3  1  0.500000  0.605863  0.668413  1
  In  In4  1  0.000000  0.695375  0.001937  1
  In  In5  1  0.000000  0.304625  0.998063  1
  In  In6  1  0.000000  0.000000  0.500000  1
  Co  Co7  1  0.000000  0.672369  0.392816  1
  Co  Co8  1  0.000000  0.327631  0.607184  1
