# generated using pymatgen
data_Tb15Y4LuSn16
_symmetry_space_group_name_H-M   'P 1'
_cell_length_a   8.04476331
_cell_length_b   8.20340238
_cell_length_c   15.52259100
_cell_angle_alpha   90.07101732
_cell_angle_beta   89.88115308
_cell_angle_gamma   90.00806759
_symmetry_Int_Tables_number   1
_chemical_formula_structural   Tb15Y4LuSn16
_chemical_formula_sum   'Tb15 Y4 Lu1 Sn16'
_cell_volume   1024.40155175
_cell_formula_units_Z   1
loop_
 _symmetry_equiv_pos_site_id
 _symmetry_equiv_pos_as_xyz
  1  'x, y, z'
loop_
 _atom_site_type_symbol
 _atom_site_label
 _atom_site_symmetry_multiplicity
 _atom_site_fract_x
 _atom_site_fract_y
 _atom_site_fract_z
 _atom_site_occupancy
  Tb  Tb0  1  0.865255  0.662556  0.622396  1
  Tb  Tb1  1  0.633853  0.162047  0.377499  1
  Tb  Tb2  1  0.136136  0.337170  0.121984  1
  Tb  Tb3  1  0.634200  0.162638  0.122791  1
  Tb  Tb4  1  0.135119  0.336839  0.377578  1
  Tb  Tb5  1  0.365744  0.837228  0.622009  1
  Tb  Tb6  1  0.865105  0.662643  0.878096  1
  Tb  Tb7  1  0.518021  0.320387  0.903311  1
  Tb  Tb8  1  0.018837  0.179418  0.597017  1
  Tb  Tb9  1  0.480923  0.679764  0.402903  1
  Tb  Tb10  1  0.981931  0.820844  0.096947  1
  Tb  Tb11  1  0.481846  0.680189  0.096558  1
  Tb  Tb12  1  0.981624  0.820908  0.402693  1
  Tb  Tb13  1  0.518934  0.320677  0.597298  1
  Tb  Tb14  1  0.017476  0.179229  0.903452  1
  Y  Y15  1  0.364568  0.837579  0.877226  1
  Y  Y16  1  0.196630  0.502766  0.750154  1
  Y  Y17  1  0.696608  0.997113  0.750092  1
  Y  Y18  1  0.804059  0.497501  0.250117  1
  Lu  Lu19  1  0.303078  0.003167  0.249681  1
  Sn  Sn20  1  0.294904  0.036476  0.042088  1
  Sn  Sn21  1  0.794169  0.462896  0.458148  1
  Sn  Sn22  1  0.706288  0.963103  0.541840  1
  Sn  Sn23  1  0.205947  0.538226  0.958277  1
  Sn  Sn24  1  0.703469  0.962214  0.958519  1
  Sn  Sn25  1  0.205728  0.536684  0.541862  1
  Sn  Sn26  1  0.293917  0.036142  0.457153  1
  Sn  Sn27  1  0.794695  0.462497  0.042142  1
  Sn  Sn28  1  0.562906  0.617566  0.750138  1
  Sn  Sn29  1  0.062997  0.882549  0.750240  1
  Sn  Sn30  1  0.436915  0.382190  0.250100  1
  Sn  Sn31  1  0.938926  0.117005  0.249626  1
  Sn  Sn32  1  0.327133  0.147786  0.750191  1
  Sn  Sn33  1  0.827534  0.351656  0.750370  1
  Sn  Sn34  1  0.671419  0.852136  0.249817  1
  Sn  Sn35  1  0.173105  0.650210  0.249686  1
