# generated using pymatgen
data_Sm2Ga7CoNiAu
_symmetry_space_group_name_H-M   'P 1'
_cell_length_a   4.17839269
_cell_length_b   6.47688374
_cell_length_c   8.08085307
_cell_angle_alpha   90.80617620
_cell_angle_beta   104.98325414
_cell_angle_gamma   90.00000550
_symmetry_Int_Tables_number   1
_chemical_formula_structural   Sm2Ga7CoNiAu
_chemical_formula_sum   'Sm2 Ga7 Co1 Ni1 Au1'
_cell_volume   211.23421374
_cell_formula_units_Z   1
loop_
 _symmetry_equiv_pos_site_id
 _symmetry_equiv_pos_as_xyz
  1  'x, y, z'
loop_
 _atom_site_type_symbol
 _atom_site_label
 _atom_site_symmetry_multiplicity
 _atom_site_fract_x
 _atom_site_fract_y
 _atom_site_fract_z
 _atom_site_occupancy
  Sm  Sm0  1  0.879059  0.763186  0.758115  1
  Sm  Sm1  1  0.121360  0.236774  0.242721  1
  Ga  Ga2  1  0.499643  0.000678  0.999286  1
  Ga  Ga3  1  0.071469  0.732732  0.142940  1
  Ga  Ga4  1  0.929563  0.266956  0.859124  1
  Ga  Ga5  1  0.686153  0.548195  0.372306  1
  Ga  Ga6  1  0.313314  0.454369  0.626627  1
  Ga  Ga7  1  0.688375  0.942878  0.376750  1
  Ga  Ga8  1  0.311403  0.053977  0.622807  1
  Co  Co9  1  0.221128  0.748990  0.442254  1
  Ni  Ni10  1  0.778758  0.251277  0.557518  1
  Au  Au11  1  0.499776  0.499986  0.999552  1
