# generated using pymatgen
data_MgBe3InF9
_symmetry_space_group_name_H-M   'P 1'
_cell_length_a   6.74465300
_cell_length_b   6.74465289
_cell_length_c   9.73922900
_cell_angle_alpha   90.00000000
_cell_angle_beta   90.00000000
_cell_angle_gamma   119.99999563
_symmetry_Int_Tables_number   1
_chemical_formula_structural   MgBe3InF9
_chemical_formula_sum   'Mg2 Be6 In2 F18'
_cell_volume   383.68466626
_cell_formula_units_Z   2
loop_
 _symmetry_equiv_pos_site_id
 _symmetry_equiv_pos_as_xyz
  1  'x, y, z'
loop_
 _atom_site_type_symbol
 _atom_site_label
 _atom_site_symmetry_multiplicity
 _atom_site_fract_x
 _atom_site_fract_y
 _atom_site_fract_z
 _atom_site_occupancy
  Mg  Mg0  1  0.000000  0.000000  0.500000  1
  Mg  Mg1  1  0.000000  0.000000  0.000000  1
  Be  Be2  1  0.876117  0.265213  0.250000  1
  Be  Be3  1  0.876117  0.610904  0.750000  1
  Be  Be4  1  0.389096  0.265213  0.750000  1
  Be  Be5  1  0.734787  0.123883  0.750000  1
  Be  Be6  1  0.734787  0.610904  0.250000  1
  Be  Be7  1  0.389096  0.123883  0.250000  1
  In  In8  1  0.333333  0.666667  0.500000  1
  In  In9  1  0.333333  0.666667  0.000000  1
  F  F10  1  0.760622  0.009927  0.618659  1
  F  F11  1  0.249305  0.239378  0.618659  1
  F  F12  1  0.990073  0.750695  0.618659  1
  F  F13  1  0.990073  0.239378  0.381341  1
  F  F14  1  0.907306  0.516060  0.250000  1
  F  F15  1  0.608755  0.092694  0.250000  1
  F  F16  1  0.483940  0.391245  0.250000  1
  F  F17  1  0.483940  0.092694  0.750000  1
  F  F18  1  0.608755  0.516060  0.750000  1
  F  F19  1  0.907306  0.391245  0.750000  1
  F  F20  1  0.990073  0.239378  0.118659  1
  F  F21  1  0.249305  0.009927  0.381341  1
  F  F22  1  0.760622  0.750695  0.381341  1
  F  F23  1  0.760622  0.750695  0.118659  1
  F  F24  1  0.249305  0.009927  0.118659  1
  F  F25  1  0.760622  0.009927  0.881341  1
  F  F26  1  0.249305  0.239378  0.881341  1
  F  F27  1  0.990073  0.750695  0.881341  1
