# generated using pymatgen
data_SmY2P4Pd7
_symmetry_space_group_name_H-M   'P 1'
_cell_length_a   7.95326393
_cell_length_b   7.95326477
_cell_length_c   9.45961749
_cell_angle_alpha   55.82438349
_cell_angle_beta   55.82437753
_cell_angle_gamma   29.26200427
_symmetry_Int_Tables_number   1
_chemical_formula_structural   SmY2P4Pd7
_chemical_formula_sum   'Sm1 Y2 P4 Pd7'
_cell_volume   238.14453548
_cell_formula_units_Z   1
loop_
 _symmetry_equiv_pos_site_id
 _symmetry_equiv_pos_as_xyz
  1  'x, y, z'
loop_
 _atom_site_type_symbol
 _atom_site_label
 _atom_site_symmetry_multiplicity
 _atom_site_fract_x
 _atom_site_fract_y
 _atom_site_fract_z
 _atom_site_occupancy
  Sm  Sm0  1  0.000000  0.000000  0.000000  1
  Y  Y1  1  0.679813  0.679813  0.323171  1
  Y  Y2  1  0.320187  0.320187  0.676829  1
  P  P3  1  0.339213  0.339213  0.256403  1
  P  P4  1  0.660787  0.660787  0.743597  1
  P  P5  1  0.893645  0.893645  0.818504  1
  P  P6  1  0.106355  0.106355  0.181496  1
  Pd  Pd7  1  0.304613  0.304613  0.030727  1
  Pd  Pd8  1  0.695387  0.695387  0.969273  1
  Pd  Pd9  1  0.509535  0.509535  0.714405  1
  Pd  Pd10  1  0.830660  0.830660  0.423368  1
  Pd  Pd11  1  0.490465  0.490465  0.285595  1
  Pd  Pd12  1  0.169340  0.169340  0.576632  1
  Pd  Pd13  1  0.000000  0.000000  0.500000  1
