# generated using pymatgen
data_Y2SiPdI2
_symmetry_space_group_name_H-M   'P 1'
_cell_length_a   4.24983100
_cell_length_b   4.24983159
_cell_length_c   11.50703300
_cell_angle_alpha   90.00000000
_cell_angle_beta   90.00000000
_cell_angle_gamma   120.00000319
_symmetry_Int_Tables_number   1
_chemical_formula_structural   Y2SiPdI2
_chemical_formula_sum   'Y2 Si1 Pd1 I2'
_cell_volume   179.98543283
_cell_formula_units_Z   1
loop_
 _symmetry_equiv_pos_site_id
 _symmetry_equiv_pos_as_xyz
  1  'x, y, z'
loop_
 _atom_site_type_symbol
 _atom_site_label
 _atom_site_symmetry_multiplicity
 _atom_site_fract_x
 _atom_site_fract_y
 _atom_site_fract_z
 _atom_site_occupancy
  Y  Y0  1  0.000000  0.000000  0.843133  1
  Y  Y1  1  0.000000  0.000000  0.158848  1
  Si  Si2  1  0.666667  0.333333  0.008428  1
  Pd  Pd3  1  0.333333  0.666667  0.992133  1
  I  I4  1  0.333333  0.666667  0.334727  1
  I  I5  1  0.666667  0.333333  0.662731  1
