# generated using pymatgen
data_Pr3NdYSn15Rh8
_symmetry_space_group_name_H-M   'P 1'
_cell_length_a   4.55053500
_cell_length_b   7.26804969
_cell_length_c   18.72792925
_cell_angle_alpha   89.90666303
_cell_angle_beta   90.00000000
_cell_angle_gamma   90.00000000
_symmetry_Int_Tables_number   1
_chemical_formula_structural   Pr3NdYSn15Rh8
_chemical_formula_sum   'Pr3 Nd1 Y1 Sn15 Rh8'
_cell_volume   619.39761784
_cell_formula_units_Z   1
loop_
 _symmetry_equiv_pos_site_id
 _symmetry_equiv_pos_as_xyz
  1  'x, y, z'
loop_
 _atom_site_type_symbol
 _atom_site_label
 _atom_site_symmetry_multiplicity
 _atom_site_fract_x
 _atom_site_fract_y
 _atom_site_fract_z
 _atom_site_occupancy
  Pr  Pr0  1  0.500000  0.000265  0.856153  1
  Pr  Pr1  1  0.500000  0.501356  0.357686  1
  Pr  Pr2  1  0.000000  0.001511  0.142752  1
  Nd  Nd3  1  0.000000  0.499769  0.641720  1
  Y  Y4  1  0.500000  0.492144  0.930785  1
  Sn  Sn5  1  0.000000  0.716616  0.806611  1
  Sn  Sn6  1  0.000000  0.780627  0.305692  1
  Sn  Sn7  1  0.500000  0.279608  0.194122  1
  Sn  Sn8  1  0.500000  0.219897  0.693422  1
  Sn  Sn9  1  0.000000  0.852241  0.969217  1
  Sn  Sn10  1  0.000000  0.632126  0.468281  1
  Sn  Sn11  1  0.500000  0.135106  0.031244  1
  Sn  Sn12  1  0.500000  0.365781  0.531134  1
  Sn  Sn13  1  0.000000  0.306003  0.820377  1
  Sn  Sn14  1  0.000000  0.200471  0.317838  1
  Sn  Sn15  1  0.500000  0.698342  0.184978  1
  Sn  Sn16  1  0.500000  0.804706  0.679322  1
  Sn  Sn17  1  0.500000  0.019799  0.433358  1
  Sn  Sn18  1  0.000000  0.510462  0.066374  1
  Sn  Sn19  1  0.000000  0.980694  0.568117  1
  Rh  Rh20  1  0.000000  0.232656  0.965150  1
  Rh  Rh21  1  0.000000  0.248001  0.465097  1
  Rh  Rh22  1  0.500000  0.760081  0.042552  1
  Rh  Rh23  1  0.500000  0.749632  0.533375  1
  Rh  Rh24  1  0.000000  0.018910  0.715713  1
  Rh  Rh25  1  0.000000  0.484663  0.212870  1
  Rh  Rh26  1  0.500000  0.988340  0.289115  1
  Rh  Rh27  1  0.500000  0.520193  0.776946  1
