# generated using pymatgen
data_ThU3(PRu)8
_symmetry_space_group_name_H-M   'P 1'
_cell_length_a   4.11594900
_cell_length_b   7.46714403
_cell_length_c   10.38247201
_cell_angle_alpha   89.81082053
_cell_angle_beta   90.00000000
_cell_angle_gamma   90.00000000
_symmetry_Int_Tables_number   1
_chemical_formula_structural   ThU3(PRu)8
_chemical_formula_sum   'Th1 U3 P8 Ru8'
_cell_volume   319.09714221
_cell_formula_units_Z   1
loop_
 _symmetry_equiv_pos_site_id
 _symmetry_equiv_pos_as_xyz
  1  'x, y, z'
loop_
 _atom_site_type_symbol
 _atom_site_label
 _atom_site_symmetry_multiplicity
 _atom_site_fract_x
 _atom_site_fract_y
 _atom_site_fract_z
 _atom_site_occupancy
  Th  Th0  1  0.750000  0.228040  0.167921  1
  U  U1  1  0.250000  0.278345  0.668766  1
  U  U2  1  0.750000  0.724159  0.332587  1
  U  U3  1  0.250000  0.773934  0.829644  1
  P  P4  1  0.250000  0.088464  0.963194  1
  P  P5  1  0.750000  0.904124  0.024250  1
  P  P6  1  0.250000  0.590714  0.532548  1
  P  P7  1  0.750000  0.407607  0.471116  1
  P  P8  1  0.250000  0.529352  0.164779  1
  P  P9  1  0.750000  0.475669  0.837374  1
  P  P10  1  0.250000  0.022202  0.340389  1
  P  P11  1  0.750000  0.975254  0.662301  1
  Ru  Ru12  1  0.750000  0.106217  0.452531  1
  Ru  Ru13  1  0.250000  0.892845  0.553685  1
  Ru  Ru14  1  0.750000  0.608361  0.051168  1
  Ru  Ru15  1  0.250000  0.390767  0.946863  1
  Ru  Ru16  1  0.250000  0.862277  0.136581  1
  Ru  Ru17  1  0.750000  0.139902  0.857940  1
  Ru  Ru18  1  0.250000  0.362344  0.366248  1
  Ru  Ru19  1  0.750000  0.639422  0.640115  1
