# generated using pymatgen
data_Tm3Hf(Al3Rh)6
_symmetry_space_group_name_H-M   'P 1'
_cell_length_a   7.52020327
_cell_length_b   7.50782891
_cell_length_c   9.36881300
_cell_angle_alpha   90.00000000
_cell_angle_beta   90.00000000
_cell_angle_gamma   119.53855951
_symmetry_Int_Tables_number   1
_chemical_formula_structural   Tm3Hf(Al3Rh)6
_chemical_formula_sum   'Tm3 Hf1 Al18 Rh6'
_cell_volume   460.21397425
_cell_formula_units_Z   1
loop_
 _symmetry_equiv_pos_site_id
 _symmetry_equiv_pos_as_xyz
  1  'x, y, z'
loop_
 _atom_site_type_symbol
 _atom_site_label
 _atom_site_symmetry_multiplicity
 _atom_site_fract_x
 _atom_site_fract_y
 _atom_site_fract_z
 _atom_site_occupancy
  Tm  Tm0  1  0.006313  0.328004  0.750000  1
  Tm  Tm1  1  0.671978  0.995899  0.250000  1
  Tm  Tm2  1  0.328701  0.006304  0.750000  1
  Hf  Hf3  1  0.996227  0.671649  0.250000  1
  Al  Al4  1  0.124327  0.121857  0.250000  1
  Al  Al5  1  0.872214  0.871360  0.750000  1
  Al  Al6  1  0.999685  0.338175  0.080031  1
  Al  Al7  1  0.999905  0.664874  0.927091  1
  Al  Al8  1  0.999905  0.664874  0.572909  1
  Al  Al9  1  0.332476  0.997479  0.419864  1
  Al  Al10  1  0.999685  0.338175  0.419969  1
  Al  Al11  1  0.664492  0.999060  0.575862  1
  Al  Al12  1  0.664492  0.999060  0.924138  1
  Al  Al13  1  0.332476  0.997479  0.080136  1
  Al  Al14  1  0.333320  0.333294  0.550684  1
  Al  Al15  1  0.669530  0.667418  0.442592  1
  Al  Al16  1  0.669530  0.667418  0.057408  1
  Al  Al17  1  0.333320  0.333294  0.949316  1
  Al  Al18  1  0.335973  0.551397  0.250000  1
  Al  Al19  1  0.661053  0.450460  0.750000  1
  Al  Al20  1  0.556388  0.344008  0.250000  1
  Al  Al21  1  0.449042  0.659489  0.750000  1
  Rh  Rh22  1  0.673444  0.327976  0.001119  1
  Rh  Rh23  1  0.327321  0.672868  0.001872  1
  Rh  Rh24  1  0.327321  0.672868  0.498128  1
  Rh  Rh25  1  0.673444  0.327976  0.498881  1
  Rh  Rh26  1  0.998720  0.998640  0.001465  1
  Rh  Rh27  1  0.998720  0.998640  0.498535  1
