# generated using pymatgen
data_Rb14Ta2Tl5GaAs10
_symmetry_space_group_name_H-M   'P 1'
_cell_length_a   8.79585084
_cell_length_b   9.60848362
_cell_length_c   14.68056856
_cell_angle_alpha   85.83260959
_cell_angle_beta   81.37800879
_cell_angle_gamma   86.99198255
_symmetry_Int_Tables_number   1
_chemical_formula_structural   Rb14Ta2Tl5GaAs10
_chemical_formula_sum   'Rb14 Ta2 Tl5 Ga1 As10'
_cell_volume   1222.37197170
_cell_formula_units_Z   1
loop_
 _symmetry_equiv_pos_site_id
 _symmetry_equiv_pos_as_xyz
  1  'x, y, z'
loop_
 _atom_site_type_symbol
 _atom_site_label
 _atom_site_symmetry_multiplicity
 _atom_site_fract_x
 _atom_site_fract_y
 _atom_site_fract_z
 _atom_site_occupancy
  Rb  Rb0  1  0.828936  0.805069  0.134335  1
  Rb  Rb1  1  0.186878  0.186790  0.862695  1
  Rb  Rb2  1  0.268886  0.258919  0.252592  1
  Rb  Rb3  1  0.724787  0.742462  0.748457  1
  Rb  Rb4  1  0.748026  0.492402  0.973526  1
  Rb  Rb5  1  0.264713  0.504976  0.024649  1
  Rb  Rb6  1  0.669585  0.087057  0.881247  1
  Rb  Rb7  1  0.333648  0.918471  0.115659  1
  Rb  Rb8  1  0.654379  0.652971  0.396376  1
  Rb  Rb9  1  0.356982  0.335701  0.610713  1
  Rb  Rb10  1  0.748127  0.989370  0.533865  1
  Rb  Rb11  1  0.243199  0.016465  0.473773  1
  Rb  Rb12  1  0.863992  0.351301  0.657476  1
  Rb  Rb13  1  0.148899  0.648564  0.343285  1
  Ta  Ta14  1  0.647714  0.390401  0.224270  1
  Ta  Ta15  1  0.348413  0.612355  0.774076  1
  Tl  Tl16  1  0.901873  0.279733  0.384107  1
  Tl  Tl17  1  0.090952  0.718390  0.615916  1
  Tl  Tl18  1  0.963350  0.174140  0.125200  1
  Tl  Tl19  1  0.030778  0.823908  0.874615  1
  Tl  Tl20  1  0.633312  0.031707  0.300856  1
  Ga  Ga21  1  0.347044  0.949237  0.701819  1
  As  As22  1  0.488805  0.596181  0.186921  1
  As  As23  1  0.517766  0.412473  0.810043  1
  As  As24  1  0.924356  0.454322  0.206957  1
  As  As25  1  0.074687  0.542164  0.793125  1
  As  As26  1  0.566098  0.297938  0.389640  1
  As  As27  1  0.423705  0.717798  0.611338  1
  As  As28  1  0.628704  0.192010  0.120915  1
  As  As29  1  0.364122  0.820004  0.869839  1
  As  As30  1  0.984134  0.988205  0.303718  1
  As  As31  1  0.023149  0.008517  0.697998  1
