# generated using pymatgen
data_Ce6Sc2PbAu9
_symmetry_space_group_name_H-M   'P 1'
_cell_length_a   8.23386678
_cell_length_b   8.23386688
_cell_length_c   8.23386600
_cell_angle_alpha   65.48079638
_cell_angle_beta   65.48079604
_cell_angle_gamma   65.48078593
_symmetry_Int_Tables_number   1
_chemical_formula_structural   Ce6Sc2PbAu9
_chemical_formula_sum   'Ce6 Sc2 Pb1 Au9'
_cell_volume   441.76749708
_cell_formula_units_Z   1
loop_
 _symmetry_equiv_pos_site_id
 _symmetry_equiv_pos_as_xyz
  1  'x, y, z'
loop_
 _atom_site_type_symbol
 _atom_site_label
 _atom_site_symmetry_multiplicity
 _atom_site_fract_x
 _atom_site_fract_y
 _atom_site_fract_z
 _atom_site_occupancy
  Ce  Ce0  1  0.898987  0.181950  0.627932  1
  Ce  Ce1  1  0.627932  0.898987  0.181950  1
  Ce  Ce2  1  0.181950  0.627932  0.898987  1
  Ce  Ce3  1  0.101013  0.818050  0.372068  1
  Ce  Ce4  1  0.372068  0.101013  0.818050  1
  Ce  Ce5  1  0.818050  0.372068  0.101013  1
  Sc  Sc6  1  0.662802  0.662802  0.662802  1
  Sc  Sc7  1  0.337198  0.337198  0.337198  1
  Pb  Pb8  1  0.500000  0.500000  0.500000  1
  Au  Au9  1  0.000000  0.000000  0.000000  1
  Au  Au10  1  0.804186  0.804186  0.804186  1
  Au  Au11  1  0.195814  0.195814  0.195814  1
  Au  Au12  1  0.938726  0.546144  0.327511  1
  Au  Au13  1  0.327511  0.938726  0.546144  1
  Au  Au14  1  0.546144  0.327511  0.938726  1
  Au  Au15  1  0.061274  0.453856  0.672489  1
  Au  Au16  1  0.672489  0.061274  0.453856  1
  Au  Au17  1  0.453856  0.672489  0.061274  1
