# generated using pymatgen
data_Tm3Lu(ScGa5)2
_symmetry_space_group_name_H-M   'P 1'
_cell_length_a   5.95388605
_cell_length_b   9.44295708
_cell_length_c   11.24483000
_cell_angle_alpha   90.00000000
_cell_angle_beta   90.00000000
_cell_angle_gamma   90.01462154
_symmetry_Int_Tables_number   1
_chemical_formula_structural   Tm3Lu(ScGa5)2
_chemical_formula_sum   'Tm6 Lu2 Sc4 Ga20'
_cell_volume   632.21007713
_cell_formula_units_Z   2
loop_
 _symmetry_equiv_pos_site_id
 _symmetry_equiv_pos_as_xyz
  1  'x, y, z'
loop_
 _atom_site_type_symbol
 _atom_site_label
 _atom_site_symmetry_multiplicity
 _atom_site_fract_x
 _atom_site_fract_y
 _atom_site_fract_z
 _atom_site_occupancy
  Tm  Tm0  1  0.108564  0.009648  0.647714  1
  Tm  Tm1  1  0.391436  0.490352  0.147714  1
  Tm  Tm2  1  0.108537  0.490378  0.647444  1
  Tm  Tm3  1  0.391463  0.009622  0.147444  1
  Tm  Tm4  1  0.891371  0.990368  0.352380  1
  Tm  Tm5  1  0.608629  0.509632  0.852380  1
  Lu  Lu6  1  0.891495  0.509626  0.352353  1
  Lu  Lu7  1  0.608505  0.990374  0.852353  1
  Sc  Sc8  1  0.849151  0.750042  0.073695  1
  Sc  Sc9  1  0.650849  0.749958  0.573695  1
  Sc  Sc10  1  0.151047  0.250016  0.926272  1
  Sc  Sc11  1  0.348953  0.249984  0.426272  1
  Ga  Ga12  1  0.877409  0.050315  0.089739  1
  Ga  Ga13  1  0.622591  0.449685  0.589739  1
  Ga  Ga14  1  0.122605  0.550361  0.910161  1
  Ga  Ga15  1  0.377395  0.949639  0.410161  1
  Ga  Ga16  1  0.122809  0.949733  0.910110  1
  Ga  Ga17  1  0.377191  0.550267  0.410110  1
  Ga  Ga18  1  0.877442  0.449719  0.090055  1
  Ga  Ga19  1  0.622558  0.050281  0.590055  1
  Ga  Ga20  1  0.164171  0.749829  0.248346  1
  Ga  Ga21  1  0.335829  0.750171  0.748346  1
  Ga  Ga22  1  0.835479  0.249823  0.751855  1
  Ga  Ga23  1  0.664521  0.250177  0.251855  1
  Ga  Ga24  1  0.382138  0.750091  0.004216  1
  Ga  Ga25  1  0.117862  0.749909  0.504216  1
  Ga  Ga26  1  0.617934  0.249737  0.995524  1
  Ga  Ga27  1  0.882066  0.250263  0.495524  1
  Ga  Ga28  1  0.607230  0.749732  0.295494  1
  Ga  Ga29  1  0.892770  0.750268  0.795494  1
  Ga  Ga30  1  0.393120  0.249954  0.704643  1
  Ga  Ga31  1  0.106880  0.250046  0.204643  1
