# generated using pymatgen
data_CaNd2MnVC6
_symmetry_space_group_name_H-M   'P 1'
_cell_length_a   8.26725646
_cell_length_b   8.27996086
_cell_length_c   5.12245000
_cell_angle_alpha   90.00000000
_cell_angle_beta   90.00000000
_cell_angle_gamma   120.26377768
_symmetry_Int_Tables_number   1
_chemical_formula_structural   CaNd2MnVC6
_chemical_formula_sum   'Ca2 Nd4 Mn2 V2 C12'
_cell_volume   302.85695507
_cell_formula_units_Z   2
loop_
 _symmetry_equiv_pos_site_id
 _symmetry_equiv_pos_as_xyz
  1  'x, y, z'
loop_
 _atom_site_type_symbol
 _atom_site_label
 _atom_site_symmetry_multiplicity
 _atom_site_fract_x
 _atom_site_fract_y
 _atom_site_fract_z
 _atom_site_occupancy
  Ca  Ca0  1  0.611626  0.684312  0.750000  1
  Ca  Ca1  1  0.923226  0.610491  0.250000  1
  Nd  Nd2  1  0.684025  0.071446  0.250000  1
  Nd  Nd3  1  0.315589  0.927644  0.750000  1
  Nd  Nd4  1  0.073089  0.392473  0.750000  1
  Nd  Nd5  1  0.391781  0.321208  0.250000  1
  Mn  Mn6  1  0.666869  0.331809  0.750000  1
  Mn  Mn7  1  0.334282  0.666575  0.250000  1
  V  V8  1  0.998612  0.997717  0.500364  1
  V  V9  1  0.998612  0.997717  0.999636  1
  C  C10  1  0.950562  0.765421  0.750000  1
  C  C11  1  0.189365  0.953446  0.250000  1
  C  C12  1  0.767676  0.814096  0.250000  1
  C  C13  1  0.234429  0.189737  0.750000  1
  C  C14  1  0.812749  0.045658  0.750000  1
  C  C15  1  0.046334  0.233915  0.250000  1
  C  C16  1  0.855029  0.575586  0.750000  1
  C  C17  1  0.277143  0.851094  0.250000  1
  C  C18  1  0.577005  0.718256  0.250000  1
  C  C19  1  0.426602  0.281953  0.750000  1
  C  C20  1  0.144871  0.425409  0.250000  1
  C  C21  1  0.720528  0.144039  0.750000  1
