# generated using pymatgen
data_Dy4Y8TlCo4Ru
_symmetry_space_group_name_H-M   'P 1'
_cell_length_a   8.32275788
_cell_length_b   8.32274447
_cell_length_c   8.32276001
_cell_angle_alpha   111.20970160
_cell_angle_beta   110.51127954
_cell_angle_gamma   106.72790059
_symmetry_Int_Tables_number   1
_chemical_formula_structural   Dy4Y8TlCo4Ru
_chemical_formula_sum   'Dy4 Y8 Tl1 Co4 Ru1'
_cell_volume   443.01569170
_cell_formula_units_Z   1
loop_
 _symmetry_equiv_pos_site_id
 _symmetry_equiv_pos_as_xyz
  1  'x, y, z'
loop_
 _atom_site_type_symbol
 _atom_site_label
 _atom_site_symmetry_multiplicity
 _atom_site_fract_x
 _atom_site_fract_y
 _atom_site_fract_z
 _atom_site_occupancy
  Dy  Dy0  1  0.314309  0.621676  0.307366  1
  Dy  Dy1  1  0.685691  0.378324  0.692634  1
  Dy  Dy2  1  0.314311  0.006945  0.692634  1
  Dy  Dy3  1  0.685689  0.993055  0.307366  1
  Y  Y4  1  0.410366  0.217849  0.192519  1
  Y  Y5  1  0.589634  0.782151  0.807481  1
  Y  Y6  1  0.025329  0.217849  0.807481  1
  Y  Y7  1  0.974671  0.782151  0.192519  1
  Y  Y8  1  0.183936  0.285170  0.469106  1
  Y  Y9  1  0.816064  0.714830  0.530894  1
  Y  Y10  1  0.183935  0.714830  0.898767  1
  Y  Y11  1  0.816065  0.285170  0.101233  1
  Tl  Tl12  1  0.500000  0.500000  0.000000  1
  Co  Co13  1  0.378944  0.000000  0.378944  1
  Co  Co14  1  0.621056  0.000000  0.621056  1
  Co  Co15  1  0.111187  0.611186  0.500000  1
  Co  Co16  1  0.888813  0.388814  0.500000  1
  Ru  Ru17  1  0.000000  0.000000  0.000000  1
