# generated using pymatgen
data_TaNbTe12
_symmetry_space_group_name_H-M   'P 1'
_cell_length_a   8.23723015
_cell_length_b   8.23723003
_cell_length_c   18.16433700
_cell_angle_alpha   90.00000000
_cell_angle_beta   90.00000000
_cell_angle_gamma   153.44076637
_symmetry_Int_Tables_number   1
_chemical_formula_structural   TaNbTe12
_chemical_formula_sum   'Ta1 Nb1 Te12'
_cell_volume   551.07250020
_cell_formula_units_Z   1
loop_
 _symmetry_equiv_pos_site_id
 _symmetry_equiv_pos_as_xyz
  1  'x, y, z'
loop_
 _atom_site_type_symbol
 _atom_site_label
 _atom_site_symmetry_multiplicity
 _atom_site_fract_x
 _atom_site_fract_y
 _atom_site_fract_z
 _atom_site_occupancy
  Ta  Ta0  1  0.496366  0.503634  0.250000  1
  Nb  Nb1  1  0.503894  0.496106  0.750000  1
  Te  Te2  1  0.138020  0.861980  0.750000  1
  Te  Te3  1  0.863068  0.136932  0.250000  1
  Te  Te4  1  0.411633  0.588367  0.107862  1
  Te  Te5  1  0.589841  0.410159  0.890705  1
  Te  Te6  1  0.896783  0.103217  0.825512  1
  Te  Te7  1  0.102218  0.897782  0.174218  1
  Te  Te8  1  0.102218  0.897782  0.325782  1
  Te  Te9  1  0.896783  0.103217  0.674488  1
  Te  Te10  1  0.411633  0.588367  0.392138  1
  Te  Te11  1  0.589841  0.410159  0.609295  1
  Te  Te12  1  0.998850  0.001150  0.001949  1
  Te  Te13  1  0.998850  0.001150  0.498051  1
