# generated using pymatgen
data_Fe2TeSeBr14
_symmetry_space_group_name_H-M   'P 1'
_cell_length_a   6.87526969
_cell_length_b   7.15530092
_cell_length_c   15.35172487
_cell_angle_alpha   76.34826147
_cell_angle_beta   89.86275759
_cell_angle_gamma   89.37668346
_symmetry_Int_Tables_number   1
_chemical_formula_structural   Fe2TeSeBr14
_chemical_formula_sum   'Fe2 Te1 Se1 Br14'
_cell_volume   733.84254848
_cell_formula_units_Z   1
loop_
 _symmetry_equiv_pos_site_id
 _symmetry_equiv_pos_as_xyz
  1  'x, y, z'
loop_
 _atom_site_type_symbol
 _atom_site_label
 _atom_site_symmetry_multiplicity
 _atom_site_fract_x
 _atom_site_fract_y
 _atom_site_fract_z
 _atom_site_occupancy
  Fe  Fe0  1  0.494259  0.450861  0.140353  1
  Fe  Fe1  1  0.494864  0.440163  0.645293  1
  Te  Te2  1  0.915020  0.169711  0.293473  1
  Se  Se3  1  0.096542  0.156402  0.798774  1
  Br  Br4  1  0.152759  0.461553  0.135431  1
  Br  Br5  1  0.893949  0.263283  0.903834  1
  Br  Br6  1  0.311704  0.955467  0.903263  1
  Br  Br7  1  0.691455  0.960111  0.405041  1
  Br  Br8  1  0.377384  0.126395  0.648714  1
  Br  Br9  1  0.364002  0.498095  0.780942  1
  Br  Br10  1  0.625847  0.142854  0.139225  1
  Br  Br11  1  0.901680  0.908194  0.766885  1
  Br  Br12  1  0.611156  0.671925  0.014477  1
  Br  Br13  1  0.622064  0.514885  0.274120  1
  Br  Br14  1  0.365822  0.656073  0.520767  1
  Br  Br15  1  0.121996  0.894999  0.265344  1
  Br  Br16  1  0.124815  0.274354  0.407610  1
  Br  Br17  1  0.834682  0.461276  0.642056  1
