# generated using pymatgen
data_Y3LuAl18Rh5Au
_symmetry_space_group_name_H-M   'P 1'
_cell_length_a   7.58524598
_cell_length_b   7.58754461
_cell_length_c   9.47050591
_cell_angle_alpha   89.92122245
_cell_angle_beta   89.97416658
_cell_angle_gamma   119.45071185
_symmetry_Int_Tables_number   1
_chemical_formula_structural   Y3LuAl18Rh5Au
_chemical_formula_sum   'Y3 Lu1 Al18 Rh5 Au1'
_cell_volume   474.62571793
_cell_formula_units_Z   1
loop_
 _symmetry_equiv_pos_site_id
 _symmetry_equiv_pos_as_xyz
  1  'x, y, z'
loop_
 _atom_site_type_symbol
 _atom_site_label
 _atom_site_symmetry_multiplicity
 _atom_site_fract_x
 _atom_site_fract_y
 _atom_site_fract_z
 _atom_site_occupancy
  Y  Y0  1  0.995809  0.674921  0.250463  1
  Y  Y1  1  0.004489  0.325086  0.749602  1
  Y  Y2  1  0.674394  0.995620  0.250427  1
  Lu  Lu3  1  0.325272  0.004377  0.748923  1
  Al  Al4  1  0.136630  0.136185  0.257228  1
  Al  Al5  1  0.864818  0.863933  0.742989  1
  Al  Al6  1  0.002027  0.344766  0.078753  1
  Al  Al7  1  0.999371  0.656792  0.919854  1
  Al  Al8  1  0.001376  0.665038  0.575244  1
  Al  Al9  1  0.336119  0.000007  0.427475  1
  Al  Al10  1  0.000017  0.336145  0.426209  1
  Al  Al11  1  0.662542  0.999996  0.575265  1
  Al  Al12  1  0.653890  0.998195  0.919677  1
  Al  Al13  1  0.344402  0.001990  0.077468  1
  Al  Al14  1  0.333522  0.332460  0.552387  1
  Al  Al15  1  0.666558  0.666459  0.449473  1
  Al  Al16  1  0.657564  0.657571  0.056395  1
  Al  Al17  1  0.342294  0.341149  0.941818  1
  Al  Al18  1  0.339525  0.551321  0.251370  1
  Al  Al19  1  0.659438  0.447068  0.748615  1
  Al  Al20  1  0.551318  0.339051  0.251346  1
  Al  Al21  1  0.448463  0.661711  0.748699  1
  Rh  Rh22  1  0.671584  0.328017  0.999504  1
  Rh  Rh23  1  0.328176  0.672060  0.999464  1
  Rh  Rh24  1  0.328059  0.672015  0.500438  1
  Rh  Rh25  1  0.671727  0.327832  0.500513  1
  Rh  Rh26  1  0.000544  0.000185  0.500586  1
  Au  Au27  1  0.000071  0.000050  0.999812  1
