# generated using pymatgen
data_DyPa(B4Os)2
_symmetry_space_group_name_H-M   'P 1'
_cell_length_a   3.59021400
_cell_length_b   5.99481749
_cell_length_c   11.62048381
_cell_angle_alpha   89.89569484
_cell_angle_beta   90.00000000
_cell_angle_gamma   90.00000000
_symmetry_Int_Tables_number   1
_chemical_formula_structural   DyPa(B4Os)2
_chemical_formula_sum   'Dy2 Pa2 B16 Os4'
_cell_volume   250.10351290
_cell_formula_units_Z   2
loop_
 _symmetry_equiv_pos_site_id
 _symmetry_equiv_pos_as_xyz
  1  'x, y, z'
loop_
 _atom_site_type_symbol
 _atom_site_label
 _atom_site_symmetry_multiplicity
 _atom_site_fract_x
 _atom_site_fract_y
 _atom_site_fract_z
 _atom_site_occupancy
  Dy  Dy0  1  0.000000  0.128853  0.148086  1
  Dy  Dy1  1  0.000000  0.871147  0.851914  1
  Pa  Pa2  1  0.000000  0.628928  0.349220  1
  Pa  Pa3  1  0.000000  0.371072  0.650780  1
  B  B4  1  0.500000  0.789411  0.186276  1
  B  B5  1  0.500000  0.210589  0.813724  1
  B  B6  1  0.500000  0.290680  0.312613  1
  B  B7  1  0.500000  0.709320  0.687387  1
  B  B8  1  0.500000  0.863137  0.030841  1
  B  B9  1  0.500000  0.136863  0.969159  1
  B  B10  1  0.500000  0.366031  0.467622  1
  B  B11  1  0.500000  0.633969  0.532378  1
  B  B12  1  0.500000  0.887243  0.453501  1
  B  B13  1  0.500000  0.112757  0.546499  1
  B  B14  1  0.500000  0.386511  0.045591  1
  B  B15  1  0.500000  0.613489  0.954409  1
  B  B16  1  0.500000  0.972984  0.308244  1
  B  B17  1  0.500000  0.027016  0.691756  1
  B  B18  1  0.500000  0.471573  0.190257  1
  B  B19  1  0.500000  0.528427  0.809743  1
  Os  Os20  1  0.000000  0.640039  0.095347  1
  Os  Os21  1  0.000000  0.359961  0.904653  1
  Os  Os22  1  0.000000  0.142165  0.404756  1
  Os  Os23  1  0.000000  0.857835  0.595244  1
