# generated using pymatgen
data_Ac2TlGe2
_symmetry_space_group_name_H-M   'P 1'
_cell_length_a   8.12539900
_cell_length_b   8.12539900
_cell_length_c   4.54057800
_cell_angle_alpha   90.00000000
_cell_angle_beta   90.00000000
_cell_angle_gamma   90.00000000
_symmetry_Int_Tables_number   1
_chemical_formula_structural   Ac2TlGe2
_chemical_formula_sum   'Ac4 Tl2 Ge4'
_cell_volume   299.77853523
_cell_formula_units_Z   2
loop_
 _symmetry_equiv_pos_site_id
 _symmetry_equiv_pos_as_xyz
  1  'x, y, z'
loop_
 _atom_site_type_symbol
 _atom_site_label
 _atom_site_symmetry_multiplicity
 _atom_site_fract_x
 _atom_site_fract_y
 _atom_site_fract_z
 _atom_site_occupancy
  Ac  Ac0  1  0.319601  0.819601  0.500000  1
  Ac  Ac1  1  0.819601  0.680399  0.500000  1
  Ac  Ac2  1  0.180399  0.319601  0.500000  1
  Ac  Ac3  1  0.680399  0.180399  0.500000  1
  Tl  Tl4  1  0.000000  0.000000  0.000000  1
  Tl  Tl5  1  0.500000  0.500000  0.000000  1
  Ge  Ge6  1  0.388174  0.111826  0.000000  1
  Ge  Ge7  1  0.611826  0.888174  0.000000  1
  Ge  Ge8  1  0.111826  0.611826  0.000000  1
  Ge  Ge9  1  0.888174  0.388174  0.000000  1
