# generated using pymatgen
data_Be24Fe3Co2
_symmetry_space_group_name_H-M   'P 1'
_cell_length_a   6.77107052
_cell_length_b   6.77107018
_cell_length_c   6.77833579
_cell_angle_alpha   109.46523741
_cell_angle_beta   109.46524296
_cell_angle_gamma   109.43973532
_symmetry_Int_Tables_number   1
_chemical_formula_structural   Be24Fe3Co2
_chemical_formula_sum   'Be24 Fe3 Co2'
_cell_volume   239.35828427
_cell_formula_units_Z   1
loop_
 _symmetry_equiv_pos_site_id
 _symmetry_equiv_pos_as_xyz
  1  'x, y, z'
loop_
 _atom_site_type_symbol
 _atom_site_label
 _atom_site_symmetry_multiplicity
 _atom_site_fract_x
 _atom_site_fract_y
 _atom_site_fract_z
 _atom_site_occupancy
  Be  Be0  1  0.368734  0.186913  0.000000  1
  Be  Be1  1  0.186913  0.368734  0.000000  1
  Be  Be2  1  0.682939  0.391077  0.000000  1
  Be  Be3  1  0.391077  0.682939  0.000000  1
  Be  Be4  1  0.812782  0.812782  0.182089  1
  Be  Be5  1  0.369351  0.000195  0.186475  1
  Be  Be6  1  0.000195  0.369351  0.186475  1
  Be  Be7  1  0.608066  0.608066  0.292434  1
  Be  Be8  1  0.708129  0.316229  0.316574  1
  Be  Be9  1  0.316229  0.708129  0.316574  1
  Be  Be10  1  0.187653  0.000194  0.368736  1
  Be  Be11  1  0.000194  0.187653  0.368736  1
  Be  Be12  1  0.683426  0.999388  0.390702  1
  Be  Be13  1  0.999388  0.683426  0.390702  1
  Be  Be14  1  0.608686  0.292724  0.609298  1
  Be  Be15  1  0.292724  0.608686  0.609298  1
  Be  Be16  1  0.818917  0.631459  0.631264  1
  Be  Be17  1  0.631459  0.818917  0.631264  1
  Be  Be18  1  0.391554  0.999655  0.683426  1
  Be  Be19  1  0.999655  0.391554  0.683426  1
  Be  Be20  1  0.315632  0.315632  0.707566  1
  Be  Be21  1  0.813720  0.182876  0.813525  1
  Be  Be22  1  0.182876  0.813720  0.813525  1
  Be  Be23  1  0.630693  0.630693  0.817911  1
  Fe  Fe24  1  0.996258  0.996258  0.000000  1
  Fe  Fe25  1  0.620051  0.000208  0.000000  1
  Fe  Fe26  1  0.000208  0.620051  0.000000  1
  Co  Co27  1  0.382449  0.382449  0.382408  1
  Co  Co28  1  0.000042  0.000042  0.617591  1
