# generated using pymatgen
data_Tb2Nd3(In2Ir)2
_symmetry_space_group_name_H-M   'P 1'
_cell_length_a   8.15455900
_cell_length_b   18.38573600
_cell_length_c   3.80722300
_cell_angle_alpha   90.00000000
_cell_angle_beta   90.00000000
_cell_angle_gamma   90.00000000
_symmetry_Int_Tables_number   1
_chemical_formula_structural   Tb2Nd3(In2Ir)2
_chemical_formula_sum   'Tb4 Nd6 In8 Ir4'
_cell_volume   570.80768892
_cell_formula_units_Z   2
loop_
 _symmetry_equiv_pos_site_id
 _symmetry_equiv_pos_as_xyz
  1  'x, y, z'
loop_
 _atom_site_type_symbol
 _atom_site_label
 _atom_site_symmetry_multiplicity
 _atom_site_fract_x
 _atom_site_fract_y
 _atom_site_fract_z
 _atom_site_occupancy
  Tb  Tb0  1  0.614271  0.090809  0.000000  1
  Tb  Tb1  1  0.385729  0.909191  0.000000  1
  Tb  Tb2  1  0.885729  0.590809  0.000000  1
  Tb  Tb3  1  0.114271  0.409191  0.000000  1
  Nd  Nd4  1  0.500000  0.500000  0.000000  1
  Nd  Nd5  1  0.000000  0.000000  0.000000  1
  Nd  Nd6  1  0.740480  0.281710  0.000000  1
  Nd  Nd7  1  0.259520  0.718290  0.000000  1
  Nd  Nd8  1  0.759520  0.781710  0.000000  1
  Nd  Nd9  1  0.240480  0.218290  0.000000  1
  In  In10  1  0.700053  0.935388  0.500000  1
  In  In11  1  0.299947  0.064612  0.500000  1
  In  In12  1  0.799947  0.435388  0.500000  1
  In  In13  1  0.200053  0.564612  0.500000  1
  In  In14  1  0.578362  0.651291  0.500000  1
  In  In15  1  0.421638  0.348709  0.500000  1
  In  In16  1  0.921638  0.151291  0.500000  1
  In  In17  1  0.078362  0.848709  0.500000  1
  Ir  Ir18  1  0.517627  0.193783  0.500000  1
  Ir  Ir19  1  0.482373  0.806217  0.500000  1
  Ir  Ir20  1  0.982373  0.693783  0.500000  1
  Ir  Ir21  1  0.017627  0.306217  0.500000  1
