# generated using pymatgen
data_Ta7Re4
_symmetry_space_group_name_H-M   'P 1'
_cell_length_a   3.21098504
_cell_length_b   3.21098451
_cell_length_c   18.22673704
_cell_angle_alpha   85.04509141
_cell_angle_beta   85.04509128
_cell_angle_gamma   90.33868526
_symmetry_Int_Tables_number   1
_chemical_formula_structural   Ta7Re4
_chemical_formula_sum   'Ta7 Re4'
_cell_volume   186.50650939
_cell_formula_units_Z   1
loop_
 _symmetry_equiv_pos_site_id
 _symmetry_equiv_pos_as_xyz
  1  'x, y, z'
loop_
 _atom_site_type_symbol
 _atom_site_label
 _atom_site_symmetry_multiplicity
 _atom_site_fract_x
 _atom_site_fract_y
 _atom_site_fract_z
 _atom_site_occupancy
  Ta  Ta0  1  0.118058  0.118058  0.139328  1
  Ta  Ta1  1  0.862239  0.862239  0.687321  1
  Ta  Ta2  1  0.669692  0.669692  0.041020  1
  Ta  Ta3  1  0.412095  0.412095  0.589022  1
  Ta  Ta4  1  0.035786  0.035786  0.315203  1
  Ta  Ta5  1  0.766945  0.766945  0.864168  1
  Ta  Ta6  1  0.491932  0.491932  0.413142  1
  Re  Re7  1  0.575058  0.575058  0.227251  1
  Re  Re8  1  0.316853  0.316853  0.774752  1
  Re  Re9  1  0.216494  0.216494  0.953601  1
  Re  Re10  1  0.953388  0.953388  0.501093  1
