# generated using pymatgen
data_Tb8Ti10Nb2Si15As
_symmetry_space_group_name_H-M   'P 1'
_cell_length_a   7.07508116
_cell_length_b   7.07191878
_cell_length_c   13.01193534
_cell_angle_alpha   90.00145963
_cell_angle_beta   89.89644047
_cell_angle_gamma   89.93300114
_symmetry_Int_Tables_number   1
_chemical_formula_structural   Tb8Ti10Nb2Si15As
_chemical_formula_sum   'Tb8 Ti10 Nb2 Si15 As1'
_cell_volume   651.04285927
_cell_formula_units_Z   1
loop_
 _symmetry_equiv_pos_site_id
 _symmetry_equiv_pos_as_xyz
  1  'x, y, z'
loop_
 _atom_site_type_symbol
 _atom_site_label
 _atom_site_symmetry_multiplicity
 _atom_site_fract_x
 _atom_site_fract_y
 _atom_site_fract_z
 _atom_site_occupancy
  Tb  Tb0  1  0.340811  0.001905  0.466100  1
  Tb  Tb1  1  0.497187  0.841202  0.717334  1
  Tb  Tb2  1  0.501919  0.159204  0.216543  1
  Tb  Tb3  1  0.839862  0.497508  0.282973  1
  Tb  Tb4  1  0.159528  0.501227  0.783419  1
  Tb  Tb5  1  0.661057  0.995913  0.967649  1
  Tb  Tb6  1  0.000259  0.342125  0.531937  1
  Tb  Tb7  1  0.998293  0.659410  0.033424  1
  Ti  Ti8  1  0.824045  0.173748  0.750048  1
  Ti  Ti9  1  0.672752  0.673025  0.500158  1
  Ti  Ti10  1  0.155905  0.010067  0.876025  1
  Ti  Ti11  1  0.490546  0.653402  0.125629  1
  Ti  Ti12  1  0.508944  0.346508  0.626846  1
  Ti  Ti13  1  0.654709  0.493965  0.875102  1
  Ti  Ti14  1  0.345271  0.508749  0.373665  1
  Ti  Ti15  1  0.847389  0.991758  0.375315  1
  Ti  Ti16  1  0.009242  0.153169  0.124339  1
  Ti  Ti17  1  0.989598  0.843144  0.623192  1
  Nb  Nb18  1  0.325797  0.326444  0.999750  1
  Nb  Nb19  1  0.173360  0.826983  0.250127  1
  Si  Si20  1  0.370359  0.703370  0.934282  1
  Si  Si21  1  0.628297  0.298093  0.435221  1
  Si  Si22  1  0.702927  0.370844  0.065376  1
  Si  Si23  1  0.297830  0.628979  0.565256  1
  Si  Si24  1  0.797283  0.870912  0.185104  1
  Si  Si25  1  0.129101  0.203056  0.315709  1
  Si  Si26  1  0.871521  0.798385  0.814616  1
  Si  Si27  1  0.291818  0.953010  0.063817  1
  Si  Si28  1  0.547508  0.790523  0.314884  1
  Si  Si29  1  0.462625  0.210252  0.818071  1
  Si  Si30  1  0.790614  0.546552  0.685101  1
  Si  Si31  1  0.208241  0.452762  0.186268  1
  Si  Si32  1  0.708986  0.046527  0.564626  1
  Si  Si33  1  0.952707  0.290675  0.935057  1
  Si  Si34  1  0.046321  0.708838  0.435852  1
  As  As35  1  0.197388  0.127769  0.681182  1
