# generated using pymatgen
data_Tb4Al4Co3Ni
_symmetry_space_group_name_H-M   'P 1'
_cell_length_a   4.10512000
_cell_length_b   6.73376558
_cell_length_c   7.84051057
_cell_angle_alpha   89.98572270
_cell_angle_beta   90.00000000
_cell_angle_gamma   90.00000000
_symmetry_Int_Tables_number   1
_chemical_formula_structural   Tb4Al4Co3Ni
_chemical_formula_sum   'Tb4 Al4 Co3 Ni1'
_cell_volume   216.73456641
_cell_formula_units_Z   1
loop_
 _symmetry_equiv_pos_site_id
 _symmetry_equiv_pos_as_xyz
  1  'x, y, z'
loop_
 _atom_site_type_symbol
 _atom_site_label
 _atom_site_symmetry_multiplicity
 _atom_site_fract_x
 _atom_site_fract_y
 _atom_site_fract_z
 _atom_site_occupancy
  Tb  Tb0  1  0.250000  0.033239  0.674795  1
  Tb  Tb1  1  0.250000  0.539485  0.822430  1
  Tb  Tb2  1  0.750000  0.964532  0.323233  1
  Tb  Tb3  1  0.750000  0.465850  0.178614  1
  Al  Al4  1  0.250000  0.133543  0.058846  1
  Al  Al5  1  0.250000  0.635183  0.442584  1
  Al  Al6  1  0.750000  0.862688  0.943126  1
  Al  Al7  1  0.750000  0.366411  0.556535  1
  Co  Co8  1  0.250000  0.269879  0.374653  1
  Co  Co9  1  0.250000  0.769136  0.124461  1
  Co  Co10  1  0.750000  0.732350  0.626538  1
  Ni  Ni11  1  0.750000  0.227703  0.874185  1
