# generated using pymatgen
data_Tb2Dy2Sb6Ru2Rh5
_symmetry_space_group_name_H-M   'P 1'
_cell_length_a   7.59018222
_cell_length_b   7.59018326
_cell_length_c   7.58645823
_cell_angle_alpha   109.28112965
_cell_angle_beta   109.56572047
_cell_angle_gamma   109.58682982
_symmetry_Int_Tables_number   1
_chemical_formula_structural   Tb2Dy2Sb6Ru2Rh5
_chemical_formula_sum   'Tb2 Dy2 Sb6 Ru2 Rh5'
_cell_volume   336.36547765
_cell_formula_units_Z   1
loop_
 _symmetry_equiv_pos_site_id
 _symmetry_equiv_pos_as_xyz
  1  'x, y, z'
loop_
 _atom_site_type_symbol
 _atom_site_label
 _atom_site_symmetry_multiplicity
 _atom_site_fract_x
 _atom_site_fract_y
 _atom_site_fract_z
 _atom_site_occupancy
  Tb  Tb0  1  0.998320  0.999160  0.499164  1
  Tb  Tb1  1  0.500004  0.500844  0.499164  1
  Dy  Dy2  1  0.500004  0.999144  0.000860  1
  Dy  Dy3  1  0.001716  0.500856  0.000860  1
  Sb  Sb4  1  0.999774  0.315112  0.314886  1
  Sb  Sb5  1  0.684371  0.999167  0.683538  1
  Sb  Sb6  1  0.684363  0.685426  0.001047  1
  Sb  Sb7  1  0.000226  0.684886  0.685112  1
  Sb  Sb8  1  0.315623  0.998713  0.314336  1
  Sb  Sb9  1  0.315621  0.316684  0.001047  1
  Ru  Ru10  1  0.999997  0.000003  0.000000  1
  Ru  Ru11  1  0.499731  0.750002  0.249734  1
  Rh  Rh12  1  0.750657  0.499637  0.250293  1
  Rh  Rh13  1  0.249346  0.749471  0.500131  1
  Rh  Rh14  1  0.249337  0.500117  0.749454  1
  Rh  Rh15  1  0.500249  0.249993  0.750241  1
  Rh  Rh16  1  0.750661  0.250785  0.500131  1
