# generated using pymatgen
data_LiYMg(Ni10P3)2
_symmetry_space_group_name_H-M   'P 1'
_cell_length_a   7.89136253
_cell_length_b   7.89136214
_cell_length_c   7.89136200
_cell_angle_alpha   59.99999220
_cell_angle_beta   59.99999385
_cell_angle_gamma   60.00000151
_symmetry_Int_Tables_number   1
_chemical_formula_structural   LiYMg(Ni10P3)2
_chemical_formula_sum   'Li1 Y1 Mg1 Ni20 P6'
_cell_volume   347.48886856
_cell_formula_units_Z   1
loop_
 _symmetry_equiv_pos_site_id
 _symmetry_equiv_pos_as_xyz
  1  'x, y, z'
loop_
 _atom_site_type_symbol
 _atom_site_label
 _atom_site_symmetry_multiplicity
 _atom_site_fract_x
 _atom_site_fract_y
 _atom_site_fract_z
 _atom_site_occupancy
  Li  Li0  1  0.000000  0.000000  0.000000  1
  Y  Y1  1  0.750000  0.750000  0.750000  1
  Mg  Mg2  1  0.250000  0.250000  0.250000  1
  Ni  Ni3  1  0.383147  0.850557  0.383147  1
  Ni  Ni4  1  0.383147  0.383147  0.850557  1
  Ni  Ni5  1  0.348804  0.001087  0.649023  1
  Ni  Ni6  1  0.001087  0.348804  0.649023  1
  Ni  Ni7  1  0.166904  0.611033  0.611033  1
  Ni  Ni8  1  0.649023  0.001087  0.001087  1
  Ni  Ni9  1  0.850557  0.383147  0.383147  1
  Ni  Ni10  1  0.649023  0.348804  0.001087  1
  Ni  Ni11  1  0.001087  0.348804  0.001087  1
  Ni  Ni12  1  0.348804  0.649023  0.001087  1
  Ni  Ni13  1  0.001087  0.001087  0.348804  1
  Ni  Ni14  1  0.611033  0.166904  0.611033  1
  Ni  Ni15  1  0.649023  0.001087  0.348804  1
  Ni  Ni16  1  0.001087  0.649023  0.001087  1
  Ni  Ni17  1  0.611033  0.611033  0.166904  1
  Ni  Ni18  1  0.001087  0.649023  0.348804  1
  Ni  Ni19  1  0.348804  0.001087  0.001087  1
  Ni  Ni20  1  0.001087  0.001087  0.649023  1
  Ni  Ni21  1  0.383147  0.383147  0.383147  1
  Ni  Ni22  1  0.611033  0.611033  0.611033  1
  P  P23  1  0.261823  0.261823  0.738177  1
  P  P24  1  0.261823  0.738177  0.261823  1
  P  P25  1  0.738177  0.261823  0.261823  1
  P  P26  1  0.261823  0.738177  0.738177  1
  P  P27  1  0.738177  0.261823  0.738177  1
  P  P28  1  0.738177  0.738177  0.261823  1
