# generated using pymatgen
data_Tb16Cd2CoHg2Ru3
_symmetry_space_group_name_H-M   'P 1'
_cell_length_a   9.66507887
_cell_length_b   9.66507895
_cell_length_c   9.61542210
_cell_angle_alpha   59.61541739
_cell_angle_beta   59.61540989
_cell_angle_gamma   59.83861229
_symmetry_Int_Tables_number   1
_chemical_formula_structural   Tb16Cd2CoHg2Ru3
_chemical_formula_sum   'Tb16 Cd2 Co1 Hg2 Ru3'
_cell_volume   630.65046384
_cell_formula_units_Z   1
loop_
 _symmetry_equiv_pos_site_id
 _symmetry_equiv_pos_as_xyz
  1  'x, y, z'
loop_
 _atom_site_type_symbol
 _atom_site_label
 _atom_site_symmetry_multiplicity
 _atom_site_fract_x
 _atom_site_fract_y
 _atom_site_fract_z
 _atom_site_occupancy
  Tb  Tb0  1  0.438193  0.438193  0.057923  1
  Tb  Tb1  1  0.595339  0.595339  0.601680  1
  Tb  Tb2  1  0.185853  0.815679  0.809858  1
  Tb  Tb3  1  0.059447  0.059447  0.438395  1
  Tb  Tb4  1  0.439252  0.063826  0.057044  1
  Tb  Tb5  1  0.815679  0.185853  0.809858  1
  Tb  Tb6  1  0.440426  0.060037  0.438722  1
  Tb  Tb7  1  0.594650  0.209042  0.601474  1
  Tb  Tb8  1  0.810971  0.810971  0.189211  1
  Tb  Tb9  1  0.209042  0.594650  0.601474  1
  Tb  Tb10  1  0.810477  0.189120  0.191272  1
  Tb  Tb11  1  0.060037  0.440426  0.438722  1
  Tb  Tb12  1  0.189120  0.810477  0.191272  1
  Tb  Tb13  1  0.596604  0.596604  0.209324  1
  Tb  Tb14  1  0.188200  0.188200  0.809921  1
  Tb  Tb15  1  0.063826  0.439252  0.057044  1
  Cd  Cd16  1  0.509340  0.829545  0.829638  1
  Cd  Cd17  1  0.829545  0.509340  0.829638  1
  Co  Co18  1  0.390440  0.390440  0.830245  1
  Hg  Hg19  1  0.832888  0.832888  0.498227  1
  Hg  Hg20  1  0.833004  0.833004  0.833945  1
  Ru  Ru21  1  0.388048  0.388048  0.390562  1
  Ru  Ru22  1  0.830768  0.388845  0.392275  1
  Ru  Ru23  1  0.388845  0.830768  0.392275  1
