# generated using pymatgen
data_Ca3Nd16SmSn16
_symmetry_space_group_name_H-M   'P 1'
_cell_length_a   8.18661447
_cell_length_b   8.43712137
_cell_length_c   16.09530000
_cell_angle_alpha   90.00000000
_cell_angle_beta   90.00000000
_cell_angle_gamma   89.88058856
_symmetry_Int_Tables_number   1
_chemical_formula_structural   Ca3Nd16SmSn16
_chemical_formula_sum   'Ca3 Nd16 Sm1 Sn16'
_cell_volume   1111.72345346
_cell_formula_units_Z   1
loop_
 _symmetry_equiv_pos_site_id
 _symmetry_equiv_pos_as_xyz
  1  'x, y, z'
loop_
 _atom_site_type_symbol
 _atom_site_label
 _atom_site_symmetry_multiplicity
 _atom_site_fract_x
 _atom_site_fract_y
 _atom_site_fract_z
 _atom_site_occupancy
  Ca  Ca0  1  0.188388  0.498478  0.250000  1
  Ca  Ca1  1  0.687419  0.999527  0.250000  1
  Ca  Ca2  1  0.311834  0.000540  0.750000  1
  Nd  Nd3  1  0.006016  0.182753  0.404733  1
  Nd  Nd4  1  0.358971  0.831235  0.122636  1
  Nd  Nd5  1  0.142948  0.333919  0.621554  1
  Nd  Nd6  1  0.490468  0.683619  0.902859  1
  Nd  Nd7  1  0.858317  0.663747  0.120846  1
  Nd  Nd8  1  0.142948  0.333919  0.878446  1
  Nd  Nd9  1  0.490468  0.683619  0.597141  1
  Nd  Nd10  1  0.641490  0.167208  0.622527  1
  Nd  Nd11  1  0.858317  0.663747  0.379154  1
  Nd  Nd12  1  0.006016  0.182753  0.095267  1
  Nd  Nd13  1  0.994396  0.819773  0.903548  1
  Nd  Nd14  1  0.641490  0.167208  0.877473  1
  Nd  Nd15  1  0.507329  0.316540  0.095778  1
  Nd  Nd16  1  0.358971  0.831235  0.377364  1
  Nd  Nd17  1  0.994396  0.819773  0.596452  1
  Nd  Nd18  1  0.507329  0.316540  0.404222  1
  Sm  Sm19  1  0.811978  0.501735  0.750000  1
  Sn  Sn20  1  0.801537  0.464189  0.542626  1
  Sn  Sn21  1  0.695877  0.960770  0.460832  1
  Sn  Sn22  1  0.689655  0.858130  0.750000  1
  Sn  Sn23  1  0.199648  0.537878  0.460408  1
  Sn  Sn24  1  0.304058  0.039167  0.961824  1
  Sn  Sn25  1  0.812359  0.358201  0.250000  1
  Sn  Sn26  1  0.801537  0.464189  0.957374  1
  Sn  Sn27  1  0.558166  0.607144  0.250000  1
  Sn  Sn28  1  0.199648  0.537878  0.039592  1
  Sn  Sn29  1  0.442142  0.390163  0.750000  1
  Sn  Sn30  1  0.185104  0.641840  0.750000  1
  Sn  Sn31  1  0.944290  0.112132  0.750000  1
  Sn  Sn32  1  0.304058  0.039167  0.538176  1
  Sn  Sn33  1  0.695877  0.960770  0.039168  1
  Sn  Sn34  1  0.310316  0.139429  0.250000  1
  Sn  Sn35  1  0.056241  0.891085  0.250000  1
