# generated using pymatgen
data_Yb4TaTi3O12
_symmetry_space_group_name_H-M   'P 1'
_cell_length_a   5.37272189
_cell_length_b   5.52243728
_cell_length_c   7.67870639
_cell_angle_alpha   90.15175124
_cell_angle_beta   89.95258420
_cell_angle_gamma   90.04579353
_symmetry_Int_Tables_number   1
_chemical_formula_structural   Yb4TaTi3O12
_chemical_formula_sum   'Yb4 Ta1 Ti3 O12'
_cell_volume   227.83025938
_cell_formula_units_Z   1
loop_
 _symmetry_equiv_pos_site_id
 _symmetry_equiv_pos_as_xyz
  1  'x, y, z'
loop_
 _atom_site_type_symbol
 _atom_site_label
 _atom_site_symmetry_multiplicity
 _atom_site_fract_x
 _atom_site_fract_y
 _atom_site_fract_z
 _atom_site_occupancy
  Yb  Yb0  1  0.988223  0.450569  0.739034  1
  Yb  Yb1  1  0.512715  0.943616  0.739628  1
  Yb  Yb2  1  0.487285  0.056384  0.260372  1
  Yb  Yb3  1  0.011777  0.549431  0.260966  1
  Ta  Ta4  1  0.000000  0.000000  0.000000  1
  Ti  Ti5  1  0.000000  0.000000  0.500000  1
  Ti  Ti6  1  0.500000  0.500000  0.000000  1
  Ti  Ti7  1  0.500000  0.500000  0.500000  1
  O  O8  1  0.089672  0.025382  0.749659  1
  O  O9  1  0.201269  0.296640  0.048978  1
  O  O10  1  0.204891  0.291730  0.456014  1
  O  O11  1  0.293422  0.793311  0.456229  1
  O  O12  1  0.299069  0.796869  0.047924  1
  O  O13  1  0.414095  0.524405  0.751406  1
  O  O14  1  0.585905  0.475595  0.248594  1
  O  O15  1  0.700931  0.203131  0.952076  1
  O  O16  1  0.706578  0.206689  0.543771  1
  O  O17  1  0.795109  0.708270  0.543986  1
  O  O18  1  0.798731  0.703360  0.951022  1
  O  O19  1  0.910328  0.974618  0.250341  1
