# generated using pymatgen
data_Er4Ga4Cu2IrRu
_symmetry_space_group_name_H-M   'P 1'
_cell_length_a   4.33729500
_cell_length_b   6.81463376
_cell_length_c   7.57720346
_cell_angle_alpha   90.16113382
_cell_angle_beta   90.00000000
_cell_angle_gamma   90.00000000
_symmetry_Int_Tables_number   1
_chemical_formula_structural   Er4Ga4Cu2IrRu
_chemical_formula_sum   'Er4 Ga4 Cu2 Ir1 Ru1'
_cell_volume   223.95910012
_cell_formula_units_Z   1
loop_
 _symmetry_equiv_pos_site_id
 _symmetry_equiv_pos_as_xyz
  1  'x, y, z'
loop_
 _atom_site_type_symbol
 _atom_site_label
 _atom_site_symmetry_multiplicity
 _atom_site_fract_x
 _atom_site_fract_y
 _atom_site_fract_z
 _atom_site_occupancy
  Er  Er0  1  0.250000  0.990194  0.296139  1
  Er  Er1  1  0.250000  0.489079  0.202015  1
  Er  Er2  1  0.750000  0.022985  0.688420  1
  Er  Er3  1  0.750000  0.523585  0.811943  1
  Ga  Ga4  1  0.250000  0.325923  0.580140  1
  Ga  Ga5  1  0.250000  0.823208  0.922044  1
  Ga  Ga6  1  0.750000  0.672559  0.432390  1
  Ga  Ga7  1  0.750000  0.172062  0.067361  1
  Cu  Cu8  1  0.250000  0.214544  0.898276  1
  Cu  Cu9  1  0.250000  0.714519  0.601908  1
  Ir  Ir10  1  0.750000  0.276541  0.396854  1
  Ru  Ru11  1  0.750000  0.774800  0.102510  1
