# generated using pymatgen
data_Dy3Ho2Si12Ir19
_symmetry_space_group_name_H-M   'P 1'
_cell_length_a   12.83082400
_cell_length_b   12.83049303
_cell_length_c   3.98444200
_cell_angle_alpha   90.00000000
_cell_angle_beta   90.00000000
_cell_angle_gamma   119.99950353
_symmetry_Int_Tables_number   1
_chemical_formula_structural   Dy3Ho2Si12Ir19
_chemical_formula_sum   'Dy3 Ho2 Si12 Ir19'
_cell_volume   568.06522846
_cell_formula_units_Z   1
loop_
 _symmetry_equiv_pos_site_id
 _symmetry_equiv_pos_as_xyz
  1  'x, y, z'
loop_
 _atom_site_type_symbol
 _atom_site_label
 _atom_site_symmetry_multiplicity
 _atom_site_fract_x
 _atom_site_fract_y
 _atom_site_fract_z
 _atom_site_occupancy
  Dy  Dy0  1  0.666651  0.333324  0.500000  1
  Dy  Dy1  1  0.184887  0.184864  0.000000  1
  Dy  Dy2  1  0.815121  0.999991  0.000000  1
  Ho  Ho3  1  0.333342  0.666670  0.500000  1
  Ho  Ho4  1  0.999995  0.815074  0.000000  1
  Si  Si5  1  0.999997  0.632401  0.500000  1
  Si  Si6  1  0.367730  0.367727  0.500000  1
  Si  Si7  1  0.632272  0.000008  0.500000  1
  Si  Si8  1  0.518721  0.687641  0.000000  1
  Si  Si9  1  0.312372  0.831053  0.000000  1
  Si  Si10  1  0.168953  0.481342  0.000000  1
  Si  Si11  1  0.481107  0.168763  0.000000  1
  Si  Si12  1  0.687648  0.518859  0.000000  1
  Si  Si13  1  0.831201  0.312365  0.000000  1
  Si  Si14  1  0.000028  0.181545  0.500000  1
  Si  Si15  1  0.818533  0.818425  0.500000  1
  Si  Si16  1  0.181439  0.999839  0.500000  1
  Ir  Ir17  1  0.512070  0.873405  0.000000  1
  Ir  Ir18  1  0.126597  0.638737  0.000000  1
  Ir  Ir19  1  0.361347  0.487961  0.000000  1
  Ir  Ir20  1  0.487611  0.361338  0.000000  1
  Ir  Ir21  1  0.873734  0.512456  0.000000  1
  Ir  Ir22  1  0.638633  0.126274  0.000000  1
  Ir  Ir23  1  0.999978  0.447396  0.500000  1
  Ir  Ir24  1  0.552680  0.552669  0.500000  1
  Ir  Ir25  1  0.447329  0.000036  0.500000  1
  Ir  Ir26  1  0.000064  0.283059  0.000000  1
  Ir  Ir27  1  0.717137  0.717073  0.000000  1
  Ir  Ir28  1  0.282811  0.999814  0.000000  1
  Ir  Ir29  1  0.622982  0.805590  0.500000  1
  Ir  Ir30  1  0.194109  0.817302  0.500000  1
  Ir  Ir31  1  0.182653  0.377061  0.500000  1
  Ir  Ir32  1  0.376828  0.182491  0.500000  1
  Ir  Ir33  1  0.805981  0.623389  0.500000  1
  Ir  Ir34  1  0.817462  0.194320  0.500000  1
  Ir  Ir35  1  0.999997  0.999738  0.500000  1
