# generated using pymatgen
data_Tb13Y3Cd3AgIr4
_symmetry_space_group_name_H-M   'P 1'
_cell_length_a   9.66950173
_cell_length_b   9.67433273
_cell_length_c   9.66992890
_cell_angle_alpha   59.93888940
_cell_angle_beta   59.92632423
_cell_angle_gamma   59.91538098
_symmetry_Int_Tables_number   1
_chemical_formula_structural   Tb13Y3Cd3AgIr4
_chemical_formula_sum   'Tb13 Y3 Cd3 Ag1 Ir4'
_cell_volume   638.57557798
_cell_formula_units_Z   1
loop_
 _symmetry_equiv_pos_site_id
 _symmetry_equiv_pos_as_xyz
  1  'x, y, z'
loop_
 _atom_site_type_symbol
 _atom_site_label
 _atom_site_symmetry_multiplicity
 _atom_site_fract_x
 _atom_site_fract_y
 _atom_site_fract_z
 _atom_site_occupancy
  Tb  Tb0  1  0.348987  0.348698  0.348909  1
  Tb  Tb1  1  0.349732  0.349565  0.952627  1
  Tb  Tb2  1  0.349670  0.952939  0.349375  1
  Tb  Tb3  1  0.952730  0.349647  0.349508  1
  Tb  Tb4  1  0.809943  0.189488  0.189704  1
  Tb  Tb5  1  0.187980  0.809798  0.809862  1
  Tb  Tb6  1  0.189439  0.809842  0.189692  1
  Tb  Tb7  1  0.809963  0.187872  0.809931  1
  Tb  Tb8  1  0.189381  0.189386  0.810070  1
  Tb  Tb9  1  0.809964  0.809915  0.187857  1
  Tb  Tb10  1  0.936243  0.561491  0.561403  1
  Tb  Tb11  1  0.561092  0.936917  0.937020  1
  Tb  Tb12  1  0.561481  0.936126  0.561619  1
  Y  Y13  1  0.936621  0.561705  0.936708  1
  Y  Y14  1  0.561770  0.561983  0.936129  1
  Y  Y15  1  0.936588  0.936530  0.561795  1
  Cd  Cd16  1  0.581433  0.581336  0.258668  1
  Cd  Cd17  1  0.581491  0.258647  0.581411  1
  Cd  Cd18  1  0.258670  0.581508  0.581520  1
  Ag  Ag19  1  0.583266  0.583153  0.583290  1
  Ir  Ir20  1  0.141509  0.141726  0.141294  1
  Ir  Ir21  1  0.142889  0.142782  0.576019  1
  Ir  Ir22  1  0.143211  0.575798  0.142755  1
  Ir  Ir23  1  0.575950  0.143149  0.142836  1
