# generated using pymatgen
data_Dy8Si13Hg
_symmetry_space_group_name_H-M   'P 1'
_cell_length_a   7.31904150
_cell_length_b   7.31904157
_cell_length_c   11.41342943
_cell_angle_alpha   89.84921804
_cell_angle_beta   89.84922170
_cell_angle_gamma   134.04991810
_symmetry_Int_Tables_number   1
_chemical_formula_structural   Dy8Si13Hg
_chemical_formula_sum   'Dy8 Si13 Hg1'
_cell_volume   439.42331080
_cell_formula_units_Z   1
loop_
 _symmetry_equiv_pos_site_id
 _symmetry_equiv_pos_as_xyz
  1  'x, y, z'
loop_
 _atom_site_type_symbol
 _atom_site_label
 _atom_site_symmetry_multiplicity
 _atom_site_fract_x
 _atom_site_fract_y
 _atom_site_fract_z
 _atom_site_occupancy
  Dy  Dy0  1  0.519074  0.521220  0.508010  1
  Dy  Dy1  1  0.478780  0.480926  0.991990  1
  Dy  Dy2  1  0.997791  0.002209  0.250000  1
  Dy  Dy3  1  0.998037  0.001963  0.750000  1
  Dy  Dy4  1  0.020732  0.515146  0.622314  1
  Dy  Dy5  1  0.517668  0.021668  0.384909  1
  Dy  Dy6  1  0.978332  0.482332  0.115091  1
  Dy  Dy7  1  0.484854  0.979268  0.877686  1
  Si  Si8  1  0.430014  0.569986  0.750000  1
  Si  Si9  1  0.853623  0.542411  0.851472  1
  Si  Si10  1  0.517381  0.814964  0.160142  1
  Si  Si11  1  0.185036  0.482619  0.339858  1
  Si  Si12  1  0.457589  0.146377  0.648528  1
  Si  Si13  1  0.075774  0.413606  0.872340  1
  Si  Si14  1  0.406934  0.057384  0.123969  1
  Si  Si15  1  0.938810  0.117926  0.491514  1
  Si  Si16  1  0.105464  0.936606  0.505962  1
  Si  Si17  1  0.063394  0.894536  0.994038  1
  Si  Si18  1  0.882074  0.061190  0.008486  1
  Si  Si19  1  0.586394  0.924226  0.627660  1
  Si  Si20  1  0.942616  0.593066  0.376031  1
  Hg  Hg21  1  0.559628  0.440372  0.250000  1
