# generated using pymatgen
data_Pr3Ho5Cd2OsPt
_symmetry_space_group_name_H-M   'P 1'
_cell_length_a   9.76162150
_cell_length_b   9.76162139
_cell_length_c   9.81075300
_cell_angle_alpha   59.83336154
_cell_angle_beta   59.83336191
_cell_angle_gamma   59.91027490
_symmetry_Int_Tables_number   1
_chemical_formula_structural   Pr3Ho5Cd2OsPt
_chemical_formula_sum   'Pr6 Ho10 Cd4 Os2 Pt2'
_cell_volume   658.92945446
_cell_formula_units_Z   2
loop_
 _symmetry_equiv_pos_site_id
 _symmetry_equiv_pos_as_xyz
  1  'x, y, z'
loop_
 _atom_site_type_symbol
 _atom_site_label
 _atom_site_symmetry_multiplicity
 _atom_site_fract_x
 _atom_site_fract_y
 _atom_site_fract_z
 _atom_site_occupancy
  Pr  Pr0  1  0.940932  0.553142  0.562924  1
  Pr  Pr1  1  0.553142  0.940932  0.943001  1
  Pr  Pr2  1  0.553142  0.940932  0.562924  1
  Pr  Pr3  1  0.940932  0.553142  0.943001  1
  Pr  Pr4  1  0.560280  0.560280  0.939720  1
  Pr  Pr5  1  0.943038  0.943038  0.556962  1
  Ho  Ho6  1  0.348019  0.348019  0.350671  1
  Ho  Ho7  1  0.348019  0.348019  0.953291  1
  Ho  Ho8  1  0.344233  0.961467  0.347150  1
  Ho  Ho9  1  0.961467  0.344233  0.347150  1
  Ho  Ho10  1  0.817558  0.184729  0.188714  1
  Ho  Ho11  1  0.184729  0.817558  0.808999  1
  Ho  Ho12  1  0.184729  0.817558  0.188714  1
  Ho  Ho13  1  0.817558  0.184729  0.808999  1
  Ho  Ho14  1  0.186079  0.186079  0.813921  1
  Ho  Ho15  1  0.810141  0.810141  0.189859  1
  Cd  Cd16  1  0.578545  0.578545  0.579355  1
  Cd  Cd17  1  0.578545  0.578545  0.263555  1
  Cd  Cd18  1  0.580105  0.260909  0.579492  1
  Cd  Cd19  1  0.260909  0.580105  0.579492  1
  Os  Os20  1  0.143685  0.143685  0.137410  1
  Os  Os21  1  0.143685  0.143685  0.575221  1
  Pt  Pt22  1  0.144065  0.576462  0.139737  1
  Pt  Pt23  1  0.576462  0.144065  0.139737  1
