# generated using pymatgen
data_Er10Si4HgPt
_symmetry_space_group_name_H-M   'P 1'
_cell_length_a   7.35106745
_cell_length_b   7.35106773
_cell_length_c   8.86769000
_cell_angle_alpha   114.48694600
_cell_angle_beta   114.48694696
_cell_angle_gamma   90.00001073
_symmetry_Int_Tables_number   1
_chemical_formula_structural   Er10Si4HgPt
_chemical_formula_sum   'Er10 Si4 Hg1 Pt1'
_cell_volume   388.23665912
_cell_formula_units_Z   1
loop_
 _symmetry_equiv_pos_site_id
 _symmetry_equiv_pos_as_xyz
  1  'x, y, z'
loop_
 _atom_site_type_symbol
 _atom_site_label
 _atom_site_symmetry_multiplicity
 _atom_site_fract_x
 _atom_site_fract_y
 _atom_site_fract_z
 _atom_site_occupancy
  Er  Er0  1  0.477003  0.476966  0.953954  1
  Er  Er1  1  0.023048  0.023034  0.046046  1
  Er  Er2  1  0.949254  0.796360  0.281623  1
  Er  Er3  1  0.332340  0.485238  0.281631  1
  Er  Er4  1  0.796369  0.332343  0.281639  1
  Er  Er5  1  0.485235  0.949229  0.281621  1
  Er  Er6  1  0.014729  0.167657  0.718361  1
  Er  Er7  1  0.703613  0.550771  0.718379  1
  Er  Er8  1  0.167631  0.703640  0.718377  1
  Er  Er9  1  0.550708  0.014762  0.718369  1
  Si  Si10  1  0.621999  0.878039  0.000027  1
  Si  Si11  1  0.378003  0.121988  0.999979  1
  Si  Si12  1  0.878024  0.378012  0.000021  1
  Si  Si13  1  0.121973  0.621961  0.999973  1
  Hg  Hg14  1  0.250085  0.250000  0.500000  1
  Pt  Pt15  1  0.749987  0.750000  0.500000  1
