# generated using pymatgen
data_Li2Eu2Dy3P12Ir17
_symmetry_space_group_name_H-M   'P 1'
_cell_length_a   12.67815600
_cell_length_b   12.77766369
_cell_length_c   3.96792400
_cell_angle_alpha   90.00000000
_cell_angle_beta   90.00000000
_cell_angle_gamma   119.74271999
_symmetry_Int_Tables_number   1
_chemical_formula_structural   Li2Eu2Dy3P12Ir17
_chemical_formula_sum   'Li2 Eu2 Dy3 P12 Ir17'
_cell_volume   558.11232387
_cell_formula_units_Z   1
loop_
 _symmetry_equiv_pos_site_id
 _symmetry_equiv_pos_as_xyz
  1  'x, y, z'
loop_
 _atom_site_type_symbol
 _atom_site_label
 _atom_site_symmetry_multiplicity
 _atom_site_fract_x
 _atom_site_fract_y
 _atom_site_fract_z
 _atom_site_occupancy
  Li  Li0  1  0.998677  0.441577  0.500000  1
  Li  Li1  1  0.557100  0.558423  0.500000  1
  Eu  Eu2  1  0.002881  0.812857  0.000000  1
  Eu  Eu3  1  0.190023  0.187143  0.000000  1
  Dy  Dy4  1  0.332549  0.662626  0.500000  1
  Dy  Dy5  1  0.669923  0.337374  0.500000  1
  Dy  Dy6  1  0.811772  0.000000  0.000000  1
  P  P7  1  0.999200  0.629460  0.500000  1
  P  P8  1  0.369740  0.370540  0.500000  1
  P  P9  1  0.639841  0.000000  0.500000  1
  P  P10  1  0.513506  0.684782  0.000000  1
  P  P11  1  0.306281  0.821401  0.000000  1
  P  P12  1  0.167422  0.479645  0.000000  1
  P  P13  1  0.484880  0.178599  0.000000  1
  P  P14  1  0.687778  0.520355  0.000000  1
  P  P15  1  0.828724  0.315218  0.000000  1
  P  P16  1  0.997044  0.179382  0.500000  1
  P  P17  1  0.817662  0.820618  0.500000  1
  P  P18  1  0.180581  0.000000  0.500000  1
  Ir  Ir19  1  0.503225  0.866117  0.000000  1
  Ir  Ir20  1  0.128883  0.636925  0.000000  1
  Ir  Ir21  1  0.357396  0.489353  0.000000  1
  Ir  Ir22  1  0.491958  0.363075  0.000000  1
  Ir  Ir23  1  0.868044  0.510647  0.000000  1
  Ir  Ir24  1  0.637108  0.133883  0.000000  1
  Ir  Ir25  1  0.459522  0.000000  0.500000  1
  Ir  Ir26  1  0.995098  0.278185  0.000000  1
  Ir  Ir27  1  0.716915  0.721815  0.000000  1
  Ir  Ir28  1  0.290725  0.000000  0.000000  1
  Ir  Ir29  1  0.621715  0.807632  0.500000  1
  Ir  Ir30  1  0.204527  0.822843  0.500000  1
  Ir  Ir31  1  0.176835  0.375722  0.500000  1
  Ir  Ir32  1  0.381685  0.177157  0.500000  1
  Ir  Ir33  1  0.801112  0.624278  0.500000  1
  Ir  Ir34  1  0.814083  0.192368  0.500000  1
  Ir  Ir35  1  0.995583  0.000000  0.500000  1
