# generated using pymatgen
data_Nd7SmSe12
_symmetry_space_group_name_H-M   'P 1'
_cell_length_a   4.18683500
_cell_length_b   11.19407006
_cell_length_c   11.52678906
_cell_angle_alpha   90.01168604
_cell_angle_beta   90.00000000
_cell_angle_gamma   90.00000000
_symmetry_Int_Tables_number   1
_chemical_formula_structural   Nd7SmSe12
_chemical_formula_sum   'Nd7 Sm1 Se12'
_cell_volume   540.23436063
_cell_formula_units_Z   1
loop_
 _symmetry_equiv_pos_site_id
 _symmetry_equiv_pos_as_xyz
  1  'x, y, z'
loop_
 _atom_site_type_symbol
 _atom_site_label
 _atom_site_symmetry_multiplicity
 _atom_site_fract_x
 _atom_site_fract_y
 _atom_site_fract_z
 _atom_site_occupancy
  Nd  Nd0  1  0.250000  0.998090  0.694113  1
  Nd  Nd1  1  0.750000  0.002420  0.305908  1
  Nd  Nd2  1  0.750000  0.497504  0.806435  1
  Nd  Nd3  1  0.250000  0.501654  0.193417  1
  Nd  Nd4  1  0.250000  0.313103  0.511591  1
  Nd  Nd5  1  0.750000  0.686801  0.488362  1
  Nd  Nd6  1  0.750000  0.813393  0.988446  1
  Sm  Sm7  1  0.250000  0.186993  0.011356  1
  Se  Se8  1  0.750000  0.057501  0.881484  1
  Se  Se9  1  0.250000  0.945694  0.119519  1
  Se  Se10  1  0.250000  0.555777  0.620432  1
  Se  Se11  1  0.750000  0.444021  0.379618  1
  Se  Se12  1  0.250000  0.874771  0.455045  1
  Se  Se13  1  0.750000  0.125247  0.544953  1
  Se  Se14  1  0.750000  0.372242  0.044408  1
  Se  Se15  1  0.250000  0.625032  0.955124  1
  Se  Se16  1  0.250000  0.300835  0.773266  1
  Se  Se17  1  0.750000  0.698671  0.228023  1
  Se  Se18  1  0.750000  0.801499  0.728192  1
  Se  Se19  1  0.250000  0.198753  0.270310  1
