# generated using pymatgen
data_Li(AcB8)3
_symmetry_space_group_name_H-M   'P 1'
_cell_length_a   7.25186501
_cell_length_b   7.25186500
_cell_length_c   5.94066200
_cell_angle_alpha   90.00000000
_cell_angle_beta   90.00000000
_cell_angle_gamma   109.38123917
_symmetry_Int_Tables_number   1
_chemical_formula_structural   Li(AcB8)3
_chemical_formula_sum   'Li1 Ac3 B24'
_cell_volume   294.71249055
_cell_formula_units_Z   1
loop_
 _symmetry_equiv_pos_site_id
 _symmetry_equiv_pos_as_xyz
  1  'x, y, z'
loop_
 _atom_site_type_symbol
 _atom_site_label
 _atom_site_symmetry_multiplicity
 _atom_site_fract_x
 _atom_site_fract_y
 _atom_site_fract_z
 _atom_site_occupancy
  Li  Li0  1  0.000000  0.000000  0.000000  1
  Ac  Ac1  1  0.752122  0.247878  0.500000  1
  Ac  Ac2  1  0.500000  0.500000  0.000000  1
  Ac  Ac3  1  0.247878  0.752122  0.500000  1
  B  B4  1  0.174698  0.323531  0.649428  1
  B  B5  1  0.925628  0.575517  0.148394  1
  B  B6  1  0.676469  0.825302  0.649428  1
  B  B7  1  0.424483  0.074372  0.148394  1
  B  B8  1  0.174698  0.323531  0.350572  1
  B  B9  1  0.925628  0.575517  0.851606  1
  B  B10  1  0.676469  0.825302  0.350572  1
  B  B11  1  0.424483  0.074372  0.851606  1
  B  B12  1  0.398848  0.398848  0.500000  1
  B  B13  1  0.148138  0.650259  0.000000  1
  B  B14  1  0.899539  0.899539  0.500000  1
  B  B15  1  0.650259  0.148138  0.000000  1
  B  B16  1  0.323531  0.174698  0.649428  1
  B  B17  1  0.074372  0.424483  0.148394  1
  B  B18  1  0.825302  0.676469  0.649428  1
  B  B19  1  0.575517  0.925628  0.148394  1
  B  B20  1  0.100461  0.100461  0.500000  1
  B  B21  1  0.851862  0.349741  0.000000  1
  B  B22  1  0.601152  0.601152  0.500000  1
  B  B23  1  0.349741  0.851862  0.000000  1
  B  B24  1  0.323531  0.174698  0.350572  1
  B  B25  1  0.074372  0.424483  0.851606  1
  B  B26  1  0.825302  0.676469  0.350572  1
  B  B27  1  0.575517  0.925628  0.851606  1
