# generated using pymatgen
data_Nd8DyY11Si16
_symmetry_space_group_name_H-M   'P 1'
_cell_length_a   7.76576601
_cell_length_b   7.76576601
_cell_length_c   14.52236100
_cell_angle_alpha   89.99973305
_cell_angle_beta   90.00026695
_cell_angle_gamma   90.00488423
_symmetry_Int_Tables_number   1
_chemical_formula_structural   Nd8DyY11Si16
_chemical_formula_sum   'Nd8 Dy1 Y11 Si16'
_cell_volume   875.80178866
_cell_formula_units_Z   1
loop_
 _symmetry_equiv_pos_site_id
 _symmetry_equiv_pos_as_xyz
  1  'x, y, z'
loop_
 _atom_site_type_symbol
 _atom_site_label
 _atom_site_symmetry_multiplicity
 _atom_site_fract_x
 _atom_site_fract_y
 _atom_site_fract_z
 _atom_site_occupancy
  Nd  Nd0  1  0.633794  0.989894  0.454395  1
  Nd  Nd1  1  0.366074  0.010223  0.954369  1
  Nd  Nd2  1  0.989894  0.633794  0.545605  1
  Nd  Nd3  1  0.489780  0.866121  0.204378  1
  Nd  Nd4  1  0.510194  0.133961  0.704315  1
  Nd  Nd5  1  0.866121  0.489780  0.795622  1
  Nd  Nd6  1  0.133961  0.510194  0.295685  1
  Nd  Nd7  1  0.010223  0.366074  0.045631  1
  Dy  Dy8  1  0.313934  0.313934  0.500000  1
  Y  Y9  1  0.487416  0.365425  0.125039  1
  Y  Y10  1  0.987555  0.134625  0.624910  1
  Y  Y11  1  0.865479  0.012601  0.875027  1
  Y  Y12  1  0.134625  0.987555  0.375090  1
  Y  Y13  1  0.512529  0.634402  0.624981  1
  Y  Y14  1  0.365425  0.487416  0.874961  1
  Y  Y15  1  0.634402  0.512529  0.375019  1
  Y  Y16  1  0.012601  0.865479  0.124973  1
  Y  Y17  1  0.186085  0.813860  0.749993  1
  Y  Y18  1  0.813860  0.186085  0.250007  1
  Y  Y19  1  0.686086  0.686086  0.000000  1
  Si  Si20  1  0.287494  0.930521  0.561338  1
  Si  Si21  1  0.712511  0.069561  0.061372  1
  Si  Si22  1  0.930521  0.287494  0.438662  1
  Si  Si23  1  0.430385  0.212514  0.311389  1
  Si  Si24  1  0.569564  0.787499  0.811376  1
  Si  Si25  1  0.212514  0.430385  0.688611  1
  Si  Si26  1  0.787499  0.569564  0.188624  1
  Si  Si27  1  0.069561  0.712511  0.938628  1
  Si  Si28  1  0.801582  0.839276  0.694139  1
  Si  Si29  1  0.198465  0.160700  0.194121  1
  Si  Si30  1  0.839276  0.801582  0.305861  1
  Si  Si31  1  0.339244  0.698321  0.444156  1
  Si  Si32  1  0.660726  0.301603  0.944139  1
  Si  Si33  1  0.698321  0.339244  0.555844  1
  Si  Si34  1  0.301603  0.660726  0.055861  1
  Si  Si35  1  0.160700  0.198465  0.805879  1
