# generated using pymatgen
data_La16Er4Ir11Rh
_symmetry_space_group_name_H-M   'P 1'
_cell_length_a   11.35639300
_cell_length_b   11.35639300
_cell_length_c   6.56364900
_cell_angle_alpha   90.00000000
_cell_angle_beta   90.00000000
_cell_angle_gamma   90.00000000
_symmetry_Int_Tables_number   1
_chemical_formula_structural   La16Er4Ir11Rh
_chemical_formula_sum   'La16 Er4 Ir11 Rh1'
_cell_volume   846.49846552
_cell_formula_units_Z   1
loop_
 _symmetry_equiv_pos_site_id
 _symmetry_equiv_pos_as_xyz
  1  'x, y, z'
loop_
 _atom_site_type_symbol
 _atom_site_label
 _atom_site_symmetry_multiplicity
 _atom_site_fract_x
 _atom_site_fract_y
 _atom_site_fract_z
 _atom_site_occupancy
  La  La0  1  0.286978  0.087955  0.395182  1
  La  La1  1  0.286740  0.912067  0.892341  1
  La  La2  1  0.713260  0.087933  0.892341  1
  La  La3  1  0.713022  0.912045  0.395182  1
  La  La4  1  0.587933  0.786740  0.892341  1
  La  La5  1  0.587955  0.213022  0.395182  1
  La  La6  1  0.412045  0.786978  0.395182  1
  La  La7  1  0.412067  0.213260  0.892341  1
  La  La8  1  0.212602  0.412290  0.606744  1
  La  La9  1  0.212724  0.587849  0.107258  1
  La  La10  1  0.787276  0.412151  0.107258  1
  La  La11  1  0.787398  0.587710  0.606744  1
  La  La12  1  0.912151  0.712724  0.107258  1
  La  La13  1  0.912290  0.287398  0.606744  1
  La  La14  1  0.087710  0.712602  0.606744  1
  La  La15  1  0.087849  0.287276  0.107258  1
  Er  Er16  1  0.000000  0.000000  0.499801  1
  Er  Er17  1  0.000000  0.000000  0.999809  1
  Er  Er18  1  0.500000  0.500000  0.999809  1
  Er  Er19  1  0.500000  0.500000  0.499801  1
  Ir  Ir20  1  0.851277  0.146561  0.250053  1
  Ir  Ir21  1  0.852768  0.851923  0.749441  1
  Ir  Ir22  1  0.147232  0.148077  0.749441  1
  Ir  Ir23  1  0.148723  0.853439  0.250053  1
  Ir  Ir24  1  0.648077  0.352768  0.749441  1
  Ir  Ir25  1  0.646561  0.648723  0.250053  1
  Ir  Ir26  1  0.353439  0.351277  0.250053  1
  Ir  Ir27  1  0.351923  0.647232  0.749441  1
  Ir  Ir28  1  0.500000  0.000000  0.627736  1
  Ir  Ir29  1  0.000000  0.500000  0.873187  1
  Ir  Ir30  1  0.000000  0.500000  0.372514  1
  Rh  Rh31  1  0.500000  0.000000  0.123267  1
