# generated using pymatgen
data_Zr6Zn22CdSn
_symmetry_space_group_name_H-M   'P 1'
_cell_length_a   8.89225305
_cell_length_b   8.89223536
_cell_length_c   8.89223500
_cell_angle_alpha   60.00010179
_cell_angle_beta   60.00011550
_cell_angle_gamma   60.00012316
_symmetry_Int_Tables_number   1
_chemical_formula_structural   Zr6Zn22CdSn
_chemical_formula_sum   'Zr6 Zn22 Cd1 Sn1'
_cell_volume   497.18705577
_cell_formula_units_Z   1
loop_
 _symmetry_equiv_pos_site_id
 _symmetry_equiv_pos_as_xyz
  1  'x, y, z'
loop_
 _atom_site_type_symbol
 _atom_site_label
 _atom_site_symmetry_multiplicity
 _atom_site_fract_x
 _atom_site_fract_y
 _atom_site_fract_z
 _atom_site_occupancy
  Zr  Zr0  1  0.732369  0.267631  0.267631  1
  Zr  Zr1  1  0.267631  0.732369  0.732369  1
  Zr  Zr2  1  0.267632  0.732369  0.267629  1
  Zr  Zr3  1  0.732368  0.267631  0.732371  1
  Zr  Zr4  1  0.267632  0.267629  0.732369  1
  Zr  Zr5  1  0.732368  0.732371  0.267631  1
  Zn  Zn6  1  0.132991  0.132991  0.132991  1
  Zn  Zn7  1  0.867009  0.867009  0.867009  1
  Zn  Zn8  1  0.132990  0.132990  0.601031  1
  Zn  Zn9  1  0.132990  0.601031  0.132990  1
  Zn  Zn10  1  0.867010  0.867010  0.398969  1
  Zn  Zn11  1  0.867010  0.398969  0.867010  1
  Zn  Zn12  1  0.601030  0.132990  0.132990  1
  Zn  Zn13  1  0.398970  0.867010  0.867010  1
  Zn  Zn14  1  0.500000  0.000000  0.000000  1
  Zn  Zn15  1  0.000000  0.500000  0.500000  1
  Zn  Zn16  1  0.000000  0.500000  0.000000  1
  Zn  Zn17  1  0.500000  0.000000  0.500000  1
  Zn  Zn18  1  0.000000  0.000000  0.500000  1
  Zn  Zn19  1  0.500000  0.500000  0.000000  1
  Zn  Zn20  1  0.346197  0.346197  0.346197  1
  Zn  Zn21  1  0.653803  0.653803  0.653803  1
  Zn  Zn22  1  0.346195  0.346195  0.961412  1
  Zn  Zn23  1  0.346195  0.961412  0.346195  1
  Zn  Zn24  1  0.653805  0.653805  0.038588  1
  Zn  Zn25  1  0.653805  0.038588  0.653805  1
  Zn  Zn26  1  0.961412  0.346195  0.346195  1
  Zn  Zn27  1  0.038588  0.653805  0.653805  1
  Cd  Cd28  1  0.000000  0.000000  0.000000  1
  Sn  Sn29  1  0.500000  0.500000  0.500000  1
