# generated using pymatgen
data_Ca9Gd(NbN5)2
_symmetry_space_group_name_H-M   'P 1'
_cell_length_a   6.97074970
_cell_length_b   6.93596062
_cell_length_c   8.92545169
_cell_angle_alpha   80.60763550
_cell_angle_beta   80.33324295
_cell_angle_gamma   59.72809830
_symmetry_Int_Tables_number   1
_chemical_formula_structural   Ca9Gd(NbN5)2
_chemical_formula_sum   'Ca9 Gd1 Nb2 N10'
_cell_volume   365.83362321
_cell_formula_units_Z   1
loop_
 _symmetry_equiv_pos_site_id
 _symmetry_equiv_pos_as_xyz
  1  'x, y, z'
loop_
 _atom_site_type_symbol
 _atom_site_label
 _atom_site_symmetry_multiplicity
 _atom_site_fract_x
 _atom_site_fract_y
 _atom_site_fract_z
 _atom_site_occupancy
  Ca  Ca0  1  0.869970  0.869646  0.827666  1
  Ca  Ca1  1  0.740307  0.742410  0.520198  1
  Ca  Ca2  1  0.753657  0.249095  0.503530  1
  Ca  Ca3  1  0.622686  0.140143  0.155712  1
  Ca  Ca4  1  0.363589  0.871464  0.838022  1
  Ca  Ca5  1  0.250714  0.755774  0.508207  1
  Ca  Ca6  1  0.243996  0.245014  0.489797  1
  Ca  Ca7  1  0.140999  0.141446  0.165974  1
  Ca  Ca8  1  0.135883  0.629024  0.153892  1
  Gd  Gd9  1  0.879637  0.347780  0.832476  1
  Nb  Nb10  1  0.631784  0.629427  0.220344  1
  Nb  Nb11  1  0.372101  0.366283  0.774625  1
  N  N12  1  0.915792  0.465722  0.321244  1
  N  N13  1  0.987629  0.014220  0.012594  1
  N  N14  1  0.685335  0.670026  0.997385  1
  N  N15  1  0.543679  0.532190  0.696028  1
  N  N16  1  0.464728  0.915692  0.323002  1
  N  N17  1  0.540485  0.082777  0.675154  1
  N  N18  1  0.462470  0.467081  0.301928  1
  N  N19  1  0.319762  0.316927  0.994333  1
  N  N20  1  0.053214  0.075182  0.654030  1
  N  N21  1  0.083868  0.534962  0.679664  1
