# generated using pymatgen
data_Tb2YBe2Co9B4
_symmetry_space_group_name_H-M   'P 1'
_cell_length_a   5.05577300
_cell_length_b   5.05559881
_cell_length_c   9.35933700
_cell_angle_alpha   89.99997427
_cell_angle_beta   90.00007412
_cell_angle_gamma   120.00113324
_symmetry_Int_Tables_number   1
_chemical_formula_structural   Tb2YBe2Co9B4
_chemical_formula_sum   'Tb2 Y1 Be2 Co9 B4'
_cell_volume   207.17193684
_cell_formula_units_Z   1
loop_
 _symmetry_equiv_pos_site_id
 _symmetry_equiv_pos_as_xyz
  1  'x, y, z'
loop_
 _atom_site_type_symbol
 _atom_site_label
 _atom_site_symmetry_multiplicity
 _atom_site_fract_x
 _atom_site_fract_y
 _atom_site_fract_z
 _atom_site_occupancy
  Tb  Tb0  1  0.999995  0.000000  0.337797  1
  Tb  Tb1  1  0.999999  0.000000  0.662087  1
  Y  Y2  1  0.999991  0.000000  0.000060  1
  Be  Be3  1  0.333133  0.666281  0.000074  1
  Be  Be4  1  0.666852  0.333719  0.000074  1
  Co  Co5  1  0.499996  0.000000  0.499979  1
  Co  Co6  1  0.499996  0.500000  0.499974  1
  Co  Co7  1  0.999996  0.500000  0.499974  1
  Co  Co8  1  0.499992  0.000000  0.190345  1
  Co  Co9  1  0.499991  0.500000  0.190288  1
  Co  Co10  1  0.999991  0.500000  0.190288  1
  Co  Co11  1  0.499998  0.000000  0.809668  1
  Co  Co12  1  0.499997  0.500000  0.809756  1
  Co  Co13  1  0.999996  0.500000  0.809756  1
  B  B14  1  0.333269  0.666552  0.341908  1
  B  B15  1  0.666717  0.333448  0.341908  1
  B  B16  1  0.666765  0.333539  0.658033  1
  B  B17  1  0.333226  0.666461  0.658033  1
