# generated using pymatgen
data_Os(S4Cl3)2
_symmetry_space_group_name_H-M   'P 1'
_cell_length_a   8.32686628
_cell_length_b   8.31699006
_cell_length_c   13.65118967
_cell_angle_alpha   97.35599016
_cell_angle_beta   100.76749033
_cell_angle_gamma   90.08859041
_symmetry_Int_Tables_number   1
_chemical_formula_structural   Os(S4Cl3)2
_chemical_formula_sum   'Os2 S16 Cl12'
_cell_volume   920.80187771
_cell_formula_units_Z   2
loop_
 _symmetry_equiv_pos_site_id
 _symmetry_equiv_pos_as_xyz
  1  'x, y, z'
loop_
 _atom_site_type_symbol
 _atom_site_label
 _atom_site_symmetry_multiplicity
 _atom_site_fract_x
 _atom_site_fract_y
 _atom_site_fract_z
 _atom_site_occupancy
  Os  Os0  1  0.711375  0.222947  0.894159  1
  Os  Os1  1  0.288625  0.777053  0.105841  1
  S  S2  1  0.435435  0.755875  0.658262  1
  S  S3  1  0.564565  0.244125  0.341738  1
  S  S4  1  0.269188  0.902539  0.583700  1
  S  S5  1  0.730812  0.097461  0.416300  1
  S  S6  1  0.092379  0.965219  0.667852  1
  S  S7  1  0.907621  0.034781  0.332148  1
  S  S8  1  0.890479  0.813618  0.617325  1
  S  S9  1  0.109521  0.186382  0.382675  1
  S  S10  1  0.893969  0.627086  0.703188  1
  S  S11  1  0.106031  0.372914  0.296812  1
  S  S12  1  0.993464  0.423809  0.637110  1
  S  S13  1  0.006536  0.576191  0.362890  1
  S  S14  1  0.240123  0.415382  0.693855  1
  S  S15  1  0.759877  0.584618  0.306145  1
  S  S16  1  0.624998  0.483051  0.395569  1
  S  S17  1  0.375002  0.516949  0.604431  1
  Cl  Cl18  1  0.756065  0.254334  0.066272  1
  Cl  Cl19  1  0.243935  0.745666  0.933728  1
  Cl  Cl20  1  0.664210  0.188935  0.718935  1
  Cl  Cl21  1  0.335790  0.811065  0.281065  1
  Cl  Cl22  1  0.444095  0.144350  0.887932  1
  Cl  Cl23  1  0.555905  0.855650  0.112068  1
  Cl  Cl24  1  0.633778  0.488887  0.894078  1
  Cl  Cl25  1  0.366222  0.511113  0.105922  1
  Cl  Cl26  1  0.977861  0.302561  0.898670  1
  Cl  Cl27  1  0.022139  0.697439  0.101330  1
  Cl  Cl28  1  0.789647  0.957201  0.892496  1
  Cl  Cl29  1  0.210353  0.042799  0.107504  1
