# generated using pymatgen
data_ThZnCo3B
_symmetry_space_group_name_H-M   'P 1'
_cell_length_a   5.18782117
_cell_length_b   5.18809195
_cell_length_c   6.83477700
_cell_angle_alpha   90.00000000
_cell_angle_beta   90.00000000
_cell_angle_gamma   119.99429788
_symmetry_Int_Tables_number   1
_chemical_formula_structural   ThZnCo3B
_chemical_formula_sum   'Th2 Zn2 Co6 B2'
_cell_volume   159.32084242
_cell_formula_units_Z   2
loop_
 _symmetry_equiv_pos_site_id
 _symmetry_equiv_pos_as_xyz
  1  'x, y, z'
loop_
 _atom_site_type_symbol
 _atom_site_label
 _atom_site_symmetry_multiplicity
 _atom_site_fract_x
 _atom_site_fract_y
 _atom_site_fract_z
 _atom_site_occupancy
  Th  Th0  1  0.999975  0.999998  0.000000  1
  Th  Th1  1  0.999987  0.000000  0.500000  1
  Zn  Zn2  1  0.333314  0.666645  0.000000  1
  Zn  Zn3  1  0.666643  0.333354  0.000000  1
  Co  Co4  1  0.499986  0.000000  0.296883  1
  Co  Co5  1  0.499985  0.500002  0.296876  1
  Co  Co6  1  0.999984  0.499999  0.296882  1
  Co  Co7  1  0.499986  0.000000  0.703117  1
  Co  Co8  1  0.499985  0.500002  0.703123  1
  Co  Co9  1  0.999984  0.499999  0.703117  1
  B  B10  1  0.333319  0.666639  0.500000  1
  B  B11  1  0.666649  0.333361  0.500000  1
