# generated using pymatgen
data_Dy3ZnCd4Ir
_symmetry_space_group_name_H-M   'P 1'
_cell_length_a   7.94106500
_cell_length_b   7.94106573
_cell_length_c   3.72875300
_cell_angle_alpha   90.00000000
_cell_angle_beta   90.00000000
_cell_angle_gamma   120.00000946
_symmetry_Int_Tables_number   1
_chemical_formula_structural   Dy3ZnCd4Ir
_chemical_formula_sum   'Dy3 Zn1 Cd4 Ir1'
_cell_volume   203.63468248
_cell_formula_units_Z   1
loop_
 _symmetry_equiv_pos_site_id
 _symmetry_equiv_pos_as_xyz
  1  'x, y, z'
loop_
 _atom_site_type_symbol
 _atom_site_label
 _atom_site_symmetry_multiplicity
 _atom_site_fract_x
 _atom_site_fract_y
 _atom_site_fract_z
 _atom_site_occupancy
  Dy  Dy0  1  0.052431  0.294081  0.500000  1
  Dy  Dy1  1  0.705919  0.758350  0.500000  1
  Dy  Dy2  1  0.241650  0.947569  0.500000  1
  Zn  Zn3  1  0.666667  0.333333  0.500000  1
  Cd  Cd4  1  0.660728  0.069863  0.000000  1
  Cd  Cd5  1  0.930137  0.590865  0.000000  1
  Cd  Cd6  1  0.409135  0.339272  0.000000  1
  Cd  Cd7  1  0.333333  0.666667  0.000000  1
  Ir  Ir8  1  0.000000  0.000000  0.000000  1
