# generated using pymatgen
data_Ba7EuTa4O18
_symmetry_space_group_name_H-M   'P 1'
_cell_length_a   6.15989800
_cell_length_b   6.15989823
_cell_length_c   16.05165900
_cell_angle_alpha   90.00000000
_cell_angle_beta   90.00000000
_cell_angle_gamma   119.99997870
_symmetry_Int_Tables_number   1
_chemical_formula_structural   Ba7EuTa4O18
_chemical_formula_sum   'Ba7 Eu1 Ta4 O18'
_cell_volume   527.46993211
_cell_formula_units_Z   1
loop_
 _symmetry_equiv_pos_site_id
 _symmetry_equiv_pos_as_xyz
  1  'x, y, z'
loop_
 _atom_site_type_symbol
 _atom_site_label
 _atom_site_symmetry_multiplicity
 _atom_site_fract_x
 _atom_site_fract_y
 _atom_site_fract_z
 _atom_site_occupancy
  Ba  Ba0  1  0.000000  0.000000  0.741477  1
  Ba  Ba1  1  0.000000  0.000000  0.258523  1
  Ba  Ba2  1  0.666667  0.333333  0.606172  1
  Ba  Ba3  1  0.333333  0.666667  0.144290  1
  Ba  Ba4  1  0.333333  0.666667  0.393828  1
  Ba  Ba5  1  0.666667  0.333333  0.855710  1
  Ba  Ba6  1  0.000000  0.000000  0.000000  1
  Eu  Eu7  1  0.000000  0.000000  0.500000  1
  Ta  Ta8  1  0.666667  0.333333  0.352836  1
  Ta  Ta9  1  0.333333  0.666667  0.833515  1
  Ta  Ta10  1  0.333333  0.666667  0.647164  1
  Ta  Ta11  1  0.666667  0.333333  0.166485  1
  O  O12  1  0.527573  0.953340  0.738749  1
  O  O13  1  0.046660  0.574234  0.738749  1
  O  O14  1  0.425766  0.472427  0.738749  1
  O  O15  1  0.472427  0.046660  0.261251  1
  O  O16  1  0.953340  0.425766  0.261251  1
  O  O17  1  0.574234  0.527573  0.261251  1
  O  O18  1  0.115918  0.356692  0.590516  1
  O  O19  1  0.643308  0.759226  0.590516  1
  O  O20  1  0.240774  0.884082  0.590516  1
  O  O21  1  0.892274  0.642874  0.113471  1
  O  O22  1  0.357126  0.249399  0.113471  1
  O  O23  1  0.750601  0.107726  0.113471  1
  O  O24  1  0.884082  0.643308  0.409484  1
  O  O25  1  0.356692  0.240774  0.409484  1
  O  O26  1  0.759226  0.115918  0.409484  1
  O  O27  1  0.107726  0.357126  0.886529  1
  O  O28  1  0.642874  0.750601  0.886529  1
  O  O29  1  0.249399  0.892274  0.886529  1
