# generated using pymatgen
data_Pa2InNiRh
_symmetry_space_group_name_H-M   'P 1'
_cell_length_a   7.60877513
_cell_length_b   7.60877513
_cell_length_c   3.54933700
_cell_angle_alpha   90.00000000
_cell_angle_beta   90.00000000
_cell_angle_gamma   90.93655942
_symmetry_Int_Tables_number   1
_chemical_formula_structural   Pa2InNiRh
_chemical_formula_sum   'Pa4 In2 Ni2 Rh2'
_cell_volume   205.45594448
_cell_formula_units_Z   2
loop_
 _symmetry_equiv_pos_site_id
 _symmetry_equiv_pos_as_xyz
  1  'x, y, z'
loop_
 _atom_site_type_symbol
 _atom_site_label
 _atom_site_symmetry_multiplicity
 _atom_site_fract_x
 _atom_site_fract_y
 _atom_site_fract_z
 _atom_site_occupancy
  Pa  Pa0  1  0.675391  0.175391  0.500000  1
  Pa  Pa1  1  0.324609  0.824609  0.500000  1
  Pa  Pa2  1  0.166853  0.333147  0.500000  1
  Pa  Pa3  1  0.833147  0.666853  0.500000  1
  In  In4  1  0.000000  0.000000  0.000000  1
  In  In5  1  0.500000  0.500000  0.000000  1
  Ni  Ni6  1  0.126492  0.626492  0.000000  1
  Ni  Ni7  1  0.873508  0.373508  0.000000  1
  Rh  Rh8  1  0.634806  0.865194  0.000000  1
  Rh  Rh9  1  0.365194  0.134806  0.000000  1
