# generated using pymatgen
data_Li8Pr8SnSb7
_symmetry_space_group_name_H-M   'P 1'
_cell_length_a   9.55711300
_cell_length_b   9.55711392
_cell_length_c   7.37160900
_cell_angle_alpha   90.00000000
_cell_angle_beta   90.00000000
_cell_angle_gamma   119.99999334
_symmetry_Int_Tables_number   1
_chemical_formula_structural   Li8Pr8SnSb7
_chemical_formula_sum   'Li8 Pr8 Sn1 Sb7'
_cell_volume   583.10455821
_cell_formula_units_Z   1
loop_
 _symmetry_equiv_pos_site_id
 _symmetry_equiv_pos_as_xyz
  1  'x, y, z'
loop_
 _atom_site_type_symbol
 _atom_site_label
 _atom_site_symmetry_multiplicity
 _atom_site_fract_x
 _atom_site_fract_y
 _atom_site_fract_z
 _atom_site_occupancy
  Li  Li0  1  0.166949  0.333899  0.268747  1
  Li  Li1  1  0.166949  0.833051  0.268747  1
  Li  Li2  1  0.666101  0.833051  0.268747  1
  Li  Li3  1  0.833118  0.666235  0.768010  1
  Li  Li4  1  0.833118  0.166882  0.768010  1
  Li  Li5  1  0.333765  0.166882  0.768010  1
  Li  Li6  1  0.333333  0.666667  0.693144  1
  Li  Li7  1  0.666667  0.333333  0.197087  1
  Pr  Pr8  1  0.493653  0.987304  0.994888  1
  Pr  Pr9  1  0.493653  0.506347  0.994888  1
  Pr  Pr10  1  0.012696  0.506347  0.994888  1
  Pr  Pr11  1  0.000000  0.000000  0.501574  1
  Pr  Pr12  1  0.000000  0.000000  0.000787  1
  Pr  Pr13  1  0.507931  0.015863  0.496113  1
  Pr  Pr14  1  0.507931  0.492069  0.496113  1
  Pr  Pr15  1  0.984137  0.492069  0.496113  1
  Sn  Sn16  1  0.666667  0.333333  0.759670  1
  Sb  Sb17  1  0.166847  0.333695  0.740175  1
  Sb  Sb18  1  0.166847  0.833153  0.740175  1
  Sb  Sb19  1  0.666305  0.833153  0.740175  1
  Sb  Sb20  1  0.833503  0.667007  0.241453  1
  Sb  Sb21  1  0.833503  0.166497  0.241453  1
  Sb  Sb22  1  0.332993  0.166497  0.241453  1
  Sb  Sb23  1  0.333333  0.666667  0.261550  1
