# generated using pymatgen
data_Hf18Ti2Re6OsS
_symmetry_space_group_name_H-M   'P 1'
_cell_length_a   8.66088500
_cell_length_b   8.66088488
_cell_length_c   8.49677000
_cell_angle_alpha   90.00000000
_cell_angle_beta   90.00000000
_cell_angle_gamma   120.00000428
_symmetry_Int_Tables_number   1
_chemical_formula_structural   Hf18Ti2Re6OsS
_chemical_formula_sum   'Hf18 Ti2 Re6 Os1 S1'
_cell_volume   551.96178870
_cell_formula_units_Z   1
loop_
 _symmetry_equiv_pos_site_id
 _symmetry_equiv_pos_as_xyz
  1  'x, y, z'
loop_
 _atom_site_type_symbol
 _atom_site_label
 _atom_site_symmetry_multiplicity
 _atom_site_fract_x
 _atom_site_fract_y
 _atom_site_fract_z
 _atom_site_occupancy
  Hf  Hf0  1  0.196322  0.803678  0.445117  1
  Hf  Hf1  1  0.196322  0.392644  0.445117  1
  Hf  Hf2  1  0.607356  0.803678  0.445117  1
  Hf  Hf3  1  0.804081  0.195919  0.551673  1
  Hf  Hf4  1  0.804081  0.608163  0.551673  1
  Hf  Hf5  1  0.391837  0.195919  0.551673  1
  Hf  Hf6  1  0.804081  0.195919  0.948327  1
  Hf  Hf7  1  0.804081  0.608163  0.948327  1
  Hf  Hf8  1  0.391837  0.195919  0.948327  1
  Hf  Hf9  1  0.196322  0.803678  0.054883  1
  Hf  Hf10  1  0.196322  0.392644  0.054883  1
  Hf  Hf11  1  0.607356  0.803678  0.054883  1
  Hf  Hf12  1  0.541835  0.458165  0.250000  1
  Hf  Hf13  1  0.541835  0.083668  0.250000  1
  Hf  Hf14  1  0.916332  0.458165  0.250000  1
  Hf  Hf15  1  0.453829  0.546171  0.750000  1
  Hf  Hf16  1  0.453829  0.907659  0.750000  1
  Hf  Hf17  1  0.092341  0.546171  0.750000  1
  Ti  Ti18  1  0.000000  0.000000  0.499954  1
  Ti  Ti19  1  0.000000  0.000000  0.000046  1
  Re  Re20  1  0.886286  0.113714  0.250000  1
  Re  Re21  1  0.886286  0.772570  0.250000  1
  Re  Re22  1  0.227430  0.113714  0.250000  1
  Re  Re23  1  0.112692  0.887308  0.750000  1
  Re  Re24  1  0.112692  0.225383  0.750000  1
  Re  Re25  1  0.774617  0.887308  0.750000  1
  Os  Os26  1  0.333333  0.666667  0.250000  1
  S  S27  1  0.666667  0.333333  0.750000  1
