# generated using pymatgen
data_DyHo15In2(HgRh2)2
_symmetry_space_group_name_H-M   'P 1'
_cell_length_a   9.59036770
_cell_length_b   9.59036713
_cell_length_c   9.60374000
_cell_angle_alpha   59.95386959
_cell_angle_beta   59.95387153
_cell_angle_gamma   59.80337734
_symmetry_Int_Tables_number   1
_chemical_formula_structural   DyHo15In2(HgRh2)2
_chemical_formula_sum   'Dy1 Ho15 In2 Hg2 Rh4'
_cell_volume   623.22392088
_cell_formula_units_Z   1
loop_
 _symmetry_equiv_pos_site_id
 _symmetry_equiv_pos_as_xyz
  1  'x, y, z'
loop_
 _atom_site_type_symbol
 _atom_site_label
 _atom_site_symmetry_multiplicity
 _atom_site_fract_x
 _atom_site_fract_y
 _atom_site_fract_z
 _atom_site_occupancy
  Dy  Dy0  1  0.186721  0.186721  0.813279  1
  Ho  Ho1  1  0.600373  0.600373  0.199615  1
  Ho  Ho2  1  0.438710  0.059961  0.441159  1
  Ho  Ho3  1  0.440742  0.440742  0.059258  1
  Ho  Ho4  1  0.812094  0.184746  0.813835  1
  Ho  Ho5  1  0.184746  0.812094  0.189325  1
  Ho  Ho6  1  0.438710  0.059961  0.060170  1
  Ho  Ho7  1  0.184746  0.812094  0.813835  1
  Ho  Ho8  1  0.059961  0.438710  0.060170  1
  Ho  Ho9  1  0.812827  0.812827  0.187173  1
  Ho  Ho10  1  0.196714  0.602183  0.600551  1
  Ho  Ho11  1  0.059961  0.438710  0.441159  1
  Ho  Ho12  1  0.061008  0.061008  0.438992  1
  Ho  Ho13  1  0.812094  0.184746  0.189325  1
  Ho  Ho14  1  0.602183  0.196714  0.600551  1
  Ho  Ho15  1  0.600373  0.600373  0.599639  1
  In  In16  1  0.503400  0.832191  0.832204  1
  In  In17  1  0.832191  0.503400  0.832204  1
  Hg  Hg18  1  0.835577  0.835577  0.835863  1
  Hg  Hg19  1  0.835577  0.835577  0.492983  1
  Rh  Rh20  1  0.392650  0.822813  0.392269  1
  Rh  Rh21  1  0.392913  0.392913  0.392756  1
  Rh  Rh22  1  0.822813  0.392650  0.392269  1
  Rh  Rh23  1  0.392913  0.392913  0.821419  1
