# generated using pymatgen
data_PrMgP7Ru12
_symmetry_space_group_name_H-M   'P 1'
_cell_length_a   9.45703900
_cell_length_b   9.45703773
_cell_length_c   3.93404800
_cell_angle_alpha   90.00000000
_cell_angle_beta   90.00000000
_cell_angle_gamma   119.99999906
_symmetry_Int_Tables_number   1
_chemical_formula_structural   PrMgP7Ru12
_chemical_formula_sum   'Pr1 Mg1 P7 Ru12'
_cell_volume   304.70570969
_cell_formula_units_Z   1
loop_
 _symmetry_equiv_pos_site_id
 _symmetry_equiv_pos_as_xyz
  1  'x, y, z'
loop_
 _atom_site_type_symbol
 _atom_site_label
 _atom_site_symmetry_multiplicity
 _atom_site_fract_x
 _atom_site_fract_y
 _atom_site_fract_z
 _atom_site_occupancy
  Pr  Pr0  1  0.333333  0.666667  0.000000  1
  Mg  Mg1  1  0.666667  0.333333  0.500000  1
  P  P2  1  0.604745  0.714254  0.500000  1
  P  P3  1  0.000000  0.000000  0.000000  1
  P  P4  1  0.285746  0.890492  0.500000  1
  P  P5  1  0.109508  0.395255  0.500000  1
  P  P6  1  0.894277  0.584818  0.000000  1
  P  P7  1  0.415182  0.309460  0.000000  1
  P  P8  1  0.690540  0.105723  0.000000  1
  Ru  Ru9  1  0.559640  0.954658  0.500000  1
  Ru  Ru10  1  0.395019  0.440360  0.500000  1
  Ru  Ru11  1  0.911783  0.117827  0.500000  1
  Ru  Ru12  1  0.206044  0.088217  0.500000  1
  Ru  Ru13  1  0.882173  0.793956  0.500000  1
  Ru  Ru14  1  0.726078  0.881773  0.000000  1
  Ru  Ru15  1  0.118227  0.844304  0.000000  1
  Ru  Ru16  1  0.155696  0.273922  0.000000  1
  Ru  Ru17  1  0.434518  0.079945  0.000000  1
  Ru  Ru18  1  0.920055  0.354574  0.000000  1
  Ru  Ru19  1  0.645426  0.565482  0.000000  1
  Ru  Ru20  1  0.045342  0.604981  0.500000  1
