# generated using pymatgen
data_Zr8Ta12Si15B
_symmetry_space_group_name_H-M   'P 1'
_cell_length_a   6.83967119
_cell_length_b   6.85705887
_cell_length_c   12.69169173
_cell_angle_alpha   89.95036949
_cell_angle_beta   90.18490185
_cell_angle_gamma   89.85804587
_symmetry_Int_Tables_number   1
_chemical_formula_structural   Zr8Ta12Si15B
_chemical_formula_sum   'Zr8 Ta12 Si15 B1'
_cell_volume   595.23554405
_cell_formula_units_Z   1
loop_
 _symmetry_equiv_pos_site_id
 _symmetry_equiv_pos_as_xyz
  1  'x, y, z'
loop_
 _atom_site_type_symbol
 _atom_site_label
 _atom_site_symmetry_multiplicity
 _atom_site_fract_x
 _atom_site_fract_y
 _atom_site_fract_z
 _atom_site_occupancy
  Zr  Zr0  1  0.000456  0.660245  0.031250  1
  Zr  Zr1  1  0.998975  0.349379  0.528663  1
  Zr  Zr2  1  0.659400  0.000302  0.968981  1
  Zr  Zr3  1  0.160107  0.498872  0.779474  1
  Zr  Zr4  1  0.848761  0.507995  0.286436  1
  Zr  Zr5  1  0.499138  0.159083  0.220277  1
  Zr  Zr6  1  0.498877  0.839144  0.717603  1
  Zr  Zr7  1  0.336703  0.995936  0.468239  1
  Ta  Ta8  1  0.339846  0.508858  0.377753  1
  Ta  Ta9  1  0.857389  0.982369  0.378779  1
  Ta  Ta10  1  0.004943  0.152140  0.126909  1
  Ta  Ta11  1  0.994064  0.845077  0.621113  1
  Ta  Ta12  1  0.652367  0.495892  0.876001  1
  Ta  Ta13  1  0.501318  0.349128  0.621703  1
  Ta  Ta14  1  0.495837  0.652527  0.124565  1
  Ta  Ta15  1  0.152987  0.004903  0.872968  1
  Ta  Ta16  1  0.675580  0.668815  0.499016  1
  Ta  Ta17  1  0.830270  0.169043  0.749088  1
  Ta  Ta18  1  0.167817  0.826992  0.255196  1
  Ta  Ta19  1  0.330801  0.329505  0.000217  1
  Si  Si20  1  0.955611  0.298613  0.936769  1
  Si  Si21  1  0.699604  0.045742  0.562591  1
  Si  Si22  1  0.201842  0.454749  0.187454  1
  Si  Si23  1  0.798038  0.544105  0.686072  1
  Si  Si24  1  0.455327  0.201476  0.811965  1
  Si  Si25  1  0.545618  0.797568  0.314383  1
  Si  Si26  1  0.297937  0.954301  0.064887  1
  Si  Si27  1  0.865083  0.792222  0.821089  1
  Si  Si28  1  0.133334  0.208365  0.323825  1
  Si  Si29  1  0.793076  0.864843  0.179481  1
  Si  Si30  1  0.284873  0.637415  0.566901  1
  Si  Si31  1  0.708473  0.365001  0.074031  1
  Si  Si32  1  0.635189  0.290568  0.425015  1
  Si  Si33  1  0.364744  0.708246  0.927432  1
  Si  Si34  1  0.205436  0.135157  0.675001  1
  B  B35  1  0.050181  0.705423  0.438874  1
