# generated using pymatgen
data_Ba2InAsPt2
_symmetry_space_group_name_H-M   'P 1'
_cell_length_a   6.94245300
_cell_length_b   7.16092797
_cell_length_c   7.02645368
_cell_angle_alpha   92.95932615
_cell_angle_beta   90.00000000
_cell_angle_gamma   90.00000000
_symmetry_Int_Tables_number   1
_chemical_formula_structural   Ba2InAsPt2
_chemical_formula_sum   'Ba4 In2 As2 Pt4'
_cell_volume   348.85013451
_cell_formula_units_Z   2
loop_
 _symmetry_equiv_pos_site_id
 _symmetry_equiv_pos_as_xyz
  1  'x, y, z'
loop_
 _atom_site_type_symbol
 _atom_site_label
 _atom_site_symmetry_multiplicity
 _atom_site_fract_x
 _atom_site_fract_y
 _atom_site_fract_z
 _atom_site_occupancy
  Ba  Ba0  1  0.645686  0.379156  0.859230  1
  Ba  Ba1  1  0.363483  0.852123  0.639571  1
  Ba  Ba2  1  0.145686  0.120844  0.140770  1
  Ba  Ba3  1  0.863483  0.647877  0.360429  1
  In  In4  1  0.160657  0.341112  0.660375  1
  In  In5  1  0.660657  0.158888  0.339625  1
  As  As6  1  0.333215  0.669629  0.167117  1
  As  As7  1  0.833215  0.830371  0.832883  1
  Pt  Pt8  1  0.584431  0.887267  0.075167  1
  Pt  Pt9  1  0.084431  0.612733  0.924833  1
  Pt  Pt10  1  0.412528  0.438262  0.395787  1
  Pt  Pt11  1  0.912528  0.061738  0.604213  1
