# generated using pymatgen
data_Ti3Nb2Ga(B2Ru5)2
_symmetry_space_group_name_H-M   'P 1'
_cell_length_a   9.30262810
_cell_length_b   9.28654875
_cell_length_c   3.00826000
_cell_angle_alpha   90.00000000
_cell_angle_beta   90.00000000
_cell_angle_gamma   89.41063258
_symmetry_Int_Tables_number   1
_chemical_formula_structural   Ti3Nb2Ga(B2Ru5)2
_chemical_formula_sum   'Ti3 Nb2 Ga1 B4 Ru10'
_cell_volume   259.86775499
_cell_formula_units_Z   1
loop_
 _symmetry_equiv_pos_site_id
 _symmetry_equiv_pos_as_xyz
  1  'x, y, z'
loop_
 _atom_site_type_symbol
 _atom_site_label
 _atom_site_symmetry_multiplicity
 _atom_site_fract_x
 _atom_site_fract_y
 _atom_site_fract_z
 _atom_site_occupancy
  Ti  Ti0  1  0.826825  0.675960  0.000000  1
  Ti  Ti1  1  0.173175  0.324040  0.000000  1
  Ti  Ti2  1  0.000000  0.000000  0.000000  1
  Nb  Nb3  1  0.323220  0.823637  0.000000  1
  Nb  Nb4  1  0.676780  0.176363  0.000000  1
  Ga  Ga5  1  0.500000  0.500000  0.000000  1
  B  B6  1  0.624201  0.872385  0.000000  1
  B  B7  1  0.375799  0.127615  0.000000  1
  B  B8  1  0.124872  0.621126  0.000000  1
  B  B9  1  0.875128  0.378874  0.000000  1
  Ru  Ru10  1  0.572611  0.713379  0.500000  1
  Ru  Ru11  1  0.427389  0.286621  0.500000  1
  Ru  Ru12  1  0.070737  0.784226  0.500000  1
  Ru  Ru13  1  0.929263  0.215774  0.500000  1
  Ru  Ru14  1  0.285214  0.568512  0.500000  1
  Ru  Ru15  1  0.714786  0.431488  0.500000  1
  Ru  Ru16  1  0.214986  0.072821  0.500000  1
  Ru  Ru17  1  0.785014  0.927179  0.500000  1
  Ru  Ru18  1  0.500000  0.000000  0.500000  1
  Ru  Ru19  1  0.000000  0.500000  0.500000  1
