# generated using pymatgen
data_DyY15(Al3Co)2
_symmetry_space_group_name_H-M   'P 1'
_cell_length_a   10.26738600
_cell_length_b   10.25150792
_cell_length_c   6.89156706
_cell_angle_alpha   89.90645268
_cell_angle_beta   90.00000000
_cell_angle_gamma   120.05124887
_symmetry_Int_Tables_number   1
_chemical_formula_structural   DyY15(Al3Co)2
_chemical_formula_sum   'Dy1 Y15 Al6 Co2'
_cell_volume   627.87180039
_cell_formula_units_Z   1
loop_
 _symmetry_equiv_pos_site_id
 _symmetry_equiv_pos_as_xyz
  1  'x, y, z'
loop_
 _atom_site_type_symbol
 _atom_site_label
 _atom_site_symmetry_multiplicity
 _atom_site_fract_x
 _atom_site_fract_y
 _atom_site_fract_z
 _atom_site_occupancy
  Dy  Dy0  1  0.824663  0.649325  0.496745  1
  Y  Y1  1  0.349081  0.174444  0.496997  1
  Y  Y2  1  0.825363  0.174443  0.496998  1
  Y  Y3  1  0.174741  0.349482  0.996965  1
  Y  Y4  1  0.650331  0.825244  0.996838  1
  Y  Y5  1  0.174913  0.825245  0.996839  1
  Y  Y6  1  0.666791  0.333583  0.170555  1
  Y  Y7  1  0.333366  0.666729  0.671064  1
  Y  Y8  1  0.533831  0.067661  0.789765  1
  Y  Y9  1  0.932595  0.466742  0.789443  1
  Y  Y10  1  0.534148  0.466742  0.789442  1
  Y  Y11  1  0.466260  0.932520  0.289706  1
  Y  Y12  1  0.067395  0.533899  0.289807  1
  Y  Y13  1  0.466504  0.533899  0.289806  1
  Y  Y14  1  0.999753  0.999503  0.774096  1
  Y  Y15  1  0.999572  0.999147  0.274378  1
  Al  Al16  1  0.837207  0.674414  0.031637  1
  Al  Al17  1  0.325614  0.162884  0.031628  1
  Al  Al18  1  0.837271  0.162884  0.031628  1
  Al  Al19  1  0.162850  0.325700  0.531771  1
  Al  Al20  1  0.674428  0.837092  0.531720  1
  Al  Al21  1  0.162664  0.837092  0.531720  1
  Co  Co22  1  0.667284  0.334567  0.563079  1
  Co  Co23  1  0.333377  0.666755  0.063617  1
