# generated using pymatgen
data_Hf8Al6Mo2P
_symmetry_space_group_name_H-M   'P 1'
_cell_length_a   8.02823500
_cell_length_b   8.02823349
_cell_length_c   5.45148400
_cell_angle_alpha   90.00000000
_cell_angle_beta   90.00000000
_cell_angle_gamma   120.00000211
_symmetry_Int_Tables_number   1
_chemical_formula_structural   Hf8Al6Mo2P
_chemical_formula_sum   'Hf8 Al6 Mo2 P1'
_cell_volume   304.28842724
_cell_formula_units_Z   1
loop_
 _symmetry_equiv_pos_site_id
 _symmetry_equiv_pos_as_xyz
  1  'x, y, z'
loop_
 _atom_site_type_symbol
 _atom_site_label
 _atom_site_symmetry_multiplicity
 _atom_site_fract_x
 _atom_site_fract_y
 _atom_site_fract_z
 _atom_site_occupancy
  Hf  Hf0  1  0.666667  0.333333  0.000000  1
  Hf  Hf1  1  0.333333  0.666667  0.000000  1
  Hf  Hf2  1  0.000000  0.747529  0.227854  1
  Hf  Hf3  1  0.252471  0.252471  0.227854  1
  Hf  Hf4  1  0.747529  0.000000  0.227854  1
  Hf  Hf5  1  0.000000  0.252471  0.772146  1
  Hf  Hf6  1  0.747529  0.747529  0.772146  1
  Hf  Hf7  1  0.252471  0.000000  0.772146  1
  Al  Al8  1  0.000000  0.400477  0.282443  1
  Al  Al9  1  0.599523  0.599523  0.282443  1
  Al  Al10  1  0.400477  0.000000  0.282443  1
  Al  Al11  1  0.000000  0.599523  0.717557  1
  Al  Al12  1  0.400477  0.400477  0.717557  1
  Al  Al13  1  0.599523  0.000000  0.717557  1
  Mo  Mo14  1  0.333333  0.666667  0.500000  1
  Mo  Mo15  1  0.666667  0.333333  0.500000  1
  P  P16  1  0.000000  0.000000  0.500000  1
