# generated using pymatgen
data_Sc22GaTc7
_symmetry_space_group_name_H-M   'P 1'
_cell_length_a   9.59503460
_cell_length_b   9.59534465
_cell_length_c   9.50895873
_cell_angle_alpha   60.40696064
_cell_angle_beta   60.41072584
_cell_angle_gamma   59.14228182
_symmetry_Int_Tables_number   1
_chemical_formula_structural   Sc22GaTc7
_chemical_formula_sum   'Sc22 Ga1 Tc7'
_cell_volume   618.66178989
_cell_formula_units_Z   1
loop_
 _symmetry_equiv_pos_site_id
 _symmetry_equiv_pos_as_xyz
  1  'x, y, z'
loop_
 _atom_site_type_symbol
 _atom_site_label
 _atom_site_symmetry_multiplicity
 _atom_site_fract_x
 _atom_site_fract_y
 _atom_site_fract_z
 _atom_site_occupancy
  Sc  Sc0  1  0.841605  0.841575  0.846144  1
  Sc  Sc1  1  0.525552  0.146121  0.164295  1
  Sc  Sc2  1  0.157983  0.157964  0.533568  1
  Sc  Sc3  1  0.146112  0.525545  0.164281  1
  Sc  Sc4  1  0.842017  0.842036  0.466432  1
  Sc  Sc5  1  0.853888  0.474455  0.835719  1
  Sc  Sc6  1  0.474448  0.853879  0.835705  1
  Sc  Sc7  1  0.158395  0.158425  0.153856  1
  Sc  Sc8  1  0.195986  0.803695  0.198179  1
  Sc  Sc9  1  0.196324  0.803988  0.801792  1
  Sc  Sc10  1  0.803676  0.196012  0.198208  1
  Sc  Sc11  1  0.803162  0.803164  0.195556  1
  Sc  Sc12  1  0.196838  0.196836  0.804444  1
  Sc  Sc13  1  0.804014  0.196305  0.801821  1
  Sc  Sc14  1  0.378420  0.378438  0.395067  1
  Sc  Sc15  1  0.148678  0.624435  0.614209  1
  Sc  Sc16  1  0.624430  0.148683  0.614218  1
  Sc  Sc17  1  0.621895  0.621898  0.150872  1
  Sc  Sc18  1  0.375570  0.851317  0.385782  1
  Sc  Sc19  1  0.378105  0.378102  0.849128  1
  Sc  Sc20  1  0.851322  0.375565  0.385791  1
  Sc  Sc21  1  0.621580  0.621562  0.604933  1
  Ga  Ga22  1  0.500000  0.500000  0.000000  1
  Tc  Tc23  1  0.000000  0.000000  0.500000  1
  Tc  Tc24  1  0.500000  0.000000  0.500000  1
  Tc  Tc25  1  0.000000  0.500000  0.500000  1
  Tc  Tc26  1  0.500000  0.000000  0.000000  1
  Tc  Tc27  1  0.000000  0.500000  0.000000  1
  Tc  Tc28  1  0.500000  0.500000  0.500000  1
  Tc  Tc29  1  0.000000  0.000000  0.000000  1
