# generated using pymatgen
data_LiTm(IO3)4
_symmetry_space_group_name_H-M   'P 1'
_cell_length_a   5.03360705
_cell_length_b   6.65543922
_cell_length_c   8.77468020
_cell_angle_alpha   85.43322631
_cell_angle_beta   89.42193816
_cell_angle_gamma   88.86588697
_symmetry_Int_Tables_number   1
_chemical_formula_structural   LiTm(IO3)4
_chemical_formula_sum   'Li1 Tm1 I4 O12'
_cell_volume   292.95803620
_cell_formula_units_Z   1
loop_
 _symmetry_equiv_pos_site_id
 _symmetry_equiv_pos_as_xyz
  1  'x, y, z'
loop_
 _atom_site_type_symbol
 _atom_site_label
 _atom_site_symmetry_multiplicity
 _atom_site_fract_x
 _atom_site_fract_y
 _atom_site_fract_z
 _atom_site_occupancy
  Li  Li0  1  0.500000  0.000000  0.500000  1
  Tm  Tm1  1  0.500000  0.500000  0.500000  1
  I  I2  1  0.523223  0.809498  0.155555  1
  I  I3  1  0.013609  0.280681  0.238079  1
  I  I4  1  0.986391  0.719319  0.761921  1
  I  I5  1  0.476777  0.190502  0.844445  1
  O  O6  1  0.745916  0.628017  0.072511  1
  O  O7  1  0.707824  0.041606  0.101324  1
  O  O8  1  0.219463  0.481981  0.307972  1
  O  O9  1  0.218358  0.065969  0.308276  1
  O  O10  1  0.633836  0.772505  0.359668  1
  O  O11  1  0.760984  0.275115  0.392237  1
  O  O12  1  0.239016  0.724885  0.607763  1
  O  O13  1  0.366164  0.227495  0.640332  1
  O  O14  1  0.781642  0.934031  0.691724  1
  O  O15  1  0.780537  0.518019  0.692028  1
  O  O16  1  0.292176  0.958394  0.898676  1
  O  O17  1  0.254084  0.371983  0.927489  1
