# generated using pymatgen
data_Zn8GaPd3O16
_symmetry_space_group_name_H-M   'P 1'
_cell_length_a   6.11968100
_cell_length_b   6.08267003
_cell_length_c   8.55326317
_cell_angle_alpha   89.53948254
_cell_angle_beta   90.00000000
_cell_angle_gamma   90.00000000
_symmetry_Int_Tables_number   1
_chemical_formula_structural   Zn8GaPd3O16
_chemical_formula_sum   'Zn8 Ga1 Pd3 O16'
_cell_volume   318.37638614
_cell_formula_units_Z   1
loop_
 _symmetry_equiv_pos_site_id
 _symmetry_equiv_pos_as_xyz
  1  'x, y, z'
loop_
 _atom_site_type_symbol
 _atom_site_label
 _atom_site_symmetry_multiplicity
 _atom_site_fract_x
 _atom_site_fract_y
 _atom_site_fract_z
 _atom_site_occupancy
  Zn  Zn0  1  0.997465  0.241900  0.996764  1
  Zn  Zn1  1  0.997465  0.758100  0.503236  1
  Zn  Zn2  1  0.255353  0.243155  0.630154  1
  Zn  Zn3  1  0.255353  0.756845  0.869846  1
  Zn  Zn4  1  0.237509  0.000000  0.250000  1
  Zn  Zn5  1  0.761510  0.000000  0.750000  1
  Zn  Zn6  1  0.747252  0.256252  0.375614  1
  Zn  Zn7  1  0.747252  0.743748  0.124386  1
  Ga  Ga8  1  0.764149  0.500000  0.750000  1
  Pd  Pd9  1  0.246303  0.500000  0.250000  1
  Pd  Pd10  1  0.500373  0.748929  0.500928  1
  Pd  Pd11  1  0.500373  0.251071  0.999072  1
  O  O12  1  0.525560  0.741531  0.736552  1
  O  O13  1  0.525560  0.258469  0.763448  1
  O  O14  1  0.737917  0.979918  0.502988  1
  O  O15  1  0.737917  0.020082  0.997012  1
  O  O16  1  0.740765  0.518048  0.515980  1
  O  O17  1  0.740765  0.481952  0.984020  1
  O  O18  1  0.980911  0.740501  0.747693  1
  O  O19  1  0.980911  0.259499  0.752307  1
  O  O20  1  0.017360  0.739847  0.256276  1
  O  O21  1  0.017360  0.260153  0.243724  1
  O  O22  1  0.255375  0.516813  0.488521  1
  O  O23  1  0.255375  0.483187  0.011479  1
  O  O24  1  0.258734  0.978077  0.493858  1
  O  O25  1  0.258734  0.021923  0.006142  1
  O  O26  1  0.478200  0.742721  0.262230  1
  O  O27  1  0.478200  0.257279  0.237770  1
