# generated using pymatgen
data_Ta3Be2B4Ru10W
_symmetry_space_group_name_H-M   'P 1'
_cell_length_a   9.14649962
_cell_length_b   9.14649962
_cell_length_c   2.95524800
_cell_angle_alpha   90.00000000
_cell_angle_beta   90.00000000
_cell_angle_gamma   90.18267756
_symmetry_Int_Tables_number   1
_chemical_formula_structural   Ta3Be2B4Ru10W
_chemical_formula_sum   'Ta3 Be2 B4 Ru10 W1'
_cell_volume   247.23022622
_cell_formula_units_Z   1
loop_
 _symmetry_equiv_pos_site_id
 _symmetry_equiv_pos_as_xyz
  1  'x, y, z'
loop_
 _atom_site_type_symbol
 _atom_site_label
 _atom_site_symmetry_multiplicity
 _atom_site_fract_x
 _atom_site_fract_y
 _atom_site_fract_z
 _atom_site_occupancy
  Ta  Ta0  1  0.176672  0.323328  0.000000  1
  Ta  Ta1  1  0.323049  0.823679  0.000000  1
  Ta  Ta2  1  0.676321  0.176951  0.000000  1
  Be  Be3  1  0.499518  0.499648  0.000000  1
  Be  Be4  1  0.000352  0.000482  0.000000  1
  B  B5  1  0.628882  0.871118  0.000000  1
  B  B6  1  0.372583  0.127417  0.000000  1
  B  B7  1  0.128636  0.628110  0.000000  1
  B  B8  1  0.871890  0.371364  0.000000  1
  Ru  Ru9  1  0.568569  0.706970  0.500000  1
  Ru  Ru10  1  0.434322  0.291902  0.500000  1
  Ru  Ru11  1  0.062017  0.790873  0.500000  1
  Ru  Ru12  1  0.933588  0.208271  0.500000  1
  Ru  Ru13  1  0.291729  0.566412  0.500000  1
  Ru  Ru14  1  0.709127  0.437983  0.500000  1
  Ru  Ru15  1  0.208098  0.065678  0.500000  1
  Ru  Ru16  1  0.793030  0.931431  0.500000  1
  Ru  Ru17  1  0.500599  0.999401  0.500000  1
  Ru  Ru18  1  0.998729  0.501271  0.500000  1
  W  W19  1  0.822291  0.677709  0.000000  1
