# generated using pymatgen
data_Th4Cd2Pd3Ru
_symmetry_space_group_name_H-M   'P 1'
_cell_length_a   7.90535977
_cell_length_b   7.90535977
_cell_length_c   3.83026200
_cell_angle_alpha   90.00000000
_cell_angle_beta   90.00000000
_cell_angle_gamma   89.85000129
_symmetry_Int_Tables_number   1
_chemical_formula_structural   Th4Cd2Pd3Ru
_chemical_formula_sum   'Th4 Cd2 Pd3 Ru1'
_cell_volume   239.37030463
_cell_formula_units_Z   1
loop_
 _symmetry_equiv_pos_site_id
 _symmetry_equiv_pos_as_xyz
  1  'x, y, z'
loop_
 _atom_site_type_symbol
 _atom_site_label
 _atom_site_symmetry_multiplicity
 _atom_site_fract_x
 _atom_site_fract_y
 _atom_site_fract_z
 _atom_site_occupancy
  Th  Th0  1  0.323865  0.842907  0.500000  1
  Th  Th1  1  0.831736  0.668264  0.500000  1
  Th  Th2  1  0.184489  0.315511  0.500000  1
  Th  Th3  1  0.657093  0.176135  0.500000  1
  Cd  Cd4  1  0.995169  0.000314  0.000000  1
  Cd  Cd5  1  0.499686  0.504831  0.000000  1
  Pd  Pd6  1  0.871968  0.369135  0.000000  1
  Pd  Pd7  1  0.130865  0.628032  0.000000  1
  Pd  Pd8  1  0.633524  0.866476  0.000000  1
  Ru  Ru9  1  0.371604  0.128396  0.000000  1
