# generated using pymatgen
data_Al2CuAgBr8
_symmetry_space_group_name_H-M   'P 1'
_cell_length_a   6.00761700
_cell_length_b   6.00761700
_cell_length_c   11.02273400
_cell_angle_alpha   90.00000000
_cell_angle_beta   90.00000000
_cell_angle_gamma   90.00000000
_symmetry_Int_Tables_number   1
_chemical_formula_structural   Al2CuAgBr8
_chemical_formula_sum   'Al2 Cu1 Ag1 Br8'
_cell_volume   397.82658550
_cell_formula_units_Z   1
loop_
 _symmetry_equiv_pos_site_id
 _symmetry_equiv_pos_as_xyz
  1  'x, y, z'
loop_
 _atom_site_type_symbol
 _atom_site_label
 _atom_site_symmetry_multiplicity
 _atom_site_fract_x
 _atom_site_fract_y
 _atom_site_fract_z
 _atom_site_occupancy
  Al  Al0  1  0.000000  0.500000  0.742606  1
  Al  Al1  1  0.500000  0.000000  0.257394  1
  Cu  Cu2  1  0.500000  0.500000  0.500000  1
  Ag  Ag3  1  0.500000  0.500000  0.000000  1
  Br  Br4  1  0.209231  0.743172  0.862319  1
  Br  Br5  1  0.790769  0.256828  0.862319  1
  Br  Br6  1  0.235601  0.277485  0.624189  1
  Br  Br7  1  0.764399  0.722515  0.624189  1
  Br  Br8  1  0.743172  0.790769  0.137681  1
  Br  Br9  1  0.256828  0.209231  0.137681  1
  Br  Br10  1  0.277485  0.764399  0.375811  1
  Br  Br11  1  0.722515  0.235601  0.375811  1
