# generated using pymatgen
data_Yb2Pa(CrN3)2
_symmetry_space_group_name_H-M   'P 1'
_cell_length_a   3.77128797
_cell_length_b   3.77128859
_cell_length_c   9.81213259
_cell_angle_alpha   101.07901162
_cell_angle_beta   101.07900887
_cell_angle_gamma   90.00044058
_symmetry_Int_Tables_number   1
_chemical_formula_structural   Yb2Pa(CrN3)2
_chemical_formula_sum   'Yb2 Pa1 Cr2 N6'
_cell_volume   134.30208065
_cell_formula_units_Z   1
loop_
 _symmetry_equiv_pos_site_id
 _symmetry_equiv_pos_as_xyz
  1  'x, y, z'
loop_
 _atom_site_type_symbol
 _atom_site_label
 _atom_site_symmetry_multiplicity
 _atom_site_fract_x
 _atom_site_fract_y
 _atom_site_fract_z
 _atom_site_occupancy
  Yb  Yb0  1  0.179517  0.179517  0.359095  1
  Yb  Yb1  1  0.820485  0.820485  0.640906  1
  Pa  Pa2  1  0.000000  0.000000  0.000000  1
  Cr  Cr3  1  0.604911  0.604911  0.210053  1
  Cr  Cr4  1  0.395091  0.395091  0.789947  1
  N  N5  1  0.576456  0.076413  0.153589  1
  N  N6  1  0.076413  0.576456  0.153589  1
  N  N7  1  0.694182  0.694182  0.389811  1
  N  N8  1  0.305817  0.305817  0.610190  1
  N  N9  1  0.923587  0.423544  0.846412  1
  N  N10  1  0.423544  0.923587  0.846412  1
