# generated using pymatgen
data_VHg3F12
_symmetry_space_group_name_H-M   'P 1'
_cell_length_a   5.72654043
_cell_length_b   6.09865137
_cell_length_c   8.37064853
_cell_angle_alpha   90.88704027
_cell_angle_beta   90.90822346
_cell_angle_gamma   90.27045325
_symmetry_Int_Tables_number   1
_chemical_formula_structural   VHg3F12
_chemical_formula_sum   'V1 Hg3 F12'
_cell_volume   292.26262113
_cell_formula_units_Z   1
loop_
 _symmetry_equiv_pos_site_id
 _symmetry_equiv_pos_as_xyz
  1  'x, y, z'
loop_
 _atom_site_type_symbol
 _atom_site_label
 _atom_site_symmetry_multiplicity
 _atom_site_fract_x
 _atom_site_fract_y
 _atom_site_fract_z
 _atom_site_occupancy
  V  V0  1  0.500000  0.000000  0.500000  1
  Hg  Hg1  1  0.000000  0.500000  0.000000  1
  Hg  Hg2  1  0.000000  0.500000  0.500000  1
  Hg  Hg3  1  0.500000  0.000000  0.000000  1
  F  F4  1  0.121382  0.530773  0.729712  1
  F  F5  1  0.621652  0.738883  0.559249  1
  F  F6  1  0.695394  0.707870  0.953921  1
  F  F7  1  0.202703  0.801999  0.048210  1
  F  F8  1  0.233470  0.862436  0.432325  1
  F  F9  1  0.622216  0.963145  0.301900  1
  F  F10  1  0.377784  0.036855  0.698100  1
  F  F11  1  0.797297  0.198001  0.951790  1
  F  F12  1  0.766530  0.137564  0.567675  1
  F  F13  1  0.304606  0.292130  0.046079  1
  F  F14  1  0.378348  0.261117  0.440751  1
  F  F15  1  0.878618  0.469227  0.270288  1
