# generated using pymatgen
data_La8InHgRh2
_symmetry_space_group_name_H-M   'P 1'
_cell_length_a   10.11453526
_cell_length_b   10.10255647
_cell_length_c   10.10255759
_cell_angle_alpha   59.96793442
_cell_angle_beta   59.96083650
_cell_angle_gamma   59.96084284
_symmetry_Int_Tables_number   1
_chemical_formula_structural   La8InHgRh2
_chemical_formula_sum   'La16 In2 Hg2 Rh4'
_cell_volume   729.34163994
_cell_formula_units_Z   2
loop_
 _symmetry_equiv_pos_site_id
 _symmetry_equiv_pos_as_xyz
  1  'x, y, z'
loop_
 _atom_site_type_symbol
 _atom_site_label
 _atom_site_symmetry_multiplicity
 _atom_site_fract_x
 _atom_site_fract_y
 _atom_site_fract_z
 _atom_site_occupancy
  La  La0  1  0.190745  0.189939  0.809118  1
  La  La1  1  0.440269  0.059740  0.059740  1
  La  La2  1  0.439055  0.059435  0.437299  1
  La  La3  1  0.064214  0.437293  0.059460  1
  La  La4  1  0.651758  0.046790  0.649690  1
  La  La5  1  0.189512  0.810484  0.810484  1
  La  La6  1  0.064214  0.059460  0.437293  1
  La  La7  1  0.807988  0.192016  0.192016  1
  La  La8  1  0.810159  0.809118  0.189961  1
  La  La9  1  0.651758  0.649690  0.046790  1
  La  La10  1  0.652252  0.651026  0.651026  1
  La  La11  1  0.063113  0.436864  0.436864  1
  La  La12  1  0.045726  0.651006  0.651006  1
  La  La13  1  0.810159  0.189961  0.809118  1
  La  La14  1  0.439055  0.437299  0.059435  1
  La  La15  1  0.190745  0.809118  0.189939  1
  In  In16  1  0.738917  0.421168  0.421168  1
  In  In17  1  0.418867  0.421139  0.421139  1
  Hg  Hg18  1  0.415936  0.751691  0.416425  1
  Hg  Hg19  1  0.415936  0.416425  0.751691  1
  Rh  Rh20  1  0.858533  0.423927  0.858958  1
  Rh  Rh21  1  0.858533  0.858958  0.423927  1
  Rh  Rh22  1  0.423937  0.858725  0.858725  1
  Rh  Rh23  1  0.858613  0.858734  0.858734  1
