# generated using pymatgen
data_Sr3BiPtRh3O14
_symmetry_space_group_name_H-M   'P 1'
_cell_length_a   7.38132615
_cell_length_b   7.42681782
_cell_length_c   7.38132600
_cell_angle_alpha   60.20241875
_cell_angle_beta   60.00000066
_cell_angle_gamma   60.20241340
_symmetry_Int_Tables_number   1
_chemical_formula_structural   Sr3BiPtRh3O14
_chemical_formula_sum   'Sr3 Bi1 Pt1 Rh3 O14'
_cell_volume   286.99777857
_cell_formula_units_Z   1
loop_
 _symmetry_equiv_pos_site_id
 _symmetry_equiv_pos_as_xyz
  1  'x, y, z'
loop_
 _atom_site_type_symbol
 _atom_site_label
 _atom_site_symmetry_multiplicity
 _atom_site_fract_x
 _atom_site_fract_y
 _atom_site_fract_z
 _atom_site_occupancy
  Sr  Sr0  1  0.125000  0.125000  0.625000  1
  Sr  Sr1  1  0.625000  0.125000  0.125000  1
  Sr  Sr2  1  0.125000  0.125000  0.125000  1
  Bi  Bi3  1  0.125000  0.625000  0.125000  1
  Pt  Pt4  1  0.625000  0.125000  0.625000  1
  Rh  Rh5  1  0.625000  0.625000  0.125000  1
  Rh  Rh6  1  0.125000  0.625000  0.625000  1
  Rh  Rh7  1  0.625000  0.625000  0.625000  1
  O  O8  1  0.238466  0.284604  0.238466  1
  O  O9  1  0.011534  0.965396  0.011534  1
  O  O10  1  0.549200  0.948054  0.549200  1
  O  O11  1  0.298904  0.685868  0.298904  1
  O  O12  1  0.533676  0.564132  0.951096  1
  O  O13  1  0.951096  0.564132  0.533676  1
  O  O14  1  0.549200  0.948054  0.953548  1
  O  O15  1  0.953548  0.948054  0.549200  1
  O  O16  1  0.951096  0.564132  0.951096  1
  O  O17  1  0.700800  0.301946  0.296452  1
  O  O18  1  0.298904  0.685868  0.716324  1
  O  O19  1  0.700800  0.301946  0.700800  1
  O  O20  1  0.296452  0.301946  0.700800  1
  O  O21  1  0.716324  0.685868  0.298904  1
