# generated using pymatgen
data_Tb10In5PbS2
_symmetry_space_group_name_H-M   'P 1'
_cell_length_a   9.23271800
_cell_length_b   9.23271884
_cell_length_c   6.56647300
_cell_angle_alpha   90.00000000
_cell_angle_beta   90.00000000
_cell_angle_gamma   119.90314878
_symmetry_Int_Tables_number   1
_chemical_formula_structural   Tb10In5PbS2
_chemical_formula_sum   'Tb10 In5 Pb1 S2'
_cell_volume   485.22703830
_cell_formula_units_Z   1
loop_
 _symmetry_equiv_pos_site_id
 _symmetry_equiv_pos_as_xyz
  1  'x, y, z'
loop_
 _atom_site_type_symbol
 _atom_site_label
 _atom_site_symmetry_multiplicity
 _atom_site_fract_x
 _atom_site_fract_y
 _atom_site_fract_z
 _atom_site_occupancy
  Tb  Tb0  1  0.667723  0.334081  0.500882  1
  Tb  Tb1  1  0.334081  0.667723  0.500882  1
  Tb  Tb2  1  0.334081  0.667723  0.999118  1
  Tb  Tb3  1  0.667723  0.334081  0.999118  1
  Tb  Tb4  1  0.756735  0.756735  0.250000  1
  Tb  Tb5  1  0.242074  0.999459  0.250000  1
  Tb  Tb6  1  0.999459  0.242074  0.250000  1
  Tb  Tb7  1  0.242364  0.242364  0.750000  1
  Tb  Tb8  1  0.756322  0.998474  0.750000  1
  Tb  Tb9  1  0.998474  0.756322  0.750000  1
  In  In10  1  0.600125  0.000538  0.250000  1
  In  In11  1  0.000538  0.600125  0.250000  1
  In  In12  1  0.602127  0.602127  0.750000  1
  In  In13  1  0.399528  0.999903  0.750000  1
  In  In14  1  0.999903  0.399528  0.750000  1
  Pb  Pb15  1  0.398556  0.398556  0.250000  1
  S  S16  1  0.000094  0.000094  0.499181  1
  S  S17  1  0.000094  0.000094  0.000819  1
