# generated using pymatgen
data_Tb2Nd3Mn2O12
_symmetry_space_group_name_H-M   'P 1'
_cell_length_a   6.98047380
_cell_length_b   6.98047295
_cell_length_c   7.46517881
_cell_angle_alpha   74.03890897
_cell_angle_beta   74.03891506
_cell_angle_gamma   49.64879629
_symmetry_Int_Tables_number   1
_chemical_formula_structural   Tb2Nd3Mn2O12
_chemical_formula_sum   'Tb2 Nd3 Mn2 O12'
_cell_volume   264.18472085
_cell_formula_units_Z   1
loop_
 _symmetry_equiv_pos_site_id
 _symmetry_equiv_pos_as_xyz
  1  'x, y, z'
loop_
 _atom_site_type_symbol
 _atom_site_label
 _atom_site_symmetry_multiplicity
 _atom_site_fract_x
 _atom_site_fract_y
 _atom_site_fract_z
 _atom_site_occupancy
  Tb  Tb0  1  0.306171  0.306171  0.357546  1
  Tb  Tb1  1  0.693829  0.693829  0.642454  1
  Nd  Nd2  1  0.693470  0.693470  0.166498  1
  Nd  Nd3  1  0.306530  0.306530  0.833502  1
  Nd  Nd4  1  0.000000  0.000000  0.500000  1
  Mn  Mn5  1  0.753391  0.246609  0.000000  1
  Mn  Mn6  1  0.246609  0.753391  0.000000  1
  O  O7  1  0.092650  0.594788  0.571264  1
  O  O8  1  0.001211  0.001211  0.170814  1
  O  O9  1  0.405212  0.907350  0.428736  1
  O  O10  1  0.498471  0.498471  0.176315  1
  O  O11  1  0.105342  0.578830  0.083096  1
  O  O12  1  0.907350  0.405212  0.428736  1
  O  O13  1  0.998789  0.998789  0.829186  1
  O  O14  1  0.594788  0.092649  0.571264  1
  O  O15  1  0.501529  0.501529  0.823685  1
  O  O16  1  0.578830  0.105342  0.083096  1
  O  O17  1  0.421170  0.894658  0.916904  1
  O  O18  1  0.894658  0.421170  0.916904  1
