# generated using pymatgen
data_Tb2Sn(PRh2)6
_symmetry_space_group_name_H-M   'P 1'
_cell_length_a   3.88024204
_cell_length_b   9.78645799
_cell_length_c   9.78564074
_cell_angle_alpha   119.98205151
_cell_angle_beta   89.99543359
_cell_angle_gamma   89.98340430
_symmetry_Int_Tables_number   1
_chemical_formula_structural   Tb2Sn(PRh2)6
_chemical_formula_sum   'Tb2 Sn1 P6 Rh12'
_cell_volume   321.87165867
_cell_formula_units_Z   1
loop_
 _symmetry_equiv_pos_site_id
 _symmetry_equiv_pos_as_xyz
  1  'x, y, z'
loop_
 _atom_site_type_symbol
 _atom_site_label
 _atom_site_symmetry_multiplicity
 _atom_site_fract_x
 _atom_site_fract_y
 _atom_site_fract_z
 _atom_site_occupancy
  Tb  Tb0  1  0.248946  0.666837  0.333589  1
  Tb  Tb1  1  0.751054  0.333163  0.666411  1
  Sn  Sn2  1  0.500000  0.000000  0.000000  1
  P  P3  1  0.746663  0.882328  0.594565  1
  P  P4  1  0.746992  0.405787  0.287870  1
  P  P5  1  0.746927  0.712231  0.117884  1
  P  P6  1  0.253337  0.117672  0.405435  1
  P  P7  1  0.253008  0.594213  0.712130  1
  P  P8  1  0.253073  0.287769  0.882116  1
  Rh  Rh9  1  0.758884  0.126038  0.838492  1
  Rh  Rh10  1  0.759340  0.161632  0.287117  1
  Rh  Rh11  1  0.758742  0.712623  0.874340  1
  Rh  Rh12  1  0.241116  0.873962  0.161508  1
  Rh  Rh13  1  0.240660  0.838368  0.712883  1
  Rh  Rh14  1  0.241258  0.287377  0.125660  1
  Rh  Rh15  1  0.747548  0.614159  0.547171  1
  Rh  Rh16  1  0.747755  0.453178  0.067258  1
  Rh  Rh17  1  0.747754  0.933130  0.385947  1
  Rh  Rh18  1  0.252452  0.385841  0.452829  1
  Rh  Rh19  1  0.252245  0.546822  0.932742  1
  Rh  Rh20  1  0.252246  0.066870  0.614053  1
