# generated using pymatgen
data_DyHo2Hf(Co4P3)2
_symmetry_space_group_name_H-M   'P 1'
_cell_length_a   3.71845200
_cell_length_b   10.69413000
_cell_length_c   12.39691100
_cell_angle_alpha   90.00000000
_cell_angle_beta   90.00000000
_cell_angle_gamma   90.00000000
_symmetry_Int_Tables_number   1
_chemical_formula_structural   DyHo2Hf(Co4P3)2
_chemical_formula_sum   'Dy2 Ho4 Hf2 Co16 P12'
_cell_volume   492.97071671
_cell_formula_units_Z   2
loop_
 _symmetry_equiv_pos_site_id
 _symmetry_equiv_pos_as_xyz
  1  'x, y, z'
loop_
 _atom_site_type_symbol
 _atom_site_label
 _atom_site_symmetry_multiplicity
 _atom_site_fract_x
 _atom_site_fract_y
 _atom_site_fract_z
 _atom_site_occupancy
  Dy  Dy0  1  0.000000  0.500000  0.528643  1
  Dy  Dy1  1  0.500000  0.000000  0.471357  1
  Ho  Ho2  1  0.500000  0.821848  0.204547  1
  Ho  Ho3  1  0.500000  0.178152  0.204547  1
  Ho  Ho4  1  0.000000  0.678152  0.795453  1
  Ho  Ho5  1  0.000000  0.321848  0.795453  1
  Hf  Hf6  1  0.500000  0.500000  0.157270  1
  Hf  Hf7  1  0.000000  0.000000  0.842730  1
  Co  Co8  1  0.000000  0.500000  0.986545  1
  Co  Co9  1  0.500000  0.000000  0.013455  1
  Co  Co10  1  0.500000  0.295164  0.432965  1
  Co  Co11  1  0.500000  0.704836  0.432965  1
  Co  Co12  1  0.000000  0.204836  0.567035  1
  Co  Co13  1  0.000000  0.795164  0.567035  1
  Co  Co14  1  0.500000  0.877662  0.703037  1
  Co  Co15  1  0.500000  0.122338  0.703037  1
  Co  Co16  1  0.000000  0.622338  0.296963  1
  Co  Co17  1  0.000000  0.377662  0.296963  1
  Co  Co18  1  0.500000  0.332108  0.993243  1
  Co  Co19  1  0.500000  0.667892  0.993243  1
  Co  Co20  1  0.000000  0.167892  0.006757  1
  Co  Co21  1  0.000000  0.832108  0.006757  1
  Co  Co22  1  0.500000  0.500000  0.703037  1
  Co  Co23  1  0.000000  0.000000  0.296963  1
  P  P24  1  0.500000  0.310236  0.615812  1
  P  P25  1  0.500000  0.689764  0.615812  1
  P  P26  1  0.000000  0.189764  0.384188  1
  P  P27  1  0.000000  0.810236  0.384188  1
  P  P28  1  0.500000  0.500000  0.883036  1
  P  P29  1  0.000000  0.000000  0.116964  1
  P  P30  1  0.500000  0.838384  0.893015  1
  P  P31  1  0.500000  0.161616  0.893015  1
  P  P32  1  0.000000  0.661616  0.106985  1
  P  P33  1  0.000000  0.338384  0.106985  1
  P  P34  1  0.500000  0.500000  0.361724  1
  P  P35  1  0.000000  0.000000  0.638276  1
