# generated using pymatgen
data_Zr6Ti3Al13MoPd6
_symmetry_space_group_name_H-M   'P 1'
_cell_length_a   8.86928514
_cell_length_b   8.86928546
_cell_length_c   8.86928532
_cell_angle_alpha   59.71775754
_cell_angle_beta   59.71775937
_cell_angle_gamma   59.71776121
_symmetry_Int_Tables_number   1
_chemical_formula_structural   Zr6Ti3Al13MoPd6
_chemical_formula_sum   'Zr6 Ti3 Al13 Mo1 Pd6'
_cell_volume   490.18264514
_cell_formula_units_Z   1
loop_
 _symmetry_equiv_pos_site_id
 _symmetry_equiv_pos_as_xyz
  1  'x, y, z'
loop_
 _atom_site_type_symbol
 _atom_site_label
 _atom_site_symmetry_multiplicity
 _atom_site_fract_x
 _atom_site_fract_y
 _atom_site_fract_z
 _atom_site_occupancy
  Zr  Zr0  1  0.692382  0.308109  0.308109  1
  Zr  Zr1  1  0.691068  0.309375  0.691068  1
  Zr  Zr2  1  0.691068  0.691068  0.309375  1
  Zr  Zr3  1  0.309375  0.691068  0.691068  1
  Zr  Zr4  1  0.308109  0.692382  0.308109  1
  Zr  Zr5  1  0.308109  0.308109  0.692382  1
  Ti  Ti6  1  0.645332  0.118446  0.118446  1
  Ti  Ti7  1  0.118446  0.645332  0.118446  1
  Ti  Ti8  1  0.118446  0.118446  0.645332  1
  Al  Al9  1  0.119699  0.119699  0.119699  1
  Al  Al10  1  0.357319  0.880641  0.880641  1
  Al  Al11  1  0.880641  0.357319  0.880641  1
  Al  Al12  1  0.880641  0.880641  0.357319  1
  Al  Al13  1  0.880515  0.880515  0.880515  1
  Al  Al14  1  0.997124  0.334134  0.334134  1
  Al  Al15  1  0.334134  0.997124  0.334134  1
  Al  Al16  1  0.334134  0.334134  0.997124  1
  Al  Al17  1  0.334914  0.334914  0.334914  1
  Al  Al18  1  0.004132  0.665012  0.665012  1
  Al  Al19  1  0.665012  0.004132  0.665012  1
  Al  Al20  1  0.665012  0.665012  0.004132  1
  Al  Al21  1  0.665611  0.665611  0.665611  1
  Mo  Mo22  1  0.999436  0.999436  0.999436  1
  Pd  Pd23  1  0.499968  0.000018  0.000018  1
  Pd  Pd24  1  0.499657  0.000020  0.499657  1
  Pd  Pd25  1  0.499657  0.499657  0.000020  1
  Pd  Pd26  1  0.000020  0.499657  0.499657  1
  Pd  Pd27  1  0.000018  0.499968  0.000018  1
  Pd  Pd28  1  0.000018  0.000018  0.499968  1
