# generated using pymatgen
data_UH6Ru
_symmetry_space_group_name_H-M   'P 1'
_cell_length_a   4.44041834
_cell_length_b   4.44041959
_cell_length_c   4.44397200
_cell_angle_alpha   58.74972736
_cell_angle_beta   58.74971763
_cell_angle_gamma   58.76130453
_symmetry_Int_Tables_number   1
_chemical_formula_structural   UH6Ru
_chemical_formula_sum   'U1 H6 Ru1'
_cell_volume   60.19488249
_cell_formula_units_Z   1
loop_
 _symmetry_equiv_pos_site_id
 _symmetry_equiv_pos_as_xyz
  1  'x, y, z'
loop_
 _atom_site_type_symbol
 _atom_site_label
 _atom_site_symmetry_multiplicity
 _atom_site_fract_x
 _atom_site_fract_y
 _atom_site_fract_z
 _atom_site_occupancy
  U  U0  1  0.500000  0.500000  0.500000  1
  H  H1  1  0.541729  0.104603  0.104659  1
  H  H2  1  0.104603  0.541729  0.104659  1
  H  H3  1  0.895568  0.895568  0.457844  1
  H  H4  1  0.104432  0.104432  0.542155  1
  H  H5  1  0.895397  0.458270  0.895341  1
  H  H6  1  0.458270  0.895397  0.895341  1
  Ru  Ru7  1  0.000000  0.000000  0.000000  1
