# generated using pymatgen
data_Ba6ErLu(WO6)3
_symmetry_space_group_name_H-M   'P 1'
_cell_length_a   5.93929158
_cell_length_b   5.93913846
_cell_length_c   14.86618694
_cell_angle_alpha   90.00030723
_cell_angle_beta   78.47235272
_cell_angle_gamma   119.99907143
_symmetry_Int_Tables_number   1
_chemical_formula_structural   Ba6ErLu(WO6)3
_chemical_formula_sum   'Ba6 Er1 Lu1 W3 O18'
_cell_volume   441.88672313
_cell_formula_units_Z   1
loop_
 _symmetry_equiv_pos_site_id
 _symmetry_equiv_pos_as_xyz
  1  'x, y, z'
loop_
 _atom_site_type_symbol
 _atom_site_label
 _atom_site_symmetry_multiplicity
 _atom_site_fract_x
 _atom_site_fract_y
 _atom_site_fract_z
 _atom_site_occupancy
  Ba  Ba0  1  0.273402  0.636702  0.089863  1
  Ba  Ba1  1  0.823143  0.911572  0.265278  1
  Ba  Ba2  1  0.372751  0.186374  0.440834  1
  Ba  Ba3  1  0.626188  0.813092  0.560708  1
  Ba  Ba4  1  0.176077  0.088036  0.735869  1
  Ba  Ba5  1  0.727237  0.363618  0.909099  1
  Er  Er6  1  0.551056  0.275530  0.173417  1
  Lu  Lu7  1  0.449338  0.724668  0.825987  1
  W  W8  1  0.000946  0.000473  0.998546  1
  W  W9  1  0.103915  0.551959  0.344077  1
  W  W10  1  0.895129  0.447563  0.657332  1
  O  O11  1  0.261403  0.130703  0.076407  1
  O  O12  1  0.792885  0.130706  0.076408  1
  O  O13  1  0.792882  0.662178  0.076410  1
  O  O14  1  0.319128  0.427378  0.253521  1
  O  O15  1  0.854780  0.427392  0.253496  1
  O  O16  1  0.319126  0.891753  0.253521  1
  O  O17  1  0.901833  0.212381  0.408677  1
  O  O18  1  0.901840  0.689454  0.408677  1
  O  O19  1  0.378932  0.689468  0.408666  1
  O  O20  1  0.097123  0.310505  0.592396  1
  O  O21  1  0.620990  0.310493  0.592402  1
  O  O22  1  0.097130  0.786619  0.592394  1
  O  O23  1  0.678979  0.105388  0.747479  1
  O  O24  1  0.147168  0.573582  0.747472  1
  O  O25  1  0.678981  0.573590  0.747478  1
  O  O26  1  0.209660  0.340486  0.921197  1
  O  O27  1  0.209662  0.869175  0.921196  1
  O  O28  1  0.738315  0.869157  0.921193  1
