# generated using pymatgen
data_HoTm3(PdPt)2
_symmetry_space_group_name_H-M   'P 1'
_cell_length_a   4.52151000
_cell_length_b   5.55014421
_cell_length_c   6.93541200
_cell_angle_alpha   90.21260876
_cell_angle_beta   90.00000000
_cell_angle_gamma   90.00000000
_symmetry_Int_Tables_number   1
_chemical_formula_structural   HoTm3(PdPt)2
_chemical_formula_sum   'Ho1 Tm3 Pd2 Pt2'
_cell_volume   174.04319166
_cell_formula_units_Z   1
loop_
 _symmetry_equiv_pos_site_id
 _symmetry_equiv_pos_as_xyz
  1  'x, y, z'
loop_
 _atom_site_type_symbol
 _atom_site_label
 _atom_site_symmetry_multiplicity
 _atom_site_fract_x
 _atom_site_fract_y
 _atom_site_fract_z
 _atom_site_occupancy
  Ho  Ho0  1  0.000000  0.895577  0.182833  1
  Tm  Tm1  1  0.000000  0.104268  0.682385  1
  Tm  Tm2  1  0.500000  0.387186  0.318846  1
  Tm  Tm3  1  0.500000  0.612308  0.817921  1
  Pd  Pd4  1  0.000000  0.589625  0.544460  1
  Pd  Pd5  1  0.000000  0.409177  0.041055  1
  Pt  Pt6  1  0.500000  0.900637  0.459212  1
  Pt  Pt7  1  0.500000  0.101222  0.953287  1
