# generated using pymatgen
data_LiLa4(Sb4Pt)2
_symmetry_space_group_name_H-M   'P 1'
_cell_length_a   11.05648010
_cell_length_b   11.05648112
_cell_length_c   11.05648158
_cell_angle_alpha   146.50154702
_cell_angle_beta   146.50155209
_cell_angle_gamma   48.10238902
_symmetry_Int_Tables_number   1
_chemical_formula_structural   LiLa4(Sb4Pt)2
_chemical_formula_sum   'Li1 La4 Sb8 Pt2'
_cell_volume   410.02054545
_cell_formula_units_Z   1
loop_
 _symmetry_equiv_pos_site_id
 _symmetry_equiv_pos_as_xyz
  1  'x, y, z'
loop_
 _atom_site_type_symbol
 _atom_site_label
 _atom_site_symmetry_multiplicity
 _atom_site_fract_x
 _atom_site_fract_y
 _atom_site_fract_z
 _atom_site_occupancy
  Li  Li0  1  0.000000  0.000000  0.000000  1
  La  La1  1  0.629914  0.130904  0.000000  1
  La  La2  1  0.130904  0.629914  0.000000  1
  La  La3  1  0.869096  0.869096  0.499009  1
  La  La4  1  0.370086  0.370086  0.500991  1
  Sb  Sb5  1  0.249794  0.249794  0.000000  1
  Sb  Sb6  1  0.750206  0.750206  0.000000  1
  Sb  Sb7  1  0.250000  0.750000  0.500000  1
  Sb  Sb8  1  0.750000  0.250000  0.500000  1
  Sb  Sb9  1  0.329953  0.812996  0.000000  1
  Sb  Sb10  1  0.812996  0.329953  0.000000  1
  Sb  Sb11  1  0.187004  0.187004  0.516958  1
  Sb  Sb12  1  0.670047  0.670047  0.483042  1
  Pt  Pt13  1  0.500000  0.000000  0.500000  1
  Pt  Pt14  1  0.000000  0.500000  0.500000  1
