# generated using pymatgen
data_MnAl8Ir4Rh3
_symmetry_space_group_name_H-M   'P 1'
_cell_length_a   5.99847200
_cell_length_b   4.24099200
_cell_length_c   8.50301300
_cell_angle_alpha   90.00008766
_cell_angle_beta   89.99959838
_cell_angle_gamma   90.00007968
_symmetry_Int_Tables_number   1
_chemical_formula_structural   MnAl8Ir4Rh3
_chemical_formula_sum   'Mn1 Al8 Ir4 Rh3'
_cell_volume   216.31215912
_cell_formula_units_Z   1
loop_
 _symmetry_equiv_pos_site_id
 _symmetry_equiv_pos_as_xyz
  1  'x, y, z'
loop_
 _atom_site_type_symbol
 _atom_site_label
 _atom_site_symmetry_multiplicity
 _atom_site_fract_x
 _atom_site_fract_y
 _atom_site_fract_z
 _atom_site_occupancy
  Mn  Mn0  1  0.250007  0.249985  0.125009  1
  Al  Al1  1  0.491314  0.749994  0.125004  1
  Al  Al2  1  0.008692  0.749995  0.125004  1
  Al  Al3  1  0.494806  0.249994  0.368705  1
  Al  Al4  1  0.005196  0.249994  0.368702  1
  Al  Al5  1  0.001269  0.750011  0.625001  1
  Al  Al6  1  0.498727  0.750011  0.625001  1
  Al  Al7  1  0.005213  0.249996  0.881297  1
  Al  Al8  1  0.494785  0.249998  0.881292  1
  Ir  Ir9  1  0.750002  0.249997  0.125000  1
  Ir  Ir10  1  0.249999  0.750000  0.376347  1
  Ir  Ir11  1  0.749995  0.249997  0.625004  1
  Ir  Ir12  1  0.250000  0.750003  0.873646  1
  Rh  Rh13  1  0.749999  0.749992  0.376349  1
  Rh  Rh14  1  0.249994  0.250029  0.624976  1
  Rh  Rh15  1  0.749999  0.749997  0.873659  1
