# generated using pymatgen
data_BaTbAlZn3O7
_symmetry_space_group_name_H-M   'P 1'
_cell_length_a   6.39314200
_cell_length_b   6.39312525
_cell_length_c   10.36029100
_cell_angle_alpha   90.00003585
_cell_angle_beta   89.99994623
_cell_angle_gamma   120.00014118
_symmetry_Int_Tables_number   1
_chemical_formula_structural   BaTbAlZn3O7
_chemical_formula_sum   'Ba2 Tb2 Al2 Zn6 O14'
_cell_volume   366.71572372
_cell_formula_units_Z   2
loop_
 _symmetry_equiv_pos_site_id
 _symmetry_equiv_pos_as_xyz
  1  'x, y, z'
loop_
 _atom_site_type_symbol
 _atom_site_label
 _atom_site_symmetry_multiplicity
 _atom_site_fract_x
 _atom_site_fract_y
 _atom_site_fract_z
 _atom_site_occupancy
  Ba  Ba0  1  0.666680  0.333359  0.478463  1
  Ba  Ba1  1  0.333322  0.666642  0.978465  1
  Tb  Tb2  1  0.333333  0.666666  0.328635  1
  Tb  Tb3  1  0.666667  0.333335  0.828638  1
  Al  Al4  1  0.999999  0.999998  0.392612  1
  Al  Al5  1  0.000001  0.000002  0.892613  1
  Zn  Zn6  1  0.830711  0.168992  0.141456  1
  Zn  Zn7  1  0.338280  0.169279  0.141456  1
  Zn  Zn8  1  0.831004  0.661717  0.141457  1
  Zn  Zn9  1  0.169291  0.831009  0.641456  1
  Zn  Zn10  1  0.661721  0.830722  0.641457  1
  Zn  Zn11  1  0.168995  0.338280  0.641458  1
  O  O12  1  0.491170  0.982645  0.189464  1
  O  O13  1  0.491481  0.508821  0.189470  1
  O  O14  1  0.017342  0.508514  0.189470  1
  O  O15  1  0.999999  0.000000  0.218580  1
  O  O16  1  0.693881  0.846226  0.446643  1
  O  O17  1  0.153756  0.847637  0.446643  1
  O  O18  1  0.152353  0.306115  0.446645  1
  O  O19  1  0.508832  0.017355  0.689463  1
  O  O20  1  0.982657  0.491485  0.689469  1
  O  O21  1  0.508520  0.491178  0.689470  1
  O  O22  1  0.000001  0.000000  0.718580  1
  O  O23  1  0.846245  0.152362  0.946644  1
  O  O24  1  0.306119  0.153775  0.946644  1
  O  O25  1  0.847648  0.693884  0.946645  1
