# generated using pymatgen
data_Nb13Co8Os3N4
_symmetry_space_group_name_H-M   'P 1'
_cell_length_a   8.16597964
_cell_length_b   8.11231666
_cell_length_c   8.16564000
_cell_angle_alpha   59.77974572
_cell_angle_beta   59.99784847
_cell_angle_gamma   59.77982962
_symmetry_Int_Tables_number   1
_chemical_formula_structural   Nb13Co8Os3N4
_chemical_formula_sum   'Nb13 Co8 Os3 N4'
_cell_volume   381.21308907
_cell_formula_units_Z   1
loop_
 _symmetry_equiv_pos_site_id
 _symmetry_equiv_pos_as_xyz
  1  'x, y, z'
loop_
 _atom_site_type_symbol
 _atom_site_label
 _atom_site_symmetry_multiplicity
 _atom_site_fract_x
 _atom_site_fract_y
 _atom_site_fract_z
 _atom_site_occupancy
  Nb  Nb0  1  0.625000  0.125000  0.625000  1
  Nb  Nb1  1  0.806031  0.804769  0.194587  1
  Nb  Nb2  1  0.185318  0.193864  0.810406  1
  Nb  Nb3  1  0.810415  0.193864  0.810407  1
  Nb  Nb4  1  0.194612  0.804761  0.194589  1
  Nb  Nb5  1  0.194591  0.804779  0.806036  1
  Nb  Nb6  1  0.810403  0.193881  0.185313  1
  Nb  Nb7  1  0.443969  0.445231  0.055413  1
  Nb  Nb8  1  0.064682  0.056136  0.439594  1
  Nb  Nb9  1  0.439585  0.056136  0.439593  1
  Nb  Nb10  1  0.055388  0.445239  0.055411  1
  Nb  Nb11  1  0.055409  0.445221  0.443964  1
  Nb  Nb12  1  0.439597  0.056119  0.064687  1
  Co  Co13  1  0.736163  0.424509  0.419665  1
  Co  Co14  1  0.424099  0.727681  0.424097  1
  Co  Co15  1  0.419667  0.424516  0.736151  1
  Co  Co16  1  0.419665  0.424513  0.419663  1
  Co  Co17  1  0.513837  0.825491  0.830335  1
  Co  Co18  1  0.825901  0.522319  0.825903  1
  Co  Co19  1  0.830333  0.825484  0.513849  1
  Co  Co20  1  0.830335  0.825487  0.830337  1
  Os  Os21  1  0.125000  0.625000  0.625000  1
  Os  Os22  1  0.625000  0.625000  0.125000  1
  Os  Os23  1  0.625000  0.625000  0.625000  1
  N  N24  1  0.625000  0.125000  0.125000  1
  N  N25  1  0.125000  0.625000  0.125000  1
  N  N26  1  0.125000  0.125000  0.625000  1
  N  N27  1  0.125000  0.125000  0.125000  1
