# generated using pymatgen
data_Nd4TaBi4Ru3O22
_symmetry_space_group_name_H-M   'P 1'
_cell_length_a   6.62846435
_cell_length_b   7.65046037
_cell_length_c   9.90101326
_cell_angle_alpha   101.38689834
_cell_angle_beta   91.49898345
_cell_angle_gamma   89.94262952
_symmetry_Int_Tables_number   1
_chemical_formula_structural   Nd4TaBi4Ru3O22
_chemical_formula_sum   'Nd4 Ta1 Bi4 Ru3 O22'
_cell_volume   492.03252955
_cell_formula_units_Z   1
loop_
 _symmetry_equiv_pos_site_id
 _symmetry_equiv_pos_as_xyz
  1  'x, y, z'
loop_
 _atom_site_type_symbol
 _atom_site_label
 _atom_site_symmetry_multiplicity
 _atom_site_fract_x
 _atom_site_fract_y
 _atom_site_fract_z
 _atom_site_occupancy
  Nd  Nd0  1  0.748753  0.368399  0.479613  1
  Nd  Nd1  1  0.250774  0.632069  0.517807  1
  Nd  Nd2  1  0.757692  0.874209  0.488989  1
  Nd  Nd3  1  0.241173  0.128142  0.515498  1
  Ta  Ta4  1  0.069182  0.794859  0.188318  1
  Bi  Bi5  1  0.468571  0.958688  0.820727  1
  Bi  Bi6  1  0.538346  0.043817  0.181734  1
  Bi  Bi7  1  0.403123  0.456413  0.825551  1
  Bi  Bi8  1  0.599924  0.542268  0.172698  1
  Ru  Ru9  1  0.929560  0.699597  0.804184  1
  Ru  Ru10  1  0.072843  0.292671  0.189463  1
  Ru  Ru11  1  0.931927  0.204713  0.813069  1
  O  O12  1  0.223520  0.721759  0.767470  1
  O  O13  1  0.777049  0.270025  0.233301  1
  O  O14  1  0.638321  0.677589  0.830700  1
  O  O15  1  0.361554  0.325010  0.163352  1
  O  O16  1  0.637664  0.241426  0.839186  1
  O  O17  1  0.358893  0.745301  0.160034  1
  O  O18  1  0.895389  0.163849  0.602828  1
  O  O19  1  0.101859  0.845563  0.405118  1
  O  O20  1  0.226457  0.164661  0.766848  1
  O  O21  1  0.774119  0.842382  0.238573  1
  O  O22  1  0.900214  0.638987  0.596549  1
  O  O23  1  0.102213  0.357295  0.396598  1
  O  O24  1  0.012988  0.544398  0.190958  1
  O  O25  1  0.980927  0.455149  0.814876  1
  O  O26  1  0.990002  0.779228  0.999141  1
  O  O27  1  0.002783  0.228755  0.000041  1
  O  O28  1  0.569778  0.599527  0.390631  1
  O  O29  1  0.430841  0.401824  0.608220  1
  O  O30  1  0.157196  0.052388  0.212761  1
  O  O31  1  0.849780  0.947952  0.782658  1
  O  O32  1  0.544612  0.099274  0.398795  1
  O  O33  1  0.451973  0.901813  0.603713  1
