# generated using pymatgen
data_Dy3LuHf3AlPt4
_symmetry_space_group_name_H-M   'P 1'
_cell_length_a   4.56442800
_cell_length_b   7.07115321
_cell_length_c   8.14154542
_cell_angle_alpha   87.10584892
_cell_angle_beta   90.00000000
_cell_angle_gamma   90.00000000
_symmetry_Int_Tables_number   1
_chemical_formula_structural   Dy3LuHf3AlPt4
_chemical_formula_sum   'Dy3 Lu1 Hf3 Al1 Pt4'
_cell_volume   262.43948046
_cell_formula_units_Z   1
loop_
 _symmetry_equiv_pos_site_id
 _symmetry_equiv_pos_as_xyz
  1  'x, y, z'
loop_
 _atom_site_type_symbol
 _atom_site_label
 _atom_site_symmetry_multiplicity
 _atom_site_fract_x
 _atom_site_fract_y
 _atom_site_fract_z
 _atom_site_occupancy
  Dy  Dy0  1  0.750000  0.516973  0.815698  1
  Dy  Dy1  1  0.750000  0.039377  0.671224  1
  Dy  Dy2  1  0.250000  0.988305  0.336871  1
  Lu  Lu3  1  0.250000  0.471537  0.186824  1
  Hf  Hf4  1  0.250000  0.854939  0.924032  1
  Hf  Hf5  1  0.750000  0.138542  0.070917  1
  Hf  Hf6  1  0.750000  0.640012  0.434568  1
  Al  Al7  1  0.250000  0.358645  0.571601  1
  Pt  Pt8  1  0.250000  0.726204  0.610106  1
  Pt  Pt9  1  0.750000  0.271401  0.380422  1
  Pt  Pt10  1  0.750000  0.763659  0.102880  1
  Pt  Pt11  1  0.250000  0.230407  0.894857  1
