# generated using pymatgen
data_Hf2Fe3Sb2
_symmetry_space_group_name_H-M   'P 1'
_cell_length_a   4.33375977
_cell_length_b   4.33375943
_cell_length_c   7.47500314
_cell_angle_alpha   73.14900468
_cell_angle_beta   73.14900785
_cell_angle_gamma   59.99999930
_symmetry_Int_Tables_number   1
_chemical_formula_structural   Hf2Fe3Sb2
_chemical_formula_sum   'Hf2 Fe3 Sb2'
_cell_volume   114.56910143
_cell_formula_units_Z   1
loop_
 _symmetry_equiv_pos_site_id
 _symmetry_equiv_pos_as_xyz
  1  'x, y, z'
loop_
 _atom_site_type_symbol
 _atom_site_label
 _atom_site_symmetry_multiplicity
 _atom_site_fract_x
 _atom_site_fract_y
 _atom_site_fract_z
 _atom_site_occupancy
  Hf  Hf0  1  0.247232  0.247232  0.258304  1
  Hf  Hf1  1  0.753776  0.753776  0.738672  1
  Fe  Fe2  1  0.628320  0.628320  0.115039  1
  Fe  Fe3  1  0.122214  0.122214  0.633360  1
  Fe  Fe4  1  0.373972  0.373972  0.878082  1
  Sb  Sb5  1  0.996518  0.996518  0.010450  1
  Sb  Sb6  1  0.502970  0.502970  0.491093  1
