# generated using pymatgen
data_Y5CoP12Ru17Pt
_symmetry_space_group_name_H-M   'P 1'
_cell_length_a   12.58165600
_cell_length_b   12.47662798
_cell_length_c   3.96948400
_cell_angle_alpha   90.00000000
_cell_angle_beta   90.00000000
_cell_angle_gamma   120.39300407
_symmetry_Int_Tables_number   1
_chemical_formula_structural   Y5CoP12Ru17Pt
_chemical_formula_sum   'Y5 Co1 P12 Ru17 Pt1'
_cell_volume   537.48479379
_cell_formula_units_Z   1
loop_
 _symmetry_equiv_pos_site_id
 _symmetry_equiv_pos_as_xyz
  1  'x, y, z'
loop_
 _atom_site_type_symbol
 _atom_site_label
 _atom_site_symmetry_multiplicity
 _atom_site_fract_x
 _atom_site_fract_y
 _atom_site_fract_z
 _atom_site_occupancy
  Y  Y0  1  0.661715  0.331214  0.000000  1
  Y  Y1  1  0.335190  0.667540  0.000000  1
  Y  Y2  1  0.818387  0.818425  0.500000  1
  Y  Y3  1  0.183707  0.999273  0.500000  1
  Y  Y4  1  0.000789  0.183778  0.500000  1
  Co  Co5  1  0.000056  0.999249  0.000000  1
  P  P6  1  0.685500  0.162049  0.500000  1
  P  P7  1  0.824802  0.528953  0.500000  1
  P  P8  1  0.474026  0.305823  0.500000  1
  P  P9  1  0.169896  0.692970  0.500000  1
  P  P10  1  0.524972  0.830815  0.500000  1
  P  P11  1  0.306539  0.477018  0.500000  1
  P  P12  1  0.177278  0.175903  0.000000  1
  P  P13  1  0.825280  0.002256  0.000000  1
  P  P14  1  0.001883  0.823323  0.000000  1
  P  P15  1  0.628021  0.628949  0.000000  1
  P  P16  1  0.372540  0.998588  0.000000  1
  P  P17  1  0.010204  0.372124  0.000000  1
  Ru  Ru18  1  0.632567  0.508812  0.500000  1
  Ru  Ru19  1  0.489284  0.125710  0.500000  1
  Ru  Ru20  1  0.366291  0.873043  0.500000  1
  Ru  Ru21  1  0.508333  0.634963  0.500000  1
  Ru  Ru22  1  0.124378  0.489312  0.500000  1
  Ru  Ru23  1  0.446044  0.444050  0.000000  1
  Ru  Ru24  1  0.557681  0.002418  0.000000  1
  Ru  Ru25  1  0.997519  0.551111  0.000000  1
  Ru  Ru26  1  0.812117  0.188683  0.000000  1
  Ru  Ru27  1  0.816770  0.625473  0.000000  1
  Ru  Ru28  1  0.373583  0.189634  0.000000  1
  Ru  Ru29  1  0.183628  0.806773  0.000000  1
  Ru  Ru30  1  0.626881  0.818139  0.000000  1
  Ru  Ru31  1  0.196049  0.376450  0.000000  1
  Ru  Ru32  1  0.279384  0.279042  0.500000  1
  Ru  Ru33  1  0.722942  0.002178  0.500000  1
  Ru  Ru34  1  0.000884  0.719499  0.500000  1
  Pt  Pt35  1  0.864881  0.366464  0.500000  1
