# generated using pymatgen
data_YbDy3(Pd2Pb)2
_symmetry_space_group_name_H-M   'P 1'
_cell_length_a   7.90975650
_cell_length_b   7.90975650
_cell_length_c   3.63708500
_cell_angle_alpha   90.00000000
_cell_angle_beta   90.00000000
_cell_angle_gamma   89.55551193
_symmetry_Int_Tables_number   1
_chemical_formula_structural   YbDy3(Pd2Pb)2
_chemical_formula_sum   'Yb1 Dy3 Pd4 Pb2'
_cell_volume   227.54464043
_cell_formula_units_Z   1
loop_
 _symmetry_equiv_pos_site_id
 _symmetry_equiv_pos_as_xyz
  1  'x, y, z'
loop_
 _atom_site_type_symbol
 _atom_site_label
 _atom_site_symmetry_multiplicity
 _atom_site_fract_x
 _atom_site_fract_y
 _atom_site_fract_z
 _atom_site_occupancy
  Yb  Yb0  1  0.671290  0.171290  0.500000  1
  Dy  Dy1  1  0.171032  0.327402  0.500000  1
  Dy  Dy2  1  0.827402  0.671032  0.500000  1
  Dy  Dy3  1  0.329680  0.829680  0.500000  1
  Pd  Pd4  1  0.373864  0.126483  0.000000  1
  Pd  Pd5  1  0.125803  0.625803  0.000000  1
  Pd  Pd6  1  0.626483  0.873864  0.000000  1
  Pd  Pd7  1  0.875552  0.375552  0.000000  1
  Pb  Pb8  1  0.998250  0.000644  0.000000  1
  Pb  Pb9  1  0.500644  0.498250  0.000000  1
