# generated using pymatgen
data_DyCrCo4P3
_symmetry_space_group_name_H-M   'P 1'
_cell_length_a   3.64932600
_cell_length_b   10.30610400
_cell_length_c   11.75672400
_cell_angle_alpha   90.00000000
_cell_angle_beta   90.00000000
_cell_angle_gamma   90.00000000
_symmetry_Int_Tables_number   1
_chemical_formula_structural   DyCrCo4P3
_chemical_formula_sum   'Dy4 Cr4 Co16 P12'
_cell_volume   442.17430799
_cell_formula_units_Z   4
loop_
 _symmetry_equiv_pos_site_id
 _symmetry_equiv_pos_as_xyz
  1  'x, y, z'
loop_
 _atom_site_type_symbol
 _atom_site_label
 _atom_site_symmetry_multiplicity
 _atom_site_fract_x
 _atom_site_fract_y
 _atom_site_fract_z
 _atom_site_occupancy
  Dy  Dy0  1  0.250000  0.582977  0.704018  1
  Dy  Dy1  1  0.250000  0.917023  0.204018  1
  Dy  Dy2  1  0.750000  0.417023  0.295982  1
  Dy  Dy3  1  0.750000  0.082977  0.795982  1
  Cr  Cr4  1  0.250000  0.709146  0.988048  1
  Cr  Cr5  1  0.250000  0.790854  0.488048  1
  Cr  Cr6  1  0.750000  0.290854  0.011952  1
  Cr  Cr7  1  0.750000  0.209146  0.511952  1
  Co  Co8  1  0.250000  0.406008  0.489660  1
  Co  Co9  1  0.250000  0.093992  0.989660  1
  Co  Co10  1  0.750000  0.593992  0.510340  1
  Co  Co11  1  0.750000  0.906008  0.010340  1
  Co  Co12  1  0.250000  0.220826  0.177736  1
  Co  Co13  1  0.250000  0.279174  0.677736  1
  Co  Co14  1  0.750000  0.779174  0.822264  1
  Co  Co15  1  0.750000  0.720826  0.322264  1
  Co  Co16  1  0.250000  0.885521  0.698426  1
  Co  Co17  1  0.250000  0.614479  0.198426  1
  Co  Co18  1  0.750000  0.114479  0.301574  1
  Co  Co19  1  0.750000  0.385521  0.801574  1
  Co  Co20  1  0.250000  0.466250  0.933639  1
  Co  Co21  1  0.250000  0.033750  0.433639  1
  Co  Co22  1  0.750000  0.533750  0.066361  1
  Co  Co23  1  0.750000  0.966250  0.566361  1
  P  P24  1  0.250000  0.417788  0.113289  1
  P  P25  1  0.250000  0.082212  0.613289  1
  P  P26  1  0.750000  0.582212  0.886711  1
  P  P27  1  0.750000  0.917788  0.386711  1
  P  P28  1  0.250000  0.269713  0.869198  1
  P  P29  1  0.250000  0.230287  0.369198  1
  P  P30  1  0.750000  0.730287  0.130802  1
  P  P31  1  0.750000  0.769713  0.630802  1
  P  P32  1  0.250000  0.600397  0.391518  1
  P  P33  1  0.250000  0.899603  0.891518  1
  P  P34  1  0.750000  0.399603  0.608482  1
  P  P35  1  0.750000  0.100397  0.108482  1
