# generated using pymatgen
data_Rb2SmReN4
_symmetry_space_group_name_H-M   'P 1'
_cell_length_a   11.12908049
_cell_length_b   10.78521383
_cell_length_c   8.25347322
_cell_angle_alpha   70.10473723
_cell_angle_beta   65.68038720
_cell_angle_gamma   44.21487021
_symmetry_Int_Tables_number   1
_chemical_formula_structural   Rb2SmReN4
_chemical_formula_sum   'Rb8 Sm4 Re4 N16'
_cell_volume   627.94496549
_cell_formula_units_Z   4
loop_
 _symmetry_equiv_pos_site_id
 _symmetry_equiv_pos_as_xyz
  1  'x, y, z'
loop_
 _atom_site_type_symbol
 _atom_site_label
 _atom_site_symmetry_multiplicity
 _atom_site_fract_x
 _atom_site_fract_y
 _atom_site_fract_z
 _atom_site_occupancy
  Rb  Rb0  1  0.562716  0.937284  0.937284  1
  Rb  Rb1  1  0.937284  0.562716  0.562716  1
  Rb  Rb2  1  0.312716  0.687284  0.687284  1
  Rb  Rb3  1  0.109341  0.109341  0.890659  1
  Rb  Rb4  1  0.140659  0.140659  0.359341  1
  Rb  Rb5  1  0.359341  0.359341  0.140659  1
  Rb  Rb6  1  0.687284  0.312716  0.312716  1
  Rb  Rb7  1  0.890659  0.890659  0.109341  1
  Sm  Sm8  1  0.340041  0.340041  0.659959  1
  Sm  Sm9  1  0.909959  0.909959  0.590041  1
  Sm  Sm10  1  0.659959  0.659959  0.340041  1
  Sm  Sm11  1  0.590041  0.590041  0.909959  1
  Re  Re12  1  0.504115  0.995885  0.504115  1
  Re  Re13  1  0.995885  0.504115  0.995885  1
  Re  Re14  1  0.745885  0.254115  0.745885  1
  Re  Re15  1  0.254115  0.745885  0.254115  1
  N  N16  1  0.010898  0.652060  0.811567  1
  N  N17  1  0.693562  0.302461  0.969019  1
  N  N18  1  0.652060  0.010898  0.525476  1
  N  N19  1  0.525476  0.811567  0.652060  1
  N  N20  1  0.239102  0.597940  0.438433  1
  N  N21  1  0.724524  0.438433  0.597940  1
  N  N22  1  0.969019  0.034958  0.693562  1
  N  N23  1  0.556438  0.947539  0.280981  1
  N  N24  1  0.438433  0.724524  0.239102  1
  N  N25  1  0.947539  0.556438  0.215042  1
  N  N26  1  0.302461  0.693562  0.034958  1
  N  N27  1  0.811567  0.525476  0.010898  1
  N  N28  1  0.215042  0.280981  0.947539  1
  N  N29  1  0.597940  0.239102  0.724524  1
  N  N30  1  0.280981  0.215042  0.556438  1
  N  N31  1  0.034958  0.969019  0.302461  1
