# generated using pymatgen
data_Ta4V7Ru
_symmetry_space_group_name_H-M   'P 1'
_cell_length_a   5.08865600
_cell_length_b   5.08865568
_cell_length_c   8.16699700
_cell_angle_alpha   90.00000000
_cell_angle_beta   90.00000000
_cell_angle_gamma   120.00000207
_symmetry_Int_Tables_number   1
_chemical_formula_structural   Ta4V7Ru
_chemical_formula_sum   'Ta4 V7 Ru1'
_cell_volume   183.14673362
_cell_formula_units_Z   1
loop_
 _symmetry_equiv_pos_site_id
 _symmetry_equiv_pos_as_xyz
  1  'x, y, z'
loop_
 _atom_site_type_symbol
 _atom_site_label
 _atom_site_symmetry_multiplicity
 _atom_site_fract_x
 _atom_site_fract_y
 _atom_site_fract_z
 _atom_site_occupancy
  Ta  Ta0  1  0.666668  0.333334  0.060015  1
  Ta  Ta1  1  0.666668  0.333334  0.439610  1
  Ta  Ta2  1  0.333334  0.666668  0.560390  1
  Ta  Ta3  1  0.333334  0.666668  0.939985  1
  V  V4  1  0.169686  0.339374  0.252060  1
  V  V5  1  0.169685  0.830313  0.252060  1
  V  V6  1  0.660626  0.830313  0.252060  1
  V  V7  1  0.000000  0.000000  0.500000  1
  V  V8  1  0.339374  0.169686  0.747940  1
  V  V9  1  0.830313  0.169686  0.747940  1
  V  V10  1  0.830314  0.660625  0.747940  1
  Ru  Ru11  1  0.000000  0.000000  0.000000  1
