# generated using pymatgen
data_Ta4Mn4Si3Ge
_symmetry_space_group_name_H-M   'P 1'
_cell_length_a   6.38010580
_cell_length_b   3.57088900
_cell_length_c   7.50355581
_cell_angle_alpha   90.00000000
_cell_angle_beta   90.22014023
_cell_angle_gamma   90.00000000
_symmetry_Int_Tables_number   1
_chemical_formula_structural   Ta4Mn4Si3Ge
_chemical_formula_sum   'Ta4 Mn4 Si3 Ge1'
_cell_volume   170.94962122
_cell_formula_units_Z   1
loop_
 _symmetry_equiv_pos_site_id
 _symmetry_equiv_pos_as_xyz
  1  'x, y, z'
loop_
 _atom_site_type_symbol
 _atom_site_label
 _atom_site_symmetry_multiplicity
 _atom_site_fract_x
 _atom_site_fract_y
 _atom_site_fract_z
 _atom_site_occupancy
  Ta  Ta0  1  0.458718  0.249999  0.173523  1
  Ta  Ta1  1  0.969919  0.249999  0.332768  1
  Ta  Ta2  1  0.033824  0.749999  0.671145  1
  Ta  Ta3  1  0.532030  0.749999  0.824098  1
  Mn  Mn4  1  0.143599  0.749999  0.061149  1
  Mn  Mn5  1  0.635775  0.749999  0.442356  1
  Mn  Mn6  1  0.361954  0.249999  0.562106  1
  Mn  Mn7  1  0.864860  0.249999  0.932581  1
  Si  Si8  1  0.265971  0.749999  0.370931  1
  Si  Si9  1  0.734271  0.249999  0.629509  1
  Si  Si10  1  0.235297  0.249999  0.868490  1
  Ge  Ge11  1  0.763785  0.749999  0.131343  1
