# generated using pymatgen
data_Dy4Y12MgCo4Ag3
_symmetry_space_group_name_H-M   'P 1'
_cell_length_a   9.47426650
_cell_length_b   9.47990299
_cell_length_c   9.47990300
_cell_angle_alpha   60.00000347
_cell_angle_beta   59.98032151
_cell_angle_gamma   59.98032149
_symmetry_Int_Tables_number   1
_chemical_formula_structural   Dy4Y12MgCo4Ag3
_chemical_formula_sum   'Dy4 Y12 Mg1 Co4 Ag3'
_cell_volume   601.87895262
_cell_formula_units_Z   1
loop_
 _symmetry_equiv_pos_site_id
 _symmetry_equiv_pos_as_xyz
  1  'x, y, z'
loop_
 _atom_site_type_symbol
 _atom_site_label
 _atom_site_symmetry_multiplicity
 _atom_site_fract_x
 _atom_site_fract_y
 _atom_site_fract_z
 _atom_site_occupancy
  Dy  Dy0  1  0.346511  0.346366  0.346366  1
  Dy  Dy1  1  0.346511  0.346366  0.960757  1
  Dy  Dy2  1  0.346511  0.960757  0.346366  1
  Dy  Dy3  1  0.948519  0.350494  0.350494  1
  Y  Y4  1  0.810078  0.188808  0.188808  1
  Y  Y5  1  0.186426  0.813390  0.813390  1
  Y  Y6  1  0.186426  0.813390  0.186795  1
  Y  Y7  1  0.810078  0.188808  0.812306  1
  Y  Y8  1  0.186426  0.186795  0.813390  1
  Y  Y9  1  0.810078  0.812306  0.188808  1
  Y  Y10  1  0.936033  0.562736  0.562736  1
  Y  Y11  1  0.561743  0.937122  0.937122  1
  Y  Y12  1  0.561743  0.937122  0.564013  1
  Y  Y13  1  0.936033  0.562736  0.938496  1
  Y  Y14  1  0.561743  0.564013  0.937122  1
  Y  Y15  1  0.936033  0.938496  0.562736  1
  Mg  Mg16  1  0.288903  0.570366  0.570366  1
  Co  Co17  1  0.139443  0.143174  0.143174  1
  Co  Co18  1  0.139443  0.143174  0.574207  1
  Co  Co19  1  0.139443  0.574207  0.143174  1
  Co  Co20  1  0.572564  0.142478  0.142478  1
  Ag  Ag21  1  0.583104  0.583018  0.583018  1
  Ag  Ag22  1  0.583104  0.583018  0.250858  1
  Ag  Ag23  1  0.583104  0.250858  0.583018  1
