# generated using pymatgen
data_Zr2Pa3Sb3C
_symmetry_space_group_name_H-M   'P 1'
_cell_length_a   8.80234000
_cell_length_b   8.80233909
_cell_length_c   6.00021000
_cell_angle_alpha   90.00000000
_cell_angle_beta   90.00000000
_cell_angle_gamma   120.00000343
_symmetry_Int_Tables_number   1
_chemical_formula_structural   Zr2Pa3Sb3C
_chemical_formula_sum   'Zr4 Pa6 Sb6 C2'
_cell_volume   402.61810595
_cell_formula_units_Z   2
loop_
 _symmetry_equiv_pos_site_id
 _symmetry_equiv_pos_as_xyz
  1  'x, y, z'
loop_
 _atom_site_type_symbol
 _atom_site_label
 _atom_site_symmetry_multiplicity
 _atom_site_fract_x
 _atom_site_fract_y
 _atom_site_fract_z
 _atom_site_occupancy
  Zr  Zr0  1  0.666667  0.333333  0.500000  1
  Zr  Zr1  1  0.333333  0.666667  0.500000  1
  Zr  Zr2  1  0.333333  0.666667  0.000000  1
  Zr  Zr3  1  0.666667  0.333333  0.000000  1
  Pa  Pa4  1  0.775256  0.775256  0.250000  1
  Pa  Pa5  1  0.224744  0.000000  0.250000  1
  Pa  Pa6  1  0.000000  0.224744  0.250000  1
  Pa  Pa7  1  0.224744  0.224744  0.750000  1
  Pa  Pa8  1  0.775256  0.000000  0.750000  1
  Pa  Pa9  1  0.000000  0.775256  0.750000  1
  Sb  Sb10  1  0.406497  0.406497  0.250000  1
  Sb  Sb11  1  0.593503  0.000000  0.250000  1
  Sb  Sb12  1  0.000000  0.593503  0.250000  1
  Sb  Sb13  1  0.593503  0.593503  0.750000  1
  Sb  Sb14  1  0.406497  0.000000  0.750000  1
  Sb  Sb15  1  0.000000  0.406497  0.750000  1
  C  C16  1  0.000000  0.000000  0.500000  1
  C  C17  1  0.000000  0.000000  0.000000  1
