# generated using pymatgen
data_MgSc4CdAu4
_symmetry_space_group_name_H-M   'P 1'
_cell_length_a   7.76148200
_cell_length_b   7.76148200
_cell_length_c   6.87455600
_cell_angle_alpha   90.00000000
_cell_angle_beta   90.00000000
_cell_angle_gamma   90.00000000
_symmetry_Int_Tables_number   1
_chemical_formula_structural   MgSc4CdAu4
_chemical_formula_sum   'Mg2 Sc8 Cd2 Au8'
_cell_volume   414.12739767
_cell_formula_units_Z   2
loop_
 _symmetry_equiv_pos_site_id
 _symmetry_equiv_pos_as_xyz
  1  'x, y, z'
loop_
 _atom_site_type_symbol
 _atom_site_label
 _atom_site_symmetry_multiplicity
 _atom_site_fract_x
 _atom_site_fract_y
 _atom_site_fract_z
 _atom_site_occupancy
  Mg  Mg0  1  0.500000  0.000000  0.250000  1
  Mg  Mg1  1  0.500000  0.000000  0.750000  1
  Sc  Sc2  1  0.140082  0.169196  0.000000  1
  Sc  Sc3  1  0.859918  0.830804  0.000000  1
  Sc  Sc4  1  0.669196  0.359918  0.500000  1
  Sc  Sc5  1  0.330804  0.640082  0.500000  1
  Sc  Sc6  1  0.687351  0.339934  0.000000  1
  Sc  Sc7  1  0.312649  0.660066  0.000000  1
  Sc  Sc8  1  0.839934  0.812649  0.500000  1
  Sc  Sc9  1  0.160066  0.187351  0.500000  1
  Cd  Cd10  1  0.000000  0.500000  0.250000  1
  Cd  Cd11  1  0.000000  0.500000  0.750000  1
  Au  Au12  1  0.376473  0.355894  0.231145  1
  Au  Au13  1  0.623527  0.644106  0.768855  1
  Au  Au14  1  0.623527  0.644106  0.231145  1
  Au  Au15  1  0.855894  0.123527  0.731145  1
  Au  Au16  1  0.855894  0.123527  0.268855  1
  Au  Au17  1  0.376473  0.355894  0.768855  1
  Au  Au18  1  0.144106  0.876473  0.268855  1
  Au  Au19  1  0.144106  0.876473  0.731145  1
