# generated using pymatgen
data_SmHo3(Si3Rh)2
_symmetry_space_group_name_H-M   'P 1'
_cell_length_a   8.17980900
_cell_length_b   8.17980891
_cell_length_c   7.94288200
_cell_angle_alpha   90.00000000
_cell_angle_beta   90.00000000
_cell_angle_gamma   120.00000441
_symmetry_Int_Tables_number   1
_chemical_formula_structural   SmHo3(Si3Rh)2
_chemical_formula_sum   'Sm2 Ho6 Si12 Rh4'
_cell_volume   460.25132157
_cell_formula_units_Z   2
loop_
 _symmetry_equiv_pos_site_id
 _symmetry_equiv_pos_as_xyz
  1  'x, y, z'
loop_
 _atom_site_type_symbol
 _atom_site_label
 _atom_site_symmetry_multiplicity
 _atom_site_fract_x
 _atom_site_fract_y
 _atom_site_fract_z
 _atom_site_occupancy
  Sm  Sm0  1  0.000000  0.000000  0.250000  1
  Sm  Sm1  1  0.000000  0.000000  0.750000  1
  Ho  Ho2  1  0.508947  0.491053  0.250000  1
  Ho  Ho3  1  0.508947  0.017895  0.250000  1
  Ho  Ho4  1  0.982105  0.491053  0.250000  1
  Ho  Ho5  1  0.491053  0.508947  0.750000  1
  Ho  Ho6  1  0.491053  0.982105  0.750000  1
  Ho  Ho7  1  0.017895  0.508947  0.750000  1
  Si  Si8  1  0.167811  0.832189  0.499745  1
  Si  Si9  1  0.167811  0.335620  0.499745  1
  Si  Si10  1  0.664380  0.832189  0.499745  1
  Si  Si11  1  0.832189  0.167811  0.500255  1
  Si  Si12  1  0.832189  0.664380  0.500255  1
  Si  Si13  1  0.335620  0.167811  0.500255  1
  Si  Si14  1  0.832189  0.167811  0.999745  1
  Si  Si15  1  0.832189  0.664380  0.999745  1
  Si  Si16  1  0.335620  0.167811  0.999745  1
  Si  Si17  1  0.167811  0.832189  0.000255  1
  Si  Si18  1  0.167811  0.335620  0.000255  1
  Si  Si19  1  0.664380  0.832189  0.000255  1
  Rh  Rh20  1  0.333333  0.666667  0.466371  1
  Rh  Rh21  1  0.666667  0.333333  0.533629  1
  Rh  Rh22  1  0.666667  0.333333  0.966371  1
  Rh  Rh23  1  0.333333  0.666667  0.033629  1
