# generated using pymatgen
data_Sc3NiSn3Pt2
_symmetry_space_group_name_H-M   'P 1'
_cell_length_a   7.43756600
_cell_length_b   7.43756641
_cell_length_c   7.13275400
_cell_angle_alpha   90.00000000
_cell_angle_beta   90.00000000
_cell_angle_gamma   120.00000705
_symmetry_Int_Tables_number   1
_chemical_formula_structural   Sc3NiSn3Pt2
_chemical_formula_sum   'Sc6 Ni2 Sn6 Pt4'
_cell_volume   341.70358584
_cell_formula_units_Z   2
loop_
 _symmetry_equiv_pos_site_id
 _symmetry_equiv_pos_as_xyz
  1  'x, y, z'
loop_
 _atom_site_type_symbol
 _atom_site_label
 _atom_site_symmetry_multiplicity
 _atom_site_fract_x
 _atom_site_fract_y
 _atom_site_fract_z
 _atom_site_occupancy
  Sc  Sc0  1  0.403903  0.018089  0.250000  1
  Sc  Sc1  1  0.614186  0.596097  0.250000  1
  Sc  Sc2  1  0.981911  0.385814  0.250000  1
  Sc  Sc3  1  0.385814  0.981911  0.750000  1
  Sc  Sc4  1  0.596097  0.614186  0.750000  1
  Sc  Sc5  1  0.018089  0.403903  0.750000  1
  Ni  Ni6  1  0.000000  0.000000  0.750000  1
  Ni  Ni7  1  0.000000  0.000000  0.250000  1
  Sn  Sn8  1  0.261797  0.261797  0.000000  1
  Sn  Sn9  1  0.000000  0.738203  0.000000  1
  Sn  Sn10  1  0.000000  0.738203  0.500000  1
  Sn  Sn11  1  0.738203  0.000000  0.500000  1
  Sn  Sn12  1  0.261797  0.261797  0.500000  1
  Sn  Sn13  1  0.738203  0.000000  0.000000  1
  Pt  Pt14  1  0.666667  0.333333  0.966860  1
  Pt  Pt15  1  0.333333  0.666667  0.466860  1
  Pt  Pt16  1  0.333333  0.666667  0.033140  1
  Pt  Pt17  1  0.666667  0.333333  0.533140  1
