# generated using pymatgen
data_Ca2SiGePd13
_symmetry_space_group_name_H-M   'P 1'
_cell_length_a   8.91921247
_cell_length_b   8.91793200
_cell_length_c   7.08973548
_cell_angle_alpha   90.00000000
_cell_angle_beta   90.50227606
_cell_angle_gamma   90.00000000
_symmetry_Int_Tables_number   1
_chemical_formula_structural   Ca2SiGePd13
_chemical_formula_sum   'Ca4 Si2 Ge2 Pd26'
_cell_volume   563.90248718
_cell_formula_units_Z   2
loop_
 _symmetry_equiv_pos_site_id
 _symmetry_equiv_pos_as_xyz
  1  'x, y, z'
loop_
 _atom_site_type_symbol
 _atom_site_label
 _atom_site_symmetry_multiplicity
 _atom_site_fract_x
 _atom_site_fract_y
 _atom_site_fract_z
 _atom_site_occupancy
  Ca  Ca0  1  0.517136  0.000000  0.932703  1
  Ca  Ca1  1  0.982864  0.500000  0.067297  1
  Ca  Ca2  1  0.003619  0.000000  0.497792  1
  Ca  Ca3  1  0.496381  0.500000  0.502208  1
  Si  Si4  1  0.507780  0.000000  0.442115  1
  Si  Si5  1  0.992220  0.500000  0.557885  1
  Ge  Ge6  1  0.250000  0.750000  0.000000  1
  Ge  Ge7  1  0.250000  0.250000  0.000000  1
  Pd  Pd8  1  0.338282  0.836322  0.608734  1
  Pd  Pd9  1  0.338282  0.163678  0.608734  1
  Pd  Pd10  1  0.667995  0.831990  0.618455  1
  Pd  Pd11  1  0.667995  0.168010  0.618455  1
  Pd  Pd12  1  0.161718  0.663678  0.391266  1
  Pd  Pd13  1  0.161718  0.336322  0.391266  1
  Pd  Pd14  1  0.832005  0.668010  0.381545  1
  Pd  Pd15  1  0.832005  0.331990  0.381545  1
  Pd  Pd16  1  0.495993  0.768761  0.252456  1
  Pd  Pd17  1  0.495993  0.231239  0.252456  1
  Pd  Pd18  1  0.274674  0.000000  0.252808  1
  Pd  Pd19  1  0.735817  0.000000  0.253900  1
  Pd  Pd20  1  0.004007  0.731239  0.747544  1
  Pd  Pd21  1  0.004007  0.268761  0.747544  1
  Pd  Pd22  1  0.225326  0.500000  0.747192  1
  Pd  Pd23  1  0.764183  0.500000  0.746100  1
  Pd  Pd24  1  0.487541  0.340567  0.865476  1
  Pd  Pd25  1  0.487541  0.659433  0.865476  1
  Pd  Pd26  1  0.857283  0.000000  0.854980  1
  Pd  Pd27  1  0.174306  0.000000  0.866289  1
  Pd  Pd28  1  0.012459  0.159433  0.134524  1
  Pd  Pd29  1  0.012459  0.840567  0.134524  1
  Pd  Pd30  1  0.642717  0.500000  0.145020  1
  Pd  Pd31  1  0.325694  0.500000  0.133711  1
  Pd  Pd32  1  0.750000  0.750000  0.000000  1
  Pd  Pd33  1  0.750000  0.250000  0.000000  1
