# generated using pymatgen
data_K3Al(SF)2
_symmetry_space_group_name_H-M   'P 1'
_cell_length_a   7.47103300
_cell_length_b   10.62735778
_cell_length_c   11.83381010
_cell_angle_alpha   57.21427832
_cell_angle_beta   90.00000000
_cell_angle_gamma   90.00000000
_symmetry_Int_Tables_number   1
_chemical_formula_structural   K3Al(SF)2
_chemical_formula_sum   'K12 Al4 S8 F8'
_cell_volume   789.90054249
_cell_formula_units_Z   4
loop_
 _symmetry_equiv_pos_site_id
 _symmetry_equiv_pos_as_xyz
  1  'x, y, z'
loop_
 _atom_site_type_symbol
 _atom_site_label
 _atom_site_symmetry_multiplicity
 _atom_site_fract_x
 _atom_site_fract_y
 _atom_site_fract_z
 _atom_site_occupancy
  K  K0  1  0.737527  0.058978  0.889916  1
  K  K1  1  0.867648  0.519378  0.154235  1
  K  K2  1  0.262473  0.941022  0.110084  1
  K  K3  1  0.762473  0.058978  0.389916  1
  K  K4  1  0.132352  0.480622  0.845765  1
  K  K5  1  0.727084  0.782936  0.787023  1
  K  K6  1  0.367648  0.480622  0.345765  1
  K  K7  1  0.227084  0.217064  0.712977  1
  K  K8  1  0.272916  0.217064  0.212977  1
  K  K9  1  0.772916  0.782936  0.287023  1
  K  K10  1  0.237527  0.941022  0.610084  1
  K  K11  1  0.632352  0.519378  0.654235  1
  Al  Al12  1  0.696528  0.294454  0.026654  1
  Al  Al13  1  0.803472  0.294454  0.526654  1
  Al  Al14  1  0.303472  0.705546  0.973346  1
  Al  Al15  1  0.196528  0.705546  0.473346  1
  S  S16  1  0.461310  0.258414  0.935019  1
  S  S17  1  0.574778  0.139493  0.593503  1
  S  S18  1  0.961310  0.741586  0.564981  1
  S  S19  1  0.538690  0.741586  0.064981  1
  S  S20  1  0.038690  0.258414  0.435019  1
  S  S21  1  0.074778  0.860507  0.906497  1
  S  S22  1  0.425222  0.860507  0.406497  1
  S  S23  1  0.925222  0.139493  0.093503  1
  F  F24  1  0.281513  0.521400  0.581697  1
  F  F25  1  0.628000  0.308047  0.162876  1
  F  F26  1  0.781513  0.478600  0.918303  1
  F  F27  1  0.218487  0.521400  0.081697  1
  F  F28  1  0.872000  0.308047  0.662876  1
  F  F29  1  0.718487  0.478600  0.418303  1
  F  F30  1  0.128000  0.691953  0.337124  1
  F  F31  1  0.372000  0.691953  0.837124  1
