# generated using pymatgen
data_Th3(CoP)4
_symmetry_space_group_name_H-M   'P 1'
_cell_length_a   3.97741935
_cell_length_b   3.98250515
_cell_length_c   11.89138244
_cell_angle_alpha   80.36022452
_cell_angle_beta   80.37264375
_cell_angle_gamma   90.00000969
_symmetry_Int_Tables_number   1
_chemical_formula_structural   Th3(CoP)4
_chemical_formula_sum   'Th3 Co4 P4'
_cell_volume   183.00959356
_cell_formula_units_Z   1
loop_
 _symmetry_equiv_pos_site_id
 _symmetry_equiv_pos_as_xyz
  1  'x, y, z'
loop_
 _atom_site_type_symbol
 _atom_site_label
 _atom_site_symmetry_multiplicity
 _atom_site_fract_x
 _atom_site_fract_y
 _atom_site_fract_z
 _atom_site_occupancy
  Th  Th0  1  0.349399  0.849399  0.301203  1
  Th  Th1  1  0.650601  0.150601  0.698797  1
  Th  Th2  1  0.000000  0.000000  0.000000  1
  Co  Co3  1  0.248893  0.248893  0.502214  1
  Co  Co4  1  0.751107  0.751107  0.497786  1
  Co  Co5  1  0.095411  0.595411  0.809179  1
  Co  Co6  1  0.904589  0.404589  0.190821  1
  P  P7  1  0.197456  0.697456  0.605087  1
  P  P8  1  0.802544  0.302544  0.394913  1
  P  P9  1  0.446331  0.446331  0.107337  1
  P  P10  1  0.553669  0.553669  0.892663  1
