# generated using pymatgen
data_BaGdTi4N7
_symmetry_space_group_name_H-M   'P 1'
_cell_length_a   6.49865400
_cell_length_b   6.49865447
_cell_length_c   10.52407900
_cell_angle_alpha   90.00000000
_cell_angle_beta   90.00000000
_cell_angle_gamma   119.99999759
_symmetry_Int_Tables_number   1
_chemical_formula_structural   BaGdTi4N7
_chemical_formula_sum   'Ba2 Gd2 Ti8 N14'
_cell_volume   384.91213505
_cell_formula_units_Z   2
loop_
 _symmetry_equiv_pos_site_id
 _symmetry_equiv_pos_as_xyz
  1  'x, y, z'
loop_
 _atom_site_type_symbol
 _atom_site_label
 _atom_site_symmetry_multiplicity
 _atom_site_fract_x
 _atom_site_fract_y
 _atom_site_fract_z
 _atom_site_occupancy
  Ba  Ba0  1  0.333333  0.666667  0.366943  1
  Ba  Ba1  1  0.666667  0.333333  0.866943  1
  Gd  Gd2  1  0.333333  0.666667  0.734533  1
  Gd  Gd3  1  0.666667  0.333333  0.234533  1
  Ti  Ti4  1  0.830799  0.661597  0.549768  1
  Ti  Ti5  1  0.169201  0.830799  0.049768  1
  Ti  Ti6  1  0.661597  0.830799  0.049768  1
  Ti  Ti7  1  0.338403  0.169201  0.549768  1
  Ti  Ti8  1  0.830799  0.169201  0.549768  1
  Ti  Ti9  1  0.169201  0.338403  0.049768  1
  Ti  Ti10  1  0.000000  0.000000  0.809798  1
  Ti  Ti11  1  0.000000  0.000000  0.309798  1
  N  N12  1  0.000000  0.000000  0.617415  1
  N  N13  1  0.000000  0.000000  0.117415  1
  N  N14  1  0.158604  0.317208  0.870256  1
  N  N15  1  0.841396  0.158604  0.370256  1
  N  N16  1  0.317208  0.158604  0.370256  1
  N  N17  1  0.682792  0.841396  0.870256  1
  N  N18  1  0.158604  0.841396  0.870256  1
  N  N19  1  0.841396  0.682792  0.370256  1
  N  N20  1  0.986048  0.493025  0.601714  1
  N  N21  1  0.493025  0.986048  0.101714  1
  N  N22  1  0.493025  0.506975  0.101714  1
  N  N23  1  0.506975  0.493025  0.601714  1
  N  N24  1  0.013952  0.506975  0.101714  1
  N  N25  1  0.506975  0.013952  0.601714  1
