# generated using pymatgen
data_Pr5NdCd4IrPd12
_symmetry_space_group_name_H-M   'P 1'
_cell_length_a   8.57245358
_cell_length_b   8.57244861
_cell_length_c   8.57244901
_cell_angle_alpha   109.47779974
_cell_angle_beta   109.46789353
_cell_angle_gamma   109.46790246
_symmetry_Int_Tables_number   1
_chemical_formula_structural   Pr5NdCd4IrPd12
_chemical_formula_sum   'Pr5 Nd1 Cd4 Ir1 Pd12'
_cell_volume   484.94602514
_cell_formula_units_Z   1
loop_
 _symmetry_equiv_pos_site_id
 _symmetry_equiv_pos_as_xyz
  1  'x, y, z'
loop_
 _atom_site_type_symbol
 _atom_site_label
 _atom_site_symmetry_multiplicity
 _atom_site_fract_x
 _atom_site_fract_y
 _atom_site_fract_z
 _atom_site_occupancy
  Pr  Pr0  1  0.000000  0.702622  0.702622  1
  Pr  Pr1  1  0.297106  0.000054  0.297160  1
  Pr  Pr2  1  0.702894  0.702948  0.000054  1
  Pr  Pr3  1  0.702894  0.000054  0.702948  1
  Pr  Pr4  1  0.297106  0.297160  0.000054  1
  Nd  Nd5  1  0.000000  0.297607  0.297607  1
  Cd  Cd6  1  0.000000  0.000083  0.499885  1
  Cd  Cd7  1  0.500197  0.000083  0.000083  1
  Cd  Cd8  1  0.000000  0.499885  0.000083  1
  Cd  Cd9  1  0.499803  0.499886  0.499886  1
  Ir  Ir10  1  0.000000  0.000604  0.000604  1
  Pd  Pd11  1  0.341507  0.658461  0.999968  1
  Pd  Pd12  1  0.999999  0.341522  0.658056  1
  Pd  Pd13  1  0.658612  0.000116  0.341502  1
  Pd  Pd14  1  0.316534  0.658056  0.658056  1
  Pd  Pd15  1  0.658493  0.316953  0.658460  1
  Pd  Pd16  1  0.683467  0.341523  0.341523  1
  Pd  Pd17  1  0.341388  0.682891  0.341504  1
  Pd  Pd18  1  0.341388  0.341504  0.682891  1
  Pd  Pd19  1  0.999999  0.658056  0.341522  1
  Pd  Pd20  1  0.658493  0.658460  0.316953  1
  Pd  Pd21  1  0.341507  0.999968  0.658461  1
  Pd  Pd22  1  0.658612  0.341502  0.000116  1
