# generated using pymatgen
data_Ce6Al24Tc5Ir3
_symmetry_space_group_name_H-M   'P 1'
_cell_length_a   8.94877000
_cell_length_b   8.95977133
_cell_length_c   9.63765703
_cell_angle_alpha   89.13598051
_cell_angle_beta   90.00000000
_cell_angle_gamma   119.95938371
_symmetry_Int_Tables_number   1
_chemical_formula_structural   Ce6Al24Tc5Ir3
_chemical_formula_sum   'Ce6 Al24 Tc5 Ir3'
_cell_volume   669.38223123
_cell_formula_units_Z   1
loop_
 _symmetry_equiv_pos_site_id
 _symmetry_equiv_pos_as_xyz
  1  'x, y, z'
loop_
 _atom_site_type_symbol
 _atom_site_label
 _atom_site_symmetry_multiplicity
 _atom_site_fract_x
 _atom_site_fract_y
 _atom_site_fract_z
 _atom_site_occupancy
  Ce  Ce0  1  0.805735  0.611470  0.741443  1
  Ce  Ce1  1  0.194148  0.806218  0.248198  1
  Ce  Ce2  1  0.612071  0.806218  0.248198  1
  Ce  Ce3  1  0.387929  0.193782  0.751802  1
  Ce  Ce4  1  0.805852  0.193782  0.751802  1
  Ce  Ce5  1  0.194265  0.388530  0.258557  1
  Al  Al6  1  0.333973  0.667947  0.493812  1
  Al  Al7  1  0.667197  0.334394  0.990497  1
  Al  Al8  1  0.666027  0.332053  0.506188  1
  Al  Al9  1  0.332803  0.665606  0.009503  1
  Al  Al10  1  0.161340  0.322678  0.583437  1
  Al  Al11  1  0.675787  0.839065  0.577978  1
  Al  Al12  1  0.163278  0.839065  0.577978  1
  Al  Al13  1  0.840090  0.163022  0.079083  1
  Al  Al14  1  0.836722  0.160935  0.422022  1
  Al  Al15  1  0.837827  0.675655  0.074392  1
  Al  Al16  1  0.322932  0.163022  0.079083  1
  Al  Al17  1  0.677068  0.836978  0.920917  1
  Al  Al18  1  0.162173  0.324345  0.925608  1
  Al  Al19  1  0.838660  0.677322  0.416563  1
  Al  Al20  1  0.000382  0.000764  0.249844  1
  Al  Al21  1  0.999618  0.999236  0.750156  1
  Al  Al22  1  0.562790  0.125580  0.248205  1
  Al  Al23  1  0.437174  0.562315  0.750662  1
  Al  Al24  1  0.125141  0.562315  0.750662  1
  Al  Al25  1  0.874859  0.437685  0.249338  1
  Al  Al26  1  0.562826  0.437685  0.249338  1
  Al  Al27  1  0.437210  0.874420  0.751795  1
  Al  Al28  1  0.159910  0.836978  0.920917  1
  Al  Al29  1  0.324213  0.160935  0.422022  1
  Tc  Tc30  1  0.000000  0.000000  0.500000  1
  Tc  Tc31  1  0.000000  0.000000  0.000000  1
  Tc  Tc32  1  0.000000  0.500000  0.500000  1
  Tc  Tc33  1  0.500000  0.500000  0.500000  1
  Tc  Tc34  1  0.500000  0.000000  0.000000  1
  Ir  Ir35  1  0.500000  0.000000  0.500000  1
  Ir  Ir36  1  0.500000  0.500000  0.000000  1
  Ir  Ir37  1  0.000000  0.500000  0.000000  1
