# generated using pymatgen
data_K3Al4InI16
_symmetry_space_group_name_H-M   'P 1'
_cell_length_a   8.67692300
_cell_length_b   8.94784815
_cell_length_c   16.27345233
_cell_angle_alpha   89.90587060
_cell_angle_beta   90.00000000
_cell_angle_gamma   90.00000000
_symmetry_Int_Tables_number   1
_chemical_formula_structural   K3Al4InI16
_chemical_formula_sum   'K3 Al4 In1 I16'
_cell_volume   1263.46570671
_cell_formula_units_Z   1
loop_
 _symmetry_equiv_pos_site_id
 _symmetry_equiv_pos_as_xyz
  1  'x, y, z'
loop_
 _atom_site_type_symbol
 _atom_site_label
 _atom_site_symmetry_multiplicity
 _atom_site_fract_x
 _atom_site_fract_y
 _atom_site_fract_z
 _atom_site_occupancy
  K  K0  1  0.250000  0.444667  0.150360  1
  K  K1  1  0.750000  0.945485  0.349596  1
  K  K2  1  0.750000  0.552650  0.846834  1
  Al  Al3  1  0.250000  0.295003  0.892557  1
  Al  Al4  1  0.750000  0.801267  0.604525  1
  Al  Al5  1  0.750000  0.702771  0.103928  1
  Al  Al6  1  0.250000  0.201447  0.399181  1
  In  In7  1  0.250000  0.055975  0.650714  1
  I  I8  1  0.250000  0.127522  0.019205  1
  I  I9  1  0.750000  0.631199  0.479113  1
  I  I10  1  0.750000  0.869624  0.977355  1
  I  I11  1  0.250000  0.365906  0.527475  1
  I  I12  1  0.250000  0.924512  0.441282  1
  I  I13  1  0.750000  0.425662  0.062461  1
  I  I14  1  0.750000  0.077564  0.561600  1
  I  I15  1  0.250000  0.571923  0.934815  1
  I  I16  1  0.989902  0.759551  0.193313  1
  I  I17  1  0.010758  0.259290  0.310073  1
  I  I18  1  0.488324  0.237288  0.802585  1
  I  I19  1  0.509912  0.747282  0.693530  1
  I  I20  1  0.011676  0.237288  0.802585  1
  I  I21  1  0.990088  0.747282  0.693530  1
  I  I22  1  0.510098  0.759551  0.193313  1
  I  I23  1  0.489242  0.259290  0.310073  1
