# generated using pymatgen
data_Hf11Zr7(Si8W)2
_symmetry_space_group_name_H-M   'P 1'
_cell_length_a   7.03115409
_cell_length_b   7.03089501
_cell_length_c   12.86604103
_cell_angle_alpha   90.06416372
_cell_angle_beta   90.00647753
_cell_angle_gamma   89.80304965
_symmetry_Int_Tables_number   1
_chemical_formula_structural   Hf11Zr7(Si8W)2
_chemical_formula_sum   'Hf11 Zr7 Si16 W2'
_cell_volume   636.03251811
_cell_formula_units_Z   1
loop_
 _symmetry_equiv_pos_site_id
 _symmetry_equiv_pos_as_xyz
  1  'x, y, z'
loop_
 _atom_site_type_symbol
 _atom_site_label
 _atom_site_symmetry_multiplicity
 _atom_site_fract_x
 _atom_site_fract_y
 _atom_site_fract_z
 _atom_site_occupancy
  Hf  Hf0  1  0.824752  0.824734  0.499864  1
  Hf  Hf1  1  0.175123  0.175564  0.000242  1
  Hf  Hf2  1  0.998639  0.346551  0.217305  1
  Hf  Hf3  1  0.497640  0.355588  0.126884  1
  Hf  Hf4  1  0.502376  0.644466  0.626775  1
  Hf  Hf5  1  0.852502  0.002895  0.875408  1
  Hf  Hf6  1  0.147223  0.997191  0.374987  1
  Hf  Hf7  1  0.644786  0.502062  0.372861  1
  Hf  Hf8  1  0.355521  0.497611  0.873362  1
  Hf  Hf9  1  0.002747  0.852988  0.124803  1
  Hf  Hf10  1  0.997112  0.147548  0.624650  1
  Zr  Zr11  1  0.496256  0.152971  0.531152  1
  Zr  Zr12  1  0.503928  0.847311  0.031292  1
  Zr  Zr13  1  0.653731  0.002177  0.282580  1
  Zr  Zr14  1  0.346333  0.998081  0.782711  1
  Zr  Zr15  1  0.847191  0.503803  0.969076  1
  Zr  Zr16  1  0.152595  0.495842  0.468556  1
  Zr  Zr17  1  0.001974  0.653631  0.717275  1
  Si  Si18  1  0.796751  0.146813  0.071719  1
  Si  Si19  1  0.204116  0.854300  0.570953  1
  Si  Si20  1  0.646087  0.702082  0.821918  1
  Si  Si21  1  0.352971  0.298283  0.321627  1
  Si  Si22  1  0.854469  0.204338  0.428652  1
  Si  Si23  1  0.145662  0.795758  0.928986  1
  Si  Si24  1  0.702725  0.645736  0.177995  1
  Si  Si25  1  0.297981  0.353880  0.678156  1
  Si  Si26  1  0.551815  0.201922  0.934220  1
  Si  Si27  1  0.448282  0.798026  0.434049  1
  Si  Si28  1  0.697029  0.955530  0.686050  1
  Si  Si29  1  0.302707  0.044869  0.186028  1
  Si  Si30  1  0.798080  0.448228  0.565785  1
  Si  Si31  1  0.201085  0.550819  0.066445  1
  Si  Si32  1  0.955921  0.695870  0.313667  1
  Si  Si33  1  0.044397  0.302891  0.813999  1
  W  W34  1  0.675151  0.324723  0.750002  1
  W  W35  1  0.324339  0.674919  0.249962  1
