# generated using pymatgen
data_CaDy5YCo6Sn23
_symmetry_space_group_name_H-M   'P 1'
_cell_length_a   9.73350700
_cell_length_b   9.73350832
_cell_length_c   9.95875400
_cell_angle_alpha   90.00108887
_cell_angle_beta   89.99891188
_cell_angle_gamma   119.99966417
_symmetry_Int_Tables_number   1
_chemical_formula_structural   CaDy5YCo6Sn23
_chemical_formula_sum   'Ca1 Dy5 Y1 Co6 Sn23'
_cell_volume   817.10121442
_cell_formula_units_Z   1
loop_
 _symmetry_equiv_pos_site_id
 _symmetry_equiv_pos_as_xyz
  1  'x, y, z'
loop_
 _atom_site_type_symbol
 _atom_site_label
 _atom_site_symmetry_multiplicity
 _atom_site_fract_x
 _atom_site_fract_y
 _atom_site_fract_z
 _atom_site_occupancy
  Ca  Ca0  1  0.999999  0.000001  0.999999  1
  Dy  Dy1  1  0.520756  0.479244  0.694362  1
  Dy  Dy2  1  0.479249  0.958484  0.305647  1
  Dy  Dy3  1  0.520750  0.041515  0.694354  1
  Dy  Dy4  1  0.041516  0.520751  0.305647  1
  Dy  Dy5  1  0.958485  0.479250  0.694354  1
  Y  Y6  1  0.479226  0.520774  0.305655  1
  Co  Co7  1  0.831572  0.168428  0.198702  1
  Co  Co8  1  0.168428  0.831572  0.801299  1
  Co  Co9  1  0.831609  0.663150  0.198696  1
  Co  Co10  1  0.168429  0.336865  0.801297  1
  Co  Co11  1  0.336850  0.168391  0.198696  1
  Co  Co12  1  0.663135  0.831571  0.801297  1
  Sn  Sn13  1  0.345710  0.000005  0.999999  1
  Sn  Sn14  1  0.654290  0.999997  0.000001  1
  Sn  Sn15  1  0.000003  0.345710  0.000001  1
  Sn  Sn16  1  0.999995  0.654290  0.999999  1
  Sn  Sn17  1  0.654316  0.654313  0.999989  1
  Sn  Sn18  1  0.345687  0.345684  0.999989  1
  Sn  Sn19  1  0.333332  0.666668  0.816195  1
  Sn  Sn20  1  0.666676  0.333324  0.183804  1
  Sn  Sn21  1  0.999999  0.000001  0.500001  1
  Sn  Sn22  1  0.780989  0.219011  0.451807  1
  Sn  Sn23  1  0.219010  0.780990  0.548193  1
  Sn  Sn24  1  0.781017  0.561993  0.451813  1
  Sn  Sn25  1  0.218985  0.438004  0.548210  1
  Sn  Sn26  1  0.438007  0.218983  0.451813  1
  Sn  Sn27  1  0.561996  0.781015  0.548210  1
  Sn  Sn28  1  0.333319  0.666681  0.117993  1
  Sn  Sn29  1  0.666667  0.333333  0.881991  1
  Sn  Sn30  1  0.117311  0.882689  0.274545  1
  Sn  Sn31  1  0.882688  0.117312  0.725454  1
  Sn  Sn32  1  0.117308  0.234628  0.274553  1
  Sn  Sn33  1  0.882673  0.765355  0.725442  1
  Sn  Sn34  1  0.765372  0.882692  0.274553  1
  Sn  Sn35  1  0.234645  0.117327  0.725442  1
