# generated using pymatgen
data_PrUO4
_symmetry_space_group_name_H-M   'P 1'
_cell_length_a   5.72101100
_cell_length_b   8.01401721
_cell_length_c   8.12634017
_cell_angle_alpha   83.82539583
_cell_angle_beta   90.00000000
_cell_angle_gamma   90.00000000
_symmetry_Int_Tables_number   1
_chemical_formula_structural   PrUO4
_chemical_formula_sum   'Pr4 U4 O16'
_cell_volume   370.41729692
_cell_formula_units_Z   4
loop_
 _symmetry_equiv_pos_site_id
 _symmetry_equiv_pos_as_xyz
  1  'x, y, z'
loop_
 _atom_site_type_symbol
 _atom_site_label
 _atom_site_symmetry_multiplicity
 _atom_site_fract_x
 _atom_site_fract_y
 _atom_site_fract_z
 _atom_site_occupancy
  Pr  Pr0  1  0.270474  0.857955  0.887902  1
  Pr  Pr1  1  0.229526  0.857955  0.387902  1
  Pr  Pr2  1  0.770474  0.142045  0.612098  1
  Pr  Pr3  1  0.729526  0.142045  0.112098  1
  U  U4  1  0.774004  0.664404  0.684226  1
  U  U5  1  0.725996  0.664404  0.184226  1
  U  U6  1  0.274004  0.335596  0.815774  1
  U  U7  1  0.225996  0.335596  0.315774  1
  O  O8  1  0.093008  0.574499  0.813835  1
  O  O9  1  0.609101  0.675738  0.926519  1
  O  O10  1  0.406992  0.574499  0.313835  1
  O  O11  1  0.500241  0.830333  0.615006  1
  O  O12  1  0.890899  0.675738  0.426519  1
  O  O13  1  0.999759  0.830333  0.115006  1
  O  O14  1  0.986467  0.889629  0.667711  1
  O  O15  1  0.486467  0.110371  0.832289  1
  O  O16  1  0.513533  0.889629  0.167711  1
  O  O17  1  0.013533  0.110371  0.332289  1
  O  O18  1  0.000241  0.169667  0.884994  1
  O  O19  1  0.109101  0.324262  0.573481  1
  O  O20  1  0.499759  0.169667  0.384994  1
  O  O21  1  0.593008  0.425501  0.686165  1
  O  O22  1  0.390899  0.324262  0.073481  1
  O  O23  1  0.906992  0.425501  0.186165  1
