# generated using pymatgen
data_Yb2IO6
_symmetry_space_group_name_H-M   'P 1'
_cell_length_a   9.22111300
_cell_length_b   9.22111179
_cell_length_c   5.25504800
_cell_angle_alpha   90.00000000
_cell_angle_beta   90.00000000
_cell_angle_gamma   120.00000076
_symmetry_Int_Tables_number   1
_chemical_formula_structural   Yb2IO6
_chemical_formula_sum   'Yb6 I3 O18'
_cell_volume   386.96701451
_cell_formula_units_Z   3
loop_
 _symmetry_equiv_pos_site_id
 _symmetry_equiv_pos_as_xyz
  1  'x, y, z'
loop_
 _atom_site_type_symbol
 _atom_site_label
 _atom_site_symmetry_multiplicity
 _atom_site_fract_x
 _atom_site_fract_y
 _atom_site_fract_z
 _atom_site_occupancy
  Yb  Yb0  1  0.717369  0.717369  0.500000  1
  Yb  Yb1  1  0.000000  0.282631  0.500000  1
  Yb  Yb2  1  0.282631  0.000000  0.500000  1
  Yb  Yb3  1  0.372708  0.372708  0.000000  1
  Yb  Yb4  1  0.000000  0.627292  0.000000  1
  Yb  Yb5  1  0.627292  0.000000  0.000000  1
  I  I6  1  0.666667  0.333333  0.504820  1
  I  I7  1  0.333333  0.666667  0.495180  1
  I  I8  1  0.000000  0.000000  0.000000  1
  O  O9  1  0.754814  0.226671  0.709329  1
  O  O10  1  0.773329  0.528143  0.709329  1
  O  O11  1  0.471857  0.245186  0.709329  1
  O  O12  1  0.528143  0.773329  0.290671  1
  O  O13  1  0.245186  0.471857  0.290671  1
  O  O14  1  0.226671  0.754814  0.290671  1
  O  O15  1  0.588619  0.448266  0.297472  1
  O  O16  1  0.551734  0.140352  0.297472  1
  O  O17  1  0.859648  0.411381  0.297472  1
  O  O18  1  0.081292  0.887300  0.796198  1
  O  O19  1  0.112700  0.193992  0.796198  1
  O  O20  1  0.806008  0.918708  0.796198  1
  O  O21  1  0.193992  0.112700  0.203802  1
  O  O22  1  0.918708  0.806008  0.203802  1
  O  O23  1  0.887300  0.081292  0.203802  1
  O  O24  1  0.448266  0.588619  0.702528  1
  O  O25  1  0.411381  0.859648  0.702528  1
  O  O26  1  0.140352  0.551734  0.702528  1
