# generated using pymatgen
data_Sr20Cd3PtAu8
_symmetry_space_group_name_H-M   'P 1'
_cell_length_a   8.50169055
_cell_length_b   8.48298535
_cell_length_c   15.77339523
_cell_angle_alpha   89.92600859
_cell_angle_beta   90.00427347
_cell_angle_gamma   90.10471123
_symmetry_Int_Tables_number   1
_chemical_formula_structural   Sr20Cd3PtAu8
_chemical_formula_sum   'Sr20 Cd3 Pt1 Au8'
_cell_volume   1137.56993949
_cell_formula_units_Z   1
loop_
 _symmetry_equiv_pos_site_id
 _symmetry_equiv_pos_as_xyz
  1  'x, y, z'
loop_
 _atom_site_type_symbol
 _atom_site_label
 _atom_site_symmetry_multiplicity
 _atom_site_fract_x
 _atom_site_fract_y
 _atom_site_fract_z
 _atom_site_occupancy
  Sr  Sr0  1  0.000381  0.999638  0.756609  1
  Sr  Sr1  1  0.501654  0.495090  0.250977  1
  Sr  Sr2  1  0.994914  0.001790  0.243794  1
  Sr  Sr3  1  0.499868  0.500473  0.748418  1
  Sr  Sr4  1  0.175009  0.660076  0.108700  1
  Sr  Sr5  1  0.668613  0.167318  0.611753  1
  Sr  Sr6  1  0.819018  0.333719  0.111443  1
  Sr  Sr7  1  0.332012  0.833542  0.611042  1
  Sr  Sr8  1  0.346424  0.174700  0.110511  1
  Sr  Sr9  1  0.832803  0.668519  0.610635  1
  Sr  Sr10  1  0.660702  0.831558  0.110189  1
  Sr  Sr11  1  0.167032  0.331705  0.610717  1
  Sr  Sr12  1  0.340394  0.824495  0.893275  1
  Sr  Sr13  1  0.827058  0.325381  0.384059  1
  Sr  Sr14  1  0.660529  0.175840  0.892565  1
  Sr  Sr15  1  0.166220  0.667484  0.387024  1
  Sr  Sr16  1  0.176091  0.339555  0.893864  1
  Sr  Sr17  1  0.668007  0.840095  0.385038  1
  Sr  Sr18  1  0.823938  0.659868  0.893996  1
  Sr  Sr19  1  0.338103  0.166216  0.385378  1
  Cd  Cd20  1  0.000812  0.999932  0.499494  1
  Cd  Cd21  1  0.001292  0.999810  0.000368  1
  Cd  Cd22  1  0.499875  0.500884  0.499949  1
  Pt  Pt23  1  0.626873  0.128001  0.247839  1
  Au  Au24  1  0.128125  0.627803  0.752030  1
  Au  Au25  1  0.871955  0.372283  0.752036  1
  Au  Au26  1  0.373586  0.874077  0.247961  1
  Au  Au27  1  0.371429  0.128780  0.752009  1
  Au  Au28  1  0.870916  0.628152  0.248016  1
  Au  Au29  1  0.128482  0.371262  0.248039  1
  Au  Au30  1  0.628833  0.871329  0.752025  1
  Au  Au31  1  0.499053  0.500626  0.000245  1
