# generated using pymatgen
data_Li3Tb4As8Au
_symmetry_space_group_name_H-M   'P 1'
_cell_length_a   3.93066417
_cell_length_b   3.93066355
_cell_length_c   20.80972632
_cell_angle_alpha   90.05895121
_cell_angle_beta   89.94104951
_cell_angle_gamma   90.18889976
_symmetry_Int_Tables_number   1
_chemical_formula_structural   Li3Tb4As8Au
_chemical_formula_sum   'Li3 Tb4 As8 Au1'
_cell_volume   321.51064918
_cell_formula_units_Z   1
loop_
 _symmetry_equiv_pos_site_id
 _symmetry_equiv_pos_as_xyz
  1  'x, y, z'
loop_
 _atom_site_type_symbol
 _atom_site_label
 _atom_site_symmetry_multiplicity
 _atom_site_fract_x
 _atom_site_fract_y
 _atom_site_fract_z
 _atom_site_occupancy
  Li  Li0  1  0.228152  0.228152  0.750000  1
  Li  Li1  1  0.271035  0.271035  0.250000  1
  Li  Li2  1  0.771053  0.771053  0.250000  1
  Tb  Tb3  1  0.235589  0.729691  0.615513  1
  Tb  Tb4  1  0.767070  0.267675  0.385126  1
  Tb  Tb5  1  0.729691  0.235589  0.884487  1
  Tb  Tb6  1  0.267675  0.767070  0.114874  1
  As  As7  1  0.733440  0.228333  0.661895  1
  As  As8  1  0.269892  0.770447  0.332376  1
  As  As9  1  0.228333  0.733440  0.838105  1
  As  As10  1  0.770447  0.269892  0.167624  1
  As  As11  1  0.262693  0.230706  0.500631  1
  As  As12  1  0.230706  0.262693  0.999369  1
  As  As13  1  0.738882  0.770992  0.500364  1
  As  As14  1  0.770992  0.738882  0.999636  1
  Au  Au15  1  0.724350  0.724350  0.750000  1
