# generated using pymatgen
data_RbBr19
_symmetry_space_group_name_H-M   'P 1'
_cell_length_a   9.23618667
_cell_length_b   10.84053782
_cell_length_c   9.58768941
_cell_angle_alpha   68.87545366
_cell_angle_beta   81.54272552
_cell_angle_gamma   89.45251552
_symmetry_Int_Tables_number   1
_chemical_formula_structural   RbBr19
_chemical_formula_sum   'Rb1 Br19'
_cell_volume   884.73889692
_cell_formula_units_Z   1
loop_
 _symmetry_equiv_pos_site_id
 _symmetry_equiv_pos_as_xyz
  1  'x, y, z'
loop_
 _atom_site_type_symbol
 _atom_site_label
 _atom_site_symmetry_multiplicity
 _atom_site_fract_x
 _atom_site_fract_y
 _atom_site_fract_z
 _atom_site_occupancy
  Rb  Rb0  1  0.852942  0.664634  0.252370  1
  Br  Br1  1  0.354298  0.502377  0.559574  1
  Br  Br2  1  0.889925  0.470811  0.026069  1
  Br  Br3  1  0.598436  0.413777  0.544572  1
  Br  Br4  1  0.127320  0.564415  0.024864  1
  Br  Br5  1  0.076410  0.638459  0.552213  1
  Br  Br6  1  0.572311  0.333330  0.045826  1
  Br  Br7  1  0.898776  0.296398  0.510254  1
  Br  Br8  1  0.402782  0.687828  0.035255  1
  Br  Br9  1  0.169506  0.860852  0.546495  1
  Br  Br10  1  0.707463  0.126576  0.980376  1
  Br  Br11  1  0.817363  0.148496  0.404133  1
  Br  Br12  1  0.293097  0.894212  0.040094  1
  Br  Br13  1  0.263134  0.079724  0.559797  1
  Br  Br14  1  0.826443  0.955415  0.899991  1
  Br  Br15  1  0.685382  0.956925  0.296949  1
  Br  Br16  1  0.157131  0.111974  0.055581  1
  Br  Br17  1  0.655624  0.787794  0.543021  1
  Br  Br18  1  0.241299  0.294238  0.819483  1
  Br  Br19  1  0.410359  0.211765  0.303085  1
