# generated using pymatgen
data_TbNd3MoRuO12
_symmetry_space_group_name_H-M   'P 1'
_cell_length_a   5.53007764
_cell_length_b   10.17209077
_cell_length_c   10.17204683
_cell_angle_alpha   68.88167789
_cell_angle_beta   75.05817635
_cell_angle_gamma   75.05825914
_symmetry_Int_Tables_number   1
_chemical_formula_structural   TbNd3MoRuO12
_chemical_formula_sum   'Tb2 Nd6 Mo2 Ru2 O24'
_cell_volume   507.01541709
_cell_formula_units_Z   2
loop_
 _symmetry_equiv_pos_site_id
 _symmetry_equiv_pos_as_xyz
  1  'x, y, z'
loop_
 _atom_site_type_symbol
 _atom_site_label
 _atom_site_symmetry_multiplicity
 _atom_site_fract_x
 _atom_site_fract_y
 _atom_site_fract_z
 _atom_site_occupancy
  Tb  Tb0  1  0.750000  0.397173  0.602828  1
  Tb  Tb1  1  0.250000  0.602350  0.397649  1
  Nd  Nd2  1  0.621350  0.786201  0.558508  1
  Nd  Nd3  1  0.123337  0.556558  0.787181  1
  Nd  Nd4  1  0.376661  0.212821  0.443441  1
  Nd  Nd5  1  0.878649  0.441495  0.213798  1
  Nd  Nd6  1  0.750000  0.865931  0.134068  1
  Nd  Nd7  1  0.250003  0.137704  0.862295  1
  Mo  Mo8  1  0.937594  0.993275  0.702319  1
  Mo  Mo9  1  0.562404  0.297683  0.006725  1
  Ru  Ru10  1  0.061261  0.002231  0.298273  1
  Ru  Ru11  1  0.438742  0.701728  0.997764  1
  O  O12  1  0.926998  0.571257  0.606295  1
  O  O13  1  0.573003  0.393703  0.428744  1
  O  O14  1  0.074866  0.428377  0.392168  1
  O  O15  1  0.425136  0.607834  0.571623  1
  O  O16  1  0.933050  0.806959  0.336244  1
  O  O17  1  0.566952  0.663754  0.193042  1
  O  O18  1  0.064223  0.194235  0.661428  1
  O  O19  1  0.435779  0.338574  0.805763  1
  O  O20  1  0.369385  0.889796  0.331471  1
  O  O21  1  0.130617  0.668530  0.110206  1
  O  O22  1  0.627205  0.111342  0.670929  1
  O  O23  1  0.872794  0.329072  0.888658  1
  O  O24  1  0.628971  0.290153  0.177383  1
  O  O25  1  0.871027  0.822617  0.709848  1
  O  O26  1  0.364547  0.713248  0.823046  1
  O  O27  1  0.135451  0.176955  0.286752  1
  O  O28  1  0.525671  0.115210  0.041270  1
  O  O29  1  0.974327  0.958731  0.884791  1
  O  O30  1  0.771024  0.025278  0.429272  1
  O  O31  1  0.020375  0.044556  0.116167  1
  O  O32  1  0.256794  0.424210  0.024097  1
  O  O33  1  0.243209  0.975901  0.575792  1
  O  O34  1  0.728976  0.570727  0.974722  1
  O  O35  1  0.479626  0.883834  0.955444  1
