# generated using pymatgen
data_Ho3Sc7(Si5Ir2)4
_symmetry_space_group_name_H-M   'P 1'
_cell_length_a   12.45292366
_cell_length_b   12.45292366
_cell_length_c   4.13852000
_cell_angle_alpha   90.00000000
_cell_angle_beta   90.00000000
_cell_angle_gamma   90.05923315
_symmetry_Int_Tables_number   1
_chemical_formula_structural   Ho3Sc7(Si5Ir2)4
_chemical_formula_sum   'Ho3 Sc7 Si20 Ir8'
_cell_volume   641.78191977
_cell_formula_units_Z   1
loop_
 _symmetry_equiv_pos_site_id
 _symmetry_equiv_pos_as_xyz
  1  'x, y, z'
loop_
 _atom_site_type_symbol
 _atom_site_label
 _atom_site_symmetry_multiplicity
 _atom_site_fract_x
 _atom_site_fract_y
 _atom_site_fract_z
 _atom_site_occupancy
  Ho  Ho0  1  0.115686  0.615663  0.500000  1
  Ho  Ho1  1  0.884337  0.384314  0.500000  1
  Ho  Ho2  1  0.615344  0.884656  0.500000  1
  Sc  Sc3  1  0.384772  0.115228  0.500000  1
  Sc  Sc4  1  0.673533  0.174255  0.500000  1
  Sc  Sc5  1  0.325745  0.826467  0.500000  1
  Sc  Sc6  1  0.175005  0.324995  0.500000  1
  Sc  Sc7  1  0.825687  0.674313  0.500000  1
  Sc  Sc8  1  0.000274  0.000049  0.000000  1
  Sc  Sc9  1  0.499951  0.499726  0.000000  1
  Si  Si10  1  0.566032  0.067665  0.000000  1
  Si  Si11  1  0.432335  0.933968  0.000000  1
  Si  Si12  1  0.067730  0.432270  0.000000  1
  Si  Si13  1  0.932613  0.567387  0.000000  1
  Si  Si14  1  0.200977  0.165185  0.000000  1
  Si  Si15  1  0.800345  0.834485  0.000000  1
  Si  Si16  1  0.165964  0.801197  0.000000  1
  Si  Si17  1  0.698803  0.334036  0.000000  1
  Si  Si18  1  0.834084  0.199663  0.000000  1
  Si  Si19  1  0.300337  0.665916  0.000000  1
  Si  Si20  1  0.665515  0.699655  0.000000  1
  Si  Si21  1  0.334815  0.299023  0.000000  1
  Si  Si22  1  0.007456  0.150636  0.500000  1
  Si  Si23  1  0.992902  0.849402  0.500000  1
  Si  Si24  1  0.152297  0.993789  0.500000  1
  Si  Si25  1  0.506211  0.347703  0.500000  1
  Si  Si26  1  0.848931  0.007795  0.500000  1
  Si  Si27  1  0.492205  0.651069  0.500000  1
  Si  Si28  1  0.650598  0.507098  0.500000  1
  Si  Si29  1  0.349364  0.492544  0.500000  1
  Ir  Ir30  1  0.020781  0.244035  0.000000  1
  Ir  Ir31  1  0.979799  0.755852  0.000000  1
  Ir  Ir32  1  0.245990  0.980773  0.000000  1
  Ir  Ir33  1  0.519227  0.254010  0.000000  1
  Ir  Ir34  1  0.754716  0.020474  0.000000  1
  Ir  Ir35  1  0.479526  0.745284  0.000000  1
  Ir  Ir36  1  0.744148  0.520201  0.000000  1
  Ir  Ir37  1  0.255965  0.479219  0.000000  1
