# generated using pymatgen
data_Tm3Sc7ReHg3
_symmetry_space_group_name_H-M   'P 1'
_cell_length_a   9.13394700
_cell_length_b   9.13394663
_cell_length_c   9.27699500
_cell_angle_alpha   90.00000000
_cell_angle_beta   90.00000000
_cell_angle_gamma   119.99999772
_symmetry_Int_Tables_number   1
_chemical_formula_structural   Tm3Sc7ReHg3
_chemical_formula_sum   'Tm6 Sc14 Re2 Hg6'
_cell_volume   670.27793212
_cell_formula_units_Z   2
loop_
 _symmetry_equiv_pos_site_id
 _symmetry_equiv_pos_as_xyz
  1  'x, y, z'
loop_
 _atom_site_type_symbol
 _atom_site_label
 _atom_site_symmetry_multiplicity
 _atom_site_fract_x
 _atom_site_fract_y
 _atom_site_fract_z
 _atom_site_occupancy
  Tm  Tm0  1  0.536294  0.463706  0.250000  1
  Tm  Tm1  1  0.536294  0.072588  0.250000  1
  Tm  Tm2  1  0.927412  0.463706  0.250000  1
  Tm  Tm3  1  0.463706  0.536294  0.750000  1
  Tm  Tm4  1  0.463706  0.927412  0.750000  1
  Tm  Tm5  1  0.072588  0.536294  0.750000  1
  Sc  Sc6  1  0.000000  0.000000  0.500000  1
  Sc  Sc7  1  0.000000  0.000000  0.000000  1
  Sc  Sc8  1  0.209939  0.790061  0.442416  1
  Sc  Sc9  1  0.209939  0.419879  0.442416  1
  Sc  Sc10  1  0.580121  0.790061  0.442416  1
  Sc  Sc11  1  0.790061  0.209939  0.557584  1
  Sc  Sc12  1  0.790061  0.580121  0.557584  1
  Sc  Sc13  1  0.419879  0.209939  0.557584  1
  Sc  Sc14  1  0.790061  0.209939  0.942416  1
  Sc  Sc15  1  0.790061  0.580121  0.942416  1
  Sc  Sc16  1  0.419879  0.209939  0.942416  1
  Sc  Sc17  1  0.209939  0.790061  0.057584  1
  Sc  Sc18  1  0.209939  0.419879  0.057584  1
  Sc  Sc19  1  0.580121  0.790061  0.057584  1
  Re  Re20  1  0.333333  0.666667  0.250000  1
  Re  Re21  1  0.666667  0.333333  0.750000  1
  Hg  Hg22  1  0.884664  0.115336  0.250000  1
  Hg  Hg23  1  0.884664  0.769329  0.250000  1
  Hg  Hg24  1  0.230671  0.115336  0.250000  1
  Hg  Hg25  1  0.115336  0.884664  0.750000  1
  Hg  Hg26  1  0.115336  0.230671  0.750000  1
  Hg  Hg27  1  0.769329  0.884664  0.750000  1
