# generated using pymatgen
data_Sm3Th(TcB2)6
_symmetry_space_group_name_H-M   'P 1'
_cell_length_a   6.27370469
_cell_length_b   6.28555096
_cell_length_c   7.60234997
_cell_angle_alpha   89.32254271
_cell_angle_beta   89.31999225
_cell_angle_gamma   114.48846285
_symmetry_Int_Tables_number   1
_chemical_formula_structural   Sm3Th(TcB2)6
_chemical_formula_sum   'Sm3 Th1 Tc6 B12'
_cell_volume   272.75575403
_cell_formula_units_Z   1
loop_
 _symmetry_equiv_pos_site_id
 _symmetry_equiv_pos_as_xyz
  1  'x, y, z'
loop_
 _atom_site_type_symbol
 _atom_site_label
 _atom_site_symmetry_multiplicity
 _atom_site_fract_x
 _atom_site_fract_y
 _atom_site_fract_z
 _atom_site_occupancy
  Sm  Sm0  1  0.903734  0.560270  0.325697  1
  Sm  Sm1  1  0.561632  0.903037  0.821484  1
  Sm  Sm2  1  0.095147  0.439319  0.676023  1
  Th  Th3  1  0.436232  0.090197  0.173114  1
  Tc  Tc4  1  0.803433  0.989368  0.411599  1
  Tc  Tc5  1  0.010645  0.197662  0.088407  1
  Tc  Tc6  1  0.197092  0.010828  0.587693  1
  Tc  Tc7  1  0.990169  0.803855  0.911834  1
  Tc  Tc8  1  0.414580  0.585656  0.249989  1
  Tc  Tc9  1  0.586010  0.414290  0.750806  1
  B  B10  1  0.149803  0.244692  0.371356  1
  B  B11  1  0.757638  0.848218  0.129319  1
  B  B12  1  0.848950  0.756739  0.630581  1
  B  B13  1  0.241538  0.152479  0.866300  1
  B  B14  1  0.158171  0.583748  0.018701  1
  B  B15  1  0.416666  0.840602  0.484430  1
  B  B16  1  0.841957  0.418663  0.981971  1
  B  B17  1  0.584708  0.159467  0.519623  1
  B  B18  1  0.350030  0.442358  0.965946  1
  B  B19  1  0.558398  0.649659  0.533635  1
  B  B20  1  0.650839  0.558351  0.033430  1
  B  B21  1  0.442629  0.350542  0.468060  1
