# generated using pymatgen
data_Zr2SiNiBr2
_symmetry_space_group_name_H-M   'P 1'
_cell_length_a   3.82068100
_cell_length_b   3.82068042
_cell_length_c   10.63979900
_cell_angle_alpha   90.00000000
_cell_angle_beta   90.00000000
_cell_angle_gamma   119.99997906
_symmetry_Int_Tables_number   1
_chemical_formula_structural   Zr2SiNiBr2
_chemical_formula_sum   'Zr2 Si1 Ni1 Br2'
_cell_volume   134.50723282
_cell_formula_units_Z   1
loop_
 _symmetry_equiv_pos_site_id
 _symmetry_equiv_pos_as_xyz
  1  'x, y, z'
loop_
 _atom_site_type_symbol
 _atom_site_label
 _atom_site_symmetry_multiplicity
 _atom_site_fract_x
 _atom_site_fract_y
 _atom_site_fract_z
 _atom_site_occupancy
  Zr  Zr0  1  0.000000  0.000000  0.840993  1
  Zr  Zr1  1  0.000000  0.000000  0.167097  1
  Si  Si2  1  0.666667  0.333333  0.014443  1
  Ni  Ni3  1  0.333333  0.666667  0.976657  1
  Br  Br4  1  0.333333  0.666667  0.334359  1
  Br  Br5  1  0.666667  0.333333  0.666451  1
