# generated using pymatgen
data_Na3GeAsPt2
_symmetry_space_group_name_H-M   'P 1'
_cell_length_a   5.94840100
_cell_length_b   7.72063000
_cell_length_c   13.22076200
_cell_angle_alpha   90.00000000
_cell_angle_beta   90.00000000
_cell_angle_gamma   90.00000000
_symmetry_Int_Tables_number   1
_chemical_formula_structural   Na3GeAsPt2
_chemical_formula_sum   'Na12 Ge4 As4 Pt8'
_cell_volume   607.16882563
_cell_formula_units_Z   4
loop_
 _symmetry_equiv_pos_site_id
 _symmetry_equiv_pos_as_xyz
  1  'x, y, z'
loop_
 _atom_site_type_symbol
 _atom_site_label
 _atom_site_symmetry_multiplicity
 _atom_site_fract_x
 _atom_site_fract_y
 _atom_site_fract_z
 _atom_site_occupancy
  Na  Na0  1  0.645344  0.222558  0.250000  1
  Na  Na1  1  0.354656  0.777442  0.750000  1
  Na  Na2  1  0.354656  0.722558  0.250000  1
  Na  Na3  1  0.645344  0.277442  0.750000  1
  Na  Na4  1  0.126381  0.389596  0.101845  1
  Na  Na5  1  0.873619  0.610404  0.898155  1
  Na  Na6  1  0.873619  0.610404  0.601845  1
  Na  Na7  1  0.873619  0.889596  0.398155  1
  Na  Na8  1  0.126381  0.389596  0.398155  1
  Na  Na9  1  0.126381  0.110404  0.601845  1
  Na  Na10  1  0.126381  0.110404  0.898155  1
  Na  Na11  1  0.873619  0.889596  0.101845  1
  Ge  Ge12  1  0.582797  0.250000  0.000000  1
  Ge  Ge13  1  0.417203  0.750000  0.000000  1
  Ge  Ge14  1  0.417203  0.750000  0.500000  1
  Ge  Ge15  1  0.582797  0.250000  0.500000  1
  As  As16  1  0.160911  0.077879  0.250000  1
  As  As17  1  0.839089  0.922121  0.750000  1
  As  As18  1  0.839089  0.577879  0.250000  1
  As  As19  1  0.160911  0.422121  0.750000  1
  Pt  Pt20  1  0.368824  0.024364  0.093972  1
  Pt  Pt21  1  0.631176  0.975636  0.906028  1
  Pt  Pt22  1  0.631176  0.975636  0.593972  1
  Pt  Pt23  1  0.631176  0.524364  0.406028  1
  Pt  Pt24  1  0.368824  0.024364  0.406028  1
  Pt  Pt25  1  0.368824  0.475636  0.593972  1
  Pt  Pt26  1  0.368824  0.475636  0.906028  1
  Pt  Pt27  1  0.631176  0.524364  0.093972  1
