# generated using pymatgen
data_PuCuNi3Au
_symmetry_space_group_name_H-M   'P 1'
_cell_length_a   5.00061406
_cell_length_b   5.00061381
_cell_length_c   4.96454124
_cell_angle_alpha   59.75934879
_cell_angle_beta   59.75934556
_cell_angle_gamma   59.99999415
_symmetry_Int_Tables_number   1
_chemical_formula_structural   PuCuNi3Au
_chemical_formula_sum   'Pu1 Cu1 Ni3 Au1'
_cell_volume   87.46240462
_cell_formula_units_Z   1
loop_
 _symmetry_equiv_pos_site_id
 _symmetry_equiv_pos_as_xyz
  1  'x, y, z'
loop_
 _atom_site_type_symbol
 _atom_site_label
 _atom_site_symmetry_multiplicity
 _atom_site_fract_x
 _atom_site_fract_y
 _atom_site_fract_z
 _atom_site_occupancy
  Pu  Pu0  1  0.999944  0.999944  0.000167  1
  Cu  Cu1  1  0.623524  0.623524  0.129429  1
  Ni  Ni2  1  0.625232  0.125053  0.624483  1
  Ni  Ni3  1  0.125053  0.625232  0.624483  1
  Ni  Ni4  1  0.625232  0.625232  0.624483  1
  Au  Au5  1  0.251015  0.251015  0.246954  1
