# generated using pymatgen
data_Ba2NpS6
_symmetry_space_group_name_H-M   'P 1'
_cell_length_a   5.45408600
_cell_length_b   5.45311600
_cell_length_c   15.95934400
_cell_angle_alpha   90.00000000
_cell_angle_beta   90.00000000
_cell_angle_gamma   90.00000000
_symmetry_Int_Tables_number   1
_chemical_formula_structural   Ba2NpS6
_chemical_formula_sum   'Ba4 Np2 S12'
_cell_volume   474.65903697
_cell_formula_units_Z   2
loop_
 _symmetry_equiv_pos_site_id
 _symmetry_equiv_pos_as_xyz
  1  'x, y, z'
loop_
 _atom_site_type_symbol
 _atom_site_label
 _atom_site_symmetry_multiplicity
 _atom_site_fract_x
 _atom_site_fract_y
 _atom_site_fract_z
 _atom_site_occupancy
  Ba  Ba0  1  0.000000  0.000000  0.133354  1
  Ba  Ba1  1  0.500000  0.500000  0.633355  1
  Ba  Ba2  1  0.500000  0.500000  0.366646  1
  Ba  Ba3  1  0.000000  0.000000  0.866645  1
  Np  Np4  1  0.000000  0.000000  0.499983  1
  Np  Np5  1  0.500000  0.500000  0.000017  1
  S  S6  1  0.309477  0.500000  0.163821  1
  S  S7  1  0.690523  0.500000  0.163821  1
  S  S8  1  0.000000  0.809470  0.663827  1
  S  S9  1  0.000000  0.190530  0.663827  1
  S  S10  1  0.190523  0.000000  0.336179  1
  S  S11  1  0.809477  0.000000  0.336179  1
  S  S12  1  0.500000  0.690530  0.836173  1
  S  S13  1  0.500000  0.309470  0.836173  1
  S  S14  1  0.000000  0.500000  0.979963  1
  S  S15  1  0.000000  0.500000  0.479963  1
  S  S16  1  0.500000  0.000000  0.520037  1
  S  S17  1  0.500000  0.000000  0.020037  1
