# generated using pymatgen
data_Dy17Ho3Si15Ag
_symmetry_space_group_name_H-M   'P 1'
_cell_length_a   7.46018753
_cell_length_b   7.69771625
_cell_length_c   14.66069875
_cell_angle_alpha   89.83741399
_cell_angle_beta   89.45482770
_cell_angle_gamma   90.16842296
_symmetry_Int_Tables_number   1
_chemical_formula_structural   Dy17Ho3Si15Ag
_chemical_formula_sum   'Dy17 Ho3 Si15 Ag1'
_cell_volume   841.86604394
_cell_formula_units_Z   1
loop_
 _symmetry_equiv_pos_site_id
 _symmetry_equiv_pos_as_xyz
  1  'x, y, z'
loop_
 _atom_site_type_symbol
 _atom_site_label
 _atom_site_symmetry_multiplicity
 _atom_site_fract_x
 _atom_site_fract_y
 _atom_site_fract_z
 _atom_site_occupancy
  Dy  Dy0  1  0.349861  0.011717  0.750011  1
  Dy  Dy1  1  0.975689  0.822796  0.101357  1
  Dy  Dy2  1  0.471418  0.683811  0.401148  1
  Dy  Dy3  1  0.520916  0.315120  0.898793  1
  Dy  Dy4  1  0.029875  0.182460  0.598562  1
  Dy  Dy5  1  0.029970  0.176402  0.899834  1
  Dy  Dy6  1  0.529624  0.316388  0.598405  1
  Dy  Dy7  1  0.473416  0.682798  0.100790  1
  Dy  Dy8  1  0.969455  0.816779  0.400052  1
  Dy  Dy9  1  0.675778  0.825434  0.876155  1
  Dy  Dy10  1  0.181613  0.680137  0.621707  1
  Dy  Dy11  1  0.820415  0.323949  0.124190  1
  Dy  Dy12  1  0.317788  0.178282  0.377259  1
  Dy  Dy13  1  0.322789  0.178653  0.123620  1
  Dy  Dy14  1  0.819324  0.320487  0.377310  1
  Dy  Dy15  1  0.182039  0.675936  0.877756  1
  Dy  Dy16  1  0.681854  0.820961  0.622301  1
  Ho  Ho17  1  0.648301  0.990997  0.249984  1
  Ho  Ho18  1  0.150134  0.511317  0.248157  1
  Ho  Ho19  1  0.848325  0.488578  0.749575  1
  Si  Si20  1  0.766192  0.628967  0.251596  1
  Si  Si21  1  0.266866  0.872607  0.251237  1
  Si  Si22  1  0.734181  0.126296  0.748739  1
  Si  Si23  1  0.231032  0.373543  0.747584  1
  Si  Si24  1  0.021638  0.104650  0.250424  1
  Si  Si25  1  0.523156  0.396281  0.252162  1
  Si  Si26  1  0.475852  0.603971  0.748149  1
  Si  Si27  1  0.977057  0.892757  0.748584  1
  Si  Si28  1  0.354580  0.971517  0.540155  1
  Si  Si29  1  0.650054  0.028459  0.041551  1
  Si  Si30  1  0.146583  0.470515  0.459914  1
  Si  Si31  1  0.158244  0.471047  0.042593  1
  Si  Si32  1  0.645616  0.028582  0.459182  1
  Si  Si33  1  0.351462  0.969282  0.961203  1
  Si  Si34  1  0.855217  0.529552  0.539160  1
  Ag  Ag35  1  0.843683  0.528972  0.960799  1
