# generated using pymatgen
data_Lu12ZnCo2Si2Sn
_symmetry_space_group_name_H-M   'P 1'
_cell_length_a   8.23475559
_cell_length_b   8.23475487
_cell_length_c   8.23475524
_cell_angle_alpha   113.54229152
_cell_angle_beta   111.21076328
_cell_angle_gamma   103.81421979
_symmetry_Int_Tables_number   1
_chemical_formula_structural   Lu12ZnCo2Si2Sn
_chemical_formula_sum   'Lu12 Zn1 Co2 Si2 Sn1'
_cell_volume   426.56534342
_cell_formula_units_Z   1
loop_
 _symmetry_equiv_pos_site_id
 _symmetry_equiv_pos_as_xyz
  1  'x, y, z'
loop_
 _atom_site_type_symbol
 _atom_site_label
 _atom_site_symmetry_multiplicity
 _atom_site_fract_x
 _atom_site_fract_y
 _atom_site_fract_z
 _atom_site_occupancy
  Lu  Lu0  1  0.434564  0.237469  0.197093  1
  Lu  Lu1  1  0.565436  0.762531  0.802907  1
  Lu  Lu2  1  0.040376  0.237469  0.802907  1
  Lu  Lu3  1  0.959624  0.762531  0.197093  1
  Lu  Lu4  1  0.182609  0.284568  0.467179  1
  Lu  Lu5  1  0.817391  0.715432  0.532821  1
  Lu  Lu6  1  0.182609  0.715432  0.898041  1
  Lu  Lu7  1  0.817391  0.284568  0.101959  1
  Lu  Lu8  1  0.305521  0.617153  0.311633  1
  Lu  Lu9  1  0.694479  0.382847  0.688367  1
  Lu  Lu10  1  0.305521  0.993887  0.688367  1
  Lu  Lu11  1  0.694479  0.006113  0.311633  1
  Zn  Zn12  1  0.000000  0.000000  0.000000  1
  Co  Co13  1  0.109637  0.609637  0.500000  1
  Co  Co14  1  0.890363  0.390363  0.500000  1
  Si  Si15  1  0.356135  0.000000  0.356135  1
  Si  Si16  1  0.643865  0.000000  0.643865  1
  Sn  Sn17  1  0.500000  0.500000  0.000000  1
