# generated using pymatgen
data_Tm5Zr5(Sn3N)2
_symmetry_space_group_name_H-M   'P 1'
_cell_length_a   8.66793252
_cell_length_b   8.64140676
_cell_length_c   6.00836000
_cell_angle_alpha   90.00000000
_cell_angle_beta   90.00000000
_cell_angle_gamma   119.89881644
_symmetry_Int_Tables_number   1
_chemical_formula_structural   Tm5Zr5(Sn3N)2
_chemical_formula_sum   'Tm5 Zr5 Sn6 N2'
_cell_volume   390.14715903
_cell_formula_units_Z   1
loop_
 _symmetry_equiv_pos_site_id
 _symmetry_equiv_pos_as_xyz
  1  'x, y, z'
loop_
 _atom_site_type_symbol
 _atom_site_label
 _atom_site_symmetry_multiplicity
 _atom_site_fract_x
 _atom_site_fract_y
 _atom_site_fract_z
 _atom_site_occupancy
  Tm  Tm0  1  0.783093  0.781387  0.750000  1
  Tm  Tm1  1  0.216907  0.998294  0.750000  1
  Tm  Tm2  1  0.000000  0.215981  0.750000  1
  Tm  Tm3  1  0.217252  0.216209  0.250000  1
  Tm  Tm4  1  0.782748  0.998957  0.250000  1
  Zr  Zr5  1  0.667940  0.334988  0.000389  1
  Zr  Zr6  1  0.332060  0.667049  0.000389  1
  Zr  Zr7  1  0.332060  0.667049  0.499611  1
  Zr  Zr8  1  0.667940  0.334988  0.499611  1
  Zr  Zr9  1  0.000000  0.785006  0.250000  1
  Sn  Sn10  1  0.406928  0.406664  0.750000  1
  Sn  Sn11  1  0.593072  0.999737  0.750000  1
  Sn  Sn12  1  0.000000  0.593697  0.750000  1
  Sn  Sn13  1  0.598037  0.596064  0.250000  1
  Sn  Sn14  1  0.401963  0.998026  0.250000  1
  Sn  Sn15  1  0.000000  0.409789  0.250000  1
  N  N16  1  0.000000  0.998056  0.002736  1
  N  N17  1  0.000000  0.998056  0.497264  1
