# generated using pymatgen
data_Ta2Nb3Zn(B2Ru5)2
_symmetry_space_group_name_H-M   'P 1'
_cell_length_a   9.39786583
_cell_length_b   9.39742083
_cell_length_c   3.01278900
_cell_angle_alpha   90.00000000
_cell_angle_beta   90.00000000
_cell_angle_gamma   90.11615672
_symmetry_Int_Tables_number   1
_chemical_formula_structural   Ta2Nb3Zn(B2Ru5)2
_chemical_formula_sum   'Ta2 Nb3 Zn1 B4 Ru10'
_cell_volume   266.07602291
_cell_formula_units_Z   1
loop_
 _symmetry_equiv_pos_site_id
 _symmetry_equiv_pos_as_xyz
  1  'x, y, z'
loop_
 _atom_site_type_symbol
 _atom_site_label
 _atom_site_symmetry_multiplicity
 _atom_site_fract_x
 _atom_site_fract_y
 _atom_site_fract_z
 _atom_site_occupancy
  Ta  Ta0  1  0.675174  0.179538  0.000000  1
  Ta  Ta1  1  0.000015  0.999819  0.000000  1
  Nb  Nb2  1  0.820449  0.675120  0.000000  1
  Nb  Nb3  1  0.179457  0.324670  0.000000  1
  Nb  Nb4  1  0.325122  0.821149  0.000000  1
  Zn  Zn5  1  0.499820  0.500388  0.000000  1
  B  B6  1  0.616031  0.869703  0.000000  1
  B  B7  1  0.384049  0.130093  0.000000  1
  B  B8  1  0.130174  0.615939  0.000000  1
  B  B9  1  0.870062  0.384169  0.000000  1
  Ru  Ru10  1  0.500855  0.000814  0.500000  1
  Ru  Ru11  1  0.999795  0.499748  0.500000  1
  Ru  Ru12  1  0.568656  0.715578  0.500000  1
  Ru  Ru13  1  0.432575  0.284405  0.500000  1
  Ru  Ru14  1  0.071232  0.780283  0.500000  1
  Ru  Ru15  1  0.927279  0.219089  0.500000  1
  Ru  Ru16  1  0.284474  0.568628  0.500000  1
  Ru  Ru17  1  0.714803  0.429844  0.500000  1
  Ru  Ru18  1  0.219752  0.071365  0.500000  1
  Ru  Ru19  1  0.780226  0.929657  0.500000  1
