# generated using pymatgen
data_Sr2Ca2Bi2O
_symmetry_space_group_name_H-M   'P 1'
_cell_length_a   4.87269733
_cell_length_b   4.87137289
_cell_length_c   9.18754400
_cell_angle_alpha   105.36245409
_cell_angle_beta   105.37044297
_cell_angle_gamma   90.01127120
_symmetry_Int_Tables_number   1
_chemical_formula_structural   Sr2Ca2Bi2O
_chemical_formula_sum   'Sr2 Ca2 Bi2 O1'
_cell_volume   202.18600757
_cell_formula_units_Z   1
loop_
 _symmetry_equiv_pos_site_id
 _symmetry_equiv_pos_as_xyz
  1  'x, y, z'
loop_
 _atom_site_type_symbol
 _atom_site_label
 _atom_site_symmetry_multiplicity
 _atom_site_fract_x
 _atom_site_fract_y
 _atom_site_fract_z
 _atom_site_occupancy
  Sr  Sr0  1  0.163864  0.163841  0.327441  1
  Sr  Sr1  1  0.836128  0.836154  0.672561  1
  Ca  Ca2  1  0.500000  0.999999  0.999999  1
  Ca  Ca3  1  0.000002  0.500001  0.000001  1
  Bi  Bi4  1  0.635747  0.635713  0.270979  1
  Bi  Bi5  1  0.364250  0.364283  0.729020  1
  O  O6  1  0.000005  0.000001  0.999998  1
