# generated using pymatgen
data_Dy5AlZnRu3
_symmetry_space_group_name_H-M   'P 1'
_cell_length_a   8.34561160
_cell_length_b   8.34561212
_cell_length_c   8.29096081
_cell_angle_alpha   109.49850543
_cell_angle_beta   109.48305070
_cell_angle_gamma   109.69782686
_symmetry_Int_Tables_number   1
_chemical_formula_structural   Dy5AlZnRu3
_chemical_formula_sum   'Dy10 Al2 Zn2 Ru6'
_cell_volume   443.06300741
_cell_formula_units_Z   2
loop_
 _symmetry_equiv_pos_site_id
 _symmetry_equiv_pos_as_xyz
  1  'x, y, z'
loop_
 _atom_site_type_symbol
 _atom_site_label
 _atom_site_symmetry_multiplicity
 _atom_site_fract_x
 _atom_site_fract_y
 _atom_site_fract_z
 _atom_site_occupancy
  Dy  Dy0  1  0.251917  0.682480  0.435045  1
  Dy  Dy1  1  0.747435  0.816871  0.064955  1
  Dy  Dy2  1  0.432623  0.251249  0.683784  1
  Dy  Dy3  1  0.682431  0.432431  0.250000  1
  Dy  Dy4  1  0.067465  0.748839  0.816216  1
  Dy  Dy5  1  0.816501  0.066501  0.750000  1
  Dy  Dy6  1  0.218367  0.219287  0.218490  1
  Dy  Dy7  1  0.500797  0.999877  0.281510  1
  Dy  Dy8  1  0.282036  0.499518  0.999272  1
  Dy  Dy9  1  0.000246  0.282763  0.500728  1
  Al  Al10  1  0.910972  0.501612  0.002124  1
  Al  Al11  1  0.999487  0.908846  0.497876  1
  Zn  Zn12  1  0.589366  0.587707  0.587721  1
  Zn  Zn13  1  0.499985  0.001644  0.912279  1
  Ru  Ru14  1  0.243266  0.123751  0.871779  1
  Ru  Ru15  1  0.751972  0.371487  0.628221  1
  Ru  Ru16  1  0.882335  0.257508  0.128436  1
  Ru  Ru17  1  0.123897  0.873896  0.250000  1
  Ru  Ru18  1  0.629072  0.753900  0.371564  1
  Ru  Ru19  1  0.369831  0.619831  0.750000  1
