# generated using pymatgen
data_Y3ZnCd3HgPd
_symmetry_space_group_name_H-M   'P 1'
_cell_length_a   7.75907700
_cell_length_b   7.75907520
_cell_length_c   3.98498900
_cell_angle_alpha   90.00000000
_cell_angle_beta   90.00000000
_cell_angle_gamma   120.00000342
_symmetry_Int_Tables_number   1
_chemical_formula_structural   Y3ZnCd3HgPd
_chemical_formula_sum   'Y3 Zn1 Cd3 Hg1 Pd1'
_cell_volume   207.76757284
_cell_formula_units_Z   1
loop_
 _symmetry_equiv_pos_site_id
 _symmetry_equiv_pos_as_xyz
  1  'x, y, z'
loop_
 _atom_site_type_symbol
 _atom_site_label
 _atom_site_symmetry_multiplicity
 _atom_site_fract_x
 _atom_site_fract_y
 _atom_site_fract_z
 _atom_site_occupancy
  Y  Y0  1  0.400278  0.417952  0.500000  1
  Y  Y1  1  0.582048  0.982327  0.500000  1
  Y  Y2  1  0.017673  0.599722  0.500000  1
  Zn  Zn3  1  0.000000  0.000000  0.500000  1
  Cd  Cd4  1  0.747646  0.753798  0.000000  1
  Cd  Cd5  1  0.246202  0.993850  0.000000  1
  Cd  Cd6  1  0.006150  0.252354  0.000000  1
  Hg  Hg7  1  0.666667  0.333333  0.000000  1
  Pd  Pd8  1  0.333333  0.666667  0.000000  1
