# generated using pymatgen
data_YbTl2In(Pt2O7)2
_symmetry_space_group_name_H-M   'P 1'
_cell_length_a   7.29452730
_cell_length_b   7.23571087
_cell_length_c   7.22482700
_cell_angle_alpha   60.04975027
_cell_angle_beta   60.31558616
_cell_angle_gamma   60.34887100
_symmetry_Int_Tables_number   1
_chemical_formula_structural   YbTl2In(Pt2O7)2
_chemical_formula_sum   'Yb1 Tl2 In1 Pt4 O14'
_cell_volume   271.09287008
_cell_formula_units_Z   1
loop_
 _symmetry_equiv_pos_site_id
 _symmetry_equiv_pos_as_xyz
  1  'x, y, z'
loop_
 _atom_site_type_symbol
 _atom_site_label
 _atom_site_symmetry_multiplicity
 _atom_site_fract_x
 _atom_site_fract_y
 _atom_site_fract_z
 _atom_site_occupancy
  Yb  Yb0  1  0.625000  0.125000  0.125000  1
  Tl  Tl1  1  0.125000  0.125000  0.125000  1
  Tl  Tl2  1  0.125000  0.125000  0.625000  1
  In  In3  1  0.125000  0.625000  0.125000  1
  Pt  Pt4  1  0.625000  0.625000  0.125000  1
  Pt  Pt5  1  0.625000  0.125000  0.625000  1
  Pt  Pt6  1  0.125000  0.625000  0.625000  1
  Pt  Pt7  1  0.625000  0.625000  0.625000  1
  O  O8  1  0.241278  0.264687  0.247018  1
  O  O9  1  0.709791  0.290923  0.289364  1
  O  O10  1  0.709791  0.290923  0.709923  1
  O  O11  1  0.290127  0.703833  0.288676  1
  O  O12  1  0.718374  0.703349  0.289138  1
  O  O13  1  0.291103  0.290707  0.709096  1
  O  O14  1  0.959873  0.546167  0.532635  1
  O  O15  1  0.290127  0.703833  0.717365  1
  O  O16  1  0.958897  0.959293  0.540904  1
  O  O17  1  0.540209  0.959077  0.540077  1
  O  O18  1  0.531626  0.546651  0.960862  1
  O  O19  1  0.959873  0.546167  0.961324  1
  O  O20  1  0.540209  0.959077  0.960636  1
  O  O21  1  0.008722  0.985313  0.002982  1
