# generated using pymatgen
data_Y2Er6Ti3Si16Mo9
_symmetry_space_group_name_H-M   'P 1'
_cell_length_a   6.89459113
_cell_length_b   6.89431104
_cell_length_c   12.76477424
_cell_angle_alpha   89.98662265
_cell_angle_beta   89.98269750
_cell_angle_gamma   89.77229674
_symmetry_Int_Tables_number   1
_chemical_formula_structural   Y2Er6Ti3Si16Mo9
_chemical_formula_sum   'Y2 Er6 Ti3 Si16 Mo9'
_cell_volume   606.74899573
_cell_formula_units_Z   1
loop_
 _symmetry_equiv_pos_site_id
 _symmetry_equiv_pos_as_xyz
  1  'x, y, z'
loop_
 _atom_site_type_symbol
 _atom_site_label
 _atom_site_symmetry_multiplicity
 _atom_site_fract_x
 _atom_site_fract_y
 _atom_site_fract_z
 _atom_site_occupancy
  Y  Y0  1  0.339241  0.002103  0.468424  1
  Y  Y1  1  0.497085  0.838761  0.719379  1
  Er  Er2  1  0.499097  0.161642  0.217423  1
  Er  Er3  1  0.839186  0.497400  0.280558  1
  Er  Er4  1  0.161359  0.498912  0.782559  1
  Er  Er5  1  0.659471  0.000290  0.969051  1
  Er  Er6  1  0.001335  0.339852  0.531350  1
  Er  Er7  1  0.000091  0.659288  0.031091  1
  Ti  Ti8  1  0.169837  0.831444  0.248439  1
  Ti  Ti9  1  0.831738  0.170192  0.751464  1
  Ti  Ti10  1  0.669251  0.668531  0.499870  1
  Si  Si11  1  0.200165  0.130113  0.683576  1
  Si  Si12  1  0.373245  0.697131  0.934104  1
  Si  Si13  1  0.629646  0.299640  0.433237  1
  Si  Si14  1  0.697354  0.373422  0.066239  1
  Si  Si15  1  0.298451  0.627667  0.566447  1
  Si  Si16  1  0.796803  0.871420  0.183778  1
  Si  Si17  1  0.128820  0.201440  0.316259  1
  Si  Si18  1  0.872271  0.796660  0.816409  1
  Si  Si19  1  0.288148  0.963674  0.061705  1
  Si  Si20  1  0.539762  0.790972  0.313150  1
  Si  Si21  1  0.458336  0.211439  0.815324  1
  Si  Si22  1  0.791991  0.538789  0.686461  1
  Si  Si23  1  0.210573  0.458431  0.184884  1
  Si  Si24  1  0.710890  0.041575  0.563711  1
  Si  Si25  1  0.963614  0.288170  0.938335  1
  Si  Si26  1  0.040411  0.709063  0.436069  1
  Mo  Mo27  1  0.331455  0.331394  0.000064  1
  Mo  Mo28  1  0.155396  0.001717  0.873321  1
  Mo  Mo29  1  0.496630  0.666542  0.124443  1
  Mo  Mo30  1  0.505849  0.340722  0.624743  1
  Mo  Mo31  1  0.666953  0.496323  0.875798  1
  Mo  Mo32  1  0.340460  0.505490  0.375316  1
  Mo  Mo33  1  0.840482  0.993667  0.374127  1
  Mo  Mo34  1  0.001273  0.155808  0.126979  1
  Mo  Mo35  1  0.993334  0.840316  0.625911  1
