# generated using pymatgen
data_As2Pt(O3F)2
_symmetry_space_group_name_H-M   'P 1'
_cell_length_a   5.15176500
_cell_length_b   5.15176465
_cell_length_c   6.82567700
_cell_angle_alpha   90.00000000
_cell_angle_beta   90.00000000
_cell_angle_gamma   120.00000136
_symmetry_Int_Tables_number   1
_chemical_formula_structural   As2Pt(O3F)2
_chemical_formula_sum   'As2 Pt1 O6 F2'
_cell_volume   156.88752719
_cell_formula_units_Z   1
loop_
 _symmetry_equiv_pos_site_id
 _symmetry_equiv_pos_as_xyz
  1  'x, y, z'
loop_
 _atom_site_type_symbol
 _atom_site_label
 _atom_site_symmetry_multiplicity
 _atom_site_fract_x
 _atom_site_fract_y
 _atom_site_fract_z
 _atom_site_occupancy
  As  As0  1  0.333333  0.666667  0.221997  1
  As  As1  1  0.666666  0.333333  0.778003  1
  Pt  Pt2  1  0.000000  0.000000  0.000000  1
  O  O3  1  0.309159  0.327016  0.172644  1
  O  O4  1  0.017856  0.690840  0.172644  1
  O  O5  1  0.672984  0.982142  0.172644  1
  O  O6  1  0.327016  0.017856  0.827357  1
  O  O7  1  0.982144  0.309160  0.827357  1
  O  O8  1  0.690840  0.672984  0.827357  1
  F  F9  1  0.666666  0.333333  0.524496  1
  F  F10  1  0.333333  0.666667  0.475504  1
