# generated using pymatgen
data_La19NdSi15Cl
_symmetry_space_group_name_H-M   'P 1'
_cell_length_a   8.00384952
_cell_length_b   8.09971679
_cell_length_c   15.62797500
_cell_angle_alpha   88.84639743
_cell_angle_beta   85.32174518
_cell_angle_gamma   89.61229421
_symmetry_Int_Tables_number   1
_chemical_formula_structural   La19NdSi15Cl
_chemical_formula_sum   'La19 Nd1 Si15 Cl1'
_cell_volume   1009.55125638
_cell_formula_units_Z   1
loop_
 _symmetry_equiv_pos_site_id
 _symmetry_equiv_pos_as_xyz
  1  'x, y, z'
loop_
 _atom_site_type_symbol
 _atom_site_label
 _atom_site_symmetry_multiplicity
 _atom_site_fract_x
 _atom_site_fract_y
 _atom_site_fract_z
 _atom_site_occupancy
  La  La0  1  0.865383  0.348443  0.614117  1
  La  La1  1  0.470689  0.693024  0.895499  1
  La  La2  1  0.969158  0.815881  0.897031  1
  La  La3  1  0.177843  0.674505  0.121191  1
  La  La4  1  0.676502  0.812350  0.121626  1
  La  La5  1  0.323530  0.184808  0.880555  1
  La  La6  1  0.135997  0.657922  0.386206  1
  La  La7  1  0.030597  0.184496  0.105457  1
  La  La8  1  0.366583  0.175261  0.614426  1
  La  La9  1  0.827600  0.483822  0.238395  1
  La  La10  1  0.329936  0.997651  0.253430  1
  La  La11  1  0.485148  0.301720  0.395522  1
  La  La12  1  0.823598  0.322868  0.879457  1
  La  La13  1  0.018905  0.842076  0.607986  1
  La  La14  1  0.495929  0.704407  0.611569  1
  La  La15  1  0.991289  0.159281  0.392657  1
  La  La16  1  0.631405  0.827103  0.386848  1
  La  La17  1  0.672090  0.005542  0.746040  1
  La  La18  1  0.529452  0.304925  0.104658  1
  Nd  Nd19  1  0.172304  0.517523  0.748979  1
  Si  Si20  1  0.445426  0.594214  0.255110  1
  Si  Si21  1  0.220509  0.371459  0.250902  1
  Si  Si22  1  0.554251  0.408028  0.750305  1
  Si  Si23  1  0.634275  0.025279  0.959337  1
  Si  Si24  1  0.051752  0.115730  0.750729  1
  Si  Si25  1  0.779173  0.626983  0.751371  1
  Si  Si26  1  0.718589  0.109552  0.251048  1
  Si  Si27  1  0.289796  0.966408  0.454667  1
  Si  Si28  1  0.945518  0.889138  0.252203  1
  Si  Si29  1  0.366515  0.971800  0.042067  1
  Si  Si30  1  0.718873  0.034591  0.541734  1
  Si  Si31  1  0.135220  0.477498  0.957258  1
  Si  Si32  1  0.212745  0.488735  0.551938  1
  Si  Si33  1  0.867145  0.523026  0.040560  1
  Si  Si34  1  0.276703  0.888235  0.753935  1
  Cl  Cl35  1  0.789569  0.495716  0.435184  1
