# generated using pymatgen
data_YbY14Ho5(Cd3Ru)2
_symmetry_space_group_name_H-M   'P 1'
_cell_length_a   9.65281072
_cell_length_b   9.65089454
_cell_length_c   9.84376861
_cell_angle_alpha   90.00000196
_cell_angle_beta   89.91497287
_cell_angle_gamma   119.99343607
_symmetry_Int_Tables_number   1
_chemical_formula_structural   YbY14Ho5(Cd3Ru)2
_chemical_formula_sum   'Yb1 Y14 Ho5 Cd6 Ru2'
_cell_volume   794.22119495
_cell_formula_units_Z   1
loop_
 _symmetry_equiv_pos_site_id
 _symmetry_equiv_pos_as_xyz
  1  'x, y, z'
loop_
 _atom_site_type_symbol
 _atom_site_label
 _atom_site_symmetry_multiplicity
 _atom_site_fract_x
 _atom_site_fract_y
 _atom_site_fract_z
 _atom_site_occupancy
  Yb  Yb0  1  0.999610  0.999805  0.499884  1
  Y  Y1  1  0.999963  0.999982  0.999986  1
  Y  Y2  1  0.420878  0.210438  0.559769  1
  Y  Y3  1  0.790022  0.209964  0.940249  1
  Y  Y4  1  0.790022  0.580056  0.940249  1
  Y  Y5  1  0.419976  0.209987  0.940621  1
  Y  Y6  1  0.209922  0.789937  0.059678  1
  Y  Y7  1  0.209922  0.419986  0.059678  1
  Y  Y8  1  0.580077  0.790039  0.059683  1
  Y  Y9  1  0.541529  0.458786  0.251921  1
  Y  Y10  1  0.541529  0.082744  0.251921  1
  Y  Y11  1  0.916999  0.458499  0.252296  1
  Y  Y12  1  0.458541  0.541845  0.747966  1
  Y  Y13  1  0.458541  0.916696  0.747966  1
  Y  Y14  1  0.082789  0.541394  0.747697  1
  Ho  Ho15  1  0.210882  0.788502  0.439241  1
  Ho  Ho16  1  0.210882  0.422381  0.439241  1
  Ho  Ho17  1  0.577585  0.788793  0.439362  1
  Ho  Ho18  1  0.789235  0.211222  0.560734  1
  Ho  Ho19  1  0.789235  0.578012  0.560734  1
  Cd  Cd20  1  0.884899  0.115136  0.250318  1
  Cd  Cd21  1  0.884899  0.769764  0.250318  1
  Cd  Cd22  1  0.230182  0.115092  0.250342  1
  Cd  Cd23  1  0.115092  0.884809  0.749655  1
  Cd  Cd24  1  0.115092  0.230283  0.749655  1
  Cd  Cd25  1  0.769731  0.884865  0.749693  1
  Ru  Ru26  1  0.333420  0.666711  0.253421  1
  Ru  Ru27  1  0.668546  0.334272  0.747721  1
