# generated using pymatgen
data_Th3AlZn2PdPt2
_symmetry_space_group_name_H-M   'P 1'
_cell_length_a   7.46890935
_cell_length_b   7.34625743
_cell_length_c   4.07432000
_cell_angle_alpha   90.00000000
_cell_angle_beta   90.00000000
_cell_angle_gamma   119.45824455
_symmetry_Int_Tables_number   1
_chemical_formula_structural   Th3AlZn2PdPt2
_chemical_formula_sum   'Th3 Al1 Zn2 Pd1 Pt2'
_cell_volume   194.64988811
_cell_formula_units_Z   1
loop_
 _symmetry_equiv_pos_site_id
 _symmetry_equiv_pos_as_xyz
  1  'x, y, z'
loop_
 _atom_site_type_symbol
 _atom_site_label
 _atom_site_symmetry_multiplicity
 _atom_site_fract_x
 _atom_site_fract_y
 _atom_site_fract_z
 _atom_site_occupancy
  Th  Th0  1  0.418619  0.413866  0.500000  1
  Th  Th1  1  0.581381  0.995248  0.500000  1
  Th  Th2  1  0.000000  0.590422  0.500000  1
  Al  Al3  1  0.000000  0.234351  0.000000  1
  Zn  Zn4  1  0.757803  0.760229  0.000000  1
  Zn  Zn5  1  0.242197  0.002426  0.000000  1
  Pd  Pd6  1  0.000000  0.014679  0.500000  1
  Pt  Pt7  1  0.676624  0.332703  0.000000  1
  Pt  Pt8  1  0.323376  0.656079  0.000000  1
