# generated using pymatgen
data_RbTb5Ho5(C2Br9)2
_symmetry_space_group_name_H-M   'P 1'
_cell_length_a   10.74982010
_cell_length_b   10.81981206
_cell_length_c   10.90948872
_cell_angle_alpha   113.45617060
_cell_angle_beta   87.15903674
_cell_angle_gamma   119.14761816
_symmetry_Int_Tables_number   1
_chemical_formula_structural   RbTb5Ho5(C2Br9)2
_chemical_formula_sum   'Rb1 Tb5 Ho5 C4 Br18'
_cell_volume   1000.00682367
_cell_formula_units_Z   1
loop_
 _symmetry_equiv_pos_site_id
 _symmetry_equiv_pos_as_xyz
  1  'x, y, z'
loop_
 _atom_site_type_symbol
 _atom_site_label
 _atom_site_symmetry_multiplicity
 _atom_site_fract_x
 _atom_site_fract_y
 _atom_site_fract_z
 _atom_site_occupancy
  Rb  Rb0  1  0.500281  0.999411  0.499715  1
  Tb  Tb1  1  0.111543  0.942135  0.000999  1
  Tb  Tb2  1  0.041118  0.964708  0.666611  1
  Tb  Tb3  1  0.336150  0.282033  0.296959  1
  Tb  Tb4  1  0.716833  0.635817  0.988437  1
  Tb  Tb5  1  0.888742  0.058334  0.999402  1
  Ho  Ho6  1  0.665487  0.718750  0.704456  1
  Ho  Ho7  1  0.281549  0.362352  0.012225  1
  Ho  Ho8  1  0.093468  0.403580  0.299693  1
  Ho  Ho9  1  0.959331  0.036065  0.331710  1
  Ho  Ho10  1  0.906917  0.596371  0.700328  1
  C  C11  1  0.156758  0.227409  0.123419  1
  C  C12  1  0.842582  0.772130  0.876053  1
  C  C13  1  0.921797  0.851459  0.795564  1
  C  C14  1  0.077389  0.148078  0.203865  1
  Br  Br15  1  0.451706  0.530889  0.833067  1
  Br  Br16  1  0.382857  0.038768  0.159031  1
  Br  Br17  1  0.777739  0.857584  0.502744  1
  Br  Br18  1  0.840964  0.312498  0.156335  1
  Br  Br19  1  0.546253  0.468769  0.165596  1
  Br  Br20  1  0.219568  0.142061  0.496350  1
  Br  Br21  1  0.316078  0.101332  0.829007  1
  Br  Br22  1  0.685713  0.901809  0.173745  1
  Br  Br23  1  0.972886  0.761407  0.173886  1
  Br  Br24  1  0.933530  0.300058  0.499295  1
  Br  Br25  1  0.028970  0.242047  0.829400  1
  Br  Br26  1  0.066594  0.697226  0.499793  1
  Br  Br27  1  0.261172  0.620167  0.186736  1
  Br  Br28  1  0.739675  0.377554  0.810679  1
  Br  Br29  1  0.641953  0.438297  0.503515  1
  Br  Br30  1  0.159006  0.687506  0.843640  1
  Br  Br31  1  0.617091  0.958272  0.839496  1
  Br  Br32  1  0.358298  0.565126  0.498250  1
