# generated using pymatgen
data_Sc4TaNbSn5
_symmetry_space_group_name_H-M   'P 1'
_cell_length_a   10.83197667
_cell_length_b   10.83197690
_cell_length_c   10.83316070
_cell_angle_alpha   148.99323918
_cell_angle_beta   131.66728295
_cell_angle_gamma   58.52835600
_symmetry_Int_Tables_number   1
_chemical_formula_structural   Sc4TaNbSn5
_chemical_formula_sum   'Sc8 Ta2 Nb2 Sn10'
_cell_volume   485.35500255
_cell_formula_units_Z   2
loop_
 _symmetry_equiv_pos_site_id
 _symmetry_equiv_pos_as_xyz
  1  'x, y, z'
loop_
 _atom_site_type_symbol
 _atom_site_label
 _atom_site_symmetry_multiplicity
 _atom_site_fract_x
 _atom_site_fract_y
 _atom_site_fract_z
 _atom_site_occupancy
  Sc  Sc0  1  0.674704  0.436019  0.238918  1
  Sc  Sc1  1  0.325296  0.563981  0.761082  1
  Sc  Sc2  1  0.197100  0.935786  0.261082  1
  Sc  Sc3  1  0.802900  0.064214  0.738918  1
  Sc  Sc4  1  0.259394  0.146354  0.113254  1
  Sc  Sc5  1  0.740606  0.853646  0.886746  1
  Sc  Sc6  1  0.033099  0.646140  0.386746  1
  Sc  Sc7  1  0.966901  0.353860  0.613254  1
  Ta  Ta8  1  0.307968  0.557968  0.250000  1
  Ta  Ta9  1  0.692032  0.442032  0.750000  1
  Nb  Nb10  1  0.692147  0.942147  0.250000  1
  Nb  Nb11  1  0.307853  0.057853  0.750000  1
  Sn  Sn12  1  0.587454  0.288557  0.299628  1
  Sn  Sn13  1  0.412546  0.711443  0.700372  1
  Sn  Sn14  1  0.988928  0.787826  0.200372  1
  Sn  Sn15  1  0.011072  0.212174  0.799628  1
  Sn  Sn16  1  0.999993  0.249993  0.250000  1
  Sn  Sn17  1  0.000007  0.750007  0.750000  1
  Sn  Sn18  1  0.469678  0.071160  0.398965  1
  Sn  Sn19  1  0.530322  0.928840  0.601035  1
  Sn  Sn20  1  0.672196  0.570712  0.101035  1
  Sn  Sn21  1  0.327804  0.429288  0.898965  1
