# generated using pymatgen
data_Zr3Ga3CuNiRh
_symmetry_space_group_name_H-M   'P 1'
_cell_length_a   7.03806500
_cell_length_b   7.03806504
_cell_length_c   3.50798100
_cell_angle_alpha   90.00000000
_cell_angle_beta   90.00000000
_cell_angle_gamma   119.99998569
_symmetry_Int_Tables_number   1
_chemical_formula_structural   Zr3Ga3CuNiRh
_chemical_formula_sum   'Zr3 Ga3 Cu1 Ni1 Rh1'
_cell_volume   150.48543789
_cell_formula_units_Z   1
loop_
 _symmetry_equiv_pos_site_id
 _symmetry_equiv_pos_as_xyz
  1  'x, y, z'
loop_
 _atom_site_type_symbol
 _atom_site_label
 _atom_site_symmetry_multiplicity
 _atom_site_fract_x
 _atom_site_fract_y
 _atom_site_fract_z
 _atom_site_occupancy
  Zr  Zr0  1  0.995051  0.392724  0.500000  1
  Zr  Zr1  1  0.607276  0.602327  0.500000  1
  Zr  Zr2  1  0.397673  0.004949  0.500000  1
  Ga  Ga3  1  0.006922  0.746438  0.000000  1
  Ga  Ga4  1  0.253562  0.260484  0.000000  1
  Ga  Ga5  1  0.739516  0.993078  0.000000  1
  Cu  Cu6  1  0.333333  0.666667  0.000000  1
  Ni  Ni7  1  0.000000  0.000000  0.500000  1
  Rh  Rh8  1  0.666667  0.333333  0.000000  1
