# generated using pymatgen
data_Nd8Ga(Pd11Pt)2
_symmetry_space_group_name_H-M   'P 1'
_cell_length_a   8.51478300
_cell_length_b   8.50598304
_cell_length_c   8.50598304
_cell_angle_alpha   89.98877793
_cell_angle_beta   90.00000000
_cell_angle_gamma   90.00000000
_symmetry_Int_Tables_number   1
_chemical_formula_structural   Nd8Ga(Pd11Pt)2
_chemical_formula_sum   'Nd8 Ga1 Pd22 Pt2'
_cell_volume   616.05941773
_cell_formula_units_Z   1
loop_
 _symmetry_equiv_pos_site_id
 _symmetry_equiv_pos_as_xyz
  1  'x, y, z'
loop_
 _atom_site_type_symbol
 _atom_site_label
 _atom_site_symmetry_multiplicity
 _atom_site_fract_x
 _atom_site_fract_y
 _atom_site_fract_z
 _atom_site_occupancy
  Nd  Nd0  1  0.250677  0.250858  0.749142  1
  Nd  Nd1  1  0.252222  0.748056  0.251944  1
  Nd  Nd2  1  0.748612  0.251605  0.251082  1
  Nd  Nd3  1  0.748612  0.748918  0.748395  1
  Nd  Nd4  1  0.747778  0.748056  0.251944  1
  Nd  Nd5  1  0.749323  0.250858  0.749142  1
  Nd  Nd6  1  0.251388  0.748918  0.748395  1
  Nd  Nd7  1  0.251388  0.251605  0.251082  1
  Ga  Ga8  1  0.000000  0.001558  0.998442  1
  Pd  Pd9  1  0.500000  0.500119  0.746598  1
  Pd  Pd10  1  0.500000  0.253402  0.499881  1
  Pd  Pd11  1  0.253463  0.500138  0.499862  1
  Pd  Pd12  1  0.500000  0.500102  0.253308  1
  Pd  Pd13  1  0.500000  0.746692  0.499898  1
  Pd  Pd14  1  0.746537  0.500138  0.499862  1
  Pd  Pd15  1  0.294571  0.999628  0.000372  1
  Pd  Pd16  1  0.000000  0.999629  0.292837  1
  Pd  Pd17  1  0.000000  0.707163  0.000371  1
  Pd  Pd18  1  0.705429  0.999628  0.000372  1
  Pd  Pd19  1  0.000000  0.499875  0.739330  1
  Pd  Pd20  1  0.500000  0.260872  0.000102  1
  Pd  Pd21  1  0.261027  0.999901  0.500040  1
  Pd  Pd22  1  0.000000  0.260670  0.500125  1
  Pd  Pd23  1  0.500000  0.999898  0.739128  1
  Pd  Pd24  1  0.261027  0.499960  0.000099  1
  Pd  Pd25  1  0.000000  0.499987  0.261185  1
  Pd  Pd26  1  0.500000  0.738724  0.000097  1
  Pd  Pd27  1  0.000000  0.738815  0.500013  1
  Pd  Pd28  1  0.500000  0.999903  0.261276  1
  Pd  Pd29  1  0.738973  0.999901  0.500040  1
  Pd  Pd30  1  0.738973  0.499960  0.000099  1
  Pt  Pt31  1  0.000000  0.999322  0.704860  1
  Pt  Pt32  1  0.000000  0.295140  0.000678  1
