# generated using pymatgen
data_Ta4Al2V3Ga2Cu
_symmetry_space_group_name_H-M   'P 1'
_cell_length_a   4.96699788
_cell_length_b   4.96688277
_cell_length_c   8.40245200
_cell_angle_alpha   90.00000000
_cell_angle_beta   90.00000000
_cell_angle_gamma   61.26787700
_symmetry_Int_Tables_number   1
_chemical_formula_structural   Ta4Al2V3Ga2Cu
_chemical_formula_sum   'Ta4 Al2 V3 Ga2 Cu1'
_cell_volume   181.77012184
_cell_formula_units_Z   1
loop_
 _symmetry_equiv_pos_site_id
 _symmetry_equiv_pos_as_xyz
  1  'x, y, z'
loop_
 _atom_site_type_symbol
 _atom_site_label
 _atom_site_symmetry_multiplicity
 _atom_site_fract_x
 _atom_site_fract_y
 _atom_site_fract_z
 _atom_site_occupancy
  Ta  Ta0  1  0.334884  0.334891  0.557321  1
  Ta  Ta1  1  0.664069  0.664072  0.437079  1
  Ta  Ta2  1  0.664069  0.664072  0.062921  1
  Ta  Ta3  1  0.334884  0.334891  0.942679  1
  Al  Al4  1  0.834747  0.350049  0.750000  1
  Al  Al5  1  0.350038  0.834736  0.750000  1
  V  V6  1  0.172266  0.649504  0.250000  1
  V  V7  1  0.649475  0.172297  0.250000  1
  V  V8  1  0.171281  0.171346  0.250000  1
  Ga  Ga9  1  0.994322  0.994276  0.499974  1
  Ga  Ga10  1  0.994322  0.994276  0.000026  1
  Cu  Cu11  1  0.835644  0.835592  0.750000  1
