# generated using pymatgen
data_NdDy7(Sc3Sn4)4
_symmetry_space_group_name_H-M   'P 1'
_cell_length_a   7.70760569
_cell_length_b   7.97382565
_cell_length_c   14.86697500
_cell_angle_alpha   90.02792528
_cell_angle_beta   89.96853811
_cell_angle_gamma   90.03695756
_symmetry_Int_Tables_number   1
_chemical_formula_structural   NdDy7(Sc3Sn4)4
_chemical_formula_sum   'Nd1 Dy7 Sc12 Sn16'
_cell_volume   913.71052614
_cell_formula_units_Z   1
loop_
 _symmetry_equiv_pos_site_id
 _symmetry_equiv_pos_as_xyz
  1  'x, y, z'
loop_
 _atom_site_type_symbol
 _atom_site_label
 _atom_site_symmetry_multiplicity
 _atom_site_fract_x
 _atom_site_fract_y
 _atom_site_fract_z
 _atom_site_occupancy
  Nd  Nd0  1  0.996135  0.175600  0.093632  1
  Dy  Dy1  1  0.003952  0.822987  0.905202  1
  Dy  Dy2  1  0.504566  0.676759  0.905260  1
  Dy  Dy3  1  0.004274  0.823259  0.594425  1
  Dy  Dy4  1  0.495687  0.323683  0.094329  1
  Dy  Dy5  1  0.995546  0.176738  0.405300  1
  Dy  Dy6  1  0.495818  0.323388  0.406135  1
  Dy  Dy7  1  0.504166  0.676814  0.594404  1
  Sc  Sc8  1  0.164169  0.496586  0.749897  1
  Sc  Sc9  1  0.835646  0.503739  0.250319  1
  Sc  Sc10  1  0.336067  0.996064  0.250293  1
  Sc  Sc11  1  0.664033  0.003409  0.749954  1
  Sc  Sc12  1  0.335425  0.161913  0.627349  1
  Sc  Sc13  1  0.664514  0.838104  0.372880  1
  Sc  Sc14  1  0.164616  0.662057  0.373048  1
  Sc  Sc15  1  0.664251  0.837517  0.127483  1
  Sc  Sc16  1  0.835412  0.337933  0.627359  1
  Sc  Sc17  1  0.335539  0.161971  0.872415  1
  Sc  Sc18  1  0.834833  0.338560  0.872491  1
  Sc  Sc19  1  0.164760  0.661963  0.127282  1
  Sn  Sn20  1  0.026633  0.124647  0.749970  1
  Sn  Sn21  1  0.973253  0.873888  0.250464  1
  Sn  Sn22  1  0.473359  0.624626  0.250061  1
  Sn  Sn23  1  0.526575  0.375472  0.749863  1
  Sn  Sn24  1  0.306146  0.850477  0.749939  1
  Sn  Sn25  1  0.692002  0.149328  0.250962  1
  Sn  Sn26  1  0.195493  0.352243  0.251411  1
  Sn  Sn27  1  0.806202  0.649586  0.749980  1
  Sn  Sn28  1  0.179819  0.457806  0.542493  1
  Sn  Sn29  1  0.820304  0.542056  0.457602  1
  Sn  Sn30  1  0.319915  0.958102  0.457563  1
  Sn  Sn31  1  0.819351  0.543911  0.042015  1
  Sn  Sn32  1  0.679810  0.042006  0.542511  1
  Sn  Sn33  1  0.180668  0.459365  0.957027  1
  Sn  Sn34  1  0.677378  0.041272  0.956751  1
  Sn  Sn35  1  0.323680  0.956172  0.041931  1
