# generated using pymatgen
data_Ca5Eu5Al2(GaSb6)2
_symmetry_space_group_name_H-M   'P 1'
_cell_length_a   4.56016400
_cell_length_b   12.20245308
_cell_length_c   14.10586891
_cell_angle_alpha   89.79289643
_cell_angle_beta   90.00000000
_cell_angle_gamma   90.00000000
_symmetry_Int_Tables_number   1
_chemical_formula_structural   Ca5Eu5Al2(GaSb6)2
_chemical_formula_sum   'Ca5 Eu5 Al2 Ga2 Sb12'
_cell_volume   784.91858913
_cell_formula_units_Z   1
loop_
 _symmetry_equiv_pos_site_id
 _symmetry_equiv_pos_as_xyz
  1  'x, y, z'
loop_
 _atom_site_type_symbol
 _atom_site_label
 _atom_site_symmetry_multiplicity
 _atom_site_fract_x
 _atom_site_fract_y
 _atom_site_fract_z
 _atom_site_occupancy
  Ca  Ca0  1  0.500000  0.000840  0.501888  1
  Ca  Ca1  1  0.500000  0.498929  0.999517  1
  Ca  Ca2  1  0.500000  0.090779  0.747626  1
  Ca  Ca3  1  0.500000  0.409730  0.247467  1
  Ca  Ca4  1  0.500000  0.590405  0.752758  1
  Eu  Eu5  1  0.500000  0.667772  0.479381  1
  Eu  Eu6  1  0.500000  0.332107  0.522311  1
  Eu  Eu7  1  0.500000  0.830534  0.974441  1
  Eu  Eu8  1  0.500000  0.169273  0.021942  1
  Eu  Eu9  1  0.500000  0.910243  0.251863  1
  Al  Al10  1  0.000000  0.328551  0.712515  1
  Al  Al11  1  0.000000  0.673004  0.287073  1
  Ga  Ga12  1  0.000000  0.828151  0.786908  1
  Ga  Ga13  1  0.000000  0.169911  0.213179  1
  Sb  Sb14  1  0.000000  0.974502  0.099200  1
  Sb  Sb15  1  0.000000  0.025812  0.897000  1
  Sb  Sb16  1  0.000000  0.478318  0.397319  1
  Sb  Sb17  1  0.000000  0.523436  0.602720  1
  Sb  Sb18  1  0.500000  0.165248  0.324026  1
  Sb  Sb19  1  0.500000  0.836654  0.678239  1
  Sb  Sb20  1  0.500000  0.661499  0.177925  1
  Sb  Sb21  1  0.500000  0.336893  0.820391  1
  Sb  Sb22  1  0.000000  0.348077  0.094191  1
  Sb  Sb23  1  0.000000  0.650156  0.906678  1
  Sb  Sb24  1  0.000000  0.846295  0.409387  1
  Sb  Sb25  1  0.000000  0.152878  0.594054  1
