# generated using pymatgen
data_Er8Ti2ReSi16Mo9
_symmetry_space_group_name_H-M   'P 1'
_cell_length_a   6.87183783
_cell_length_b   6.87183699
_cell_length_c   12.72471600
_cell_angle_alpha   90.00473278
_cell_angle_beta   89.99526842
_cell_angle_gamma   89.35152583
_symmetry_Int_Tables_number   1
_chemical_formula_structural   Er8Ti2ReSi16Mo9
_chemical_formula_sum   'Er8 Ti2 Re1 Si16 Mo9'
_cell_volume   600.84995026
_cell_formula_units_Z   1
loop_
 _symmetry_equiv_pos_site_id
 _symmetry_equiv_pos_as_xyz
  1  'x, y, z'
loop_
 _atom_site_type_symbol
 _atom_site_label
 _atom_site_symmetry_multiplicity
 _atom_site_fract_x
 _atom_site_fract_y
 _atom_site_fract_z
 _atom_site_occupancy
  Er  Er0  1  0.341111  0.999284  0.468714  1
  Er  Er1  1  0.499942  0.837167  0.718590  1
  Er  Er2  1  0.500392  0.162386  0.218498  1
  Er  Er3  1  0.837167  0.499942  0.281410  1
  Er  Er4  1  0.162386  0.500392  0.781502  1
  Er  Er5  1  0.659399  0.000552  0.968682  1
  Er  Er6  1  0.999284  0.341111  0.531286  1
  Er  Er7  1  0.000552  0.659399  0.031318  1
  Ti  Ti8  1  0.169578  0.830051  0.250294  1
  Ti  Ti9  1  0.830051  0.169578  0.749706  1
  Re  Re10  1  0.667762  0.667762  0.500000  1
  Si  Si11  1  0.202763  0.129568  0.683995  1
  Si  Si12  1  0.373320  0.698135  0.933967  1
  Si  Si13  1  0.626273  0.304581  0.434764  1
  Si  Si14  1  0.698135  0.373320  0.066033  1
  Si  Si15  1  0.304581  0.626273  0.565236  1
  Si  Si16  1  0.796513  0.870543  0.184179  1
  Si  Si17  1  0.129568  0.202763  0.316005  1
  Si  Si18  1  0.870543  0.796513  0.815821  1
  Si  Si19  1  0.288481  0.963338  0.061790  1
  Si  Si20  1  0.541345  0.789752  0.316882  1
  Si  Si21  1  0.459728  0.210030  0.815673  1
  Si  Si22  1  0.789752  0.541345  0.683118  1
  Si  Si23  1  0.210030  0.459728  0.184327  1
  Si  Si24  1  0.711733  0.034606  0.561584  1
  Si  Si25  1  0.963338  0.288481  0.938210  1
  Si  Si26  1  0.034606  0.711733  0.438416  1
  Mo  Mo27  1  0.331996  0.331996  0.000000  1
  Mo  Mo28  1  0.155146  0.001002  0.872492  1
  Mo  Mo29  1  0.498116  0.666448  0.125657  1
  Mo  Mo30  1  0.501432  0.332797  0.625631  1
  Mo  Mo31  1  0.666448  0.498116  0.874343  1
  Mo  Mo32  1  0.332797  0.501432  0.374369  1
  Mo  Mo33  1  0.844835  0.999895  0.373216  1
  Mo  Mo34  1  0.001002  0.155146  0.127508  1
  Mo  Mo35  1  0.999895  0.844835  0.626784  1
