# generated using pymatgen
data_Nd4Sm2RhBr10
_symmetry_space_group_name_H-M   'P 1'
_cell_length_a   7.61557583
_cell_length_b   9.50338970
_cell_length_c   9.49817022
_cell_angle_alpha   107.36819613
_cell_angle_beta   96.88760793
_cell_angle_gamma   105.59103807
_symmetry_Int_Tables_number   1
_chemical_formula_structural   Nd4Sm2RhBr10
_chemical_formula_sum   'Nd4 Sm2 Rh1 Br10'
_cell_volume   616.77576480
_cell_formula_units_Z   1
loop_
 _symmetry_equiv_pos_site_id
 _symmetry_equiv_pos_as_xyz
  1  'x, y, z'
loop_
 _atom_site_type_symbol
 _atom_site_label
 _atom_site_symmetry_multiplicity
 _atom_site_fract_x
 _atom_site_fract_y
 _atom_site_fract_z
 _atom_site_occupancy
  Nd  Nd0  1  0.134629  0.361242  0.317413  1
  Nd  Nd1  1  0.865371  0.638758  0.682587  1
  Nd  Nd2  1  0.626324  0.549527  0.256603  1
  Nd  Nd3  1  0.373676  0.450473  0.743397  1
  Sm  Sm4  1  0.532901  0.200003  0.407269  1
  Sm  Sm5  1  0.467099  0.799997  0.592731  1
  Rh  Rh6  1  0.500000  0.500000  0.500000  1
  Br  Br7  1  0.156506  0.047475  0.230284  1
  Br  Br8  1  0.843494  0.952525  0.769716  1
  Br  Br9  1  0.250885  0.417848  0.044765  1
  Br  Br10  1  0.749115  0.582152  0.955235  1
  Br  Br11  1  0.708846  0.244156  0.155902  1
  Br  Br12  1  0.291154  0.755844  0.844098  1
  Br  Br13  1  0.047946  0.677779  0.416101  1
  Br  Br14  1  0.952054  0.322221  0.583899  1
  Br  Br15  1  0.416960  0.129014  0.670472  1
  Br  Br16  1  0.583040  0.870986  0.329528  1
