# generated using pymatgen
data_Li3Tb3RhAu2
_symmetry_space_group_name_H-M   'P 1'
_cell_length_a   7.18539600
_cell_length_b   7.18539732
_cell_length_c   4.00793400
_cell_angle_alpha   90.00000000
_cell_angle_beta   90.00000000
_cell_angle_gamma   119.99999391
_symmetry_Int_Tables_number   1
_chemical_formula_structural   Li3Tb3RhAu2
_chemical_formula_sum   'Li3 Tb3 Rh1 Au2'
_cell_volume   179.20606979
_cell_formula_units_Z   1
loop_
 _symmetry_equiv_pos_site_id
 _symmetry_equiv_pos_as_xyz
  1  'x, y, z'
loop_
 _atom_site_type_symbol
 _atom_site_label
 _atom_site_symmetry_multiplicity
 _atom_site_fract_x
 _atom_site_fract_y
 _atom_site_fract_z
 _atom_site_occupancy
  Li  Li0  1  0.000778  0.761866  0.500000  1
  Li  Li1  1  0.238134  0.238913  0.500000  1
  Li  Li2  1  0.761087  0.999222  0.500000  1
  Tb  Tb3  1  0.014918  0.422038  0.000000  1
  Tb  Tb4  1  0.577962  0.592880  0.000000  1
  Tb  Tb5  1  0.407120  0.985082  0.000000  1
  Rh  Rh6  1  0.333333  0.666667  0.500000  1
  Au  Au7  1  0.000000  0.000000  0.000000  1
  Au  Au8  1  0.666667  0.333333  0.500000  1
