# generated using pymatgen
data_Y7Tm2Th3Ru4
_symmetry_space_group_name_H-M   'P 1'
_cell_length_a   6.36915202
_cell_length_b   7.23488418
_cell_length_c   9.53382024
_cell_angle_alpha   89.94963500
_cell_angle_beta   90.09517810
_cell_angle_gamma   89.68064052
_symmetry_Int_Tables_number   1
_chemical_formula_structural   Y7Tm2Th3Ru4
_chemical_formula_sum   'Y7 Tm2 Th3 Ru4'
_cell_volume   439.31156883
_cell_formula_units_Z   1
loop_
 _symmetry_equiv_pos_site_id
 _symmetry_equiv_pos_as_xyz
  1  'x, y, z'
loop_
 _atom_site_type_symbol
 _atom_site_label
 _atom_site_symmetry_multiplicity
 _atom_site_fract_x
 _atom_site_fract_y
 _atom_site_fract_z
 _atom_site_occupancy
  Y  Y0  1  0.833107  0.824009  0.936890  1
  Y  Y1  1  0.667088  0.324764  0.936222  1
  Y  Y2  1  0.832640  0.823482  0.563355  1
  Y  Y3  1  0.327543  0.675598  0.069272  1
  Y  Y4  1  0.170108  0.175947  0.431999  1
  Y  Y5  1  0.327883  0.675173  0.430733  1
  Y  Y6  1  0.667030  0.325054  0.564354  1
  Tm  Tm7  1  0.859597  0.538260  0.249593  1
  Tm  Tm8  1  0.169956  0.175211  0.069007  1
  Th  Th9  1  0.654149  0.049680  0.249227  1
  Th  Th10  1  0.346665  0.950894  0.750789  1
  Th  Th11  1  0.149955  0.452869  0.750735  1
  Ru  Ru12  1  0.466641  0.366895  0.248388  1
  Ru  Ru13  1  0.527667  0.628514  0.750031  1
  Ru  Ru14  1  0.973204  0.130770  0.751189  1
  Ru  Ru15  1  0.026769  0.882878  0.248215  1
