# generated using pymatgen
data_Ce4Ho5Lu(Al2Ru3)2
_symmetry_space_group_name_H-M   'P 1'
_cell_length_a   8.39816587
_cell_length_b   8.38743188
_cell_length_c   8.40738373
_cell_angle_alpha   110.05866725
_cell_angle_beta   110.37831226
_cell_angle_gamma   109.80225492
_symmetry_Int_Tables_number   1
_chemical_formula_structural   Ce4Ho5Lu(Al2Ru3)2
_chemical_formula_sum   'Ce4 Ho5 Lu1 Al4 Ru6'
_cell_volume   445.30668259
_cell_formula_units_Z   1
loop_
 _symmetry_equiv_pos_site_id
 _symmetry_equiv_pos_as_xyz
  1  'x, y, z'
loop_
 _atom_site_type_symbol
 _atom_site_label
 _atom_site_symmetry_multiplicity
 _atom_site_fract_x
 _atom_site_fract_y
 _atom_site_fract_z
 _atom_site_occupancy
  Ce  Ce0  1  0.502934  0.992404  0.703913  1
  Ce  Ce1  1  0.255135  0.201205  0.947358  1
  Ce  Ce2  1  0.941153  0.248261  0.192556  1
  Ce  Ce3  1  0.196108  0.942947  0.248567  1
  Ho  Ho4  1  0.314388  0.565840  0.751498  1
  Ho  Ho5  1  0.756370  0.319351  0.566683  1
  Ho  Ho6  1  0.566723  0.747115  0.309029  1
  Ho  Ho7  1  0.724887  0.510025  0.997406  1
  Ho  Ho8  1  0.994436  0.722883  0.508774  1
  Lu  Lu9  1  0.778231  0.779636  0.779599  1
  Al  Al10  1  0.411982  0.409777  0.412620  1
  Al  Al11  1  0.096393  0.498651  0.005024  1
  Al  Al12  1  0.998717  0.093496  0.500479  1
  Al  Al13  1  0.497972  0.000366  0.091994  1
  Ru  Ru14  1  0.887910  0.117015  0.752716  1
  Ru  Ru15  1  0.753183  0.897371  0.118444  1
  Ru  Ru16  1  0.118078  0.754420  0.902431  1
  Ru  Ru17  1  0.235464  0.609618  0.379645  1
  Ru  Ru18  1  0.369275  0.222447  0.605361  1
  Ru  Ru19  1  0.600660  0.367173  0.225906  1
