# generated using pymatgen
data_NdTh3(Ga3Rh)6
_symmetry_space_group_name_H-M   'P 1'
_cell_length_a   7.70333255
_cell_length_b   7.70259948
_cell_length_c   9.56410600
_cell_angle_alpha   90.00000000
_cell_angle_beta   90.00000000
_cell_angle_gamma   119.85153051
_symmetry_Int_Tables_number   1
_chemical_formula_structural   NdTh3(Ga3Rh)6
_chemical_formula_sum   'Nd1 Th3 Ga18 Rh6'
_cell_volume   492.19678352
_cell_formula_units_Z   1
loop_
 _symmetry_equiv_pos_site_id
 _symmetry_equiv_pos_as_xyz
  1  'x, y, z'
loop_
 _atom_site_type_symbol
 _atom_site_label
 _atom_site_symmetry_multiplicity
 _atom_site_fract_x
 _atom_site_fract_y
 _atom_site_fract_z
 _atom_site_occupancy
  Nd  Nd0  1  0.329422  0.003640  0.750000  1
  Th  Th1  1  0.997429  0.670417  0.250000  1
  Th  Th2  1  0.002182  0.330032  0.750000  1
  Th  Th3  1  0.670333  0.997040  0.250000  1
  Ga  Ga4  1  0.134506  0.133152  0.250000  1
  Ga  Ga5  1  0.868962  0.868872  0.750000  1
  Ga  Ga6  1  0.004880  0.335385  0.078396  1
  Ga  Ga7  1  0.999009  0.668121  0.920568  1
  Ga  Ga8  1  0.999009  0.668121  0.579432  1
  Ga  Ga9  1  0.335295  0.003985  0.424663  1
  Ga  Ga10  1  0.004880  0.335385  0.421604  1
  Ga  Ga11  1  0.661732  0.995901  0.579383  1
  Ga  Ga12  1  0.661732  0.995901  0.920617  1
  Ga  Ga13  1  0.335295  0.003985  0.075337  1
  Ga  Ga14  1  0.335793  0.333277  0.560198  1
  Ga  Ga15  1  0.663459  0.663386  0.442187  1
  Ga  Ga16  1  0.663459  0.663386  0.057813  1
  Ga  Ga17  1  0.335793  0.333277  0.939802  1
  Ga  Ga18  1  0.341468  0.543679  0.250000  1
  Ga  Ga19  1  0.658646  0.453354  0.750000  1
  Ga  Ga20  1  0.543822  0.339840  0.250000  1
  Ga  Ga21  1  0.454252  0.660359  0.750000  1
  Rh  Rh22  1  0.674585  0.330157  0.001619  1
  Rh  Rh23  1  0.328128  0.670484  0.001963  1
  Rh  Rh24  1  0.328128  0.670484  0.498037  1
  Rh  Rh25  1  0.674585  0.330157  0.498381  1
  Rh  Rh26  1  0.996607  0.999111  0.001956  1
  Rh  Rh27  1  0.996607  0.999111  0.498044  1
