# generated using pymatgen
data_TmLu2Ag(Pt2O7)2
_symmetry_space_group_name_H-M   'P 1'
_cell_length_a   7.26438921
_cell_length_b   7.13293435
_cell_length_c   7.26438857
_cell_angle_alpha   59.36947417
_cell_angle_beta   59.95471778
_cell_angle_gamma   59.36947103
_symmetry_Int_Tables_number   1
_chemical_formula_structural   TmLu2Ag(Pt2O7)2
_chemical_formula_sum   'Tm1 Lu2 Ag1 Pt4 O14'
_cell_volume   263.51177586
_cell_formula_units_Z   1
loop_
 _symmetry_equiv_pos_site_id
 _symmetry_equiv_pos_as_xyz
  1  'x, y, z'
loop_
 _atom_site_type_symbol
 _atom_site_label
 _atom_site_symmetry_multiplicity
 _atom_site_fract_x
 _atom_site_fract_y
 _atom_site_fract_z
 _atom_site_occupancy
  Tm  Tm0  1  0.625000  0.625000  0.625000  1
  Lu  Lu1  1  0.625000  0.625000  0.125000  1
  Lu  Lu2  1  0.125000  0.625000  0.625000  1
  Ag  Ag3  1  0.625000  0.125000  0.625000  1
  Pt  Pt4  1  0.125000  0.125000  0.125000  1
  Pt  Pt5  1  0.625000  0.125000  0.125000  1
  Pt  Pt6  1  0.125000  0.125000  0.625000  1
  Pt  Pt7  1  0.125000  0.625000  0.125000  1
  O  O8  1  0.029884  0.474118  0.467549  1
  O  O9  1  0.782451  0.775882  0.220116  1
  O  O10  1  0.790281  0.224541  0.194876  1
  O  O11  1  0.459120  0.026892  0.459120  1
  O  O12  1  0.748302  0.758191  0.748302  1
  O  O13  1  0.028840  0.474422  0.028840  1
  O  O14  1  0.055124  0.025459  0.459719  1
  O  O15  1  0.221160  0.775578  0.221160  1
  O  O16  1  0.194876  0.224541  0.790281  1
  O  O17  1  0.790880  0.223108  0.790880  1
  O  O18  1  0.501698  0.491809  0.501698  1
  O  O19  1  0.459719  0.025459  0.055124  1
  O  O20  1  0.467549  0.474118  0.029884  1
  O  O21  1  0.220116  0.775882  0.782451  1
