# generated using pymatgen
data_Dy12HoEr7(CoSb2)4
_symmetry_space_group_name_H-M   'P 1'
_cell_length_a   7.84148723
_cell_length_b   8.74814915
_cell_length_c   12.15706631
_cell_angle_alpha   90.01323171
_cell_angle_beta   90.02233066
_cell_angle_gamma   89.98371724
_symmetry_Int_Tables_number   1
_chemical_formula_structural   Dy12HoEr7(CoSb2)4
_chemical_formula_sum   'Dy12 Ho1 Er7 Co4 Sb8'
_cell_volume   833.95639175
_cell_formula_units_Z   1
loop_
 _symmetry_equiv_pos_site_id
 _symmetry_equiv_pos_as_xyz
  1  'x, y, z'
loop_
 _atom_site_type_symbol
 _atom_site_label
 _atom_site_symmetry_multiplicity
 _atom_site_fract_x
 _atom_site_fract_y
 _atom_site_fract_z
 _atom_site_occupancy
  Dy  Dy0  1  0.154376  0.750131  0.203361  1
  Dy  Dy1  1  0.345858  0.750038  0.703315  1
  Dy  Dy2  1  0.845840  0.249950  0.796582  1
  Dy  Dy3  1  0.654067  0.249968  0.296776  1
  Dy  Dy4  1  0.453416  0.750142  0.998064  1
  Dy  Dy5  1  0.046386  0.750029  0.498069  1
  Dy  Dy6  1  0.545997  0.249805  0.001912  1
  Dy  Dy7  1  0.953602  0.249989  0.501967  1
  Dy  Dy8  1  0.621787  0.749999  0.307646  1
  Dy  Dy9  1  0.878289  0.750225  0.807411  1
  Dy  Dy10  1  0.378134  0.249982  0.692384  1
  Dy  Dy11  1  0.122141  0.249865  0.192580  1
  Ho  Ho12  1  0.822070  0.535524  0.065133  1
  Er  Er13  1  0.676766  0.964527  0.565035  1
  Er  Er14  1  0.176916  0.035495  0.934811  1
  Er  Er15  1  0.323262  0.464404  0.435016  1
  Er  Er16  1  0.177187  0.464556  0.934706  1
  Er  Er17  1  0.323256  0.035625  0.434980  1
  Er  Er18  1  0.823162  0.964209  0.065108  1
  Er  Er19  1  0.676755  0.535518  0.564968  1
  Co  Co20  1  0.435177  0.750011  0.491254  1
  Co  Co21  1  0.065461  0.750415  0.991058  1
  Co  Co22  1  0.564824  0.249994  0.508768  1
  Co  Co23  1  0.935476  0.249691  0.008760  1
  Sb  Sb24  1  0.929293  0.508127  0.327289  1
  Sb  Sb25  1  0.570823  0.991864  0.827096  1
  Sb  Sb26  1  0.070834  0.008163  0.672876  1
  Sb  Sb27  1  0.428751  0.491754  0.173062  1
  Sb  Sb28  1  0.070820  0.491834  0.672909  1
  Sb  Sb29  1  0.429169  0.008162  0.172932  1
  Sb  Sb30  1  0.929189  0.991854  0.327090  1
  Sb  Sb31  1  0.570915  0.508149  0.827084  1
