# generated using pymatgen
data_Yb2Pa(NiSn)3
_symmetry_space_group_name_H-M   'P 1'
_cell_length_a   7.22916958
_cell_length_b   7.30838374
_cell_length_c   3.93996800
_cell_angle_alpha   90.00000000
_cell_angle_beta   90.00000000
_cell_angle_gamma   120.36314351
_symmetry_Int_Tables_number   1
_chemical_formula_structural   Yb2Pa(NiSn)3
_chemical_formula_sum   'Yb2 Pa1 Ni3 Sn3'
_cell_volume   179.61070570
_cell_formula_units_Z   1
loop_
 _symmetry_equiv_pos_site_id
 _symmetry_equiv_pos_as_xyz
  1  'x, y, z'
loop_
 _atom_site_type_symbol
 _atom_site_label
 _atom_site_symmetry_multiplicity
 _atom_site_fract_x
 _atom_site_fract_y
 _atom_site_fract_z
 _atom_site_occupancy
  Yb  Yb0  1  0.591460  0.590201  0.000000  1
  Yb  Yb1  1  0.408540  0.998741  0.000000  1
  Pa  Pa2  1  0.000000  0.417271  0.000000  1
  Ni  Ni3  1  0.699301  0.336015  0.500000  1
  Ni  Ni4  1  0.300699  0.636715  0.500000  1
  Ni  Ni5  1  0.000000  0.021026  0.000000  1
  Sn  Sn6  1  0.265588  0.253974  0.500000  1
  Sn  Sn7  1  0.000000  0.757670  0.500000  1
  Sn  Sn8  1  0.734412  0.988386  0.500000  1
