# generated using pymatgen
data_AcAg(WO4)2
_symmetry_space_group_name_H-M   'P 1'
_cell_length_a   7.89231510
_cell_length_b   7.89231506
_cell_length_c   7.58035198
_cell_angle_alpha   64.49425718
_cell_angle_beta   64.49425548
_cell_angle_gamma   94.69605427
_symmetry_Int_Tables_number   1
_chemical_formula_structural   AcAg(WO4)2
_chemical_formula_sum   'Ac2 Ag2 W4 O16'
_cell_volume   363.32588021
_cell_formula_units_Z   2
loop_
 _symmetry_equiv_pos_site_id
 _symmetry_equiv_pos_as_xyz
  1  'x, y, z'
loop_
 _atom_site_type_symbol
 _atom_site_label
 _atom_site_symmetry_multiplicity
 _atom_site_fract_x
 _atom_site_fract_y
 _atom_site_fract_z
 _atom_site_occupancy
  Ac  Ac0  1  0.706865  0.293135  0.000000  1
  Ac  Ac1  1  0.293135  0.706865  0.000000  1
  Ag  Ag2  1  0.701013  0.701013  0.474140  1
  Ag  Ag3  1  0.298987  0.298987  0.525860  1
  W  W4  1  0.152553  0.847447  0.500000  1
  W  W5  1  0.847447  0.152553  0.500000  1
  W  W6  1  0.779834  0.779834  0.979486  1
  W  W7  1  0.220166  0.220166  0.020514  1
  O  O8  1  0.895339  0.660281  0.765587  1
  O  O9  1  0.660281  0.895339  0.765587  1
  O  O10  1  0.104661  0.339719  0.234413  1
  O  O11  1  0.339719  0.104661  0.234413  1
  O  O12  1  0.803400  0.301578  0.631393  1
  O  O13  1  0.301578  0.803400  0.631393  1
  O  O14  1  0.196600  0.698422  0.368607  1
  O  O15  1  0.698422  0.196600  0.368607  1
  O  O16  1  0.446208  0.446208  0.844053  1
  O  O17  1  0.553792  0.553792  0.155947  1
  O  O18  1  0.064187  0.303784  0.901297  1
  O  O19  1  0.303784  0.064187  0.901297  1
  O  O20  1  0.935813  0.696216  0.098703  1
  O  O21  1  0.696216  0.935813  0.098703  1
  O  O22  1  0.016772  0.016772  0.660326  1
  O  O23  1  0.983228  0.983228  0.339674  1
