# generated using pymatgen
data_Ac9La7(TbSn4)4
_symmetry_space_group_name_H-M   'P 1'
_cell_length_a   8.56412652
_cell_length_b   8.61337060
_cell_length_c   16.53045800
_cell_angle_alpha   90.06035988
_cell_angle_beta   90.15295170
_cell_angle_gamma   90.37517694
_symmetry_Int_Tables_number   1
_chemical_formula_structural   Ac9La7(TbSn4)4
_chemical_formula_sum   'Ac9 La7 Tb4 Sn16'
_cell_volume   1219.35450490
_cell_formula_units_Z   1
loop_
 _symmetry_equiv_pos_site_id
 _symmetry_equiv_pos_as_xyz
  1  'x, y, z'
loop_
 _atom_site_type_symbol
 _atom_site_label
 _atom_site_symmetry_multiplicity
 _atom_site_fract_x
 _atom_site_fract_y
 _atom_site_fract_z
 _atom_site_occupancy
  Ac  Ac0  1  0.975477  0.819707  0.901192  1
  Ac  Ac1  1  0.474451  0.680683  0.599543  1
  Ac  Ac2  1  0.524172  0.319231  0.097161  1
  Ac  Ac3  1  0.026404  0.180138  0.401062  1
  Ac  Ac4  1  0.974222  0.820832  0.600526  1
  Ac  Ac5  1  0.475727  0.680369  0.901571  1
  Ac  Ac6  1  0.525991  0.319020  0.401547  1
  Ac  Ac7  1  0.024637  0.179759  0.097243  1
  Ac  Ac8  1  0.873198  0.656628  0.382573  1
  La  La9  1  0.371042  0.844348  0.117297  1
  La  La10  1  0.625819  0.155318  0.620039  1
  La  La11  1  0.127896  0.343371  0.880828  1
  La  La12  1  0.127897  0.343425  0.619595  1
  La  La13  1  0.628324  0.155715  0.881414  1
  La  La14  1  0.371553  0.844214  0.381352  1
  La  La15  1  0.871924  0.656273  0.118415  1
  Tb  Tb16  1  0.289108  0.005321  0.750214  1
  Tb  Tb17  1  0.789526  0.495776  0.750539  1
  Tb  Tb18  1  0.211942  0.503332  0.249102  1
  Tb  Tb19  1  0.709054  0.995133  0.249295  1
  Sn  Sn20  1  0.789311  0.461362  0.551942  1
  Sn  Sn21  1  0.290316  0.037842  0.951886  1
  Sn  Sn22  1  0.707390  0.968824  0.453432  1
  Sn  Sn23  1  0.208835  0.536668  0.047371  1
  Sn  Sn24  1  0.216665  0.533867  0.453127  1
  Sn  Sn25  1  0.709467  0.962136  0.047284  1
  Sn  Sn26  1  0.288363  0.036941  0.547550  1
  Sn  Sn27  1  0.790864  0.463312  0.951991  1
  Sn  Sn28  1  0.170689  0.643640  0.750525  1
  Sn  Sn29  1  0.671655  0.857007  0.750617  1
  Sn  Sn30  1  0.329681  0.142852  0.249314  1
  Sn  Sn31  1  0.829399  0.352188  0.248020  1
  Sn  Sn32  1  0.928295  0.125286  0.750360  1
  Sn  Sn33  1  0.429673  0.374057  0.750645  1
  Sn  Sn34  1  0.567074  0.626595  0.247509  1
  Sn  Sn35  1  0.073962  0.878829  0.247918  1
