# generated using pymatgen
data_Tm3Zr(Co4P3)2
_symmetry_space_group_name_H-M   'P 1'
_cell_length_a   3.69866900
_cell_length_b   10.64385300
_cell_length_c   12.32831200
_cell_angle_alpha   90.00000000
_cell_angle_beta   90.00000000
_cell_angle_gamma   90.00000000
_symmetry_Int_Tables_number   1
_chemical_formula_structural   Tm3Zr(Co4P3)2
_chemical_formula_sum   'Tm6 Zr2 Co16 P12'
_cell_volume   485.34208566
_cell_formula_units_Z   2
loop_
 _symmetry_equiv_pos_site_id
 _symmetry_equiv_pos_as_xyz
  1  'x, y, z'
loop_
 _atom_site_type_symbol
 _atom_site_label
 _atom_site_symmetry_multiplicity
 _atom_site_fract_x
 _atom_site_fract_y
 _atom_site_fract_z
 _atom_site_occupancy
  Tm  Tm0  1  0.750000  0.250000  0.470160  1
  Tm  Tm1  1  0.250000  0.750000  0.529840  1
  Tm  Tm2  1  0.250000  0.927760  0.795386  1
  Tm  Tm3  1  0.250000  0.572240  0.795386  1
  Tm  Tm4  1  0.750000  0.072240  0.204614  1
  Tm  Tm5  1  0.750000  0.427760  0.204614  1
  Zr  Zr6  1  0.250000  0.250000  0.841300  1
  Zr  Zr7  1  0.750000  0.750000  0.158700  1
  Co  Co8  1  0.250000  0.250000  0.297156  1
  Co  Co9  1  0.750000  0.750000  0.702844  1
  Co  Co10  1  0.750000  0.250000  0.014602  1
  Co  Co11  1  0.250000  0.750000  0.985398  1
  Co  Co12  1  0.250000  0.418001  0.007451  1
  Co  Co13  1  0.250000  0.081999  0.007451  1
  Co  Co14  1  0.750000  0.581999  0.992549  1
  Co  Co15  1  0.750000  0.918001  0.992549  1
  Co  Co16  1  0.250000  0.454925  0.566393  1
  Co  Co17  1  0.250000  0.045075  0.566393  1
  Co  Co18  1  0.750000  0.545075  0.433607  1
  Co  Co19  1  0.750000  0.954925  0.433607  1
  Co  Co20  1  0.250000  0.873418  0.298854  1
  Co  Co21  1  0.250000  0.626582  0.298854  1
  Co  Co22  1  0.750000  0.126582  0.701146  1
  Co  Co23  1  0.750000  0.373418  0.701146  1
  P  P24  1  0.250000  0.250000  0.117587  1
  P  P25  1  0.750000  0.750000  0.882413  1
  P  P26  1  0.250000  0.250000  0.635347  1
  P  P27  1  0.750000  0.750000  0.364653  1
  P  P28  1  0.250000  0.438480  0.383840  1
  P  P29  1  0.250000  0.061520  0.383840  1
  P  P30  1  0.750000  0.561520  0.616160  1
  P  P31  1  0.750000  0.938480  0.616160  1
  P  P32  1  0.250000  0.912701  0.107331  1
  P  P33  1  0.250000  0.587299  0.107331  1
  P  P34  1  0.750000  0.087299  0.892669  1
  P  P35  1  0.750000  0.412701  0.892669  1
