# generated using pymatgen
data_TbDyY2(TiAl3)2
_symmetry_space_group_name_H-M   'P 1'
_cell_length_a   9.55313795
_cell_length_b   9.55313777
_cell_length_c   9.55313845
_cell_angle_alpha   34.78627565
_cell_angle_beta   34.78627393
_cell_angle_gamma   34.78628027
_symmetry_Int_Tables_number   1
_chemical_formula_structural   TbDyY2(TiAl3)2
_chemical_formula_sum   'Tb1 Dy1 Y2 Ti2 Al6'
_cell_volume   253.28555342
_cell_formula_units_Z   1
loop_
 _symmetry_equiv_pos_site_id
 _symmetry_equiv_pos_as_xyz
  1  'x, y, z'
loop_
 _atom_site_type_symbol
 _atom_site_label
 _atom_site_symmetry_multiplicity
 _atom_site_fract_x
 _atom_site_fract_y
 _atom_site_fract_z
 _atom_site_occupancy
  Tb  Tb0  1  0.813196  0.813196  0.813196  1
  Dy  Dy1  1  0.186706  0.186706  0.186706  1
  Y  Y2  1  0.313245  0.313245  0.313245  1
  Y  Y3  1  0.686717  0.686717  0.686717  1
  Ti  Ti4  1  0.500043  0.500043  0.500043  1
  Ti  Ti5  1  0.000044  0.000044  0.000044  1
  Al  Al6  1  0.250024  0.250024  0.749728  1
  Al  Al7  1  0.749990  0.749990  0.250294  1
  Al  Al8  1  0.250024  0.749728  0.250024  1
  Al  Al9  1  0.749990  0.250294  0.749990  1
  Al  Al10  1  0.749728  0.250024  0.250024  1
  Al  Al11  1  0.250294  0.749990  0.749990  1
