# generated using pymatgen
data_LiTl3O5
_symmetry_space_group_name_H-M   'P 1'
_cell_length_a   3.48808600
_cell_length_b   10.85586200
_cell_length_c   14.06520300
_cell_angle_alpha   90.00000000
_cell_angle_beta   90.00000000
_cell_angle_gamma   90.00000000
_symmetry_Int_Tables_number   1
_chemical_formula_structural   LiTl3O5
_chemical_formula_sum   'Li4 Tl12 O20'
_cell_volume   532.59551219
_cell_formula_units_Z   4
loop_
 _symmetry_equiv_pos_site_id
 _symmetry_equiv_pos_as_xyz
  1  'x, y, z'
loop_
 _atom_site_type_symbol
 _atom_site_label
 _atom_site_symmetry_multiplicity
 _atom_site_fract_x
 _atom_site_fract_y
 _atom_site_fract_z
 _atom_site_occupancy
  Li  Li0  1  0.500000  0.734738  0.867787  1
  Li  Li1  1  0.500000  0.765262  0.367787  1
  Li  Li2  1  0.500000  0.234738  0.632213  1
  Li  Li3  1  0.500000  0.265262  0.132213  1
  Tl  Tl4  1  0.000000  0.500000  0.000000  1
  Tl  Tl5  1  0.500000  0.500000  0.500000  1
  Tl  Tl6  1  0.000000  0.482152  0.287395  1
  Tl  Tl7  1  0.500000  0.727072  0.122761  1
  Tl  Tl8  1  0.500000  0.772928  0.622761  1
  Tl  Tl9  1  0.000000  0.017848  0.787395  1
  Tl  Tl10  1  0.000000  0.000000  0.500000  1
  Tl  Tl11  1  0.500000  0.000000  0.000000  1
  Tl  Tl12  1  0.000000  0.982152  0.212605  1
  Tl  Tl13  1  0.500000  0.227072  0.377239  1
  Tl  Tl14  1  0.500000  0.272928  0.877239  1
  Tl  Tl15  1  0.000000  0.517848  0.712605  1
  O  O16  1  0.000000  0.593111  0.153598  1
  O  O17  1  0.000000  0.627690  0.568999  1
  O  O18  1  0.500000  0.590282  0.361395  1
  O  O19  1  0.500000  0.652094  0.749096  1
  O  O20  1  0.500000  0.635588  0.979471  1
  O  O21  1  0.500000  0.864412  0.479471  1
  O  O22  1  0.500000  0.847906  0.249096  1
  O  O23  1  0.500000  0.909718  0.861395  1
  O  O24  1  0.000000  0.872310  0.068999  1
  O  O25  1  0.000000  0.906889  0.653598  1
  O  O26  1  0.000000  0.093111  0.346402  1
  O  O27  1  0.000000  0.127690  0.931001  1
  O  O28  1  0.500000  0.090282  0.138605  1
  O  O29  1  0.500000  0.152094  0.750904  1
  O  O30  1  0.500000  0.135588  0.520529  1
  O  O31  1  0.500000  0.364412  0.020529  1
  O  O32  1  0.500000  0.347906  0.250904  1
  O  O33  1  0.500000  0.409718  0.638605  1
  O  O34  1  0.000000  0.372310  0.431001  1
  O  O35  1  0.000000  0.406889  0.846402  1
