# generated using pymatgen
data_LiLaYbPt3
_symmetry_space_group_name_H-M   'P 1'
_cell_length_a   5.61520683
_cell_length_b   5.61520581
_cell_length_c   5.26881249
_cell_angle_alpha   57.80027797
_cell_angle_beta   57.80028618
_cell_angle_gamma   60.00000546
_symmetry_Int_Tables_number   1
_chemical_formula_structural   LiLaYbPt3
_chemical_formula_sum   'Li1 La1 Yb1 Pt3'
_cell_volume   113.41204997
_cell_formula_units_Z   1
loop_
 _symmetry_equiv_pos_site_id
 _symmetry_equiv_pos_as_xyz
  1  'x, y, z'
loop_
 _atom_site_type_symbol
 _atom_site_label
 _atom_site_symmetry_multiplicity
 _atom_site_fract_x
 _atom_site_fract_y
 _atom_site_fract_z
 _atom_site_occupancy
  Li  Li0  1  0.125456  0.125456  0.623632  1
  La  La1  1  0.749198  0.749198  0.752407  1
  Yb  Yb2  1  0.498258  0.498258  0.505226  1
  Pt  Pt3  1  0.126721  0.623647  0.122912  1
  Pt  Pt4  1  0.623647  0.126721  0.122912  1
  Pt  Pt5  1  0.126721  0.126721  0.122912  1
