# generated using pymatgen
data_Nb4Al6CuNi
_symmetry_space_group_name_H-M   'P 1'
_cell_length_a   5.15792400
_cell_length_b   5.15792381
_cell_length_c   7.89523900
_cell_angle_alpha   90.00000000
_cell_angle_beta   90.00000000
_cell_angle_gamma   120.00000119
_symmetry_Int_Tables_number   1
_chemical_formula_structural   Nb4Al6CuNi
_chemical_formula_sum   'Nb4 Al6 Cu1 Ni1'
_cell_volume   181.90547448
_cell_formula_units_Z   1
loop_
 _symmetry_equiv_pos_site_id
 _symmetry_equiv_pos_as_xyz
  1  'x, y, z'
loop_
 _atom_site_type_symbol
 _atom_site_label
 _atom_site_symmetry_multiplicity
 _atom_site_fract_x
 _atom_site_fract_y
 _atom_site_fract_z
 _atom_site_occupancy
  Nb  Nb0  1  0.666666  0.333332  0.068940  1
  Nb  Nb1  1  0.666666  0.333332  0.428864  1
  Nb  Nb2  1  0.333334  0.666667  0.571137  1
  Nb  Nb3  1  0.333334  0.666667  0.931061  1
  Al  Al4  1  0.168698  0.337395  0.255080  1
  Al  Al5  1  0.168698  0.831302  0.255080  1
  Al  Al6  1  0.662604  0.831302  0.255080  1
  Al  Al7  1  0.337396  0.168698  0.744919  1
  Al  Al8  1  0.831303  0.168698  0.744919  1
  Al  Al9  1  0.831302  0.662604  0.744919  1
  Cu  Cu10  1  0.000000  0.000000  0.000000  1
  Ni  Ni11  1  0.000000  0.000000  0.500000  1
