# generated using pymatgen
data_Y5Er3(Ni4As3)4
_symmetry_space_group_name_H-M   'P 1'
_cell_length_a   12.89035700
_cell_length_b   12.89035671
_cell_length_c   3.96343600
_cell_angle_alpha   90.00000000
_cell_angle_beta   90.00000000
_cell_angle_gamma   120.00000332
_symmetry_Int_Tables_number   1
_chemical_formula_structural   Y5Er3(Ni4As3)4
_chemical_formula_sum   'Y5 Er3 Ni16 As12'
_cell_volume   570.33805185
_cell_formula_units_Z   1
loop_
 _symmetry_equiv_pos_site_id
 _symmetry_equiv_pos_as_xyz
  1  'x, y, z'
loop_
 _atom_site_type_symbol
 _atom_site_label
 _atom_site_symmetry_multiplicity
 _atom_site_fract_x
 _atom_site_fract_y
 _atom_site_fract_z
 _atom_site_occupancy
  Y  Y0  1  0.181899  0.181899  0.500000  1
  Y  Y1  1  0.818101  0.000000  0.500000  1
  Y  Y2  1  0.000000  0.818101  0.500000  1
  Y  Y3  1  0.333333  0.666667  0.000000  1
  Y  Y4  1  0.666667  0.333333  0.000000  1
  Er  Er5  1  0.565076  0.565076  0.000000  1
  Er  Er6  1  0.434924  0.000000  0.000000  1
  Er  Er7  1  0.000000  0.434924  0.000000  1
  Ni  Ni8  1  0.725023  0.725023  0.500000  1
  Ni  Ni9  1  0.274977  0.000000  0.500000  1
  Ni  Ni10  1  0.000000  0.274977  0.500000  1
  Ni  Ni11  1  0.186329  0.377187  0.000000  1
  Ni  Ni12  1  0.622813  0.809143  0.000000  1
  Ni  Ni13  1  0.190857  0.813671  0.000000  1
  Ni  Ni14  1  0.809143  0.622813  0.000000  1
  Ni  Ni15  1  0.813671  0.190857  0.000000  1
  Ni  Ni16  1  0.377187  0.186329  0.000000  1
  Ni  Ni17  1  0.361625  0.480986  0.500000  1
  Ni  Ni18  1  0.519014  0.880640  0.500000  1
  Ni  Ni19  1  0.119360  0.638375  0.500000  1
  Ni  Ni20  1  0.880640  0.519014  0.500000  1
  Ni  Ni21  1  0.638375  0.119360  0.500000  1
  Ni  Ni22  1  0.480986  0.361625  0.500000  1
  Ni  Ni23  1  0.000000  0.000000  0.000000  1
  As  As24  1  0.822082  0.822082  0.000000  1
  As  As25  1  0.177918  0.000000  0.000000  1
  As  As26  1  0.000000  0.177918  0.000000  1
  As  As27  1  0.175372  0.478060  0.500000  1
  As  As28  1  0.521940  0.697312  0.500000  1
  As  As29  1  0.302688  0.824628  0.500000  1
  As  As30  1  0.697312  0.521940  0.500000  1
  As  As31  1  0.824628  0.302688  0.500000  1
  As  As32  1  0.478060  0.175372  0.500000  1
  As  As33  1  0.351592  0.351592  0.000000  1
  As  As34  1  0.648408  0.000000  0.000000  1
  As  As35  1  0.000000  0.648408  0.000000  1
