# generated using pymatgen
data_Zr2TiNbAl3
_symmetry_space_group_name_H-M   'P 1'
_cell_length_a   5.30439400
_cell_length_b   5.30439404
_cell_length_c   5.22242200
_cell_angle_alpha   90.00000000
_cell_angle_beta   90.00000000
_cell_angle_gamma   119.99999976
_symmetry_Int_Tables_number   1
_chemical_formula_structural   Zr2TiNbAl3
_chemical_formula_sum   'Zr2 Ti1 Nb1 Al3'
_cell_volume   127.25479288
_cell_formula_units_Z   1
loop_
 _symmetry_equiv_pos_site_id
 _symmetry_equiv_pos_as_xyz
  1  'x, y, z'
loop_
 _atom_site_type_symbol
 _atom_site_label
 _atom_site_symmetry_multiplicity
 _atom_site_fract_x
 _atom_site_fract_y
 _atom_site_fract_z
 _atom_site_occupancy
  Zr  Zr0  1  0.333333  0.666667  0.497296  1
  Zr  Zr1  1  0.666667  0.333333  0.497296  1
  Ti  Ti2  1  0.000000  0.000000  0.736351  1
  Nb  Nb3  1  0.000000  0.000000  0.267232  1
  Al  Al4  1  0.500000  0.000000  0.000608  1
  Al  Al5  1  0.500000  0.500000  0.000608  1
  Al  Al6  1  0.000000  0.500000  0.000608  1
