# generated using pymatgen
data_Ho4Tm2Al24Os5Pt3
_symmetry_space_group_name_H-M   'P 1'
_cell_length_a   8.80886585
_cell_length_b   8.83285727
_cell_length_c   9.52679425
_cell_angle_alpha   90.12751967
_cell_angle_beta   89.70284745
_cell_angle_gamma   119.55895836
_symmetry_Int_Tables_number   1
_chemical_formula_structural   Ho4Tm2Al24Os5Pt3
_chemical_formula_sum   'Ho4 Tm2 Al24 Os5 Pt3'
_cell_volume   644.77138070
_cell_formula_units_Z   1
loop_
 _symmetry_equiv_pos_site_id
 _symmetry_equiv_pos_as_xyz
  1  'x, y, z'
loop_
 _atom_site_type_symbol
 _atom_site_label
 _atom_site_symmetry_multiplicity
 _atom_site_fract_x
 _atom_site_fract_y
 _atom_site_fract_z
 _atom_site_occupancy
  Ho  Ho0  1  0.187641  0.383960  0.251335  1
  Ho  Ho1  1  0.812359  0.616040  0.748665  1
  Ho  Ho2  1  0.613287  0.814367  0.252585  1
  Ho  Ho3  1  0.386713  0.185633  0.747415  1
  Tm  Tm4  1  0.197439  0.807968  0.252196  1
  Tm  Tm5  1  0.802561  0.192032  0.747804  1
  Al  Al6  1  0.335106  0.671289  0.030830  1
  Al  Al7  1  0.664894  0.328711  0.969170  1
  Al  Al8  1  0.669137  0.331279  0.528240  1
  Al  Al9  1  0.330863  0.668721  0.471760  1
  Al  Al10  1  0.157584  0.325297  0.576005  1
  Al  Al11  1  0.842416  0.674703  0.423995  1
  Al  Al12  1  0.673297  0.840709  0.576330  1
  Al  Al13  1  0.837178  0.676290  0.078449  1
  Al  Al14  1  0.326703  0.159291  0.423670  1
  Al  Al15  1  0.162822  0.323710  0.921551  1
  Al  Al16  1  0.163592  0.834780  0.576019  1
  Al  Al17  1  0.325554  0.158871  0.076964  1
  Al  Al18  1  0.836408  0.165220  0.423981  1
  Al  Al19  1  0.674446  0.841129  0.923036  1
  Al  Al20  1  0.831736  0.159717  0.077536  1
  Al  Al21  1  0.168264  0.840283  0.922464  1
  Al  Al22  1  0.561035  0.125336  0.249898  1
  Al  Al23  1  0.438965  0.874664  0.750102  1
  Al  Al24  1  0.874381  0.438088  0.252569  1
  Al  Al25  1  0.125619  0.561912  0.747431  1
  Al  Al26  1  0.562365  0.436663  0.249809  1
  Al  Al27  1  0.437635  0.563337  0.750191  1
  Al  Al28  1  0.999928  0.002799  0.250230  1
  Al  Al29  1  0.000072  0.997201  0.749770  1
  Os  Os30  1  0.500000  0.000000  0.000000  1
  Os  Os31  1  0.500000  0.000000  0.500000  1
  Os  Os32  1  0.000000  0.500000  0.500000  1
  Os  Os33  1  0.000000  0.000000  0.000000  1
  Os  Os34  1  0.000000  0.000000  0.500000  1
  Pt  Pt35  1  0.000000  0.500000  0.000000  1
  Pt  Pt36  1  0.500000  0.500000  0.000000  1
  Pt  Pt37  1  0.500000  0.500000  0.500000  1
