# generated using pymatgen
data_Dy4PBr6
_symmetry_space_group_name_H-M   'P 1'
_cell_length_a   4.00411200
_cell_length_b   13.11411000
_cell_length_c   13.83637200
_cell_angle_alpha   90.00000000
_cell_angle_beta   90.00000000
_cell_angle_gamma   90.00000000
_symmetry_Int_Tables_number   1
_chemical_formula_structural   Dy4PBr6
_chemical_formula_sum   'Dy8 P2 Br12'
_cell_volume   726.55294704
_cell_formula_units_Z   2
loop_
 _symmetry_equiv_pos_site_id
 _symmetry_equiv_pos_as_xyz
  1  'x, y, z'
loop_
 _atom_site_type_symbol
 _atom_site_label
 _atom_site_symmetry_multiplicity
 _atom_site_fract_x
 _atom_site_fract_y
 _atom_site_fract_z
 _atom_site_occupancy
  Dy  Dy0  1  0.500000  0.117172  0.342919  1
  Dy  Dy1  1  0.500000  0.882828  0.657081  1
  Dy  Dy2  1  0.500000  0.617172  0.157081  1
  Dy  Dy3  1  0.500000  0.382828  0.842919  1
  Dy  Dy4  1  0.000000  0.114937  0.576272  1
  Dy  Dy5  1  0.000000  0.885063  0.423728  1
  Dy  Dy6  1  0.000000  0.614937  0.923728  1
  Dy  Dy7  1  0.000000  0.385063  0.076272  1
  P  P8  1  0.500000  0.000000  0.500000  1
  P  P9  1  0.500000  0.500000  0.000000  1
  Br  Br10  1  0.500000  0.243151  0.162576  1
  Br  Br11  1  0.500000  0.756849  0.837424  1
  Br  Br12  1  0.500000  0.743151  0.337424  1
  Br  Br13  1  0.500000  0.256849  0.662576  1
  Br  Br14  1  0.000000  0.256457  0.412109  1
  Br  Br15  1  0.000000  0.743543  0.587891  1
  Br  Br16  1  0.000000  0.756457  0.087891  1
  Br  Br17  1  0.000000  0.243543  0.912109  1
  Br  Br18  1  0.000000  0.000611  0.242416  1
  Br  Br19  1  0.000000  0.999389  0.757584  1
  Br  Br20  1  0.000000  0.500611  0.257584  1
  Br  Br21  1  0.000000  0.499389  0.742416  1
