# generated using pymatgen
data_Eu10ZnCd2Ni3
_symmetry_space_group_name_H-M   'P 1'
_cell_length_a   9.27663286
_cell_length_b   9.27663302
_cell_length_c   9.30264939
_cell_angle_alpha   129.04935121
_cell_angle_beta   129.04935130
_cell_angle_gamma   74.72140433
_symmetry_Int_Tables_number   1
_chemical_formula_structural   Eu10ZnCd2Ni3
_chemical_formula_sum   'Eu10 Zn1 Cd2 Ni3'
_cell_volume   470.86711325
_cell_formula_units_Z   1
loop_
 _symmetry_equiv_pos_site_id
 _symmetry_equiv_pos_as_xyz
  1  'x, y, z'
loop_
 _atom_site_type_symbol
 _atom_site_label
 _atom_site_symmetry_multiplicity
 _atom_site_fract_x
 _atom_site_fract_y
 _atom_site_fract_z
 _atom_site_occupancy
  Eu  Eu0  1  0.505025  0.496112  0.001137  1
  Eu  Eu1  1  0.996112  0.005025  0.001137  1
  Eu  Eu2  1  0.532603  0.032603  0.836446  1
  Eu  Eu3  1  0.203205  0.703205  0.181766  1
  Eu  Eu4  1  0.033645  0.185255  0.490391  1
  Eu  Eu5  1  0.685255  0.533645  0.490391  1
  Eu  Eu6  1  0.478560  0.978560  0.181766  1
  Eu  Eu7  1  0.803844  0.303844  0.836446  1
  Eu  Eu8  1  0.956746  0.805136  0.490391  1
  Eu  Eu9  1  0.305136  0.456746  0.490391  1
  Zn  Zn10  1  0.116757  0.616757  0.733513  1
  Cd  Cd11  1  0.246281  0.246281  0.992563  1
  Cd  Cd12  1  0.746281  0.746281  0.992563  1
  Ni  Ni13  1  0.891030  0.391030  0.282061  1
  Ni  Ni14  1  0.610747  0.888774  0.499520  1
  Ni  Ni15  1  0.388774  0.110747  0.499520  1
