# generated using pymatgen
data_Zr3ScIn5Co2
_symmetry_space_group_name_H-M   'P 1'
_cell_length_a   7.47005833
_cell_length_b   3.32978000
_cell_length_c   9.20690064
_cell_angle_alpha   90.00000000
_cell_angle_beta   95.01886759
_cell_angle_gamma   90.00000000
_symmetry_Int_Tables_number   1
_chemical_formula_structural   Zr3ScIn5Co2
_chemical_formula_sum   'Zr3 Sc1 In5 Co2'
_cell_volume   228.13119747
_cell_formula_units_Z   1
loop_
 _symmetry_equiv_pos_site_id
 _symmetry_equiv_pos_as_xyz
  1  'x, y, z'
loop_
 _atom_site_type_symbol
 _atom_site_label
 _atom_site_symmetry_multiplicity
 _atom_site_fract_x
 _atom_site_fract_y
 _atom_site_fract_z
 _atom_site_occupancy
  Zr  Zr0  1  0.199474  0.500001  0.438131  1
  Zr  Zr1  1  0.799937  0.500001  0.559761  1
  Zr  Zr2  1  0.183931  0.500001  0.838048  1
  Sc  Sc3  1  0.815376  0.500001  0.160890  1
  In  In4  1  0.500368  0.000000  0.999902  1
  In  In5  1  0.154564  0.000000  0.140701  1
  In  In6  1  0.542792  0.000000  0.333672  1
  In  In7  1  0.458794  0.000000  0.666595  1
  In  In8  1  0.842517  0.000000  0.858592  1
  Co  Co9  1  0.925819  0.000000  0.368526  1
  Co  Co10  1  0.076425  0.000000  0.635182  1
