# generated using pymatgen
data_NdCo3Ni2P3
_symmetry_space_group_name_H-M   'P 1'
_cell_length_a   3.73365300
_cell_length_b   10.40107800
_cell_length_c   11.91535200
_cell_angle_alpha   90.00000000
_cell_angle_beta   90.00000000
_cell_angle_gamma   90.00000000
_symmetry_Int_Tables_number   1
_chemical_formula_structural   NdCo3Ni2P3
_chemical_formula_sum   'Nd4 Co12 Ni8 P12'
_cell_volume   462.72097114
_cell_formula_units_Z   4
loop_
 _symmetry_equiv_pos_site_id
 _symmetry_equiv_pos_as_xyz
  1  'x, y, z'
loop_
 _atom_site_type_symbol
 _atom_site_label
 _atom_site_symmetry_multiplicity
 _atom_site_fract_x
 _atom_site_fract_y
 _atom_site_fract_z
 _atom_site_occupancy
  Nd  Nd0  1  0.250000  0.583033  0.701958  1
  Nd  Nd1  1  0.250000  0.916967  0.201958  1
  Nd  Nd2  1  0.750000  0.416967  0.298042  1
  Nd  Nd3  1  0.750000  0.083033  0.798042  1
  Co  Co4  1  0.250000  0.221143  0.175556  1
  Co  Co5  1  0.250000  0.278857  0.675556  1
  Co  Co6  1  0.750000  0.778857  0.824444  1
  Co  Co7  1  0.750000  0.721143  0.324444  1
  Co  Co8  1  0.250000  0.881524  0.696423  1
  Co  Co9  1  0.250000  0.618476  0.196423  1
  Co  Co10  1  0.750000  0.118476  0.303577  1
  Co  Co11  1  0.750000  0.381524  0.803577  1
  Co  Co12  1  0.250000  0.468785  0.933350  1
  Co  Co13  1  0.250000  0.031215  0.433350  1
  Co  Co14  1  0.750000  0.531215  0.066650  1
  Co  Co15  1  0.750000  0.968785  0.566650  1
  Ni  Ni16  1  0.250000  0.711214  0.988615  1
  Ni  Ni17  1  0.250000  0.788786  0.488615  1
  Ni  Ni18  1  0.750000  0.288786  0.011385  1
  Ni  Ni19  1  0.750000  0.211214  0.511385  1
  Ni  Ni20  1  0.250000  0.407407  0.487989  1
  Ni  Ni21  1  0.250000  0.092593  0.987989  1
  Ni  Ni22  1  0.750000  0.592593  0.512011  1
  Ni  Ni23  1  0.750000  0.907407  0.012011  1
  P  P24  1  0.250000  0.419261  0.110678  1
  P  P25  1  0.250000  0.080739  0.610678  1
  P  P26  1  0.750000  0.580739  0.889322  1
  P  P27  1  0.750000  0.919261  0.389322  1
  P  P28  1  0.250000  0.277231  0.865619  1
  P  P29  1  0.250000  0.222769  0.365619  1
  P  P30  1  0.750000  0.722769  0.134381  1
  P  P31  1  0.750000  0.777231  0.634381  1
  P  P32  1  0.250000  0.608636  0.388720  1
  P  P33  1  0.250000  0.891364  0.888720  1
  P  P34  1  0.750000  0.391364  0.611280  1
  P  P35  1  0.750000  0.108636  0.111280  1
