# generated using pymatgen
data_CeSm9(Ga2Ru3)2
_symmetry_space_group_name_H-M   'P 1'
_cell_length_a   8.51756751
_cell_length_b   8.51756767
_cell_length_c   8.40233400
_cell_angle_alpha   110.27759628
_cell_angle_beta   109.13760831
_cell_angle_gamma   109.55533047
_symmetry_Int_Tables_number   1
_chemical_formula_structural   CeSm9(Ga2Ru3)2
_chemical_formula_sum   'Ce1 Sm9 Ga4 Ru6'
_cell_volume   465.96709078
_cell_formula_units_Z   1
loop_
 _symmetry_equiv_pos_site_id
 _symmetry_equiv_pos_as_xyz
  1  'x, y, z'
loop_
 _atom_site_type_symbol
 _atom_site_label
 _atom_site_symmetry_multiplicity
 _atom_site_fract_x
 _atom_site_fract_y
 _atom_site_fract_z
 _atom_site_occupancy
  Ce  Ce0  1  0.197201  0.947201  0.250000  1
  Sm  Sm1  1  0.779029  0.784089  0.783068  1
  Sm  Sm2  1  0.312665  0.562665  0.750000  1
  Sm  Sm3  1  0.754139  0.314697  0.564786  1
  Sm  Sm4  1  0.565587  0.748895  0.312979  1
  Sm  Sm5  1  0.719779  0.500386  0.997552  1
  Sm  Sm6  1  0.002834  0.722227  0.502448  1
  Sm  Sm7  1  0.501021  0.995961  0.716932  1
  Sm  Sm8  1  0.249910  0.189353  0.935214  1
  Sm  Sm9  1  0.935917  0.252609  0.187021  1
  Ga  Ga10  1  0.412994  0.412976  0.407782  1
  Ga  Ga11  1  0.092583  0.499565  0.005643  1
  Ga  Ga12  1  0.993922  0.086941  0.494357  1
  Ga  Ga13  1  0.505193  0.005212  0.092218  1
  Ru  Ru14  1  0.875387  0.125387  0.750000  1
  Ru  Ru15  1  0.739522  0.870161  0.117656  1
  Ru  Ru16  1  0.129450  0.766279  0.912668  1
  Ru  Ru17  1  0.252505  0.621866  0.382344  1
  Ru  Ru18  1  0.353612  0.216782  0.587332  1
  Ru  Ru19  1  0.626749  0.376749  0.250000  1
