# generated using pymatgen
data_Nd12Os3Au
_symmetry_space_group_name_H-M   'P 1'
_cell_length_a   6.59415472
_cell_length_b   7.52160349
_cell_length_c   9.79918700
_cell_angle_alpha   90.00000000
_cell_angle_beta   90.00000000
_cell_angle_gamma   90.33191783
_symmetry_Int_Tables_number   1
_chemical_formula_structural   Nd12Os3Au
_chemical_formula_sum   'Nd12 Os3 Au1'
_cell_volume   486.01796885
_cell_formula_units_Z   1
loop_
 _symmetry_equiv_pos_site_id
 _symmetry_equiv_pos_as_xyz
  1  'x, y, z'
loop_
 _atom_site_type_symbol
 _atom_site_label
 _atom_site_symmetry_multiplicity
 _atom_site_fract_x
 _atom_site_fract_y
 _atom_site_fract_z
 _atom_site_occupancy
  Nd  Nd0  1  0.341594  0.667713  0.060041  1
  Nd  Nd1  1  0.171716  0.187685  0.442533  1
  Nd  Nd2  1  0.674173  0.322109  0.567655  1
  Nd  Nd3  1  0.824110  0.826749  0.929779  1
  Nd  Nd4  1  0.674173  0.322109  0.932345  1
  Nd  Nd5  1  0.824110  0.826749  0.570221  1
  Nd  Nd6  1  0.341594  0.667713  0.439959  1
  Nd  Nd7  1  0.171716  0.187685  0.057467  1
  Nd  Nd8  1  0.855089  0.522221  0.250000  1
  Nd  Nd9  1  0.623252  0.045933  0.250000  1
  Nd  Nd10  1  0.138430  0.462529  0.750000  1
  Nd  Nd11  1  0.356247  0.959193  0.750000  1
  Os  Os12  1  0.439739  0.384244  0.250000  1
  Os  Os13  1  0.950497  0.114502  0.750000  1
  Os  Os14  1  0.552469  0.614903  0.750000  1
  Au  Au15  1  0.061092  0.887965  0.250000  1
