# generated using pymatgen
data_Eu3Co8P6Ru
_symmetry_space_group_name_H-M   'P 1'
_cell_length_a   3.76231700
_cell_length_b   10.66810500
_cell_length_c   12.41832100
_cell_angle_alpha   90.00000000
_cell_angle_beta   90.00000000
_cell_angle_gamma   90.00000000
_symmetry_Int_Tables_number   1
_chemical_formula_structural   Eu3Co8P6Ru
_chemical_formula_sum   'Eu6 Co16 P12 Ru2'
_cell_volume   498.43157689
_cell_formula_units_Z   2
loop_
 _symmetry_equiv_pos_site_id
 _symmetry_equiv_pos_as_xyz
  1  'x, y, z'
loop_
 _atom_site_type_symbol
 _atom_site_label
 _atom_site_symmetry_multiplicity
 _atom_site_fract_x
 _atom_site_fract_y
 _atom_site_fract_z
 _atom_site_occupancy
  Eu  Eu0  1  0.000000  0.500000  0.526050  1
  Eu  Eu1  1  0.500000  0.000000  0.473950  1
  Eu  Eu2  1  0.500000  0.819220  0.206193  1
  Eu  Eu3  1  0.500000  0.180780  0.206193  1
  Eu  Eu4  1  0.000000  0.680780  0.793807  1
  Eu  Eu5  1  0.000000  0.319220  0.793807  1
  Co  Co6  1  0.500000  0.500000  0.703158  1
  Co  Co7  1  0.000000  0.000000  0.296842  1
  Co  Co8  1  0.000000  0.500000  0.988812  1
  Co  Co9  1  0.500000  0.000000  0.011188  1
  Co  Co10  1  0.500000  0.332045  0.992674  1
  Co  Co11  1  0.500000  0.667955  0.992674  1
  Co  Co12  1  0.000000  0.167955  0.007326  1
  Co  Co13  1  0.000000  0.832045  0.007326  1
  Co  Co14  1  0.500000  0.297332  0.430870  1
  Co  Co15  1  0.500000  0.702668  0.430870  1
  Co  Co16  1  0.000000  0.202668  0.569130  1
  Co  Co17  1  0.000000  0.797332  0.569130  1
  Co  Co18  1  0.500000  0.881220  0.708417  1
  Co  Co19  1  0.500000  0.118780  0.708417  1
  Co  Co20  1  0.000000  0.618780  0.291583  1
  Co  Co21  1  0.000000  0.381220  0.291583  1
  P  P22  1  0.500000  0.500000  0.886181  1
  P  P23  1  0.000000  0.000000  0.113819  1
  P  P24  1  0.500000  0.500000  0.344876  1
  P  P25  1  0.000000  0.000000  0.655124  1
  P  P26  1  0.500000  0.305735  0.615034  1
  P  P27  1  0.500000  0.694265  0.615034  1
  P  P28  1  0.000000  0.194265  0.384966  1
  P  P29  1  0.000000  0.805735  0.384966  1
  P  P30  1  0.500000  0.846820  0.895254  1
  P  P31  1  0.500000  0.153180  0.895254  1
  P  P32  1  0.000000  0.653180  0.104746  1
  P  P33  1  0.000000  0.346820  0.104746  1
  Ru  Ru34  1  0.500000  0.500000  0.157432  1
  Ru  Ru35  1  0.000000  0.000000  0.842568  1
