# generated using pymatgen
data_Ce4ReTcB12
_symmetry_space_group_name_H-M   'P 1'
_cell_length_a   3.73547600
_cell_length_b   9.44425837
_cell_length_c   11.56013291
_cell_angle_alpha   89.91874965
_cell_angle_beta   90.00000000
_cell_angle_gamma   90.00000000
_symmetry_Int_Tables_number   1
_chemical_formula_structural   Ce4ReTcB12
_chemical_formula_sum   'Ce8 Re2 Tc2 B24'
_cell_volume   407.82721241
_cell_formula_units_Z   2
loop_
 _symmetry_equiv_pos_site_id
 _symmetry_equiv_pos_as_xyz
  1  'x, y, z'
loop_
 _atom_site_type_symbol
 _atom_site_label
 _atom_site_symmetry_multiplicity
 _atom_site_fract_x
 _atom_site_fract_y
 _atom_site_fract_z
 _atom_site_occupancy
  Ce  Ce0  1  0.000000  0.336282  0.408096  1
  Ce  Ce1  1  0.000000  0.663718  0.591904  1
  Ce  Ce2  1  0.000000  0.836139  0.092149  1
  Ce  Ce3  1  0.000000  0.163861  0.907851  1
  Ce  Ce4  1  0.000000  0.954385  0.389249  1
  Ce  Ce5  1  0.000000  0.045615  0.610751  1
  Ce  Ce6  1  0.000000  0.453822  0.110614  1
  Ce  Ce7  1  0.000000  0.546178  0.889386  1
  Re  Re8  1  0.000000  0.644637  0.321034  1
  Re  Re9  1  0.000000  0.355363  0.678966  1
  Tc  Tc10  1  0.000000  0.144524  0.178924  1
  Tc  Tc11  1  0.000000  0.855476  0.821076  1
  B  B12  1  0.500000  0.553038  0.430100  1
  B  B13  1  0.500000  0.446962  0.569900  1
  B  B14  1  0.500000  0.053037  0.069941  1
  B  B15  1  0.500000  0.946963  0.930059  1
  B  B16  1  0.500000  0.742184  0.423124  1
  B  B17  1  0.500000  0.257816  0.576876  1
  B  B18  1  0.500000  0.241971  0.076879  1
  B  B19  1  0.500000  0.758029  0.923121  1
  B  B20  1  0.500000  0.799258  0.275215  1
  B  B21  1  0.500000  0.200742  0.724785  1
  B  B22  1  0.500000  0.299122  0.224770  1
  B  B23  1  0.500000  0.700878  0.775230  1
  B  B24  1  0.500000  0.645316  0.190016  1
  B  B25  1  0.500000  0.354684  0.809984  1
  B  B26  1  0.500000  0.145280  0.309967  1
  B  B27  1  0.500000  0.854720  0.690033  1
  B  B28  1  0.500000  0.991697  0.217461  1
  B  B29  1  0.500000  0.008303  0.782539  1
  B  B30  1  0.500000  0.491545  0.282536  1
  B  B31  1  0.500000  0.508455  0.717464  1
  B  B32  1  0.500000  0.647596  0.041502  1
  B  B33  1  0.500000  0.352404  0.958498  1
  B  B34  1  0.500000  0.147370  0.458411  1
  B  B35  1  0.500000  0.852630  0.541589  1
