# generated using pymatgen
data_ReTcO4
_symmetry_space_group_name_H-M   'P 1'
_cell_length_a   4.65606300
_cell_length_b   4.83276100
_cell_length_c   5.70427000
_cell_angle_alpha   90.00000000
_cell_angle_beta   90.00000000
_cell_angle_gamma   90.00000000
_symmetry_Int_Tables_number   1
_chemical_formula_structural   ReTcO4
_chemical_formula_sum   'Re2 Tc2 O8'
_cell_volume   128.35542818
_cell_formula_units_Z   2
loop_
 _symmetry_equiv_pos_site_id
 _symmetry_equiv_pos_as_xyz
  1  'x, y, z'
loop_
 _atom_site_type_symbol
 _atom_site_label
 _atom_site_symmetry_multiplicity
 _atom_site_fract_x
 _atom_site_fract_y
 _atom_site_fract_z
 _atom_site_occupancy
  Re  Re0  1  0.750000  0.500000  0.393795  1
  Re  Re1  1  0.250000  0.000000  0.106205  1
  Tc  Tc2  1  0.250000  0.500000  0.607384  1
  Tc  Tc3  1  0.750000  0.000000  0.892616  1
  O  O4  1  0.596389  0.248491  0.636647  1
  O  O5  1  0.096389  0.251509  0.863353  1
  O  O6  1  0.403611  0.748491  0.863353  1
  O  O7  1  0.903611  0.751509  0.636647  1
  O  O8  1  0.084117  0.238994  0.356138  1
  O  O9  1  0.584117  0.261006  0.143862  1
  O  O10  1  0.915883  0.738994  0.143862  1
  O  O11  1  0.415883  0.761006  0.356138  1
