# generated using pymatgen
data_Sr3DyCoO6
_symmetry_space_group_name_H-M   'P 1'
_cell_length_a   6.77156879
_cell_length_b   6.77156998
_cell_length_c   6.77157060
_cell_angle_alpha   92.49835310
_cell_angle_beta   92.49835181
_cell_angle_gamma   92.49835100
_symmetry_Int_Tables_number   1
_chemical_formula_structural   Sr3DyCoO6
_chemical_formula_sum   'Sr6 Dy2 Co2 O12'
_cell_volume   309.59256328
_cell_formula_units_Z   2
loop_
 _symmetry_equiv_pos_site_id
 _symmetry_equiv_pos_as_xyz
  1  'x, y, z'
loop_
 _atom_site_type_symbol
 _atom_site_label
 _atom_site_symmetry_multiplicity
 _atom_site_fract_x
 _atom_site_fract_y
 _atom_site_fract_z
 _atom_site_occupancy
  Sr  Sr0  1  0.881696  0.618304  0.250000  1
  Sr  Sr1  1  0.250000  0.881696  0.618304  1
  Sr  Sr2  1  0.618304  0.250000  0.881696  1
  Sr  Sr3  1  0.750000  0.118304  0.381696  1
  Sr  Sr4  1  0.381696  0.750000  0.118304  1
  Sr  Sr5  1  0.118304  0.381696  0.750000  1
  Dy  Dy6  1  0.250000  0.250000  0.250000  1
  Dy  Dy7  1  0.750000  0.750000  0.750000  1
  Co  Co8  1  0.500000  0.500000  0.500000  1
  Co  Co9  1  0.000000  0.000000  0.000000  1
  O  O10  1  0.218714  0.544984  0.413872  1
  O  O11  1  0.413872  0.218714  0.544984  1
  O  O12  1  0.544984  0.413872  0.218714  1
  O  O13  1  0.913872  0.044984  0.718714  1
  O  O14  1  0.718714  0.913872  0.044984  1
  O  O15  1  0.044984  0.718714  0.913872  1
  O  O16  1  0.781286  0.455016  0.586128  1
  O  O17  1  0.586128  0.781286  0.455016  1
  O  O18  1  0.455016  0.586128  0.781286  1
  O  O19  1  0.086128  0.955016  0.281286  1
  O  O20  1  0.281286  0.086128  0.955016  1
  O  O21  1  0.955016  0.281286  0.086128  1
