# generated using pymatgen
data_Er4Ga3Co4Si
_symmetry_space_group_name_H-M   'P 1'
_cell_length_a   4.34101000
_cell_length_b   6.94131904
_cell_length_c   6.86126224
_cell_angle_alpha   89.87447699
_cell_angle_beta   90.00000000
_cell_angle_gamma   90.00000000
_symmetry_Int_Tables_number   1
_chemical_formula_structural   Er4Ga3Co4Si
_chemical_formula_sum   'Er4 Ga3 Co4 Si1'
_cell_volume   206.74535874
_cell_formula_units_Z   1
loop_
 _symmetry_equiv_pos_site_id
 _symmetry_equiv_pos_as_xyz
  1  'x, y, z'
loop_
 _atom_site_type_symbol
 _atom_site_label
 _atom_site_symmetry_multiplicity
 _atom_site_fract_x
 _atom_site_fract_y
 _atom_site_fract_z
 _atom_site_occupancy
  Er  Er0  1  0.750000  0.518322  0.807465  1
  Er  Er1  1  0.750000  0.024679  0.693880  1
  Er  Er2  1  0.250000  0.478782  0.196004  1
  Er  Er3  1  0.250000  0.982763  0.305610  1
  Ga  Ga4  1  0.750000  0.197920  0.105931  1
  Ga  Ga5  1  0.750000  0.696650  0.394265  1
  Ga  Ga6  1  0.250000  0.805113  0.892823  1
  Co  Co7  1  0.750000  0.342949  0.445401  1
  Co  Co8  1  0.750000  0.847092  0.063743  1
  Co  Co9  1  0.250000  0.638247  0.564080  1
  Co  Co10  1  0.250000  0.162271  0.923407  1
  Si  Si11  1  0.250000  0.305213  0.607390  1
