# generated using pymatgen
data_Pa2Al16Ir9
_symmetry_space_group_name_H-M   'P 1'
_cell_length_a   11.07055929
_cell_length_b   11.07056008
_cell_length_c   11.07055917
_cell_angle_alpha   158.32930207
_cell_angle_beta   119.07704989
_cell_angle_gamma   65.46135215
_symmetry_Int_Tables_number   1
_chemical_formula_structural   Pa2Al16Ir9
_chemical_formula_sum   'Pa2 Al16 Ir9'
_cell_volume   435.09120337
_cell_formula_units_Z   1
loop_
 _symmetry_equiv_pos_site_id
 _symmetry_equiv_pos_as_xyz
  1  'x, y, z'
loop_
 _atom_site_type_symbol
 _atom_site_label
 _atom_site_symmetry_multiplicity
 _atom_site_fract_x
 _atom_site_fract_y
 _atom_site_fract_z
 _atom_site_occupancy
  Pa  Pa0  1  0.227371  0.227371  0.000000  1
  Pa  Pa1  1  0.772629  0.772629  0.000000  1
  Al  Al2  1  0.272455  0.396778  0.875677  1
  Al  Al3  1  0.087413  0.914914  0.172499  1
  Al  Al4  1  0.510952  0.203341  0.307613  1
  Al  Al5  1  0.257586  0.085086  0.172499  1
  Al  Al6  1  0.918909  0.418909  0.500000  1
  Al  Al7  1  0.727545  0.603222  0.124323  1
  Al  Al8  1  0.895727  0.203341  0.692387  1
  Al  Al9  1  0.489048  0.796659  0.692387  1
  Al  Al10  1  0.380634  0.000000  0.380634  1
  Al  Al11  1  0.619366  0.000000  0.619366  1
  Al  Al12  1  0.478900  0.603222  0.875677  1
  Al  Al13  1  0.104273  0.796659  0.307613  1
  Al  Al14  1  0.912587  0.085086  0.827501  1
  Al  Al15  1  0.742414  0.914914  0.827501  1
  Al  Al16  1  0.521100  0.396778  0.124323  1
  Al  Al17  1  0.081091  0.581091  0.500000  1
  Ir  Ir18  1  0.789125  0.500000  0.289125  1
  Ir  Ir19  1  0.010834  0.335783  0.675051  1
  Ir  Ir20  1  0.621885  0.121885  0.500000  1
  Ir  Ir21  1  0.210875  0.500000  0.710875  1
  Ir  Ir22  1  0.378115  0.878115  0.500000  1
  Ir  Ir23  1  0.000000  0.000000  0.000000  1
  Ir  Ir24  1  0.660732  0.335783  0.324949  1
  Ir  Ir25  1  0.339268  0.664217  0.675051  1
  Ir  Ir26  1  0.989166  0.664217  0.324949  1
