# generated using pymatgen
data_ErCu4
_symmetry_space_group_name_H-M   'P 1'
_cell_length_a   4.98735995
_cell_length_b   4.99451422
_cell_length_c   10.50498979
_cell_angle_alpha   85.10275329
_cell_angle_beta   80.15503336
_cell_angle_gamma   60.04738490
_symmetry_Int_Tables_number   1
_chemical_formula_structural   ErCu4
_chemical_formula_sum   'Er3 Cu12'
_cell_volume   223.38521754
_cell_formula_units_Z   3
loop_
 _symmetry_equiv_pos_site_id
 _symmetry_equiv_pos_as_xyz
  1  'x, y, z'
loop_
 _atom_site_type_symbol
 _atom_site_label
 _atom_site_symmetry_multiplicity
 _atom_site_fract_x
 _atom_site_fract_y
 _atom_site_fract_z
 _atom_site_occupancy
  Er  Er0  1  0.000000  0.000000  0.000000  1
  Er  Er1  1  0.864390  0.000000  0.357582  1
  Er  Er2  1  0.135610  0.000000  0.642418  1
  Cu  Cu3  1  0.336586  0.326828  0.000000  1
  Cu  Cu4  1  0.663414  0.673172  0.000000  1
  Cu  Cu5  1  0.426834  0.000000  0.202153  1
  Cu  Cu6  1  0.573166  0.000000  0.797847  1
  Cu  Cu7  1  0.930528  0.498652  0.196319  1
  Cu  Cu8  1  0.429180  0.501348  0.196319  1
  Cu  Cu9  1  0.069472  0.501348  0.803681  1
  Cu  Cu10  1  0.570820  0.498652  0.803681  1
  Cu  Cu11  1  0.189256  0.336775  0.405954  1
  Cu  Cu12  1  0.526031  0.663225  0.405954  1
  Cu  Cu13  1  0.810744  0.663225  0.594046  1
  Cu  Cu14  1  0.473969  0.336775  0.594046  1
