# generated using pymatgen
data_Ho2Nb3P7Rh9
_symmetry_space_group_name_H-M   'P 1'
_cell_length_a   3.92479200
_cell_length_b   9.64227173
_cell_length_c   9.64254961
_cell_angle_alpha   120.01243860
_cell_angle_beta   90.00231850
_cell_angle_gamma   90.00157710
_symmetry_Int_Tables_number   1
_chemical_formula_structural   Ho2Nb3P7Rh9
_chemical_formula_sum   'Ho2 Nb3 P7 Rh9'
_cell_volume   315.98326110
_cell_formula_units_Z   1
loop_
 _symmetry_equiv_pos_site_id
 _symmetry_equiv_pos_as_xyz
  1  'x, y, z'
loop_
 _atom_site_type_symbol
 _atom_site_label
 _atom_site_symmetry_multiplicity
 _atom_site_fract_x
 _atom_site_fract_y
 _atom_site_fract_z
 _atom_site_occupancy
  Ho  Ho0  1  0.260735  0.666670  0.333448  1
  Ho  Ho1  1  0.762008  0.333322  0.666587  1
  Nb  Nb2  1  0.762184  0.094984  0.873713  1
  Nb  Nb3  1  0.762169  0.126148  0.221151  1
  Nb  Nb4  1  0.762202  0.778671  0.904781  1
  P  P5  1  0.262597  0.000073  0.999988  1
  P  P6  1  0.761567  0.876645  0.589596  1
  P  P7  1  0.761510  0.410569  0.287084  1
  P  P8  1  0.761537  0.712960  0.123727  1
  P  P9  1  0.262335  0.117379  0.416681  1
  P  P10  1  0.262345  0.583272  0.700731  1
  P  P11  1  0.262340  0.299201  0.882574  1
  Rh  Rh12  1  0.261871  0.883567  0.162754  1
  Rh  Rh13  1  0.261866  0.837273  0.720914  1
  Rh  Rh14  1  0.261888  0.279181  0.116436  1
  Rh  Rh15  1  0.761852  0.610160  0.556067  1
  Rh  Rh16  1  0.761827  0.443814  0.053986  1
  Rh  Rh17  1  0.761839  0.946052  0.389726  1
  Rh  Rh18  1  0.261782  0.367904  0.439535  1
  Rh  Rh19  1  0.261796  0.560448  0.928259  1
  Rh  Rh20  1  0.261751  0.071708  0.632261  1
