# generated using pymatgen
data_Er18Sc2Si15Au
_symmetry_space_group_name_H-M   'P 1'
_cell_length_a   7.28470302
_cell_length_b   7.62629256
_cell_length_c   14.44996700
_cell_angle_alpha   90.00000000
_cell_angle_beta   90.00000000
_cell_angle_gamma   90.57619201
_symmetry_Int_Tables_number   1
_chemical_formula_structural   Er18Sc2Si15Au
_chemical_formula_sum   'Er18 Sc2 Si15 Au1'
_cell_volume   802.73131860
_cell_formula_units_Z   1
loop_
 _symmetry_equiv_pos_site_id
 _symmetry_equiv_pos_as_xyz
  1  'x, y, z'
loop_
 _atom_site_type_symbol
 _atom_site_label
 _atom_site_symmetry_multiplicity
 _atom_site_fract_x
 _atom_site_fract_y
 _atom_site_fract_z
 _atom_site_occupancy
  Er  Er0  1  0.023201  0.824314  0.590893  1
  Er  Er1  1  0.528381  0.682053  0.592100  1
  Er  Er2  1  0.317252  0.822719  0.125891  1
  Er  Er3  1  0.816607  0.676651  0.126425  1
  Er  Er4  1  0.857346  0.520805  0.750000  1
  Er  Er5  1  0.473139  0.315975  0.099281  1
  Er  Er6  1  0.023201  0.824314  0.909107  1
  Er  Er7  1  0.473139  0.315975  0.400719  1
  Er  Er8  1  0.528381  0.682053  0.907900  1
  Er  Er9  1  0.683264  0.178884  0.879199  1
  Er  Er10  1  0.184307  0.318129  0.618771  1
  Er  Er11  1  0.184307  0.318129  0.881229  1
  Er  Er12  1  0.816607  0.676651  0.373575  1
  Er  Er13  1  0.317252  0.822719  0.374109  1
  Er  Er14  1  0.347938  0.985492  0.750000  1
  Er  Er15  1  0.683264  0.178884  0.620801  1
  Er  Er16  1  0.972285  0.182719  0.100878  1
  Er  Er17  1  0.972285  0.182719  0.399122  1
  Sc  Sc18  1  0.647796  0.011775  0.250000  1
  Sc  Sc19  1  0.147737  0.485769  0.250000  1
  Si  Si20  1  0.650247  0.971833  0.455894  1
  Si  Si21  1  0.353246  0.026646  0.538416  1
  Si  Si22  1  0.013181  0.903020  0.250000  1
  Si  Si23  1  0.734020  0.877065  0.750000  1
  Si  Si24  1  0.270136  0.134549  0.250000  1
  Si  Si25  1  0.852754  0.470870  0.537337  1
  Si  Si26  1  0.483708  0.390673  0.750000  1
  Si  Si27  1  0.147483  0.526541  0.455250  1
  Si  Si28  1  0.147483  0.526541  0.044750  1
  Si  Si29  1  0.976144  0.108324  0.750000  1
  Si  Si30  1  0.769732  0.364067  0.250000  1
  Si  Si31  1  0.353246  0.026646  0.961584  1
  Si  Si32  1  0.852754  0.470870  0.962663  1
  Si  Si33  1  0.650247  0.971833  0.044106  1
  Si  Si34  1  0.511083  0.596475  0.250000  1
  Au  Au35  1  0.236842  0.627319  0.750000  1
