# generated using pymatgen
data_La3Tm(MoO4)6
_symmetry_space_group_name_H-M   'P 1'
_cell_length_a   7.65229801
_cell_length_b   7.65229869
_cell_length_c   10.96624600
_cell_angle_alpha   89.76285753
_cell_angle_beta   90.23714463
_cell_angle_gamma   89.66017890
_symmetry_Int_Tables_number   1
_chemical_formula_structural   La3Tm(MoO4)6
_chemical_formula_sum   'La3 Tm1 Mo6 O24'
_cell_volume   642.13545397
_cell_formula_units_Z   1
loop_
 _symmetry_equiv_pos_site_id
 _symmetry_equiv_pos_as_xyz
  1  'x, y, z'
loop_
 _atom_site_type_symbol
 _atom_site_label
 _atom_site_symmetry_multiplicity
 _atom_site_fract_x
 _atom_site_fract_y
 _atom_site_fract_z
 _atom_site_occupancy
  La  La0  1  0.190688  0.690360  0.738671  1
  La  La1  1  0.809640  0.309312  0.738671  1
  La  La2  1  0.684856  0.815144  0.259054  1
  Tm  Tm3  1  0.305860  0.194140  0.266084  1
  Mo  Mo4  1  0.210212  0.706687  0.352143  1
  Mo  Mo5  1  0.793313  0.289788  0.352143  1
  Mo  Mo6  1  0.708588  0.791412  0.645481  1
  Mo  Mo7  1  0.290457  0.209543  0.634520  1
  Mo  Mo8  1  0.009985  0.007710  0.006343  1
  Mo  Mo9  1  0.492290  0.490015  0.006343  1
  O  O10  1  0.004272  0.220960  0.298209  1
  O  O11  1  0.000693  0.765358  0.293962  1
  O  O12  1  0.226200  0.003361  0.694848  1
  O  O13  1  0.503425  0.725065  0.705679  1
  O  O14  1  0.774935  0.996575  0.705679  1
  O  O15  1  0.496639  0.273800  0.694848  1
  O  O16  1  0.279040  0.495728  0.298209  1
  O  O17  1  0.734642  0.499307  0.293962  1
  O  O18  1  0.187980  0.056379  0.107840  1
  O  O19  1  0.816802  0.962918  0.092596  1
  O  O20  1  0.060625  0.822061  0.913478  1
  O  O21  1  0.309762  0.531258  0.907532  1
  O  O22  1  0.968742  0.190238  0.907532  1
  O  O23  1  0.677939  0.439375  0.913478  1
  O  O24  1  0.443621  0.312020  0.107840  1
  O  O25  1  0.537082  0.683198  0.092596  1
  O  O26  1  0.619860  0.137010  0.307103  1
  O  O27  1  0.362990  0.880140  0.307103  1
  O  O28  1  0.128543  0.371457  0.682054  1
  O  O29  1  0.871752  0.628248  0.692016  1
  O  O30  1  0.198888  0.697822  0.514327  1
  O  O31  1  0.802178  0.301112  0.514327  1
  O  O32  1  0.695122  0.804878  0.483606  1
  O  O33  1  0.302379  0.197621  0.471725  1
