# generated using pymatgen
data_Mg2Ta3NbOs6
_symmetry_space_group_name_H-M   'P 1'
_cell_length_a   4.48131100
_cell_length_b   6.34204900
_cell_length_c   13.43652900
_cell_angle_alpha   90.00000000
_cell_angle_beta   89.99982095
_cell_angle_gamma   90.00000000
_symmetry_Int_Tables_number   1
_chemical_formula_structural   Mg2Ta3NbOs6
_chemical_formula_sum   'Mg4 Ta6 Nb2 Os12'
_cell_volume   381.87547841
_cell_formula_units_Z   2
loop_
 _symmetry_equiv_pos_site_id
 _symmetry_equiv_pos_as_xyz
  1  'x, y, z'
loop_
 _atom_site_type_symbol
 _atom_site_label
 _atom_site_symmetry_multiplicity
 _atom_site_fract_x
 _atom_site_fract_y
 _atom_site_fract_z
 _atom_site_occupancy
  Mg  Mg0  1  0.999982  0.500000  0.335324  1
  Mg  Mg1  1  0.500000  0.000000  0.501327  1
  Mg  Mg2  1  0.000015  0.500000  0.665336  1
  Mg  Mg3  1  0.500019  0.000000  0.831351  1
  Ta  Ta4  1  0.999998  0.000000  0.993755  1
  Ta  Ta5  1  0.499987  0.500000  0.172907  1
  Ta  Ta6  1  0.999985  0.000000  0.343321  1
  Ta  Ta7  1  0.500002  0.500000  0.502932  1
  Ta  Ta8  1  0.000013  0.000000  0.663730  1
  Ta  Ta9  1  0.500014  0.500000  0.823335  1
  Nb  Nb10  1  0.000000  0.500000  0.996316  1
  Nb  Nb11  1  0.499986  0.000000  0.170353  1
  Os  Os12  1  0.500000  0.251980  0.002997  1
  Os  Os13  1  0.500000  0.748020  0.002997  1
  Os  Os14  1  0.999987  0.248023  0.163658  1
  Os  Os15  1  0.999987  0.751976  0.163658  1
  Os  Os16  1  0.499984  0.248553  0.330157  1
  Os  Os17  1  0.499984  0.751448  0.330157  1
  Os  Os18  1  0.000001  0.250238  0.499620  1
  Os  Os19  1  0.000001  0.749763  0.499620  1
  Os  Os20  1  0.500015  0.249762  0.667053  1
  Os  Os21  1  0.500015  0.750239  0.667053  1
  Os  Os22  1  0.000016  0.251439  0.836521  1
  Os  Os23  1  0.000016  0.748560  0.836521  1
