# generated using pymatgen
data_Nd3Ho17(SnPb)8
_symmetry_space_group_name_H-M   'P 1'
_cell_length_a   8.09028990
_cell_length_b   8.20713573
_cell_length_c   15.52478100
_cell_angle_alpha   90.01998024
_cell_angle_beta   90.10232849
_cell_angle_gamma   89.95772105
_symmetry_Int_Tables_number   1
_chemical_formula_structural   Nd3Ho17(SnPb)8
_chemical_formula_sum   'Nd3 Ho17 Sn8 Pb8'
_cell_volume   1030.81408819
_cell_formula_units_Z   1
loop_
 _symmetry_equiv_pos_site_id
 _symmetry_equiv_pos_as_xyz
  1  'x, y, z'
loop_
 _atom_site_type_symbol
 _atom_site_label
 _atom_site_symmetry_multiplicity
 _atom_site_fract_x
 _atom_site_fract_y
 _atom_site_fract_z
 _atom_site_occupancy
  Nd  Nd0  1  0.976294  0.821852  0.399935  1
  Nd  Nd1  1  0.523422  0.322298  0.599328  1
  Nd  Nd2  1  0.024052  0.177938  0.900842  1
  Ho  Ho3  1  0.370416  0.837936  0.876273  1
  Ho  Ho4  1  0.869198  0.661759  0.624147  1
  Ho  Ho5  1  0.630924  0.161216  0.375066  1
  Ho  Ho6  1  0.130627  0.339031  0.123890  1
  Ho  Ho7  1  0.629967  0.161282  0.124163  1
  Ho  Ho8  1  0.130820  0.338815  0.375676  1
  Ho  Ho9  1  0.369366  0.838833  0.624281  1
  Ho  Ho10  1  0.870445  0.661361  0.876364  1
  Ho  Ho11  1  0.527597  0.323445  0.897943  1
  Ho  Ho12  1  0.026524  0.177370  0.601992  1
  Ho  Ho13  1  0.474006  0.677161  0.398184  1
  Ho  Ho14  1  0.973182  0.822059  0.102322  1
  Ho  Ho15  1  0.473438  0.676874  0.101088  1
  Ho  Ho16  1  0.200491  0.503878  0.750384  1
  Ho  Ho17  1  0.700239  0.996231  0.750082  1
  Ho  Ho18  1  0.799296  0.496672  0.249367  1
  Ho  Ho19  1  0.300029  0.003417  0.249367  1
  Sn  Sn20  1  0.566032  0.621814  0.750302  1
  Sn  Sn21  1  0.065703  0.878075  0.750065  1
  Sn  Sn22  1  0.434353  0.379391  0.249902  1
  Sn  Sn23  1  0.934533  0.121751  0.249563  1
  Sn  Sn24  1  0.332493  0.147518  0.751028  1
  Sn  Sn25  1  0.832929  0.352607  0.748885  1
  Sn  Sn26  1  0.664856  0.850228  0.249336  1
  Sn  Sn27  1  0.168772  0.647726  0.248380  1
  Pb  Pb28  1  0.290430  0.034655  0.042406  1
  Pb  Pb29  1  0.789880  0.462628  0.457768  1
  Pb  Pb30  1  0.709990  0.963238  0.541850  1
  Pb  Pb31  1  0.213001  0.537667  0.959140  1
  Pb  Pb32  1  0.707822  0.960576  0.959730  1
  Pb  Pb33  1  0.207788  0.539873  0.540397  1
  Pb  Pb34  1  0.292482  0.039515  0.459275  1
  Pb  Pb35  1  0.788607  0.463315  0.041283  1
