# generated using pymatgen
data_Eu2B4Ru3C
_symmetry_space_group_name_H-M   'P 1'
_cell_length_a   5.69963236
_cell_length_b   5.69963310
_cell_length_c   8.00624274
_cell_angle_alpha   58.35739130
_cell_angle_beta   58.35738631
_cell_angle_gamma   41.74447544
_symmetry_Int_Tables_number   1
_chemical_formula_structural   Eu2B4Ru3C
_chemical_formula_sum   'Eu2 B4 Ru3 C1'
_cell_volume   143.29836545
_cell_formula_units_Z   1
loop_
 _symmetry_equiv_pos_site_id
 _symmetry_equiv_pos_as_xyz
  1  'x, y, z'
loop_
 _atom_site_type_symbol
 _atom_site_label
 _atom_site_symmetry_multiplicity
 _atom_site_fract_x
 _atom_site_fract_y
 _atom_site_fract_z
 _atom_site_occupancy
  Eu  Eu0  1  0.386887  0.930664  0.243303  1
  Eu  Eu1  1  0.069336  0.613113  0.756697  1
  B  B2  1  0.066632  0.639581  0.312029  1
  B  B3  1  0.533314  0.543386  0.876349  1
  B  B4  1  0.360419  0.933368  0.687971  1
  B  B5  1  0.456614  0.466686  0.123651  1
  Ru  Ru6  1  0.861624  0.401886  0.589080  1
  Ru  Ru7  1  0.999144  0.000856  0.000000  1
  Ru  Ru8  1  0.598114  0.138376  0.410920  1
  C  C9  1  0.732916  0.267084  0.500000  1
