# generated using pymatgen
data_Rb3NaVCl6
_symmetry_space_group_name_H-M   'P 1'
_cell_length_a   8.69412522
_cell_length_b   8.69412519
_cell_length_c   8.69412475
_cell_angle_alpha   93.12045249
_cell_angle_beta   93.12045564
_cell_angle_gamma   93.12045155
_symmetry_Int_Tables_number   1
_chemical_formula_structural   Rb3NaVCl6
_chemical_formula_sum   'Rb6 Na2 V2 Cl12'
_cell_volume   654.13588285
_cell_formula_units_Z   2
loop_
 _symmetry_equiv_pos_site_id
 _symmetry_equiv_pos_as_xyz
  1  'x, y, z'
loop_
 _atom_site_type_symbol
 _atom_site_label
 _atom_site_symmetry_multiplicity
 _atom_site_fract_x
 _atom_site_fract_y
 _atom_site_fract_z
 _atom_site_occupancy
  Rb  Rb0  1  0.127199  0.372801  0.750000  1
  Rb  Rb1  1  0.750000  0.127199  0.372801  1
  Rb  Rb2  1  0.372801  0.750000  0.127199  1
  Rb  Rb3  1  0.250000  0.872801  0.627199  1
  Rb  Rb4  1  0.627199  0.250000  0.872801  1
  Rb  Rb5  1  0.872801  0.627199  0.250000  1
  Na  Na6  1  0.250000  0.250000  0.250000  1
  Na  Na7  1  0.750000  0.750000  0.750000  1
  V  V8  1  0.500000  0.500000  0.500000  1
  V  V9  1  0.000000  0.000000  0.000000  1
  Cl  Cl10  1  0.222121  0.538927  0.418982  1
  Cl  Cl11  1  0.418982  0.222121  0.538927  1
  Cl  Cl12  1  0.538927  0.418982  0.222121  1
  Cl  Cl13  1  0.918982  0.038927  0.722121  1
  Cl  Cl14  1  0.722121  0.918982  0.038927  1
  Cl  Cl15  1  0.038927  0.722121  0.918982  1
  Cl  Cl16  1  0.777879  0.461073  0.581018  1
  Cl  Cl17  1  0.581018  0.777879  0.461073  1
  Cl  Cl18  1  0.461073  0.581018  0.777879  1
  Cl  Cl19  1  0.081018  0.961073  0.277879  1
  Cl  Cl20  1  0.277879  0.081018  0.961073  1
  Cl  Cl21  1  0.961073  0.277879  0.081018  1
