# generated using pymatgen
data_Er3(In2Ni)2
_symmetry_space_group_name_H-M   'P 1'
_cell_length_a   7.80308000
_cell_length_b   7.80307956
_cell_length_c   3.67171400
_cell_angle_alpha   90.00000000
_cell_angle_beta   90.00000000
_cell_angle_gamma   120.00000186
_symmetry_Int_Tables_number   1
_chemical_formula_structural   Er3(In2Ni)2
_chemical_formula_sum   'Er3 In4 Ni2'
_cell_volume   193.61168448
_cell_formula_units_Z   1
loop_
 _symmetry_equiv_pos_site_id
 _symmetry_equiv_pos_as_xyz
  1  'x, y, z'
loop_
 _atom_site_type_symbol
 _atom_site_label
 _atom_site_symmetry_multiplicity
 _atom_site_fract_x
 _atom_site_fract_y
 _atom_site_fract_z
 _atom_site_occupancy
  Er  Er0  1  0.704497  0.953270  0.500000  1
  Er  Er1  1  0.248772  0.295503  0.500000  1
  Er  Er2  1  0.046730  0.751228  0.500000  1
  In  In3  1  0.919638  0.335620  0.000000  1
  In  In4  1  0.415983  0.080362  0.000000  1
  In  In5  1  0.664380  0.584017  0.000000  1
  In  In6  1  0.333333  0.666667  0.000000  1
  Ni  Ni7  1  0.666667  0.333333  0.500000  1
  Ni  Ni8  1  0.000000  0.000000  0.000000  1
