# generated using pymatgen
data_Dy5TmSc4(In2Rh)4
_symmetry_space_group_name_H-M   'P 1'
_cell_length_a   3.55186200
_cell_length_b   7.90176657
_cell_length_c   17.86225722
_cell_angle_alpha   90.18805133
_cell_angle_beta   90.00000000
_cell_angle_gamma   90.00000000
_symmetry_Int_Tables_number   1
_chemical_formula_structural   Dy5TmSc4(In2Rh)4
_chemical_formula_sum   'Dy5 Tm1 Sc4 In8 Rh4'
_cell_volume   501.31913227
_cell_formula_units_Z   1
loop_
 _symmetry_equiv_pos_site_id
 _symmetry_equiv_pos_as_xyz
  1  'x, y, z'
loop_
 _atom_site_type_symbol
 _atom_site_label
 _atom_site_symmetry_multiplicity
 _atom_site_fract_x
 _atom_site_fract_y
 _atom_site_fract_z
 _atom_site_occupancy
  Dy  Dy0  1  0.000000  0.000310  0.000382  1
  Dy  Dy1  1  0.000000  0.499411  0.500022  1
  Dy  Dy2  1  0.000000  0.750476  0.783452  1
  Dy  Dy3  1  0.000000  0.250178  0.216994  1
  Dy  Dy4  1  0.000000  0.249778  0.716625  1
  Tm  Tm5  1  0.000000  0.750204  0.282808  1
  Sc  Sc6  1  0.000000  0.877194  0.589075  1
  Sc  Sc7  1  0.000000  0.121772  0.410042  1
  Sc  Sc8  1  0.000000  0.377827  0.910622  1
  Sc  Sc9  1  0.000000  0.623114  0.089903  1
  In  In10  1  0.500000  0.809961  0.438175  1
  In  In11  1  0.500000  0.188248  0.560416  1
  In  In12  1  0.500000  0.312362  0.060967  1
  In  In13  1  0.500000  0.688296  0.939583  1
  In  In14  1  0.500000  0.921854  0.150572  1
  In  In15  1  0.500000  0.077540  0.850130  1
  In  In16  1  0.500000  0.425777  0.349949  1
  In  In17  1  0.500000  0.576973  0.650026  1
  Rh  Rh18  1  0.500000  0.963332  0.692313  1
  Rh  Rh19  1  0.500000  0.033172  0.307022  1
  Rh  Rh20  1  0.500000  0.463656  0.807248  1
  Rh  Rh21  1  0.500000  0.538565  0.193674  1
