# generated using pymatgen
data_Tm3(In2Ni)2
_symmetry_space_group_name_H-M   'P 1'
_cell_length_a   7.78089200
_cell_length_b   7.78089188
_cell_length_c   3.66870300
_cell_angle_alpha   90.00000000
_cell_angle_beta   90.00000000
_cell_angle_gamma   120.00000050
_symmetry_Int_Tables_number   1
_chemical_formula_structural   Tm3(In2Ni)2
_chemical_formula_sum   'Tm3 In4 Ni2'
_cell_volume   192.35432353
_cell_formula_units_Z   1
loop_
 _symmetry_equiv_pos_site_id
 _symmetry_equiv_pos_as_xyz
  1  'x, y, z'
loop_
 _atom_site_type_symbol
 _atom_site_label
 _atom_site_symmetry_multiplicity
 _atom_site_fract_x
 _atom_site_fract_y
 _atom_site_fract_z
 _atom_site_occupancy
  Tm  Tm0  1  0.419651  0.038377  0.000000  1
  Tm  Tm1  1  0.961623  0.381273  0.000000  1
  Tm  Tm2  1  0.618726  0.580350  0.000000  1
  In  In3  1  0.747359  0.998615  0.500001  1
  In  In4  1  0.251256  0.252641  0.500001  1
  In  In5  1  0.333334  0.666667  0.500001  1
  In  In6  1  0.001385  0.748744  0.500001  1
  Ni  Ni7  1  0.000000  0.000000  0.000000  1
  Ni  Ni8  1  0.666666  0.333333  0.500001  1
