# generated using pymatgen
data_U4ReB12W
_symmetry_space_group_name_H-M   'P 1'
_cell_length_a   3.66300400
_cell_length_b   9.28236596
_cell_length_c   11.37485248
_cell_angle_alpha   89.99684114
_cell_angle_beta   90.00000000
_cell_angle_gamma   90.00000000
_symmetry_Int_Tables_number   1
_chemical_formula_structural   U4ReB12W
_chemical_formula_sum   'U8 Re2 B24 W2'
_cell_volume   386.76026763
_cell_formula_units_Z   2
loop_
 _symmetry_equiv_pos_site_id
 _symmetry_equiv_pos_as_xyz
  1  'x, y, z'
loop_
 _atom_site_type_symbol
 _atom_site_label
 _atom_site_symmetry_multiplicity
 _atom_site_fract_x
 _atom_site_fract_y
 _atom_site_fract_z
 _atom_site_occupancy
  U  U0  1  0.000000  0.335659  0.407806  1
  U  U1  1  0.000000  0.664341  0.592194  1
  U  U2  1  0.000000  0.835123  0.092576  1
  U  U3  1  0.000000  0.164877  0.907424  1
  U  U4  1  0.000000  0.955506  0.395209  1
  U  U5  1  0.000000  0.044494  0.604791  1
  U  U6  1  0.000000  0.456770  0.105035  1
  U  U7  1  0.000000  0.543230  0.894965  1
  Re  Re8  1  0.000000  0.144283  0.179450  1
  Re  Re9  1  0.000000  0.855717  0.820550  1
  B  B10  1  0.500000  0.549648  0.433345  1
  B  B11  1  0.500000  0.450352  0.566655  1
  B  B12  1  0.500000  0.049715  0.067052  1
  B  B13  1  0.500000  0.950285  0.932948  1
  B  B14  1  0.500000  0.743345  0.424706  1
  B  B15  1  0.500000  0.256655  0.575294  1
  B  B16  1  0.500000  0.242890  0.076520  1
  B  B17  1  0.500000  0.757110  0.923480  1
  B  B18  1  0.500000  0.804511  0.272598  1
  B  B19  1  0.500000  0.195489  0.727402  1
  B  B20  1  0.500000  0.303082  0.226896  1
  B  B21  1  0.500000  0.696918  0.773104  1
  B  B22  1  0.500000  0.645102  0.186909  1
  B  B23  1  0.500000  0.354898  0.813091  1
  B  B24  1  0.500000  0.144155  0.311545  1
  B  B25  1  0.500000  0.855845  0.688455  1
  B  B26  1  0.500000  0.985905  0.218388  1
  B  B27  1  0.500000  0.014095  0.781612  1
  B  B28  1  0.500000  0.484670  0.281036  1
  B  B29  1  0.500000  0.515330  0.718964  1
  B  B30  1  0.500000  0.642972  0.038822  1
  B  B31  1  0.500000  0.357028  0.961178  1
  B  B32  1  0.500000  0.142399  0.459819  1
  B  B33  1  0.500000  0.857601  0.540181  1
  W  W34  1  0.000000  0.644913  0.319853  1
  W  W35  1  0.000000  0.355087  0.680147  1
