# generated using pymatgen
data_Ba8YEr3(GaO5)4
_symmetry_space_group_name_H-M   'P 1'
_cell_length_a   6.11588007
_cell_length_b   7.84030048
_cell_length_c   12.71704721
_cell_angle_alpha   92.01279897
_cell_angle_beta   90.00018981
_cell_angle_gamma   90.01733361
_symmetry_Int_Tables_number   1
_chemical_formula_structural   Ba8YEr3(GaO5)4
_chemical_formula_sum   'Ba8 Y1 Er3 Ga4 O20'
_cell_volume   609.41044248
_cell_formula_units_Z   1
loop_
 _symmetry_equiv_pos_site_id
 _symmetry_equiv_pos_as_xyz
  1  'x, y, z'
loop_
 _atom_site_type_symbol
 _atom_site_label
 _atom_site_symmetry_multiplicity
 _atom_site_fract_x
 _atom_site_fract_y
 _atom_site_fract_z
 _atom_site_occupancy
  Ba  Ba0  1  0.761989  0.483326  0.347772  1
  Ba  Ba1  1  0.737668  0.981927  0.847002  1
  Ba  Ba2  1  0.238231  0.517724  0.652136  1
  Ba  Ba3  1  0.262291  0.016795  0.153157  1
  Ba  Ba4  1  0.756748  0.993079  0.380861  1
  Ba  Ba5  1  0.742778  0.493784  0.880558  1
  Ba  Ba6  1  0.243466  0.006326  0.618416  1
  Ba  Ba7  1  0.256812  0.507329  0.119902  1
  Y  Y8  1  0.249187  0.233200  0.870936  1
  Er  Er9  1  0.749458  0.265911  0.628576  1
  Er  Er10  1  0.750412  0.765900  0.129690  1
  Er  Er11  1  0.250515  0.734346  0.370579  1
  Ga  Ga12  1  0.735214  0.742162  0.580908  1
  Ga  Ga13  1  0.764945  0.242357  0.082356  1
  Ga  Ga14  1  0.265007  0.257897  0.418682  1
  Ga  Ga15  1  0.235059  0.758130  0.919376  1
  O  O16  1  0.759952  0.971639  0.628871  1
  O  O17  1  0.739632  0.472363  0.129606  1
  O  O18  1  0.240159  0.028112  0.370970  1
  O  O19  1  0.260477  0.530031  0.870262  1
  O  O20  1  0.731242  0.065274  0.175064  1
  O  O21  1  0.768310  0.565967  0.674073  1
  O  O22  1  0.268883  0.931388  0.824341  1
  O  O23  1  0.231734  0.434471  0.325753  1
  O  O24  1  0.539414  0.745394  0.270161  1
  O  O25  1  0.956419  0.245400  0.769901  1
  O  O26  1  0.459688  0.254746  0.727904  1
  O  O27  1  0.039807  0.754480  0.230014  1
  O  O28  1  0.548972  0.222237  0.976857  1
  O  O29  1  0.954095  0.722742  0.476228  1
  O  O30  1  0.454005  0.777830  0.024008  1
  O  O31  1  0.046390  0.277178  0.523337  1
  O  O32  1  0.043128  0.229334  0.020159  1
  O  O33  1  0.457688  0.729207  0.517250  1
  O  O34  1  0.957268  0.771326  0.982706  1
  O  O35  1  0.542956  0.270687  0.481627  1
