# generated using pymatgen
data_NdDy(PdO2)4
_symmetry_space_group_name_H-M   'P 1'
_cell_length_a   6.59244474
_cell_length_b   6.59330403
_cell_length_c   6.58987175
_cell_angle_alpha   127.01385698
_cell_angle_beta   126.85478538
_cell_angle_gamma   78.39369620
_symmetry_Int_Tables_number   1
_chemical_formula_structural   NdDy(PdO2)4
_chemical_formula_sum   'Nd1 Dy1 Pd4 O8'
_cell_volume   177.18544220
_cell_formula_units_Z   1
loop_
 _symmetry_equiv_pos_site_id
 _symmetry_equiv_pos_as_xyz
  1  'x, y, z'
loop_
 _atom_site_type_symbol
 _atom_site_label
 _atom_site_symmetry_multiplicity
 _atom_site_fract_x
 _atom_site_fract_y
 _atom_site_fract_z
 _atom_site_occupancy
  Nd  Nd0  1  0.249979  0.749979  0.499988  1
  Dy  Dy1  1  0.500058  0.500048  0.000051  1
  Pd  Pd2  1  0.873011  0.127386  0.750904  1
  Pd  Pd3  1  0.872737  0.623559  0.745799  1
  Pd  Pd4  1  0.877728  0.126929  0.254168  1
  Pd  Pd5  1  0.376481  0.122110  0.249087  1
  O  O6  1  0.497030  0.450095  0.341446  1
  O  O7  1  0.212792  0.355405  0.467955  1
  O  O8  1  0.887413  0.744810  0.531987  1
  O  O9  1  0.108611  0.155586  0.658512  1
  O  O10  1  0.254984  0.787068  0.142395  1
  O  O11  1  0.549998  0.891538  0.047119  1
  O  O12  1  0.644730  0.112579  0.857653  1
  O  O13  1  0.844447  0.502909  0.952937  1
