# generated using pymatgen
data_Ba6YTm(NiO6)2
_symmetry_space_group_name_H-M   'P 1'
_cell_length_a   7.13216204
_cell_length_b   7.13216118
_cell_length_c   7.13216209
_cell_angle_alpha   93.63168771
_cell_angle_beta   93.63169461
_cell_angle_gamma   93.63167528
_symmetry_Int_Tables_number   1
_chemical_formula_structural   Ba6YTm(NiO6)2
_chemical_formula_sum   'Ba6 Y1 Tm1 Ni2 O12'
_cell_volume   360.51404855
_cell_formula_units_Z   1
loop_
 _symmetry_equiv_pos_site_id
 _symmetry_equiv_pos_as_xyz
  1  'x, y, z'
loop_
 _atom_site_type_symbol
 _atom_site_label
 _atom_site_symmetry_multiplicity
 _atom_site_fract_x
 _atom_site_fract_y
 _atom_site_fract_z
 _atom_site_occupancy
  Ba  Ba0  1  0.380817  0.119182  0.750000  1
  Ba  Ba1  1  0.750000  0.380818  0.119183  1
  Ba  Ba2  1  0.249999  0.619569  0.880432  1
  Ba  Ba3  1  0.619568  0.880431  0.250001  1
  Ba  Ba4  1  0.119183  0.750000  0.380818  1
  Ba  Ba5  1  0.880431  0.250000  0.619569  1
  Y  Y6  1  0.250001  0.250000  0.250000  1
  Tm  Tm7  1  0.750000  0.750001  0.750000  1
  Ni  Ni8  1  0.501165  0.501165  0.501165  1
  Ni  Ni9  1  0.998835  0.998835  0.998835  1
  O  O10  1  0.783084  0.595185  0.468833  1
  O  O11  1  0.595186  0.468832  0.783084  1
  O  O12  1  0.468832  0.783084  0.595186  1
  O  O13  1  0.031167  0.904815  0.716917  1
  O  O14  1  0.904814  0.716916  0.031167  1
  O  O15  1  0.716917  0.031167  0.904814  1
  O  O16  1  0.218016  0.407891  0.535317  1
  O  O17  1  0.407891  0.535316  0.218016  1
  O  O18  1  0.535316  0.218016  0.407890  1
  O  O19  1  0.964684  0.092109  0.281985  1
  O  O20  1  0.281985  0.964683  0.092108  1
  O  O21  1  0.092108  0.281984  0.964683  1
