# generated using pymatgen
data_Hf4Nb2Al7
_symmetry_space_group_name_H-M   'P 1'
_cell_length_a   5.27730945
_cell_length_b   5.27731208
_cell_length_c   10.04410202
_cell_angle_alpha   74.76927038
_cell_angle_beta   74.76926271
_cell_angle_gamma   60.00000390
_symmetry_Int_Tables_number   1
_chemical_formula_structural   Hf4Nb2Al7
_chemical_formula_sum   'Hf4 Nb2 Al7'
_cell_volume   230.83693032
_cell_formula_units_Z   1
loop_
 _symmetry_equiv_pos_site_id
 _symmetry_equiv_pos_as_xyz
  1  'x, y, z'
loop_
 _atom_site_type_symbol
 _atom_site_label
 _atom_site_symmetry_multiplicity
 _atom_site_fract_x
 _atom_site_fract_y
 _atom_site_fract_z
 _atom_site_occupancy
  Hf  Hf0  1  0.834821  0.834821  0.495537  1
  Hf  Hf1  1  0.165179  0.165179  0.504463  1
  Hf  Hf2  1  0.648935  0.648935  0.053193  1
  Hf  Hf3  1  0.351065  0.351065  0.946807  1
  Nb  Nb4  1  0.543937  0.543937  0.368188  1
  Nb  Nb5  1  0.456063  0.456063  0.631812  1
  Al  Al6  1  0.000000  0.000000  0.000000  1
  Al  Al7  1  0.908051  0.908051  0.769122  1
  Al  Al8  1  0.414775  0.908051  0.769122  1
  Al  Al9  1  0.908051  0.414775  0.769122  1
  Al  Al10  1  0.091949  0.091949  0.230878  1
  Al  Al11  1  0.585225  0.091949  0.230878  1
  Al  Al12  1  0.091949  0.585225  0.230878  1
