# generated using pymatgen
data_Li4Be4AsP3O16
_symmetry_space_group_name_H-M   'P 1'
_cell_length_a   4.74983800
_cell_length_b   6.32625762
_cell_length_c   9.66963111
_cell_angle_alpha   90.00744303
_cell_angle_beta   90.13933274
_cell_angle_gamma   89.94963396
_symmetry_Int_Tables_number   1
_chemical_formula_structural   Li4Be4AsP3O16
_chemical_formula_sum   'Li4 Be4 As1 P3 O16'
_cell_volume   290.55885945
_cell_formula_units_Z   1
loop_
 _symmetry_equiv_pos_site_id
 _symmetry_equiv_pos_as_xyz
  1  'x, y, z'
loop_
 _atom_site_type_symbol
 _atom_site_label
 _atom_site_symmetry_multiplicity
 _atom_site_fract_x
 _atom_site_fract_y
 _atom_site_fract_z
 _atom_site_occupancy
  Li  Li0  1  0.682458  0.278222  0.165422  1
  Li  Li1  1  0.182076  0.792208  0.346298  1
  Li  Li2  1  0.819193  0.287392  0.659789  1
  Li  Li3  1  0.322939  0.791868  0.831888  1
  Be  Be4  1  0.675553  0.793734  0.158179  1
  Be  Be5  1  0.182349  0.283235  0.348399  1
  Be  Be6  1  0.820459  0.783719  0.656468  1
  Be  Be7  1  0.322365  0.284889  0.838339  1
  As  As8  1  0.176116  0.538393  0.091738  1
  P  P9  1  0.684088  0.036994  0.410212  1
  P  P10  1  0.318968  0.534843  0.591869  1
  P  P11  1  0.821681  0.036455  0.904885  1
  O  O12  1  0.752591  0.001674  0.059439  1
  O  O13  1  0.819359  0.567795  0.113895  1
  O  O14  1  0.332904  0.761033  0.156734  1
  O  O15  1  0.275350  0.320253  0.185333  1
  O  O16  1  0.771103  0.843950  0.320631  1
  O  O17  1  0.842032  0.235485  0.356924  1
  O  O18  1  0.362273  0.072635  0.393738  1
  O  O19  1  0.247325  0.501681  0.437372  1
  O  O20  1  0.759911  0.998283  0.563572  1
  O  O21  1  0.639420  0.572135  0.613363  1
  O  O22  1  0.158342  0.731163  0.646786  1
  O  O23  1  0.233685  0.335235  0.675442  1
  O  O24  1  0.736026  0.838648  0.819085  1
  O  O25  1  0.660832  0.232409  0.848984  1
  O  O26  1  0.142488  0.074014  0.883970  1
  O  O27  1  0.258107  0.507656  0.921243  1
