# generated using pymatgen
data_YEr3(ZrRh)4
_symmetry_space_group_name_H-M   'P 1'
_cell_length_a   4.58974400
_cell_length_b   7.07871487
_cell_length_c   8.24697712
_cell_angle_alpha   89.88268989
_cell_angle_beta   90.00000000
_cell_angle_gamma   90.00000000
_symmetry_Int_Tables_number   1
_chemical_formula_structural   YEr3(ZrRh)4
_chemical_formula_sum   'Y1 Er3 Zr4 Rh4'
_cell_volume   267.93951177
_cell_formula_units_Z   1
loop_
 _symmetry_equiv_pos_site_id
 _symmetry_equiv_pos_as_xyz
  1  'x, y, z'
loop_
 _atom_site_type_symbol
 _atom_site_label
 _atom_site_symmetry_multiplicity
 _atom_site_fract_x
 _atom_site_fract_y
 _atom_site_fract_z
 _atom_site_occupancy
  Y  Y0  1  0.250000  0.983830  0.322902  1
  Er  Er1  1  0.250000  0.483051  0.175687  1
  Er  Er2  1  0.750000  0.017142  0.676128  1
  Er  Er3  1  0.750000  0.517014  0.823850  1
  Zr  Zr4  1  0.250000  0.357557  0.577420  1
  Zr  Zr5  1  0.250000  0.856263  0.922858  1
  Zr  Zr6  1  0.750000  0.642513  0.424268  1
  Zr  Zr7  1  0.750000  0.143178  0.074729  1
  Rh  Rh8  1  0.250000  0.233547  0.910771  1
  Rh  Rh9  1  0.250000  0.732677  0.591240  1
  Rh  Rh10  1  0.750000  0.765276  0.088161  1
  Rh  Rh11  1  0.750000  0.267955  0.411987  1
