# generated using pymatgen
data_Ce5PaAl24Os7Pt
_symmetry_space_group_name_H-M   'P 1'
_cell_length_a   8.90895700
_cell_length_b   8.90248822
_cell_length_c   9.52896641
_cell_angle_alpha   90.15078855
_cell_angle_beta   90.00000000
_cell_angle_gamma   120.02405065
_symmetry_Int_Tables_number   1
_chemical_formula_structural   Ce5PaAl24Os7Pt
_chemical_formula_sum   'Ce5 Pa1 Al24 Os7 Pt1'
_cell_volume   654.34590616
_cell_formula_units_Z   1
loop_
 _symmetry_equiv_pos_site_id
 _symmetry_equiv_pos_as_xyz
  1  'x, y, z'
loop_
 _atom_site_type_symbol
 _atom_site_label
 _atom_site_symmetry_multiplicity
 _atom_site_fract_x
 _atom_site_fract_y
 _atom_site_fract_z
 _atom_site_occupancy
  Ce  Ce0  1  0.806119  0.612238  0.747838  1
  Ce  Ce1  1  0.612289  0.801156  0.252635  1
  Ce  Ce2  1  0.386332  0.196924  0.747391  1
  Ce  Ce3  1  0.188869  0.801156  0.252635  1
  Ce  Ce4  1  0.810591  0.196924  0.747391  1
  Pa  Pa5  1  0.197278  0.394555  0.252906  1
  Al  Al6  1  0.332724  0.665450  0.023166  1
  Al  Al7  1  0.668685  0.337369  0.975494  1
  Al  Al8  1  0.666880  0.333760  0.519847  1
  Al  Al9  1  0.334743  0.669487  0.481158  1
  Al  Al10  1  0.163328  0.326657  0.576319  1
  Al  Al11  1  0.836416  0.672832  0.424114  1
  Al  Al12  1  0.674264  0.837528  0.576912  1
  Al  Al13  1  0.836402  0.672805  0.076103  1
  Al  Al14  1  0.325061  0.161726  0.421941  1
  Al  Al15  1  0.163393  0.326786  0.923827  1
  Al  Al16  1  0.163263  0.837528  0.576912  1
  Al  Al17  1  0.323649  0.165872  0.078119  1
  Al  Al18  1  0.836666  0.161726  0.421941  1
  Al  Al19  1  0.675516  0.833207  0.923053  1
  Al  Al20  1  0.842223  0.165872  0.078119  1
  Al  Al21  1  0.157691  0.833207  0.923053  1
  Al  Al22  1  0.561566  0.123131  0.251985  1
  Al  Al23  1  0.437802  0.875605  0.747992  1
  Al  Al24  1  0.872353  0.435401  0.249295  1
  Al  Al25  1  0.125092  0.563592  0.750567  1
  Al  Al26  1  0.563048  0.435401  0.249295  1
  Al  Al27  1  0.438498  0.563592  0.750567  1
  Al  Al28  1  0.001016  0.002033  0.250065  1
  Al  Al29  1  0.000133  0.000265  0.749840  1
  Os  Os30  1  0.002183  0.499162  0.003108  1
  Os  Os31  1  0.500282  0.000564  0.500108  1
  Os  Os32  1  0.496979  0.499162  0.003108  1
  Os  Os33  1  0.002459  0.499044  0.496559  1
  Os  Os34  1  0.496585  0.499044  0.496559  1
  Os  Os35  1  0.999766  0.999531  0.000035  1
  Os  Os36  1  0.999812  0.999625  0.499854  1
  Pt  Pt37  1  0.500042  0.000084  0.000190  1
