# generated using pymatgen
data_Er2NiIr3
_symmetry_space_group_name_H-M   'P 1'
_cell_length_a   5.16714513
_cell_length_b   5.36905825
_cell_length_c   5.36905800
_cell_angle_alpha   60.00000155
_cell_angle_beta   58.69872369
_cell_angle_gamma   58.69873252
_symmetry_Int_Tables_number   1
_chemical_formula_structural   Er2NiIr3
_chemical_formula_sum   'Er2 Ni1 Ir3'
_cell_volume   103.20571961
_cell_formula_units_Z   1
loop_
 _symmetry_equiv_pos_site_id
 _symmetry_equiv_pos_as_xyz
  1  'x, y, z'
loop_
 _atom_site_type_symbol
 _atom_site_label
 _atom_site_symmetry_multiplicity
 _atom_site_fract_x
 _atom_site_fract_y
 _atom_site_fract_z
 _atom_site_occupancy
  Er  Er0  1  0.247452  0.250849  0.250849  1
  Er  Er1  1  0.002548  0.999151  0.999151  1
  Ni  Ni2  1  0.125000  0.625000  0.625000  1
  Ir  Ir3  1  0.625000  0.625000  0.125000  1
  Ir  Ir4  1  0.625000  0.125000  0.625000  1
  Ir  Ir5  1  0.625000  0.625000  0.625000  1
