# generated using pymatgen
data_Er8Ga(Si4Pt)3
_symmetry_space_group_name_H-M   'P 1'
_cell_length_a   8.11384600
_cell_length_b   8.11384534
_cell_length_c   8.05562900
_cell_angle_alpha   90.00000000
_cell_angle_beta   90.00000000
_cell_angle_gamma   120.00000268
_symmetry_Int_Tables_number   1
_chemical_formula_structural   Er8Ga(Si4Pt)3
_chemical_formula_sum   'Er8 Ga1 Si12 Pt3'
_cell_volume   459.28637569
_cell_formula_units_Z   1
loop_
 _symmetry_equiv_pos_site_id
 _symmetry_equiv_pos_as_xyz
  1  'x, y, z'
loop_
 _atom_site_type_symbol
 _atom_site_label
 _atom_site_symmetry_multiplicity
 _atom_site_fract_x
 _atom_site_fract_y
 _atom_site_fract_z
 _atom_site_occupancy
  Er  Er0  1  0.000000  0.000000  0.248521  1
  Er  Er1  1  0.000000  0.000000  0.748266  1
  Er  Er2  1  0.499273  0.500727  0.249775  1
  Er  Er3  1  0.499273  0.998546  0.249775  1
  Er  Er4  1  0.001454  0.500727  0.249775  1
  Er  Er5  1  0.503224  0.496776  0.751299  1
  Er  Er6  1  0.993552  0.496776  0.751299  1
  Er  Er7  1  0.503224  0.006448  0.751299  1
  Ga  Ga8  1  0.333333  0.666667  0.516866  1
  Si  Si9  1  0.833148  0.166852  0.503757  1
  Si  Si10  1  0.833148  0.666298  0.503757  1
  Si  Si11  1  0.333702  0.166852  0.503757  1
  Si  Si12  1  0.834457  0.165543  0.003148  1
  Si  Si13  1  0.834457  0.668915  0.003148  1
  Si  Si14  1  0.331085  0.165543  0.003148  1
  Si  Si15  1  0.165649  0.834351  0.996208  1
  Si  Si16  1  0.668701  0.834351  0.996208  1
  Si  Si17  1  0.165649  0.331299  0.996208  1
  Si  Si18  1  0.163760  0.836240  0.493608  1
  Si  Si19  1  0.672481  0.836240  0.493608  1
  Si  Si20  1  0.163760  0.327519  0.493608  1
  Pt  Pt21  1  0.666667  0.333333  0.492814  1
  Pt  Pt22  1  0.666667  0.333333  0.002164  1
  Pt  Pt23  1  0.333333  0.666667  0.997983  1
