# generated using pymatgen
data_DyLu15Cd4(IrRu)2
_symmetry_space_group_name_H-M   'P 1'
_cell_length_a   9.44708167
_cell_length_b   9.44708248
_cell_length_c   9.47267300
_cell_angle_alpha   59.91035567
_cell_angle_beta   59.91035283
_cell_angle_gamma   59.73772684
_symmetry_Int_Tables_number   1
_chemical_formula_structural   DyLu15Cd4(IrRu)2
_chemical_formula_sum   'Dy1 Lu15 Cd4 Ir2 Ru2'
_cell_volume   595.79551334
_cell_formula_units_Z   1
loop_
 _symmetry_equiv_pos_site_id
 _symmetry_equiv_pos_as_xyz
  1  'x, y, z'
loop_
 _atom_site_type_symbol
 _atom_site_label
 _atom_site_symmetry_multiplicity
 _atom_site_fract_x
 _atom_site_fract_y
 _atom_site_fract_z
 _atom_site_occupancy
  Dy  Dy0  1  0.188867  0.188867  0.811133  1
  Lu  Lu1  1  0.598218  0.598218  0.598608  1
  Lu  Lu2  1  0.598218  0.598218  0.204956  1
  Lu  Lu3  1  0.597867  0.207724  0.597205  1
  Lu  Lu4  1  0.207724  0.597867  0.597205  1
  Lu  Lu5  1  0.061747  0.438989  0.439084  1
  Lu  Lu6  1  0.438989  0.061747  0.060181  1
  Lu  Lu7  1  0.438989  0.061747  0.439084  1
  Lu  Lu8  1  0.061747  0.438989  0.060181  1
  Lu  Lu9  1  0.438350  0.438350  0.061650  1
  Lu  Lu10  1  0.059675  0.059675  0.440325  1
  Lu  Lu11  1  0.187949  0.809803  0.812889  1
  Lu  Lu12  1  0.809803  0.187949  0.189360  1
  Lu  Lu13  1  0.809803  0.187949  0.812889  1
  Lu  Lu14  1  0.187949  0.809803  0.189360  1
  Lu  Lu15  1  0.811571  0.811571  0.188429  1
  Cd  Cd16  1  0.830781  0.830781  0.830776  1
  Cd  Cd17  1  0.830781  0.830781  0.507662  1
  Cd  Cd18  1  0.829976  0.507606  0.831210  1
  Cd  Cd19  1  0.507606  0.829976  0.831210  1
  Ir  Ir20  1  0.393010  0.826545  0.390223  1
  Ir  Ir21  1  0.826545  0.393010  0.390223  1
  Ru  Ru22  1  0.391920  0.391920  0.388708  1
  Ru  Ru23  1  0.391920  0.391920  0.827451  1
