# generated using pymatgen
data_Zr10AlHg(BiPb)3
_symmetry_space_group_name_H-M   'P 1'
_cell_length_a   8.89882200
_cell_length_b   8.89882121
_cell_length_c   6.02945500
_cell_angle_alpha   90.00000000
_cell_angle_beta   90.00000000
_cell_angle_gamma   120.00000295
_symmetry_Int_Tables_number   1
_chemical_formula_structural   Zr10AlHg(BiPb)3
_chemical_formula_sum   'Zr10 Al1 Hg1 Bi3 Pb3'
_cell_volume   413.49825196
_cell_formula_units_Z   1
loop_
 _symmetry_equiv_pos_site_id
 _symmetry_equiv_pos_as_xyz
  1  'x, y, z'
loop_
 _atom_site_type_symbol
 _atom_site_label
 _atom_site_symmetry_multiplicity
 _atom_site_fract_x
 _atom_site_fract_y
 _atom_site_fract_z
 _atom_site_occupancy
  Zr  Zr0  1  0.666667  0.333333  0.001969  1
  Zr  Zr1  1  0.333333  0.666667  0.001969  1
  Zr  Zr2  1  0.333333  0.666667  0.497553  1
  Zr  Zr3  1  0.666667  0.333333  0.497553  1
  Zr  Zr4  1  0.729197  0.729197  0.731882  1
  Zr  Zr5  1  0.270803  0.000000  0.731882  1
  Zr  Zr6  1  0.000000  0.270803  0.731882  1
  Zr  Zr7  1  0.275360  0.275360  0.269085  1
  Zr  Zr8  1  0.724640  0.000000  0.269085  1
  Zr  Zr9  1  0.000000  0.724640  0.269085  1
  Al  Al10  1  0.000000  0.000000  0.494748  1
  Hg  Hg11  1  0.000000  0.000000  0.006043  1
  Bi  Bi12  1  0.386912  0.386912  0.754738  1
  Bi  Bi13  1  0.613088  0.000000  0.754738  1
  Bi  Bi14  1  0.000000  0.613088  0.754738  1
  Pb  Pb15  1  0.617127  0.617127  0.244350  1
  Pb  Pb16  1  0.382873  0.000000  0.244350  1
  Pb  Pb17  1  0.000000  0.382873  0.244350  1
