# generated using pymatgen
data_Tb5Th5(Bi3C)2
_symmetry_space_group_name_H-M   'P 1'
_cell_length_a   9.32637353
_cell_length_b   9.36965503
_cell_length_c   6.48304900
_cell_angle_alpha   90.00000000
_cell_angle_beta   90.00000000
_cell_angle_gamma   120.15363198
_symmetry_Int_Tables_number   1
_chemical_formula_structural   Tb5Th5(Bi3C)2
_chemical_formula_sum   'Tb5 Th5 Bi6 C2'
_cell_volume   489.85994369
_cell_formula_units_Z   1
loop_
 _symmetry_equiv_pos_site_id
 _symmetry_equiv_pos_as_xyz
  1  'x, y, z'
loop_
 _atom_site_type_symbol
 _atom_site_label
 _atom_site_symmetry_multiplicity
 _atom_site_fract_x
 _atom_site_fract_y
 _atom_site_fract_z
 _atom_site_occupancy
  Tb  Tb0  1  0.665076  0.330540  0.999798  1
  Tb  Tb1  1  0.334924  0.665465  0.999798  1
  Tb  Tb2  1  0.334924  0.665465  0.500202  1
  Tb  Tb3  1  0.665076  0.330540  0.500202  1
  Tb  Tb4  1  0.000000  0.782052  0.250000  1
  Th  Th5  1  0.780901  0.780588  0.750000  1
  Th  Th6  1  0.219099  0.999686  0.750000  1
  Th  Th7  1  0.000000  0.221113  0.750000  1
  Th  Th8  1  0.220363  0.219994  0.250000  1
  Th  Th9  1  0.779637  0.999630  0.250000  1
  Bi  Bi10  1  0.405707  0.404805  0.750000  1
  Bi  Bi11  1  0.594293  0.999098  0.750000  1
  Bi  Bi12  1  0.000000  0.595508  0.750000  1
  Bi  Bi13  1  0.601007  0.595921  0.250000  1
  Bi  Bi14  1  0.398993  0.994914  0.250000  1
  Bi  Bi15  1  0.000000  0.408242  0.250000  1
  C  C16  1  0.000000  0.003219  0.998642  1
  C  C17  1  0.000000  0.003219  0.501358  1
