# generated using pymatgen
data_Dy2Lu2Re3Os5
_symmetry_space_group_name_H-M   'P 1'
_cell_length_a   5.31941490
_cell_length_b   5.32229421
_cell_length_c   8.89397207
_cell_angle_alpha   90.00000198
_cell_angle_beta   89.98754110
_cell_angle_gamma   120.01789622
_symmetry_Int_Tables_number   1
_chemical_formula_structural   Dy2Lu2Re3Os5
_chemical_formula_sum   'Dy2 Lu2 Re3 Os5'
_cell_volume   218.02724962
_cell_formula_units_Z   1
loop_
 _symmetry_equiv_pos_site_id
 _symmetry_equiv_pos_as_xyz
  1  'x, y, z'
loop_
 _atom_site_type_symbol
 _atom_site_label
 _atom_site_symmetry_multiplicity
 _atom_site_fract_x
 _atom_site_fract_y
 _atom_site_fract_z
 _atom_site_occupancy
  Dy  Dy0  1  0.338193  0.669097  0.435190  1
  Dy  Dy1  1  0.669171  0.334586  0.563214  1
  Lu  Lu2  1  0.668723  0.334362  0.937222  1
  Lu  Lu3  1  0.338382  0.669191  0.064006  1
  Re  Re4  1  0.164343  0.336532  0.752581  1
  Re  Re5  1  0.164343  0.827812  0.752581  1
  Re  Re6  1  0.330034  0.165017  0.248119  1
  Os  Os7  1  0.818590  0.647416  0.246829  1
  Os  Os8  1  0.645328  0.822665  0.753269  1
  Os  Os9  1  0.022332  0.011166  0.000928  1
  Os  Os10  1  0.818590  0.171172  0.246829  1
  Os  Os11  1  0.021969  0.010985  0.499231  1
