# generated using pymatgen
data_Sr3CoPtO6
_symmetry_space_group_name_H-M   'P 1'
_cell_length_a   6.76184400
_cell_length_b   6.76440539
_cell_length_c   6.76418019
_cell_angle_alpha   91.61069574
_cell_angle_beta   91.59131192
_cell_angle_gamma   91.58809207
_symmetry_Int_Tables_number   1
_chemical_formula_structural   Sr3CoPtO6
_chemical_formula_sum   'Sr6 Co2 Pt2 O12'
_cell_volume   309.02536799
_cell_formula_units_Z   2
loop_
 _symmetry_equiv_pos_site_id
 _symmetry_equiv_pos_as_xyz
  1  'x, y, z'
loop_
 _atom_site_type_symbol
 _atom_site_label
 _atom_site_symmetry_multiplicity
 _atom_site_fract_x
 _atom_site_fract_y
 _atom_site_fract_z
 _atom_site_occupancy
  Sr  Sr0  1  0.613752  0.886504  0.249069  1
  Sr  Sr1  1  0.886566  0.249759  0.613489  1
  Sr  Sr2  1  0.251156  0.613200  0.886481  1
  Sr  Sr3  1  0.113765  0.749497  0.386389  1
  Sr  Sr4  1  0.751109  0.386480  0.113168  1
  Sr  Sr5  1  0.386607  0.113581  0.749375  1
  Co  Co6  1  0.253590  0.248393  0.248001  1
  Co  Co7  1  0.753705  0.749138  0.747150  1
  Pt  Pt8  1  0.499456  0.500071  0.500783  1
  Pt  Pt9  1  0.999166  0.000396  0.000149  1
  O  O10  1  0.537016  0.212601  0.406295  1
  O  O11  1  0.212482  0.406667  0.539153  1
  O  O12  1  0.404536  0.537212  0.213402  1
  O  O13  1  0.036592  0.905783  0.712704  1
  O  O14  1  0.904597  0.713249  0.037581  1
  O  O15  1  0.712333  0.039198  0.907056  1
  O  O16  1  0.462148  0.787078  0.594941  1
  O  O17  1  0.786973  0.594694  0.463275  1
  O  O18  1  0.592890  0.461234  0.787688  1
  O  O19  1  0.961764  0.094444  0.287200  1
  O  O20  1  0.093015  0.287577  0.961664  1
  O  O21  1  0.286782  0.963245  0.094985  1
