# generated using pymatgen
data_La2Pr4TaNbO14
_symmetry_space_group_name_H-M   'P 1'
_cell_length_a   6.74061754
_cell_length_b   6.74061776
_cell_length_c   7.78654911
_cell_angle_alpha   90.01085135
_cell_angle_beta   90.01085088
_cell_angle_gamma   110.89392595
_symmetry_Int_Tables_number   1
_chemical_formula_structural   La2Pr4TaNbO14
_chemical_formula_sum   'La2 Pr4 Ta1 Nb1 O14'
_cell_volume   330.52469311
_cell_formula_units_Z   1
loop_
 _symmetry_equiv_pos_site_id
 _symmetry_equiv_pos_as_xyz
  1  'x, y, z'
loop_
 _atom_site_type_symbol
 _atom_site_label
 _atom_site_symmetry_multiplicity
 _atom_site_fract_x
 _atom_site_fract_y
 _atom_site_fract_z
 _atom_site_occupancy
  La  La0  1  0.000000  0.000000  0.500000  1
  La  La1  1  0.000000  0.000000  0.000000  1
  Pr  Pr2  1  0.930327  0.478248  0.750367  1
  Pr  Pr3  1  0.069673  0.521752  0.249633  1
  Pr  Pr4  1  0.521752  0.069673  0.249633  1
  Pr  Pr5  1  0.478248  0.930327  0.750367  1
  Ta  Ta6  1  0.500000  0.500000  0.000000  1
  Nb  Nb7  1  0.500000  0.500000  0.500000  1
  O  O8  1  0.566939  0.566939  0.751543  1
  O  O9  1  0.433061  0.433061  0.248457  1
  O  O10  1  0.846156  0.108436  0.750073  1
  O  O11  1  0.153844  0.891564  0.249927  1
  O  O12  1  0.108436  0.846156  0.750073  1
  O  O13  1  0.891564  0.153844  0.249927  1
  O  O14  1  0.441293  0.188778  0.965945  1
  O  O15  1  0.559572  0.812979  0.466252  1
  O  O16  1  0.188778  0.441293  0.965945  1
  O  O17  1  0.812979  0.559572  0.466252  1
  O  O18  1  0.440428  0.187021  0.533748  1
  O  O19  1  0.558707  0.811222  0.034055  1
  O  O20  1  0.811222  0.558707  0.034055  1
  O  O21  1  0.187021  0.440428  0.533748  1
