# generated using pymatgen
data_Li3Ca6Y2Si12Ag
_symmetry_space_group_name_H-M   'P 1'
_cell_length_a   4.32434700
_cell_length_b   10.51888652
_cell_length_c   11.08526577
_cell_angle_alpha   89.56259595
_cell_angle_beta   90.00000000
_cell_angle_gamma   90.00000000
_symmetry_Int_Tables_number   1
_chemical_formula_structural   Li3Ca6Y2Si12Ag
_chemical_formula_sum   'Li3 Ca6 Y2 Si12 Ag1'
_cell_volume   504.22428638
_cell_formula_units_Z   1
loop_
 _symmetry_equiv_pos_site_id
 _symmetry_equiv_pos_as_xyz
  1  'x, y, z'
loop_
 _atom_site_type_symbol
 _atom_site_label
 _atom_site_symmetry_multiplicity
 _atom_site_fract_x
 _atom_site_fract_y
 _atom_site_fract_z
 _atom_site_occupancy
  Li  Li0  1  0.500000  0.137871  0.717667  1
  Li  Li1  1  0.000000  0.359852  0.217579  1
  Li  Li2  1  0.000000  0.640457  0.783488  1
  Ca  Ca3  1  0.500000  0.550805  0.348266  1
  Ca  Ca4  1  0.500000  0.449221  0.649684  1
  Ca  Ca5  1  0.500000  0.822047  0.575570  1
  Ca  Ca6  1  0.500000  0.178579  0.424054  1
  Ca  Ca7  1  0.000000  0.324646  0.925521  1
  Ca  Ca8  1  0.000000  0.675996  0.076584  1
  Y  Y9  1  0.000000  0.052696  0.150614  1
  Y  Y10  1  0.000000  0.947008  0.853440  1
  Si  Si11  1  0.500000  0.894590  0.044095  1
  Si  Si12  1  0.500000  0.105782  0.957337  1
  Si  Si13  1  0.000000  0.391488  0.459243  1
  Si  Si14  1  0.000000  0.609475  0.539873  1
  Si  Si15  1  0.000000  0.968746  0.399295  1
  Si  Si16  1  0.000000  0.032923  0.601336  1
  Si  Si17  1  0.500000  0.464925  0.099344  1
  Si  Si18  1  0.500000  0.534533  0.900146  1
  Si  Si19  1  0.000000  0.254721  0.635112  1
  Si  Si20  1  0.000000  0.744840  0.363337  1
  Si  Si21  1  0.500000  0.759215  0.866869  1
  Si  Si22  1  0.500000  0.241229  0.134769  1
  Ag  Ag23  1  0.500000  0.858353  0.276778  1
