# generated using pymatgen
data_Lu6TcSb2
_symmetry_space_group_name_H-M   'P 1'
_cell_length_a   7.99935200
_cell_length_b   7.99935369
_cell_length_c   4.21558400
_cell_angle_alpha   90.00000000
_cell_angle_beta   90.00000000
_cell_angle_gamma   119.99999300
_symmetry_Int_Tables_number   1
_chemical_formula_structural   Lu6TcSb2
_chemical_formula_sum   'Lu6 Tc1 Sb2'
_cell_volume   233.61359740
_cell_formula_units_Z   1
loop_
 _symmetry_equiv_pos_site_id
 _symmetry_equiv_pos_as_xyz
  1  'x, y, z'
loop_
 _atom_site_type_symbol
 _atom_site_label
 _atom_site_symmetry_multiplicity
 _atom_site_fract_x
 _atom_site_fract_y
 _atom_site_fract_z
 _atom_site_occupancy
  Lu  Lu0  1  0.235391  0.000000  0.500000  1
  Lu  Lu1  1  0.000000  0.235391  0.500000  1
  Lu  Lu2  1  0.764609  0.764609  0.500000  1
  Lu  Lu3  1  0.606736  0.000000  0.000000  1
  Lu  Lu4  1  0.000000  0.606736  0.000000  1
  Lu  Lu5  1  0.393264  0.393264  0.000000  1
  Tc  Tc6  1  0.000000  0.000000  0.000000  1
  Sb  Sb7  1  0.333333  0.666667  0.500000  1
  Sb  Sb8  1  0.666667  0.333333  0.500000  1
