# generated using pymatgen
data_Pr3Ge6N11
_symmetry_space_group_name_H-M   'P 1'
_cell_length_a   10.55830100
_cell_length_b   10.55830100
_cell_length_c   5.17978700
_cell_angle_alpha   90.00000000
_cell_angle_beta   90.00000000
_cell_angle_gamma   90.00000000
_symmetry_Int_Tables_number   1
_chemical_formula_structural   Pr3Ge6N11
_chemical_formula_sum   'Pr6 Ge12 N22'
_cell_volume   577.43084488
_cell_formula_units_Z   2
loop_
 _symmetry_equiv_pos_site_id
 _symmetry_equiv_pos_as_xyz
  1  'x, y, z'
loop_
 _atom_site_type_symbol
 _atom_site_label
 _atom_site_symmetry_multiplicity
 _atom_site_fract_x
 _atom_site_fract_y
 _atom_site_fract_z
 _atom_site_occupancy
  Pr  Pr0  1  0.319161  0.819161  0.986369  1
  Pr  Pr1  1  0.680839  0.180839  0.986369  1
  Pr  Pr2  1  0.180839  0.319161  0.986369  1
  Pr  Pr3  1  0.819161  0.680839  0.986369  1
  Pr  Pr4  1  0.500000  0.500000  0.975933  1
  Pr  Pr5  1  0.000000  0.000000  0.975933  1
  Ge  Ge6  1  0.419249  0.293247  0.528098  1
  Ge  Ge7  1  0.580751  0.706753  0.528098  1
  Ge  Ge8  1  0.080751  0.793247  0.528098  1
  Ge  Ge9  1  0.919249  0.206753  0.528098  1
  Ge  Ge10  1  0.293247  0.580751  0.528098  1
  Ge  Ge11  1  0.706753  0.419249  0.528098  1
  Ge  Ge12  1  0.793247  0.919249  0.528098  1
  Ge  Ge13  1  0.206753  0.080751  0.528098  1
  Ge  Ge14  1  0.880233  0.380233  0.044686  1
  Ge  Ge15  1  0.119767  0.619767  0.044686  1
  Ge  Ge16  1  0.619767  0.880233  0.044686  1
  Ge  Ge17  1  0.380233  0.119767  0.044686  1
  N  N18  1  0.316785  0.421597  0.664117  1
  N  N19  1  0.683215  0.578403  0.664117  1
  N  N20  1  0.183215  0.921597  0.664117  1
  N  N21  1  0.816785  0.078403  0.664117  1
  N  N22  1  0.421597  0.683215  0.664117  1
  N  N23  1  0.578403  0.316785  0.664117  1
  N  N24  1  0.921597  0.816785  0.664117  1
  N  N25  1  0.078403  0.183215  0.664117  1
  N  N26  1  0.417687  0.282105  0.169460  1
  N  N27  1  0.582313  0.717895  0.169460  1
  N  N28  1  0.082313  0.782105  0.169460  1
  N  N29  1  0.917687  0.217895  0.169460  1
  N  N30  1  0.282105  0.582313  0.169460  1
  N  N31  1  0.717895  0.417687  0.169460  1
  N  N32  1  0.782105  0.917687  0.169460  1
  N  N33  1  0.217895  0.082313  0.169460  1
  N  N34  1  0.845578  0.345578  0.695773  1
  N  N35  1  0.154422  0.654422  0.695773  1
  N  N36  1  0.654422  0.845578  0.695773  1
  N  N37  1  0.345578  0.154422  0.695773  1
  N  N38  1  0.500000  0.000000  0.092251  1
  N  N39  1  0.000000  0.500000  0.092251  1
