# generated using pymatgen
data_Th8Ti11Si16W
_symmetry_space_group_name_H-M   'P 1'
_cell_length_a   7.17783741
_cell_length_b   7.17783644
_cell_length_c   13.26128578
_cell_angle_alpha   90.10456754
_cell_angle_beta   89.89543311
_cell_angle_gamma   90.07367771
_symmetry_Int_Tables_number   1
_chemical_formula_structural   Th8Ti11Si16W
_chemical_formula_sum   'Th8 Ti11 Si16 W1'
_cell_volume   683.23641467
_cell_formula_units_Z   1
loop_
 _symmetry_equiv_pos_site_id
 _symmetry_equiv_pos_as_xyz
  1  'x, y, z'
loop_
 _atom_site_type_symbol
 _atom_site_label
 _atom_site_symmetry_multiplicity
 _atom_site_fract_x
 _atom_site_fract_y
 _atom_site_fract_z
 _atom_site_occupancy
  Th  Th0  1  0.337675  0.003467  0.468617  1
  Th  Th1  1  0.496505  0.837501  0.718782  1
  Th  Th2  1  0.501344  0.162463  0.218316  1
  Th  Th3  1  0.837501  0.496505  0.281218  1
  Th  Th4  1  0.162463  0.501344  0.781684  1
  Th  Th5  1  0.661526  0.998404  0.968405  1
  Th  Th6  1  0.003467  0.337675  0.531383  1
  Th  Th7  1  0.998404  0.661526  0.031595  1
  Ti  Ti8  1  0.173350  0.828158  0.249084  1
  Ti  Ti9  1  0.828158  0.173350  0.750916  1
  Ti  Ti10  1  0.672419  0.672419  0.500000  1
  Ti  Ti11  1  0.159393  0.008338  0.877811  1
  Ti  Ti12  1  0.493046  0.659023  0.124398  1
  Ti  Ti13  1  0.506469  0.340758  0.626843  1
  Ti  Ti14  1  0.659023  0.493046  0.875602  1
  Ti  Ti15  1  0.340758  0.506469  0.373157  1
  Ti  Ti16  1  0.840408  0.992978  0.375742  1
  Ti  Ti17  1  0.008338  0.159393  0.122189  1
  Ti  Ti18  1  0.992978  0.840408  0.624258  1
  Si  Si19  1  0.196541  0.123444  0.687446  1
  Si  Si20  1  0.377256  0.693620  0.936306  1
  Si  Si21  1  0.624000  0.302959  0.437105  1
  Si  Si22  1  0.693620  0.377256  0.063694  1
  Si  Si23  1  0.302959  0.624000  0.562895  1
  Si  Si24  1  0.803904  0.876528  0.187546  1
  Si  Si25  1  0.123444  0.196541  0.312554  1
  Si  Si26  1  0.876528  0.803904  0.812454  1
  Si  Si27  1  0.286555  0.959255  0.065218  1
  Si  Si28  1  0.542033  0.787548  0.315807  1
  Si  Si29  1  0.456732  0.212897  0.816152  1
  Si  Si30  1  0.787548  0.542033  0.684193  1
  Si  Si31  1  0.212897  0.456732  0.183848  1
  Si  Si32  1  0.713278  0.042165  0.565793  1
  Si  Si33  1  0.959255  0.286555  0.934782  1
  Si  Si34  1  0.042165  0.713278  0.434207  1
  W  W35  1  0.328057  0.328057  0.000000  1
