# generated using pymatgen
data_ThU3(Al3Ir)6
_symmetry_space_group_name_H-M   'P 1'
_cell_length_a   7.61423007
_cell_length_b   7.63275846
_cell_length_c   9.42493400
_cell_angle_alpha   89.99908873
_cell_angle_beta   90.00066540
_cell_angle_gamma   119.46107038
_symmetry_Int_Tables_number   1
_chemical_formula_structural   ThU3(Al3Ir)6
_chemical_formula_sum   'Th1 U3 Al18 Ir6'
_cell_volume   476.92427120
_cell_formula_units_Z   1
loop_
 _symmetry_equiv_pos_site_id
 _symmetry_equiv_pos_as_xyz
  1  'x, y, z'
loop_
 _atom_site_type_symbol
 _atom_site_label
 _atom_site_symmetry_multiplicity
 _atom_site_fract_x
 _atom_site_fract_y
 _atom_site_fract_z
 _atom_site_occupancy
  Th  Th0  1  0.996481  0.670696  0.750000  1
  U  U1  1  0.004618  0.327809  0.249997  1
  U  U2  1  0.671600  0.996163  0.749999  1
  U  U3  1  0.329409  0.004836  0.250000  1
  Al  Al4  1  0.129703  0.132120  0.749998  1
  Al  Al5  1  0.868555  0.871698  0.249998  1
  Al  Al6  1  0.003389  0.333102  0.571454  1
  Al  Al7  1  0.997774  0.664341  0.419390  1
  Al  Al8  1  0.997770  0.664347  0.080610  1
  Al  Al9  1  0.338546  0.004820  0.928421  1
  Al  Al10  1  0.003359  0.333085  0.928539  1
  Al  Al11  1  0.663699  0.998278  0.073685  1
  Al  Al12  1  0.663708  0.998280  0.426311  1
  Al  Al13  1  0.338554  0.004825  0.571584  1
  Al  Al14  1  0.334483  0.334247  0.055116  1
  Al  Al15  1  0.663351  0.665260  0.949857  1
  Al  Al16  1  0.663369  0.665269  0.550138  1
  Al  Al17  1  0.334491  0.334251  0.444884  1
  Al  Al18  1  0.344472  0.548468  0.750002  1
  Al  Al19  1  0.656667  0.451465  0.250002  1
  Al  Al20  1  0.544402  0.336183  0.750002  1
  Al  Al21  1  0.449109  0.660650  0.250002  1
  Ir  Ir22  1  0.674405  0.329352  0.499724  1
  Ir  Ir23  1  0.326513  0.671999  0.499860  1
  Ir  Ir24  1  0.326487  0.671977  0.000144  1
  Ir  Ir25  1  0.674394  0.329356  0.000288  1
  Ir  Ir26  1  0.000353  0.998563  0.499783  1
  Ir  Ir27  1  0.000338  0.998561  0.000209  1
