# generated using pymatgen
data_Yb11Lu(CuGe)12
_symmetry_space_group_name_H-M   'P 1'
_cell_length_a   4.31340300
_cell_length_b   7.36635728
_cell_length_c   20.81566462
_cell_angle_alpha   90.30519270
_cell_angle_beta   90.00000000
_cell_angle_gamma   90.00000000
_symmetry_Int_Tables_number   1
_chemical_formula_structural   Yb11Lu(CuGe)12
_chemical_formula_sum   'Yb11 Lu1 Cu12 Ge12'
_cell_volume   661.38895216
_cell_formula_units_Z   1
loop_
 _symmetry_equiv_pos_site_id
 _symmetry_equiv_pos_as_xyz
  1  'x, y, z'
loop_
 _atom_site_type_symbol
 _atom_site_label
 _atom_site_symmetry_multiplicity
 _atom_site_fract_x
 _atom_site_fract_y
 _atom_site_fract_z
 _atom_site_occupancy
  Yb  Yb0  1  0.250000  0.721718  0.002754  1
  Yb  Yb1  1  0.750000  0.279742  0.998157  1
  Yb  Yb2  1  0.750000  0.217092  0.497851  1
  Yb  Yb3  1  0.250000  0.783305  0.502259  1
  Yb  Yb4  1  0.250000  0.790437  0.166120  1
  Yb  Yb5  1  0.750000  0.214840  0.833265  1
  Yb  Yb6  1  0.750000  0.289832  0.333604  1
  Yb  Yb7  1  0.250000  0.712198  0.665828  1
  Yb  Yb8  1  0.250000  0.708804  0.333506  1
  Yb  Yb9  1  0.750000  0.289354  0.666217  1
  Yb  Yb10  1  0.750000  0.208839  0.166166  1
  Lu  Lu11  1  0.250000  0.788114  0.833663  1
  Cu  Cu12  1  0.250000  0.414124  0.095691  1
  Cu  Cu13  1  0.750000  0.583521  0.901952  1
  Cu  Cu14  1  0.750000  0.913744  0.404447  1
  Cu  Cu15  1  0.250000  0.086089  0.596606  1
  Cu  Cu16  1  0.250000  0.411923  0.236543  1
  Cu  Cu17  1  0.750000  0.589059  0.765421  1
  Cu  Cu18  1  0.750000  0.913913  0.263977  1
  Cu  Cu19  1  0.250000  0.087512  0.738150  1
  Cu  Cu20  1  0.250000  0.418712  0.435592  1
  Cu  Cu21  1  0.750000  0.580866  0.563860  1
  Cu  Cu22  1  0.750000  0.917843  0.067298  1
  Cu  Cu23  1  0.250000  0.081641  0.935532  1
  Ge  Ge24  1  0.250000  0.088037  0.067258  1
  Ge  Ge25  1  0.750000  0.908379  0.924113  1
  Ge  Ge26  1  0.750000  0.587582  0.432016  1
  Ge  Ge27  1  0.250000  0.411277  0.569106  1
  Ge  Ge28  1  0.250000  0.081048  0.269379  1
  Ge  Ge29  1  0.750000  0.917357  0.733796  1
  Ge  Ge30  1  0.750000  0.581203  0.230282  1
  Ge  Ge31  1  0.250000  0.421487  0.768802  1
  Ge  Ge32  1  0.250000  0.083657  0.398977  1
  Ge  Ge33  1  0.750000  0.916248  0.601914  1
  Ge  Ge34  1  0.750000  0.583951  0.101156  1
  Ge  Ge35  1  0.250000  0.416550  0.898740  1
