# generated using pymatgen
data_TbLu6Sn23Ir6
_symmetry_space_group_name_H-M   'P 1'
_cell_length_a   9.80341000
_cell_length_b   9.80341041
_cell_length_c   10.09430700
_cell_angle_alpha   90.00000000
_cell_angle_beta   90.00000000
_cell_angle_gamma   120.00000536
_symmetry_Int_Tables_number   1
_chemical_formula_structural   TbLu6Sn23Ir6
_chemical_formula_sum   'Tb1 Lu6 Sn23 Ir6'
_cell_volume   840.15896820
_cell_formula_units_Z   1
loop_
 _symmetry_equiv_pos_site_id
 _symmetry_equiv_pos_as_xyz
  1  'x, y, z'
loop_
 _atom_site_type_symbol
 _atom_site_label
 _atom_site_symmetry_multiplicity
 _atom_site_fract_x
 _atom_site_fract_y
 _atom_site_fract_z
 _atom_site_occupancy
  Tb  Tb0  1  0.000000  0.000000  0.000000  1
  Lu  Lu1  1  0.482979  0.517021  0.305714  1
  Lu  Lu2  1  0.517021  0.482979  0.694286  1
  Lu  Lu3  1  0.482979  0.965960  0.305714  1
  Lu  Lu4  1  0.517021  0.034040  0.694286  1
  Lu  Lu5  1  0.034040  0.517021  0.305714  1
  Lu  Lu6  1  0.965960  0.482979  0.694286  1
  Sn  Sn7  1  0.119715  0.880285  0.284551  1
  Sn  Sn8  1  0.880285  0.119715  0.715449  1
  Sn  Sn9  1  0.119715  0.239429  0.284551  1
  Sn  Sn10  1  0.880285  0.760571  0.715449  1
  Sn  Sn11  1  0.760571  0.880285  0.284551  1
  Sn  Sn12  1  0.239429  0.119715  0.715449  1
  Sn  Sn13  1  0.776504  0.223496  0.459396  1
  Sn  Sn14  1  0.223496  0.776504  0.540604  1
  Sn  Sn15  1  0.776504  0.553007  0.459396  1
  Sn  Sn16  1  0.223496  0.446993  0.540604  1
  Sn  Sn17  1  0.446993  0.223496  0.459396  1
  Sn  Sn18  1  0.553007  0.776504  0.540604  1
  Sn  Sn19  1  0.352254  0.000000  0.000000  1
  Sn  Sn20  1  0.647746  0.000000  0.000000  1
  Sn  Sn21  1  0.000000  0.352254  0.000000  1
  Sn  Sn22  1  0.000000  0.647746  0.000000  1
  Sn  Sn23  1  0.647746  0.647746  0.000000  1
  Sn  Sn24  1  0.352254  0.352254  0.000000  1
  Sn  Sn25  1  0.333333  0.666667  0.130583  1
  Sn  Sn26  1  0.666667  0.333333  0.869417  1
  Sn  Sn27  1  0.333333  0.666667  0.830083  1
  Sn  Sn28  1  0.666667  0.333333  0.169917  1
  Sn  Sn29  1  0.000000  0.000000  0.500000  1
  Ir  Ir30  1  0.829713  0.170287  0.200320  1
  Ir  Ir31  1  0.170287  0.829713  0.799680  1
  Ir  Ir32  1  0.829713  0.659428  0.200320  1
  Ir  Ir33  1  0.170287  0.340572  0.799680  1
  Ir  Ir34  1  0.340572  0.170287  0.200320  1
  Ir  Ir35  1  0.659428  0.829713  0.799680  1
