# generated using pymatgen
data_Tm2Co3Ni4B3
_symmetry_space_group_name_H-M   'P 1'
_cell_length_a   4.94971000
_cell_length_b   4.94971035
_cell_length_c   12.93793600
_cell_angle_alpha   90.00000000
_cell_angle_beta   90.00000000
_cell_angle_gamma   119.99999769
_symmetry_Int_Tables_number   1
_chemical_formula_structural   Tm2Co3Ni4B3
_chemical_formula_sum   'Tm4 Co6 Ni8 B6'
_cell_volume   274.50811016
_cell_formula_units_Z   2
loop_
 _symmetry_equiv_pos_site_id
 _symmetry_equiv_pos_as_xyz
  1  'x, y, z'
loop_
 _atom_site_type_symbol
 _atom_site_label
 _atom_site_symmetry_multiplicity
 _atom_site_fract_x
 _atom_site_fract_y
 _atom_site_fract_z
 _atom_site_occupancy
  Tm  Tm0  1  0.000000  0.000000  0.000000  1
  Tm  Tm1  1  0.000000  0.000000  0.500000  1
  Tm  Tm2  1  0.000000  0.000000  0.737407  1
  Tm  Tm3  1  0.000000  0.000000  0.262593  1
  Co  Co4  1  0.500000  0.500000  0.616646  1
  Co  Co5  1  0.500000  0.000000  0.616646  1
  Co  Co6  1  0.000000  0.500000  0.616646  1
  Co  Co7  1  0.500000  0.500000  0.383354  1
  Co  Co8  1  0.500000  0.000000  0.383354  1
  Co  Co9  1  0.000000  0.500000  0.383354  1
  Ni  Ni10  1  0.666667  0.333333  0.000000  1
  Ni  Ni11  1  0.333333  0.666667  0.000000  1
  Ni  Ni12  1  0.500000  0.500000  0.843885  1
  Ni  Ni13  1  0.500000  0.000000  0.843885  1
  Ni  Ni14  1  0.000000  0.500000  0.843885  1
  Ni  Ni15  1  0.500000  0.500000  0.156115  1
  Ni  Ni16  1  0.500000  0.000000  0.156115  1
  Ni  Ni17  1  0.000000  0.500000  0.156115  1
  B  B18  1  0.666667  0.333333  0.500000  1
  B  B19  1  0.333333  0.666667  0.500000  1
  B  B20  1  0.666667  0.333333  0.730321  1
  B  B21  1  0.333333  0.666667  0.730321  1
  B  B22  1  0.333333  0.666667  0.269679  1
  B  B23  1  0.666667  0.333333  0.269679  1
