# generated using pymatgen
data_Ho7ErGePd24
_symmetry_space_group_name_H-M   'P 1'
_cell_length_a   8.33210500
_cell_length_b   8.33210500
_cell_length_c   8.33210500
_cell_angle_alpha   89.99939487
_cell_angle_beta   90.00060513
_cell_angle_gamma   90.00060513
_symmetry_Int_Tables_number   1
_chemical_formula_structural   Ho7ErGePd24
_chemical_formula_sum   'Ho7 Er1 Ge1 Pd24'
_cell_volume   578.44783860
_cell_formula_units_Z   1
loop_
 _symmetry_equiv_pos_site_id
 _symmetry_equiv_pos_as_xyz
  1  'x, y, z'
loop_
 _atom_site_type_symbol
 _atom_site_label
 _atom_site_symmetry_multiplicity
 _atom_site_fract_x
 _atom_site_fract_y
 _atom_site_fract_z
 _atom_site_occupancy
  Ho  Ho0  1  0.253252  0.253249  0.253249  1
  Ho  Ho1  1  0.746755  0.746754  0.746754  1
  Ho  Ho2  1  0.746751  0.746748  0.253249  1
  Ho  Ho3  1  0.746751  0.253249  0.746748  1
  Ho  Ho4  1  0.253246  0.253245  0.746754  1
  Ho  Ho5  1  0.253246  0.746754  0.253245  1
  Ho  Ho6  1  0.253245  0.746755  0.746755  1
  Er  Er7  1  0.746748  0.253252  0.253252  1
  Ge  Ge8  1  0.000002  0.999998  0.999998  1
  Pd  Pd9  1  0.259975  0.500003  0.000002  1
  Pd  Pd10  1  0.740026  0.499945  0.000058  1
  Pd  Pd11  1  0.999942  0.259974  0.499945  1
  Pd  Pd12  1  0.500055  0.259974  0.000058  1
  Pd  Pd13  1  0.999998  0.740025  0.500003  1
  Pd  Pd14  1  0.499997  0.740025  0.000002  1
  Pd  Pd15  1  0.500055  0.000058  0.259974  1
  Pd  Pd16  1  0.259975  0.000002  0.500003  1
  Pd  Pd17  1  0.499997  0.000002  0.740025  1
  Pd  Pd18  1  0.740026  0.000058  0.499945  1
  Pd  Pd19  1  0.999942  0.499945  0.259974  1
  Pd  Pd20  1  0.999998  0.500003  0.740025  1
  Pd  Pd21  1  0.253345  0.499997  0.499997  1
  Pd  Pd22  1  0.746657  0.499939  0.499939  1
  Pd  Pd23  1  0.500061  0.253343  0.499939  1
  Pd  Pd24  1  0.500003  0.746655  0.499997  1
  Pd  Pd25  1  0.500061  0.499939  0.253343  1
  Pd  Pd26  1  0.500003  0.499997  0.746655  1
  Pd  Pd27  1  0.289527  0.000001  0.000001  1
  Pd  Pd28  1  0.710484  0.000059  0.000059  1
  Pd  Pd29  1  0.999941  0.289516  0.000059  1
  Pd  Pd30  1  0.999999  0.710473  0.000001  1
  Pd  Pd31  1  0.999941  0.000059  0.289516  1
  Pd  Pd32  1  0.999999  0.000001  0.710473  1
