# generated using pymatgen
data_Be2NbCo2B8Mo3
_symmetry_space_group_name_H-M   'P 1'
_cell_length_a   3.04481800
_cell_length_b   5.91732407
_cell_length_c   7.91836812
_cell_angle_alpha   89.98095146
_cell_angle_beta   90.00000000
_cell_angle_gamma   90.00000000
_symmetry_Int_Tables_number   1
_chemical_formula_structural   Be2NbCo2B8Mo3
_chemical_formula_sum   'Be2 Nb1 Co2 B8 Mo3'
_cell_volume   142.66661508
_cell_formula_units_Z   1
loop_
 _symmetry_equiv_pos_site_id
 _symmetry_equiv_pos_as_xyz
  1  'x, y, z'
loop_
 _atom_site_type_symbol
 _atom_site_label
 _atom_site_symmetry_multiplicity
 _atom_site_fract_x
 _atom_site_fract_y
 _atom_site_fract_z
 _atom_site_occupancy
  Be  Be0  1  0.750000  0.508044  0.894820  1
  Be  Be1  1  0.750000  0.010179  0.605834  1
  Nb  Nb2  1  0.750000  0.364213  0.369045  1
  Co  Co3  1  0.250000  0.487324  0.100373  1
  Co  Co4  1  0.250000  0.993287  0.399252  1
  B  B5  1  0.250000  0.161582  0.171526  1
  B  B6  1  0.750000  0.833588  0.826343  1
  B  B7  1  0.250000  0.670815  0.323692  1
  B  B8  1  0.750000  0.334305  0.676240  1
  B  B9  1  0.250000  0.240212  0.584528  1
  B  B10  1  0.750000  0.253908  0.072879  1
  B  B11  1  0.250000  0.739378  0.921579  1
  B  B12  1  0.750000  0.762066  0.422779  1
  Mo  Mo13  1  0.250000  0.133332  0.863301  1
  Mo  Mo14  1  0.750000  0.866192  0.130370  1
  Mo  Mo15  1  0.250000  0.641573  0.637441  1
