# generated using pymatgen
data_Ho3Er3TaO12
_symmetry_space_group_name_H-M   'P 1'
_cell_length_a   6.43917651
_cell_length_b   6.43938452
_cell_length_c   6.43856611
_cell_angle_alpha   98.81621854
_cell_angle_beta   98.82192100
_cell_angle_gamma   98.81633008
_symmetry_Int_Tables_number   1
_chemical_formula_structural   Ho3Er3TaO12
_chemical_formula_sum   'Ho3 Er3 Ta1 O12'
_cell_volume   256.38836346
_cell_formula_units_Z   1
loop_
 _symmetry_equiv_pos_site_id
 _symmetry_equiv_pos_as_xyz
  1  'x, y, z'
loop_
 _atom_site_type_symbol
 _atom_site_label
 _atom_site_symmetry_multiplicity
 _atom_site_fract_x
 _atom_site_fract_y
 _atom_site_fract_z
 _atom_site_occupancy
  Ho  Ho0  1  0.303757  0.611039  0.139062  1
  Ho  Ho1  1  0.611270  0.139601  0.304266  1
  Ho  Ho2  1  0.860631  0.695843  0.389119  1
  Er  Er3  1  0.139108  0.303933  0.611303  1
  Er  Er4  1  0.389004  0.861154  0.696033  1
  Er  Er5  1  0.695726  0.388654  0.860373  1
  Ta  Ta6  1  0.999746  0.999927  0.999718  1
  O  O7  1  0.073656  0.304669  0.957287  1
  O  O8  1  0.042883  0.926349  0.695347  1
  O  O9  1  0.414039  0.564725  0.820753  1
  O  O10  1  0.178870  0.585936  0.436521  1
  O  O11  1  0.694887  0.041924  0.925421  1
  O  O12  1  0.434582  0.178282  0.587433  1
  O  O13  1  0.564149  0.821937  0.414779  1
  O  O14  1  0.304555  0.957856  0.073491  1
  O  O15  1  0.822373  0.413383  0.565858  1
  O  O16  1  0.586460  0.435358  0.176896  1
  O  O17  1  0.958838  0.074471  0.304987  1
  O  O18  1  0.925466  0.694960  0.041351  1
