# generated using pymatgen
data_Dy5Lu3(P3Pd4)4
_symmetry_space_group_name_H-M   'P 1'
_cell_length_a   13.25896200
_cell_length_b   13.25896207
_cell_length_c   4.04319300
_cell_angle_alpha   90.00000000
_cell_angle_beta   90.00000000
_cell_angle_gamma   119.99999983
_symmetry_Int_Tables_number   1
_chemical_formula_structural   Dy5Lu3(P3Pd4)4
_chemical_formula_sum   'Dy5 Lu3 P12 Pd16'
_cell_volume   615.56534112
_cell_formula_units_Z   1
loop_
 _symmetry_equiv_pos_site_id
 _symmetry_equiv_pos_as_xyz
  1  'x, y, z'
loop_
 _atom_site_type_symbol
 _atom_site_label
 _atom_site_symmetry_multiplicity
 _atom_site_fract_x
 _atom_site_fract_y
 _atom_site_fract_z
 _atom_site_occupancy
  Dy  Dy0  1  0.333333  0.666667  0.500000  1
  Dy  Dy1  1  0.666667  0.333333  0.500000  1
  Dy  Dy2  1  0.000000  0.813641  0.000000  1
  Dy  Dy3  1  0.186359  0.186359  0.000000  1
  Dy  Dy4  1  0.813641  0.000000  0.000000  1
  Lu  Lu5  1  0.000000  0.446488  0.500000  1
  Lu  Lu6  1  0.553512  0.553512  0.500000  1
  Lu  Lu7  1  0.446488  0.000000  0.500000  1
  P  P8  1  0.000000  0.650596  0.500000  1
  P  P9  1  0.349404  0.349404  0.500000  1
  P  P10  1  0.650596  0.000000  0.500000  1
  P  P11  1  0.519113  0.687708  0.000000  1
  P  P12  1  0.312292  0.831408  0.000000  1
  P  P13  1  0.168592  0.480887  0.000000  1
  P  P14  1  0.480887  0.168592  0.000000  1
  P  P15  1  0.687708  0.519113  0.000000  1
  P  P16  1  0.831408  0.312292  0.000000  1
  P  P17  1  0.000000  0.173380  0.500000  1
  P  P18  1  0.826620  0.826620  0.500000  1
  P  P19  1  0.173380  0.000000  0.500000  1
  Pd  Pd20  1  0.511167  0.868929  0.000000  1
  Pd  Pd21  1  0.131071  0.642240  0.000000  1
  Pd  Pd22  1  0.357760  0.488833  0.000000  1
  Pd  Pd23  1  0.488833  0.357760  0.000000  1
  Pd  Pd24  1  0.868929  0.511167  0.000000  1
  Pd  Pd25  1  0.642240  0.131071  0.000000  1
  Pd  Pd26  1  0.000000  0.274809  0.000000  1
  Pd  Pd27  1  0.725191  0.725191  0.000000  1
  Pd  Pd28  1  0.274809  0.000000  0.000000  1
  Pd  Pd29  1  0.625527  0.808428  0.500000  1
  Pd  Pd30  1  0.191572  0.817099  0.500000  1
  Pd  Pd31  1  0.182901  0.374473  0.500000  1
  Pd  Pd32  1  0.374473  0.182901  0.500000  1
  Pd  Pd33  1  0.808428  0.625527  0.500000  1
  Pd  Pd34  1  0.817099  0.191572  0.500000  1
  Pd  Pd35  1  0.000000  0.000000  0.500000  1
