# generated using pymatgen
data_TiCo4Tc3B4
_symmetry_space_group_name_H-M   'P 1'
_cell_length_a   3.21397100
_cell_length_b   5.71484700
_cell_length_c   6.57820553
_cell_angle_alpha   90.96211615
_cell_angle_beta   90.00000000
_cell_angle_gamma   90.00000000
_symmetry_Int_Tables_number   1
_chemical_formula_structural   TiCo4Tc3B4
_chemical_formula_sum   'Ti1 Co4 Tc3 B4'
_cell_volume   120.80718571
_cell_formula_units_Z   1
loop_
 _symmetry_equiv_pos_site_id
 _symmetry_equiv_pos_as_xyz
  1  'x, y, z'
loop_
 _atom_site_type_symbol
 _atom_site_label
 _atom_site_symmetry_multiplicity
 _atom_site_fract_x
 _atom_site_fract_y
 _atom_site_fract_z
 _atom_site_occupancy
  Ti  Ti0  1  0.750000  0.972105  0.174773  1
  Co  Co1  1  0.750000  0.852347  0.554186  1
  Co  Co2  1  0.250000  0.141677  0.442078  1
  Co  Co3  1  0.750000  0.355572  0.945800  1
  Co  Co4  1  0.250000  0.649701  0.054586  1
  Tc  Tc5  1  0.250000  0.528857  0.674856  1
  Tc  Tc6  1  0.750000  0.473241  0.326906  1
  Tc  Tc7  1  0.250000  0.027985  0.828086  1
  B  B8  1  0.250000  0.766287  0.379398  1
  B  B9  1  0.750000  0.226007  0.624766  1
  B  B10  1  0.250000  0.276417  0.124667  1
  B  B11  1  0.750000  0.729804  0.869898  1
