# generated using pymatgen
data_Li2AcY2Al7
_symmetry_space_group_name_H-M   'P 1'
_cell_length_a   9.42608626
_cell_length_b   9.42608709
_cell_length_c   9.42608600
_cell_angle_alpha   34.45419497
_cell_angle_beta   34.45418760
_cell_angle_gamma   34.45418696
_symmetry_Int_Tables_number   1
_chemical_formula_structural   Li2AcY2Al7
_chemical_formula_sum   'Li2 Ac1 Y2 Al7'
_cell_volume   239.12790432
_cell_formula_units_Z   1
loop_
 _symmetry_equiv_pos_site_id
 _symmetry_equiv_pos_as_xyz
  1  'x, y, z'
loop_
 _atom_site_type_symbol
 _atom_site_label
 _atom_site_symmetry_multiplicity
 _atom_site_fract_x
 _atom_site_fract_y
 _atom_site_fract_z
 _atom_site_occupancy
  Li  Li0  1  0.664551  0.664551  0.664551  1
  Li  Li1  1  0.335449  0.335449  0.335449  1
  Ac  Ac2  1  0.000000  0.000000  0.000000  1
  Y  Y3  1  0.858267  0.858267  0.858267  1
  Y  Y4  1  0.141733  0.141733  0.141733  1
  Al  Al5  1  0.412121  0.412121  0.922986  1
  Al  Al6  1  0.922986  0.412121  0.412121  1
  Al  Al7  1  0.412121  0.922986  0.412121  1
  Al  Al8  1  0.500000  0.500000  0.500000  1
  Al  Al9  1  0.587879  0.077014  0.587879  1
  Al  Al10  1  0.077014  0.587879  0.587879  1
  Al  Al11  1  0.587879  0.587879  0.077014  1
