# generated using pymatgen
data_TiNb3B2PW
_symmetry_space_group_name_H-M   'P 1'
_cell_length_a   6.12628367
_cell_length_b   6.12628485
_cell_length_c   7.21680642
_cell_angle_alpha   115.23578141
_cell_angle_beta   115.23580244
_cell_angle_gamma   89.74367131
_symmetry_Int_Tables_number   1
_chemical_formula_structural   TiNb3B2PW
_chemical_formula_sum   'Ti2 Nb6 B4 P2 W2'
_cell_volume   216.35780045
_cell_formula_units_Z   2
loop_
 _symmetry_equiv_pos_site_id
 _symmetry_equiv_pos_as_xyz
  1  'x, y, z'
loop_
 _atom_site_type_symbol
 _atom_site_label
 _atom_site_symmetry_multiplicity
 _atom_site_fract_x
 _atom_site_fract_y
 _atom_site_fract_z
 _atom_site_occupancy
  Ti  Ti0  1  0.028948  0.528948  0.721397  1
  Ti  Ti1  1  0.692449  0.192449  0.721397  1
  Nb  Nb2  1  0.191986  0.029304  0.721290  1
  Nb  Nb3  1  0.529304  0.691986  0.721290  1
  Nb  Nb4  1  0.969268  0.469268  0.279470  1
  Nb  Nb5  1  0.310201  0.810201  0.279470  1
  Nb  Nb6  1  0.809282  0.970262  0.279544  1
  Nb  Nb7  1  0.470262  0.309282  0.279544  1
  B  B8  1  0.380175  0.880175  0.998258  1
  B  B9  1  0.618082  0.118082  0.998258  1
  B  B10  1  0.109457  0.385715  0.995172  1
  B  B11  1  0.885715  0.609457  0.995172  1
  P  P12  1  0.254105  0.254105  0.508209  1
  P  P13  1  0.754105  0.754105  0.508209  1
  W  W14  1  0.498330  0.498330  0.996661  1
  W  W15  1  0.998330  0.998330  0.996661  1
