# generated using pymatgen
data_PrNd3(Ho3Pb4)2
_symmetry_space_group_name_H-M   'P 1'
_cell_length_a   8.28166800
_cell_length_b   8.39661907
_cell_length_c   15.81592113
_cell_angle_alpha   90.01440125
_cell_angle_beta   90.00000000
_cell_angle_gamma   90.00000000
_symmetry_Int_Tables_number   1
_chemical_formula_structural   PrNd3(Ho3Pb4)2
_chemical_formula_sum   'Pr2 Nd6 Ho12 Pb16'
_cell_volume   1099.80766921
_cell_formula_units_Z   2
loop_
 _symmetry_equiv_pos_site_id
 _symmetry_equiv_pos_as_xyz
  1  'x, y, z'
loop_
 _atom_site_type_symbol
 _atom_site_label
 _atom_site_symmetry_multiplicity
 _atom_site_fract_x
 _atom_site_fract_y
 _atom_site_fract_z
 _atom_site_occupancy
  Pr  Pr0  1  0.476068  0.677631  0.902840  1
  Pr  Pr1  1  0.976068  0.822369  0.597160  1
  Nd  Nd2  1  0.475976  0.677616  0.597357  1
  Nd  Nd3  1  0.975976  0.822384  0.902643  1
  Nd  Nd4  1  0.523989  0.322259  0.097379  1
  Nd  Nd5  1  0.023989  0.177741  0.402621  1
  Nd  Nd6  1  0.523986  0.322308  0.402668  1
  Nd  Nd7  1  0.023986  0.177692  0.097332  1
  Ho  Ho8  1  0.632980  0.158269  0.622192  1
  Ho  Ho9  1  0.132980  0.341731  0.877808  1
  Ho  Ho10  1  0.366903  0.841938  0.122275  1
  Ho  Ho11  1  0.866903  0.658062  0.377725  1
  Ho  Ho12  1  0.366925  0.841883  0.377775  1
  Ho  Ho13  1  0.866925  0.658117  0.122225  1
  Ho  Ho14  1  0.633092  0.158181  0.877785  1
  Ho  Ho15  1  0.133092  0.341819  0.622215  1
  Ho  Ho16  1  0.798647  0.494867  0.749981  1
  Ho  Ho17  1  0.298647  0.005133  0.750019  1
  Ho  Ho18  1  0.201392  0.504975  0.249986  1
  Ho  Ho19  1  0.701392  0.995025  0.250014  1
  Pb  Pb20  1  0.705778  0.959662  0.456416  1
  Pb  Pb21  1  0.205778  0.540338  0.043584  1
  Pb  Pb22  1  0.293616  0.040872  0.956669  1
  Pb  Pb23  1  0.793616  0.459128  0.543331  1
  Pb  Pb24  1  0.294289  0.040892  0.543254  1
  Pb  Pb25  1  0.794289  0.459108  0.956746  1
  Pb  Pb26  1  0.706248  0.959513  0.043417  1
  Pb  Pb27  1  0.206248  0.540487  0.456583  1
  Pb  Pb28  1  0.436604  0.370956  0.749940  1
  Pb  Pb29  1  0.936604  0.129044  0.750060  1
  Pb  Pb30  1  0.563386  0.628846  0.249995  1
  Pb  Pb31  1  0.063386  0.871154  0.250005  1
  Pb  Pb32  1  0.663287  0.850419  0.749799  1
  Pb  Pb33  1  0.163287  0.649581  0.750201  1
  Pb  Pb34  1  0.336836  0.149966  0.249999  1
  Pb  Pb35  1  0.836836  0.350034  0.250001  1
