# generated using pymatgen
data_Cs4V2Cu2SeS7
_symmetry_space_group_name_H-M   'P 1'
_cell_length_a   14.44338764
_cell_length_b   12.83237006
_cell_length_c   7.71764874
_cell_angle_alpha   86.00606162
_cell_angle_beta   62.64822376
_cell_angle_gamma   32.14211366
_symmetry_Int_Tables_number   1
_chemical_formula_structural   Cs4V2Cu2SeS7
_chemical_formula_sum   'Cs4 V2 Cu2 Se1 S7'
_cell_volume   498.16869977
_cell_formula_units_Z   1
loop_
 _symmetry_equiv_pos_site_id
 _symmetry_equiv_pos_as_xyz
  1  'x, y, z'
loop_
 _atom_site_type_symbol
 _atom_site_label
 _atom_site_symmetry_multiplicity
 _atom_site_fract_x
 _atom_site_fract_y
 _atom_site_fract_z
 _atom_site_occupancy
  Cs  Cs0  1  0.568695  0.580176  0.920502  1
  Cs  Cs1  1  0.926887  0.924807  0.573455  1
  Cs  Cs2  1  0.322449  0.323962  0.677894  1
  Cs  Cs3  1  0.687493  0.669530  0.315051  1
  V  V4  1  0.750222  0.750099  0.749802  1
  V  V5  1  0.502269  0.495868  0.500445  1
  Cu  Cu6  1  0.996719  0.999390  0.007792  1
  Cu  Cu7  1  0.250726  0.249244  0.250139  1
  Se  Se8  1  0.223075  0.883754  0.592718  1
  S  S9  1  0.309176  0.590322  0.867515  1
  S  S10  1  0.593164  0.303925  0.234847  1
  S  S11  1  0.868309  0.228770  0.311255  1
  S  S12  1  0.383137  0.017459  0.940801  1
  S  S13  1  0.941041  0.658346  0.383991  1
  S  S14  1  0.656332  0.943888  0.019317  1
  S  S15  1  0.020307  0.380462  0.654478  1
