# generated using pymatgen
data_YbDy5Er4(In2Pt)4
_symmetry_space_group_name_H-M   'P 1'
_cell_length_a   3.61284300
_cell_length_b   8.18149835
_cell_length_c   18.26946303
_cell_angle_alpha   89.93762968
_cell_angle_beta   90.00000000
_cell_angle_gamma   90.00000000
_symmetry_Int_Tables_number   1
_chemical_formula_structural   YbDy5Er4(In2Pt)4
_chemical_formula_sum   'Yb1 Dy5 Er4 In8 Pt4'
_cell_volume   540.01703734
_cell_formula_units_Z   1
loop_
 _symmetry_equiv_pos_site_id
 _symmetry_equiv_pos_as_xyz
  1  'x, y, z'
loop_
 _atom_site_type_symbol
 _atom_site_label
 _atom_site_symmetry_multiplicity
 _atom_site_fract_x
 _atom_site_fract_y
 _atom_site_fract_z
 _atom_site_occupancy
  Yb  Yb0  1  0.000000  0.000000  0.000000  1
  Dy  Dy1  1  0.000000  0.242733  0.220260  1
  Dy  Dy2  1  0.000000  0.757267  0.779740  1
  Dy  Dy3  1  0.000000  0.257399  0.720032  1
  Dy  Dy4  1  0.000000  0.742601  0.279968  1
  Dy  Dy5  1  0.000000  0.500000  0.500000  1
  Er  Er6  1  0.000000  0.117097  0.414386  1
  Er  Er7  1  0.000000  0.882903  0.585614  1
  Er  Er8  1  0.000000  0.382171  0.914199  1
  Er  Er9  1  0.000000  0.617829  0.085801  1
  In  In10  1  0.500000  0.422584  0.351718  1
  In  In11  1  0.500000  0.577416  0.648282  1
  In  In12  1  0.500000  0.076612  0.851171  1
  In  In13  1  0.500000  0.923388  0.148829  1
  In  In14  1  0.500000  0.293871  0.066712  1
  In  In15  1  0.500000  0.706129  0.933288  1
  In  In16  1  0.500000  0.206817  0.565903  1
  In  In17  1  0.500000  0.793183  0.434097  1
  Pt  Pt18  1  0.500000  0.025197  0.304272  1
  Pt  Pt19  1  0.500000  0.974803  0.695728  1
  Pt  Pt20  1  0.500000  0.476002  0.803667  1
  Pt  Pt21  1  0.500000  0.523998  0.196333  1
