# generated using pymatgen
data_Mn3(MoN2)4
_symmetry_space_group_name_H-M   'P 1'
_cell_length_a   10.78781921
_cell_length_b   10.78782047
_cell_length_c   4.93600620
_cell_angle_alpha   77.68274222
_cell_angle_beta   77.68274093
_cell_angle_gamma   15.39736418
_symmetry_Int_Tables_number   1
_chemical_formula_structural   Mn3(MoN2)4
_chemical_formula_sum   'Mn3 Mo4 N8'
_cell_volume   148.94428397
_cell_formula_units_Z   1
loop_
 _symmetry_equiv_pos_site_id
 _symmetry_equiv_pos_as_xyz
  1  'x, y, z'
loop_
 _atom_site_type_symbol
 _atom_site_label
 _atom_site_symmetry_multiplicity
 _atom_site_fract_x
 _atom_site_fract_y
 _atom_site_fract_z
 _atom_site_occupancy
  Mn  Mn0  1  0.500000  0.500000  0.500000  1
  Mn  Mn1  1  0.248071  0.248071  0.751828  1
  Mn  Mn2  1  0.751929  0.751929  0.248172  1
  Mo  Mo3  1  0.374378  0.374378  0.632153  1
  Mo  Mo4  1  0.880900  0.880900  0.128481  1
  Mo  Mo5  1  0.625622  0.625622  0.367847  1
  Mo  Mo6  1  0.119100  0.119100  0.871519  1
  N  N7  1  0.810984  0.810984  0.858021  1
  N  N8  1  0.311924  0.311924  0.352895  1
  N  N9  1  0.688076  0.688076  0.647105  1
  N  N10  1  0.189016  0.189016  0.141979  1
  N  N11  1  0.562408  0.562408  0.745951  1
  N  N12  1  0.060999  0.060999  0.273919  1
  N  N13  1  0.939001  0.939001  0.726081  1
  N  N14  1  0.437592  0.437592  0.254049  1
