# generated using pymatgen
data_La3Y5ZnPd24
_symmetry_space_group_name_H-M   'P 1'
_cell_length_a   8.45958277
_cell_length_b   8.45958277
_cell_length_c   8.42128857
_cell_angle_alpha   90.06312913
_cell_angle_beta   89.93687087
_cell_angle_gamma   89.74778141
_symmetry_Int_Tables_number   1
_chemical_formula_structural   La3Y5ZnPd24
_chemical_formula_sum   'La3 Y5 Zn1 Pd24'
_cell_volume   602.65907496
_cell_formula_units_Z   1
loop_
 _symmetry_equiv_pos_site_id
 _symmetry_equiv_pos_as_xyz
  1  'x, y, z'
loop_
 _atom_site_type_symbol
 _atom_site_label
 _atom_site_symmetry_multiplicity
 _atom_site_fract_x
 _atom_site_fract_y
 _atom_site_fract_z
 _atom_site_occupancy
  La  La0  1  0.250463  0.749537  0.251568  1
  La  La1  1  0.251579  0.748421  0.748313  1
  La  La2  1  0.748569  0.251431  0.251516  1
  Y  Y3  1  0.251089  0.250571  0.249851  1
  Y  Y4  1  0.749016  0.749816  0.750490  1
  Y  Y5  1  0.749429  0.748911  0.249851  1
  Y  Y6  1  0.749653  0.250347  0.748944  1
  Y  Y7  1  0.250184  0.250984  0.750490  1
  Zn  Zn8  1  0.000165  0.999835  0.999401  1
  Pd  Pd9  1  0.261424  0.496010  0.000391  1
  Pd  Pd10  1  0.738695  0.501754  0.995692  1
  Pd  Pd11  1  0.004554  0.261696  0.502756  1
  Pd  Pd12  1  0.498246  0.261305  0.995692  1
  Pd  Pd13  1  0.992243  0.738444  0.500426  1
  Pd  Pd14  1  0.503990  0.738576  0.000391  1
  Pd  Pd15  1  0.500210  0.999443  0.261200  1
  Pd  Pd16  1  0.261556  0.007757  0.500426  1
  Pd  Pd17  1  0.502397  0.004081  0.738478  1
  Pd  Pd18  1  0.738304  0.995446  0.502756  1
  Pd  Pd19  1  0.000557  0.499790  0.261200  1
  Pd  Pd20  1  0.995919  0.497603  0.738478  1
  Pd  Pd21  1  0.253498  0.493625  0.499815  1
  Pd  Pd22  1  0.746460  0.503404  0.503770  1
  Pd  Pd23  1  0.496596  0.253540  0.503770  1
  Pd  Pd24  1  0.506375  0.746502  0.499815  1
  Pd  Pd25  1  0.499492  0.500508  0.253475  1
  Pd  Pd26  1  0.503639  0.496361  0.746513  1
  Pd  Pd27  1  0.295624  0.006061  0.000242  1
  Pd  Pd28  1  0.705308  0.996475  0.996728  1
  Pd  Pd29  1  0.003525  0.294692  0.996728  1
  Pd  Pd30  1  0.993939  0.704376  0.000242  1
  Pd  Pd31  1  0.000419  0.999581  0.296272  1
  Pd  Pd32  1  0.996888  0.003112  0.704318  1
