# generated using pymatgen
data_CsYTm9(C2I9)2
_symmetry_space_group_name_H-M   'P 1'
_cell_length_a   11.45534025
_cell_length_b   11.44114450
_cell_length_c   11.42404865
_cell_angle_alpha   113.20828086
_cell_angle_beta   86.50704142
_cell_angle_gamma   120.28764151
_symmetry_Int_Tables_number   1
_chemical_formula_structural   CsYTm9(C2I9)2
_chemical_formula_sum   'Cs1 Y1 Tm9 C4 I18'
_cell_volume   1170.21336145
_cell_formula_units_Z   1
loop_
 _symmetry_equiv_pos_site_id
 _symmetry_equiv_pos_as_xyz
  1  'x, y, z'
loop_
 _atom_site_type_symbol
 _atom_site_label
 _atom_site_symmetry_multiplicity
 _atom_site_fract_x
 _atom_site_fract_y
 _atom_site_fract_z
 _atom_site_occupancy
  Cs  Cs0  1  0.499853  0.999802  0.500281  1
  Y  Y1  1  0.895146  0.055687  0.999427  1
  Tm  Tm2  1  0.686200  0.729191  0.717036  1
  Tm  Tm3  1  0.275851  0.350047  0.014945  1
  Tm  Tm4  1  0.092717  0.382479  0.286405  1
  Tm  Tm5  1  0.964364  0.036674  0.322140  1
  Tm  Tm6  1  0.907431  0.615768  0.712411  1
  Tm  Tm7  1  0.100502  0.946116  0.000511  1
  Tm  Tm8  1  0.036527  0.963057  0.678109  1
  Tm  Tm9  1  0.315615  0.271598  0.283878  1
  Tm  Tm10  1  0.724782  0.649287  0.984911  1
  C  C11  1  0.152120  0.217753  0.118461  1
  C  C12  1  0.849829  0.780934  0.881448  1
  C  C13  1  0.927201  0.858502  0.804340  1
  C  C14  1  0.074884  0.140402  0.195805  1
  I  I15  1  0.454375  0.532043  0.833282  1
  I  I16  1  0.378775  0.041509  0.156440  1
  I  I17  1  0.781878  0.856242  0.504216  1
  I  I18  1  0.841030  0.312610  0.156536  1
  I  I19  1  0.546762  0.468626  0.166721  1
  I  I20  1  0.218888  0.143628  0.496329  1
  I  I21  1  0.315424  0.098092  0.829262  1
  I  I22  1  0.683026  0.899599  0.173335  1
  I  I23  1  0.971306  0.756430  0.169369  1
  I  I24  1  0.935207  0.295719  0.497604  1
  I  I25  1  0.031936  0.245892  0.828240  1
  I  I26  1  0.065522  0.704736  0.502223  1
  I  I27  1  0.258530  0.615982  0.180608  1
  I  I28  1  0.741039  0.382615  0.818907  1
  I  I29  1  0.647193  0.442148  0.506486  1
  I  I30  1  0.158773  0.693937  0.848107  1
  I  I31  1  0.615496  0.955214  0.839042  1
  I  I32  1  0.351818  0.557680  0.493186  1
