# generated using pymatgen
data_Zr4Al3VTc4
_symmetry_space_group_name_H-M   'P 1'
_cell_length_a   5.21680964
_cell_length_b   5.21680912
_cell_length_c   8.72470000
_cell_angle_alpha   90.00000000
_cell_angle_beta   90.00000000
_cell_angle_gamma   120.09917738
_symmetry_Int_Tables_number   1
_chemical_formula_structural   Zr4Al3VTc4
_chemical_formula_sum   'Zr4 Al3 V1 Tc4'
_cell_volume   205.42636375
_cell_formula_units_Z   1
loop_
 _symmetry_equiv_pos_site_id
 _symmetry_equiv_pos_as_xyz
  1  'x, y, z'
loop_
 _atom_site_type_symbol
 _atom_site_label
 _atom_site_symmetry_multiplicity
 _atom_site_fract_x
 _atom_site_fract_y
 _atom_site_fract_z
 _atom_site_occupancy
  Zr  Zr0  1  0.334863  0.665137  0.434025  1
  Zr  Zr1  1  0.668325  0.331675  0.937010  1
  Zr  Zr2  1  0.668325  0.331675  0.562990  1
  Zr  Zr3  1  0.334863  0.665137  0.065975  1
  Al  Al4  1  0.996394  0.003606  0.000079  1
  Al  Al5  1  0.996394  0.003606  0.499921  1
  Al  Al6  1  0.170018  0.829982  0.750000  1
  V  V7  1  0.826470  0.173530  0.250000  1
  Tc  Tc8  1  0.173081  0.338488  0.750000  1
  Tc  Tc9  1  0.338264  0.168510  0.250000  1
  Tc  Tc10  1  0.661512  0.826919  0.750000  1
  Tc  Tc11  1  0.831490  0.661736  0.250000  1
