# generated using pymatgen
data_Dy2Ir2O7
_symmetry_space_group_name_H-M   'P 1'
_cell_length_a   7.24632429
_cell_length_b   7.24632403
_cell_length_c   7.24632400
_cell_angle_alpha   60.00000012
_cell_angle_beta   60.00000131
_cell_angle_gamma   60.00000496
_symmetry_Int_Tables_number   1
_chemical_formula_structural   Dy2Ir2O7
_chemical_formula_sum   'Dy4 Ir4 O14'
_cell_volume   269.05327783
_cell_formula_units_Z   2
loop_
 _symmetry_equiv_pos_site_id
 _symmetry_equiv_pos_as_xyz
  1  'x, y, z'
loop_
 _atom_site_type_symbol
 _atom_site_label
 _atom_site_symmetry_multiplicity
 _atom_site_fract_x
 _atom_site_fract_y
 _atom_site_fract_z
 _atom_site_occupancy
  Dy  Dy0  1  0.625000  0.125000  0.125000  1
  Dy  Dy1  1  0.125000  0.625000  0.125000  1
  Dy  Dy2  1  0.125000  0.125000  0.625000  1
  Dy  Dy3  1  0.125000  0.125000  0.125000  1
  Ir  Ir4  1  0.125000  0.625000  0.625000  1
  Ir  Ir5  1  0.625000  0.125000  0.625000  1
  Ir  Ir6  1  0.625000  0.625000  0.125000  1
  Ir  Ir7  1  0.625000  0.625000  0.625000  1
  O  O8  1  0.712667  0.712667  0.287333  1
  O  O9  1  0.287333  0.287333  0.712667  1
  O  O10  1  0.712667  0.287333  0.712667  1
  O  O11  1  0.287333  0.712667  0.287333  1
  O  O12  1  0.287333  0.712667  0.712667  1
  O  O13  1  0.712667  0.287333  0.287333  1
  O  O14  1  0.537333  0.537333  0.962667  1
  O  O15  1  0.962667  0.962667  0.537333  1
  O  O16  1  0.537333  0.962667  0.537333  1
  O  O17  1  0.962667  0.537333  0.962667  1
  O  O18  1  0.962667  0.537333  0.537333  1
  O  O19  1  0.537333  0.962667  0.962667  1
  O  O20  1  0.250000  0.250000  0.250000  1
  O  O21  1  0.000000  0.000000  0.000000  1
