# generated using pymatgen
data_Er(FeRe2)4
_symmetry_space_group_name_H-M   'P 1'
_cell_length_a   6.73754798
_cell_length_b   6.73754811
_cell_length_c   6.73754731
_cell_angle_alpha   97.28615558
_cell_angle_beta   97.28615668
_cell_angle_gamma   138.27519643
_symmetry_Int_Tables_number   1
_chemical_formula_structural   Er(FeRe2)4
_chemical_formula_sum   'Er1 Fe4 Re8'
_cell_volume   190.21257205
_cell_formula_units_Z   1
loop_
 _symmetry_equiv_pos_site_id
 _symmetry_equiv_pos_as_xyz
  1  'x, y, z'
loop_
 _atom_site_type_symbol
 _atom_site_label
 _atom_site_symmetry_multiplicity
 _atom_site_fract_x
 _atom_site_fract_y
 _atom_site_fract_z
 _atom_site_occupancy
  Er  Er0  1  0.000000  0.000000  0.000000  1
  Fe  Fe1  1  0.500000  0.500000  0.500000  1
  Fe  Fe2  1  0.000000  0.000000  0.500000  1
  Fe  Fe3  1  0.500000  0.000000  0.000000  1
  Fe  Fe4  1  0.000000  0.500000  0.000000  1
  Re  Re5  1  0.643470  0.000000  0.643469  1
  Re  Re6  1  0.000000  0.643470  0.643469  1
  Re  Re7  1  0.000000  0.356531  0.356531  1
  Re  Re8  1  0.356531  0.000000  0.356530  1
  Re  Re9  1  0.714464  0.500000  0.214464  1
  Re  Re10  1  0.500000  0.714464  0.214464  1
  Re  Re11  1  0.500000  0.285536  0.785536  1
  Re  Re12  1  0.285536  0.500000  0.785536  1
