# generated using pymatgen
data_LiTm6Co14(P4Rh)3
_symmetry_space_group_name_H-M   'P 1'
_cell_length_a   3.69210400
_cell_length_b   10.65888100
_cell_length_c   12.26338400
_cell_angle_alpha   90.00000000
_cell_angle_beta   90.00000000
_cell_angle_gamma   90.00000000
_symmetry_Int_Tables_number   1
_chemical_formula_structural   LiTm6Co14(P4Rh)3
_chemical_formula_sum   'Li1 Tm6 Co14 P12 Rh3'
_cell_volume   482.60950028
_cell_formula_units_Z   1
loop_
 _symmetry_equiv_pos_site_id
 _symmetry_equiv_pos_as_xyz
  1  'x, y, z'
loop_
 _atom_site_type_symbol
 _atom_site_label
 _atom_site_symmetry_multiplicity
 _atom_site_fract_x
 _atom_site_fract_y
 _atom_site_fract_z
 _atom_site_occupancy
  Li  Li0  1  0.500000  0.500000  0.154051  1
  Tm  Tm1  1  0.000000  0.500000  0.519718  1
  Tm  Tm2  1  0.500000  0.000000  0.478760  1
  Tm  Tm3  1  0.500000  0.815606  0.204682  1
  Tm  Tm4  1  0.500000  0.184394  0.204682  1
  Tm  Tm5  1  0.000000  0.684665  0.795543  1
  Tm  Tm6  1  0.000000  0.315335  0.795543  1
  Co  Co7  1  0.000000  0.500000  0.988565  1
  Co  Co8  1  0.500000  0.000000  0.010749  1
  Co  Co9  1  0.500000  0.331435  0.996688  1
  Co  Co10  1  0.500000  0.668565  0.996688  1
  Co  Co11  1  0.000000  0.167776  0.005461  1
  Co  Co12  1  0.000000  0.832224  0.005461  1
  Co  Co13  1  0.500000  0.298507  0.432283  1
  Co  Co14  1  0.500000  0.701493  0.432283  1
  Co  Co15  1  0.000000  0.200305  0.569498  1
  Co  Co16  1  0.000000  0.799695  0.569498  1
  Co  Co17  1  0.500000  0.879342  0.708189  1
  Co  Co18  1  0.500000  0.120658  0.708189  1
  Co  Co19  1  0.000000  0.621108  0.292668  1
  Co  Co20  1  0.000000  0.378892  0.292668  1
  P  P21  1  0.500000  0.500000  0.891089  1
  P  P22  1  0.000000  0.000000  0.110179  1
  P  P23  1  0.500000  0.500000  0.346735  1
  P  P24  1  0.000000  0.000000  0.648113  1
  P  P25  1  0.500000  0.303181  0.615142  1
  P  P26  1  0.500000  0.696819  0.615142  1
  P  P27  1  0.000000  0.196957  0.385864  1
  P  P28  1  0.000000  0.803043  0.385864  1
  P  P29  1  0.500000  0.843441  0.893211  1
  P  P30  1  0.500000  0.156559  0.893211  1
  P  P31  1  0.000000  0.656405  0.107402  1
  P  P32  1  0.000000  0.343595  0.107402  1
  Rh  Rh33  1  0.000000  0.000000  0.838389  1
  Rh  Rh34  1  0.500000  0.500000  0.702909  1
  Rh  Rh35  1  0.000000  0.000000  0.297480  1
