# generated using pymatgen
data_NdGd3Np2O12
_symmetry_space_group_name_H-M   'P 1'
_cell_length_a   5.62171700
_cell_length_b   7.94243716
_cell_length_c   11.95262200
_cell_angle_alpha   73.93723955
_cell_angle_beta   90.00000000
_cell_angle_gamma   90.00000000
_symmetry_Int_Tables_number   1
_chemical_formula_structural   NdGd3Np2O12
_chemical_formula_sum   'Nd2 Gd6 Np4 O24'
_cell_volume   512.85063483
_cell_formula_units_Z   2
loop_
 _symmetry_equiv_pos_site_id
 _symmetry_equiv_pos_as_xyz
  1  'x, y, z'
loop_
 _atom_site_type_symbol
 _atom_site_label
 _atom_site_symmetry_multiplicity
 _atom_site_fract_x
 _atom_site_fract_y
 _atom_site_fract_z
 _atom_site_occupancy
  Nd  Nd0  1  0.693952  0.500000  0.750000  1
  Nd  Nd1  1  0.306048  0.500000  0.250000  1
  Gd  Gd2  1  0.744479  0.000000  0.750000  1
  Gd  Gd3  1  0.255521  0.000000  0.250000  1
  Gd  Gd4  1  0.186887  0.794498  0.578217  1
  Gd  Gd5  1  0.813113  0.794498  0.078217  1
  Gd  Gd6  1  0.186887  0.205502  0.921783  1
  Gd  Gd7  1  0.813113  0.205502  0.421783  1
  Np  Np8  1  0.254290  0.724556  0.885488  1
  Np  Np9  1  0.745710  0.724556  0.385488  1
  Np  Np10  1  0.254290  0.275444  0.614512  1
  Np  Np11  1  0.745710  0.275444  0.114512  1
  O  O12  1  0.045064  0.943695  0.896546  1
  O  O13  1  0.549211  0.847861  0.931348  1
  O  O14  1  0.954936  0.943695  0.396546  1
  O  O15  1  0.448400  0.800228  0.727133  1
  O  O16  1  0.450789  0.847861  0.431348  1
  O  O17  1  0.968646  0.717489  0.767695  1
  O  O18  1  0.551600  0.800228  0.227133  1
  O  O19  1  0.871655  0.630934  0.551703  1
  O  O20  1  0.376920  0.485143  0.885155  1
  O  O21  1  0.031354  0.717489  0.267695  1
  O  O22  1  0.376920  0.514857  0.614845  1
  O  O23  1  0.871655  0.369066  0.948297  1
  O  O24  1  0.128345  0.630934  0.051703  1
  O  O25  1  0.623080  0.485143  0.385155  1
  O  O26  1  0.968646  0.282511  0.732305  1
  O  O27  1  0.623080  0.514857  0.114845  1
  O  O28  1  0.128345  0.369066  0.448297  1
  O  O29  1  0.448400  0.199772  0.772867  1
  O  O30  1  0.031354  0.282511  0.232305  1
  O  O31  1  0.549211  0.152139  0.568652  1
  O  O32  1  0.551600  0.199772  0.272867  1
  O  O33  1  0.045064  0.056305  0.603454  1
  O  O34  1  0.450789  0.152139  0.068652  1
  O  O35  1  0.954936  0.056305  0.103454  1
