# generated using pymatgen
data_Zr10InHg(Bi2Pb)2
_symmetry_space_group_name_H-M   'P 1'
_cell_length_a   8.98138422
_cell_length_b   8.98138365
_cell_length_c   6.01832802
_cell_angle_alpha   90.00435640
_cell_angle_beta   90.00435946
_cell_angle_gamma   119.97525693
_symmetry_Int_Tables_number   1
_chemical_formula_structural   Zr10InHg(Bi2Pb)2
_chemical_formula_sum   'Zr10 In1 Hg1 Bi4 Pb2'
_cell_volume   420.53411456
_cell_formula_units_Z   1
loop_
 _symmetry_equiv_pos_site_id
 _symmetry_equiv_pos_as_xyz
  1  'x, y, z'
loop_
 _atom_site_type_symbol
 _atom_site_label
 _atom_site_symmetry_multiplicity
 _atom_site_fract_x
 _atom_site_fract_y
 _atom_site_fract_z
 _atom_site_occupancy
  Zr  Zr0  1  0.666841  0.333296  0.001157  1
  Zr  Zr1  1  0.333296  0.666841  0.001157  1
  Zr  Zr2  1  0.333072  0.666981  0.498845  1
  Zr  Zr3  1  0.666981  0.333072  0.498845  1
  Zr  Zr4  1  0.720179  0.720179  0.749014  1
  Zr  Zr5  1  0.280175  0.000259  0.749294  1
  Zr  Zr6  1  0.000259  0.280175  0.749294  1
  Zr  Zr7  1  0.280883  0.280883  0.250428  1
  Zr  Zr8  1  0.719009  0.000350  0.251159  1
  Zr  Zr9  1  0.000350  0.719009  0.251159  1
  In  In10  1  0.000107  0.000107  0.498983  1
  Hg  Hg11  1  0.000494  0.000494  0.000936  1
  Bi  Bi12  1  0.382296  0.382296  0.750315  1
  Bi  Bi13  1  0.617044  0.000590  0.750620  1
  Bi  Bi14  1  0.000590  0.617044  0.750620  1
  Bi  Bi15  1  0.617166  0.617166  0.249500  1
  Pb  Pb16  1  0.380913  0.000346  0.249337  1
  Pb  Pb17  1  0.000346  0.380913  0.249337  1
