# generated using pymatgen
data_K4Ca8MgMn7V12O48
_symmetry_space_group_name_H-M   'P 1'
_cell_length_a   11.03251218
_cell_length_b   11.03251205
_cell_length_c   11.03251200
_cell_angle_alpha   110.27408902
_cell_angle_beta   110.27408878
_cell_angle_gamma   107.87714865
_symmetry_Int_Tables_number   1
_chemical_formula_structural   K4Ca8MgMn7V12O48
_chemical_formula_sum   'K4 Ca8 Mg1 Mn7 V12 O48'
_cell_volume   1033.11818026
_cell_formula_units_Z   1
loop_
 _symmetry_equiv_pos_site_id
 _symmetry_equiv_pos_as_xyz
  1  'x, y, z'
loop_
 _atom_site_type_symbol
 _atom_site_label
 _atom_site_symmetry_multiplicity
 _atom_site_fract_x
 _atom_site_fract_y
 _atom_site_fract_z
 _atom_site_occupancy
  K  K0  1  0.249626  0.250139  0.999579  1
  K  K1  1  0.999734  0.499701  0.499856  1
  K  K2  1  0.500374  0.999861  0.500421  1
  K  K3  1  0.750266  0.750299  0.000144  1
  Ca  Ca4  1  0.002979  0.876210  0.629241  1
  Ca  Ca5  1  0.246386  0.374970  0.371630  1
  Ca  Ca6  1  0.624830  0.496776  0.372102  1
  Ca  Ca7  1  0.123949  0.252379  0.628361  1
  Ca  Ca8  1  0.747021  0.373790  0.870759  1
  Ca  Ca9  1  0.503614  0.875030  0.128370  1
  Ca  Ca10  1  0.125170  0.753224  0.127898  1
  Ca  Ca11  1  0.626051  0.997621  0.871639  1
  Mg  Mg12  1  0.875000  0.125000  0.750000  1
  Mn  Mn13  1  0.375000  0.625000  0.250000  1
  Mn  Mn14  1  0.375000  0.125000  0.750000  1
  Mn  Mn15  1  0.875000  0.125000  0.250000  1
  Mn  Mn16  1  0.875000  0.625000  0.750000  1
  Mn  Mn17  1  0.875000  0.625000  0.250000  1
  Mn  Mn18  1  0.375000  0.625000  0.750000  1
  Mn  Mn19  1  0.375000  0.125000  0.250000  1
  V  V20  1  0.500074  0.500104  0.000058  1
  V  V21  1  0.750853  0.249288  0.501491  1
  V  V22  1  0.252184  0.874905  0.877158  1
  V  V23  1  0.997297  0.373136  0.120419  1
  V  V24  1  0.626543  0.750149  0.623250  1
  V  V25  1  0.124928  0.002213  0.377109  1
  V  V26  1  0.249926  0.749896  0.499942  1
  V  V27  1  0.999147  0.000712  0.998509  1
  V  V28  1  0.497816  0.375095  0.622842  1
  V  V29  1  0.752703  0.876864  0.379581  1
  V  V30  1  0.123457  0.499851  0.876750  1
  V  V31  1  0.625072  0.247787  0.122891  1
  O  O32  1  0.479911  0.514123  0.154250  1
  O  O33  1  0.359946  0.325753  0.845908  1
  O  O34  1  0.889989  0.235713  0.465344  1
  O  O35  1  0.770418  0.423568  0.535854  1
  O  O36  1  0.257214  0.013690  0.835398  1
  O  O37  1  0.071558  0.736453  0.743538  1
  O  O38  1  0.991463  0.326700  0.254217  1
  O  O39  1  0.178712  0.422315  0.164955  1
  O  O40  1  0.770062  0.709857  0.626648  1
  O  O41  1  0.481076  0.608487  0.440573  1
  O  O42  1  0.083380  0.143569  0.373670  1
  O  O43  1  0.166209  0.040135  0.560055  1
  O  O44  1  0.270089  0.735877  0.345750  1
  O  O45  1  0.390054  0.924247  0.654092  1
  O  O46  1  0.860011  0.014287  0.034656  1
  O  O47  1  0.979582  0.826432  0.964146  1
  O  O48  1  0.492786  0.236310  0.664602  1
  O  O49  1  0.678442  0.513547  0.756462  1
  O  O50  1  0.758537  0.923300  0.245783  1
  O  O51  1  0.571288  0.827685  0.335045  1
  O  O52  1  0.979938  0.540143  0.873352  1
  O  O53  1  0.268924  0.641513  0.059427  1
  O  O54  1  0.666620  0.106431  0.126330  1
  O  O55  1  0.583791  0.209865  0.939945  1
  O  O56  1  0.958802  0.518035  0.125325  1
  O  O57  1  0.858512  0.228908  0.936179  1
  O  O58  1  0.393321  0.833089  0.873445  1
  O  O59  1  0.290447  0.916581  0.060311  1
  O  O60  1  0.766090  0.226462  0.654554  1
  O  O61  1  0.576251  0.110311  0.346892  1
  O  O62  1  0.486022  0.640174  0.965654  1
  O  O63  1  0.674383  0.520201  0.034465  1
  O  O64  1  0.263681  0.007395  0.335269  1
  O  O65  1  0.986502  0.821424  0.243407  1
  O  O66  1  0.578382  0.743902  0.755780  1
  O  O67  1  0.676297  0.931636  0.666777  1
  O  O68  1  0.791198  0.731965  0.374675  1
  O  O69  1  0.891488  0.021092  0.563821  1
  O  O70  1  0.356679  0.416911  0.626555  1
  O  O71  1  0.459553  0.333419  0.439689  1
  O  O72  1  0.983910  0.023538  0.845446  1
  O  O73  1  0.173749  0.139689  0.153108  1
  O  O74  1  0.263978  0.609826  0.534346  1
  O  O75  1  0.075617  0.729799  0.465535  1
  O  O76  1  0.486319  0.242605  0.164731  1
  O  O77  1  0.763498  0.428576  0.256593  1
  O  O78  1  0.171618  0.506098  0.744220  1
  O  O79  1  0.073703  0.318364  0.833223  1
