# generated using pymatgen
data_K8HoEr2TmF20
_symmetry_space_group_name_H-M   'P 1'
_cell_length_a   6.67370044
_cell_length_b   7.28170800
_cell_length_c   10.96293512
_cell_angle_alpha   90.00000000
_cell_angle_beta   89.99492372
_cell_angle_gamma   90.00000000
_symmetry_Int_Tables_number   1
_chemical_formula_structural   K8HoEr2TmF20
_chemical_formula_sum   'K8 Ho1 Er2 Tm1 F20'
_cell_volume   532.75411166
_cell_formula_units_Z   1
loop_
 _symmetry_equiv_pos_site_id
 _symmetry_equiv_pos_as_xyz
  1  'x, y, z'
loop_
 _atom_site_type_symbol
 _atom_site_label
 _atom_site_symmetry_multiplicity
 _atom_site_fract_x
 _atom_site_fract_y
 _atom_site_fract_z
 _atom_site_occupancy
  K  K0  1  0.534765  0.997308  0.828995  1
  K  K1  1  0.465364  0.496573  0.170998  1
  K  K2  1  0.964989  0.997552  0.329049  1
  K  K3  1  0.034517  0.496343  0.670843  1
  K  K4  1  0.534765  0.502692  0.828995  1
  K  K5  1  0.465364  0.003427  0.170998  1
  K  K6  1  0.964989  0.502448  0.329049  1
  K  K7  1  0.034517  0.003657  0.670843  1
  Ho  Ho8  1  0.436461  0.750000  0.497344  1
  Er  Er9  1  0.936174  0.250000  0.002586  1
  Er  Er10  1  0.063990  0.750000  0.997429  1
  Tm  Tm11  1  0.563885  0.250000  0.502426  1
  F  F12  1  0.876771  0.750000  0.833959  1
  F  F13  1  0.123136  0.250000  0.165967  1
  F  F14  1  0.624244  0.750000  0.333029  1
  F  F15  1  0.378371  0.250000  0.664651  1
  F  F16  1  0.842469  0.250000  0.810974  1
  F  F17  1  0.157920  0.750000  0.189293  1
  F  F18  1  0.656978  0.250000  0.312067  1
  F  F19  1  0.341924  0.750000  0.690036  1
  F  F20  1  0.646428  0.966957  0.572930  1
  F  F21  1  0.354287  0.462157  0.427298  1
  F  F22  1  0.853417  0.964490  0.072970  1
  F  F23  1  0.146707  0.464400  0.926989  1
  F  F24  1  0.390650  0.750000  0.986595  1
  F  F25  1  0.609321  0.250000  0.013577  1
  F  F26  1  0.108292  0.750000  0.486439  1
  F  F27  1  0.888466  0.250000  0.513488  1
  F  F28  1  0.146707  0.035600  0.926989  1
  F  F29  1  0.853417  0.535510  0.072970  1
  F  F30  1  0.354287  0.037843  0.427298  1
  F  F31  1  0.646428  0.533043  0.572930  1
