# generated using pymatgen
data_Y3Sc17Bi12
_symmetry_space_group_name_H-M   'P 1'
_cell_length_a   7.87305591
_cell_length_b   9.05992700
_cell_length_c   11.54459518
_cell_angle_alpha   90.00000000
_cell_angle_beta   90.03758630
_cell_angle_gamma   90.00000000
_symmetry_Int_Tables_number   1
_chemical_formula_structural   Y3Sc17Bi12
_chemical_formula_sum   'Y3 Sc17 Bi12'
_cell_volume   823.46785174
_cell_formula_units_Z   1
loop_
 _symmetry_equiv_pos_site_id
 _symmetry_equiv_pos_as_xyz
  1  'x, y, z'
loop_
 _atom_site_type_symbol
 _atom_site_label
 _atom_site_symmetry_multiplicity
 _atom_site_fract_x
 _atom_site_fract_y
 _atom_site_fract_z
 _atom_site_occupancy
  Y  Y0  1  0.816268  0.250000  0.281142  1
  Y  Y1  1  0.684013  0.750000  0.780907  1
  Y  Y2  1  0.183226  0.750000  0.718718  1
  Sc  Sc3  1  0.348225  0.750000  0.221010  1
  Sc  Sc4  1  0.850812  0.750000  0.277778  1
  Sc  Sc5  1  0.650720  0.250000  0.781222  1
  Sc  Sc6  1  0.151476  0.250000  0.720278  1
  Sc  Sc7  1  0.694644  0.566426  0.062192  1
  Sc  Sc8  1  0.192125  0.933216  0.437261  1
  Sc  Sc9  1  0.306673  0.067160  0.939206  1
  Sc  Sc10  1  0.807641  0.431991  0.561783  1
  Sc  Sc11  1  0.306673  0.432840  0.939206  1
  Sc  Sc12  1  0.807641  0.068009  0.561783  1
  Sc  Sc13  1  0.694644  0.933574  0.062192  1
  Sc  Sc14  1  0.192125  0.566784  0.437261  1
  Sc  Sc15  1  0.481178  0.250000  0.487303  1
  Sc  Sc16  1  0.981478  0.250000  0.012192  1
  Sc  Sc17  1  0.516956  0.750000  0.509289  1
  Sc  Sc18  1  0.019189  0.750000  0.991040  1
  Sc  Sc19  1  0.314532  0.250000  0.217466  1
  Bi  Bi20  1  0.402687  0.750000  0.967372  1
  Bi  Bi21  1  0.900460  0.750000  0.532099  1
  Bi  Bi22  1  0.592550  0.250000  0.037459  1
  Bi  Bi23  1  0.100065  0.250000  0.465247  1
  Bi  Bi24  1  0.560388  0.992387  0.326342  1
  Bi  Bi25  1  0.069884  0.506190  0.172465  1
  Bi  Bi26  1  0.436090  0.489506  0.671060  1
  Bi  Bi27  1  0.935636  0.010582  0.829430  1
  Bi  Bi28  1  0.436090  0.010494  0.671060  1
  Bi  Bi29  1  0.935636  0.489418  0.829430  1
  Bi  Bi30  1  0.560388  0.507613  0.326342  1
  Bi  Bi31  1  0.069884  0.993810  0.172465  1
