# generated using pymatgen
data_Dy2Tm4Al24ZnOs7
_symmetry_space_group_name_H-M   'P 1'
_cell_length_a   8.84346860
_cell_length_b   8.83720777
_cell_length_c   9.52199824
_cell_angle_alpha   89.92280446
_cell_angle_beta   90.00956393
_cell_angle_gamma   120.05957827
_symmetry_Int_Tables_number   1
_chemical_formula_structural   Dy2Tm4Al24ZnOs7
_chemical_formula_sum   'Dy2 Tm4 Al24 Zn1 Os7'
_cell_volume   644.07274521
_cell_formula_units_Z   1
loop_
 _symmetry_equiv_pos_site_id
 _symmetry_equiv_pos_as_xyz
  1  'x, y, z'
loop_
 _atom_site_type_symbol
 _atom_site_label
 _atom_site_symmetry_multiplicity
 _atom_site_fract_x
 _atom_site_fract_y
 _atom_site_fract_z
 _atom_site_occupancy
  Dy  Dy0  1  0.191665  0.386639  0.248340  1
  Dy  Dy1  1  0.808335  0.613361  0.751660  1
  Tm  Tm2  1  0.611748  0.808306  0.249019  1
  Tm  Tm3  1  0.388252  0.191694  0.750981  1
  Tm  Tm4  1  0.195809  0.804396  0.253454  1
  Tm  Tm5  1  0.804191  0.195604  0.746546  1
  Al  Al6  1  0.330081  0.670721  0.022773  1
  Al  Al7  1  0.669919  0.329279  0.977227  1
  Al  Al8  1  0.665659  0.333667  0.518371  1
  Al  Al9  1  0.334341  0.666333  0.481629  1
  Al  Al10  1  0.162732  0.325841  0.574592  1
  Al  Al11  1  0.837268  0.674159  0.425408  1
  Al  Al12  1  0.674118  0.837437  0.574186  1
  Al  Al13  1  0.848869  0.677395  0.081772  1
  Al  Al14  1  0.325882  0.162563  0.425814  1
  Al  Al15  1  0.151131  0.322605  0.918228  1
  Al  Al16  1  0.163131  0.837268  0.575298  1
  Al  Al17  1  0.322535  0.150712  0.081346  1
  Al  Al18  1  0.836869  0.162732  0.424702  1
  Al  Al19  1  0.677465  0.849288  0.918654  1
  Al  Al20  1  0.836139  0.162977  0.076621  1
  Al  Al21  1  0.163861  0.837023  0.923379  1
  Al  Al22  1  0.561383  0.121065  0.249243  1
  Al  Al23  1  0.438617  0.878935  0.750757  1
  Al  Al24  1  0.878168  0.438792  0.249366  1
  Al  Al25  1  0.121832  0.561208  0.750634  1
  Al  Al26  1  0.563801  0.437112  0.254257  1
  Al  Al27  1  0.436199  0.562888  0.745743  1
  Al  Al28  1  0.998782  0.000140  0.250500  1
  Al  Al29  1  0.001218  0.999860  0.749500  1
  Zn  Zn30  1  0.500000  0.500000  0.000000  1
  Os  Os31  1  0.500000  0.000000  0.000000  1
  Os  Os32  1  0.000000  0.500000  0.000000  1
  Os  Os33  1  0.500000  0.000000  0.500000  1
  Os  Os34  1  0.000000  0.500000  0.500000  1
  Os  Os35  1  0.500000  0.500000  0.500000  1
  Os  Os36  1  0.000000  0.000000  0.000000  1
  Os  Os37  1  0.000000  0.000000  0.500000  1
