# generated using pymatgen
data_Cd4H8OsRu
_symmetry_space_group_name_H-M   'P 1'
_cell_length_a   5.61604367
_cell_length_b   5.61604451
_cell_length_c   5.31443800
_cell_angle_alpha   90.00000000
_cell_angle_beta   90.00000000
_cell_angle_gamma   98.99381057
_symmetry_Int_Tables_number   1
_chemical_formula_structural   Cd4H8OsRu
_chemical_formula_sum   'Cd4 H8 Os1 Ru1'
_cell_volume   165.55630213
_cell_formula_units_Z   1
loop_
 _symmetry_equiv_pos_site_id
 _symmetry_equiv_pos_as_xyz
  1  'x, y, z'
loop_
 _atom_site_type_symbol
 _atom_site_label
 _atom_site_symmetry_multiplicity
 _atom_site_fract_x
 _atom_site_fract_y
 _atom_site_fract_z
 _atom_site_occupancy
  Cd  Cd0  1  0.336659  0.067135  0.250000  1
  Cd  Cd1  1  0.069404  0.337870  0.750000  1
  Cd  Cd2  1  0.662130  0.930596  0.750000  1
  Cd  Cd3  1  0.932865  0.663341  0.250000  1
  H  H4  1  0.108663  0.359280  0.250000  1
  H  H5  1  0.358374  0.107795  0.750000  1
  H  H6  1  0.892205  0.641626  0.750000  1
  H  H7  1  0.640720  0.891337  0.250000  1
  H  H8  1  0.706082  0.293918  0.050384  1
  H  H9  1  0.293687  0.706313  0.946616  1
  H  H10  1  0.706082  0.293918  0.449616  1
  H  H11  1  0.293687  0.706313  0.553384  1
  Os  Os12  1  0.853336  0.146664  0.250000  1
  Ru  Ru13  1  0.146106  0.853894  0.750000  1
