# generated using pymatgen
data_Ce2IrRu2W
_symmetry_space_group_name_H-M   'P 1'
_cell_length_a   5.16338125
_cell_length_b   5.19995097
_cell_length_c   5.16338227
_cell_angle_alpha   67.09874392
_cell_angle_beta   67.56640939
_cell_angle_gamma   67.09873916
_symmetry_Int_Tables_number   1
_chemical_formula_structural   Ce2IrRu2W
_chemical_formula_sum   'Ce2 Ir1 Ru2 W1'
_cell_volume   113.22901180
_cell_formula_units_Z   1
loop_
 _symmetry_equiv_pos_site_id
 _symmetry_equiv_pos_as_xyz
  1  'x, y, z'
loop_
 _atom_site_type_symbol
 _atom_site_label
 _atom_site_symmetry_multiplicity
 _atom_site_fract_x
 _atom_site_fract_y
 _atom_site_fract_z
 _atom_site_occupancy
  Ce  Ce0  1  0.622948  0.626615  0.622948  1
  Ce  Ce1  1  0.377052  0.373385  0.377052  1
  Ir  Ir2  1  0.000000  0.500000  0.000000  1
  Ru  Ru3  1  0.500000  0.000000  0.000000  1
  Ru  Ru4  1  0.000000  0.000000  0.500000  1
  W  W5  1  0.000000  0.000000  0.000000  1
