# generated using pymatgen
data_Dy2Y6Tc(B8Ru)3
_symmetry_space_group_name_H-M   'P 1'
_cell_length_a   3.67625700
_cell_length_b   9.16020545
_cell_length_c   11.54759004
_cell_angle_alpha   89.91010150
_cell_angle_beta   90.00000000
_cell_angle_gamma   90.00000000
_symmetry_Int_Tables_number   1
_chemical_formula_structural   Dy2Y6Tc(B8Ru)3
_chemical_formula_sum   'Dy2 Y6 Tc1 B24 Ru3'
_cell_volume   388.86772663
_cell_formula_units_Z   1
loop_
 _symmetry_equiv_pos_site_id
 _symmetry_equiv_pos_as_xyz
  1  'x, y, z'
loop_
 _atom_site_type_symbol
 _atom_site_label
 _atom_site_symmetry_multiplicity
 _atom_site_fract_x
 _atom_site_fract_y
 _atom_site_fract_z
 _atom_site_occupancy
  Dy  Dy0  1  0.000000  0.444274  0.128217  1
  Dy  Dy1  1  0.000000  0.556603  0.871211  1
  Y  Y2  1  0.000000  0.324721  0.413226  1
  Y  Y3  1  0.000000  0.676346  0.583576  1
  Y  Y4  1  0.000000  0.821121  0.087958  1
  Y  Y5  1  0.000000  0.176545  0.914985  1
  Y  Y6  1  0.000000  0.943640  0.372431  1
  Y  Y7  1  0.000000  0.056850  0.628198  1
  Tc  Tc8  1  0.000000  0.637895  0.321150  1
  B  B9  1  0.500000  0.553143  0.433003  1
  B  B10  1  0.500000  0.446106  0.567610  1
  B  B11  1  0.500000  0.053991  0.067314  1
  B  B12  1  0.500000  0.945895  0.932954  1
  B  B13  1  0.500000  0.748008  0.419466  1
  B  B14  1  0.500000  0.252281  0.580559  1
  B  B15  1  0.500000  0.247948  0.080402  1
  B  B16  1  0.500000  0.751923  0.919486  1
  B  B17  1  0.500000  0.791643  0.266213  1
  B  B18  1  0.500000  0.209031  0.733776  1
  B  B19  1  0.500000  0.291060  0.232926  1
  B  B20  1  0.500000  0.709384  0.766353  1
  B  B21  1  0.500000  0.632046  0.185750  1
  B  B22  1  0.500000  0.367612  0.814614  1
  B  B23  1  0.500000  0.132323  0.314013  1
  B  B24  1  0.500000  0.868114  0.685600  1
  B  B25  1  0.500000  0.983964  0.212592  1
  B  B26  1  0.500000  0.016000  0.787846  1
  B  B27  1  0.500000  0.483184  0.287293  1
  B  B28  1  0.500000  0.515678  0.712685  1
  B  B29  1  0.500000  0.608341  0.029370  1
  B  B30  1  0.500000  0.391153  0.969580  1
  B  B31  1  0.500000  0.109180  0.470175  1
  B  B32  1  0.500000  0.892252  0.530472  1
  Ru  Ru33  1  0.000000  0.361712  0.679424  1
  Ru  Ru34  1  0.000000  0.138128  0.178319  1
  Ru  Ru35  1  0.000000  0.861907  0.821253  1
