# generated using pymatgen
data_YHo3Sn10(PdRh2)2
_symmetry_space_group_name_H-M   'P 1'
_cell_length_a   13.46943524
_cell_length_b   13.46943513
_cell_length_c   7.38665111
_cell_angle_alpha   90.01935380
_cell_angle_beta   89.98064677
_cell_angle_gamma   161.17473416
_symmetry_Int_Tables_number   1
_chemical_formula_structural   YHo3Sn10(PdRh2)2
_chemical_formula_sum   'Y1 Ho3 Sn10 Pd2 Rh4'
_cell_volume   432.43672021
_cell_formula_units_Z   1
loop_
 _symmetry_equiv_pos_site_id
 _symmetry_equiv_pos_as_xyz
  1  'x, y, z'
loop_
 _atom_site_type_symbol
 _atom_site_label
 _atom_site_symmetry_multiplicity
 _atom_site_fract_x
 _atom_site_fract_y
 _atom_site_fract_z
 _atom_site_occupancy
  Y  Y0  1  0.174455  0.825545  0.744995  1
  Ho  Ho1  1  0.825585  0.174415  0.244894  1
  Ho  Ho2  1  0.475473  0.524527  0.763620  1
  Ho  Ho3  1  0.524513  0.475487  0.263689  1
  Sn  Sn4  1  0.879374  0.120626  0.774714  1
  Sn  Sn5  1  0.120634  0.879366  0.274688  1
  Sn  Sn6  1  0.704462  0.295538  0.450585  1
  Sn  Sn7  1  0.295566  0.704434  0.950789  1
  Sn  Sn8  1  0.598248  0.401752  0.881641  1
  Sn  Sn9  1  0.401676  0.598324  0.381560  1
  Sn  Sn10  1  0.951658  0.048342  0.100926  1
  Sn  Sn11  1  0.048325  0.951675  0.600877  1
  Sn  Sn12  1  0.290445  0.709555  0.521597  1
  Sn  Sn13  1  0.709624  0.290376  0.021873  1
  Pd  Pd14  1  0.049814  0.950186  0.985059  1
  Pd  Pd15  1  0.950175  0.049825  0.485037  1
  Rh  Rh16  1  0.776578  0.223422  0.731965  1
  Rh  Rh17  1  0.223517  0.776483  0.232042  1
  Rh  Rh18  1  0.394562  0.605438  0.016908  1
  Rh  Rh19  1  0.605317  0.394683  0.516536  1
