# generated using pymatgen
data_Tb12Si3BI12
_symmetry_space_group_name_H-M   'P 1'
_cell_length_a   10.57366704
_cell_length_b   10.42870790
_cell_length_c   10.42870686
_cell_angle_alpha   109.18793432
_cell_angle_beta   109.75303828
_cell_angle_gamma   109.75304055
_symmetry_Int_Tables_number   1
_chemical_formula_structural   Tb12Si3BI12
_chemical_formula_sum   'Tb12 Si3 B1 I12'
_cell_volume   882.14992434
_cell_formula_units_Z   1
loop_
 _symmetry_equiv_pos_site_id
 _symmetry_equiv_pos_as_xyz
  1  'x, y, z'
loop_
 _atom_site_type_symbol
 _atom_site_label
 _atom_site_symmetry_multiplicity
 _atom_site_fract_x
 _atom_site_fract_y
 _atom_site_fract_z
 _atom_site_occupancy
  Tb  Tb0  1  0.451606  0.486691  0.216718  1
  Tb  Tb1  1  0.750000  0.230721  0.269279  1
  Tb  Tb2  1  0.750000  0.017633  0.482367  1
  Tb  Tb3  1  0.232367  0.464733  0.482367  1
  Tb  Tb4  1  0.265113  0.730027  0.216718  1
  Tb  Tb5  1  0.048394  0.283282  0.013309  1
  Tb  Tb6  1  0.019279  0.038557  0.269279  1
  Tb  Tb7  1  0.464912  0.730027  0.013309  1
  Tb  Tb8  1  0.480721  0.230721  0.461443  1
  Tb  Tb9  1  0.035088  0.486691  0.769973  1
  Tb  Tb10  1  0.267633  0.017633  0.035267  1
  Tb  Tb11  1  0.234887  0.283282  0.769973  1
  Si  Si12  1  0.250000  0.251491  0.248509  1
  Si  Si13  1  0.498509  0.997017  0.248509  1
  Si  Si14  1  0.001491  0.251491  0.502983  1
  B  B15  1  0.250000  0.500000  0.000000  1
  I  I16  1  0.250000  0.757547  0.742453  1
  I  I17  1  0.515018  0.507344  0.758654  1
  I  I18  1  0.984982  0.741346  0.992656  1
  I  I19  1  0.743637  0.251310  0.758654  1
  I  I20  1  0.992453  0.984906  0.742453  1
  I  I21  1  0.250000  0.993411  0.506589  1
  I  I22  1  0.756589  0.513180  0.506589  1
  I  I23  1  0.507673  0.251310  0.992656  1
  I  I24  1  0.756363  0.741346  0.248690  1
  I  I25  1  0.743411  0.993411  0.986820  1
  I  I26  1  0.992327  0.507344  0.248690  1
  I  I27  1  0.507547  0.757547  0.515094  1
