# generated using pymatgen
data_MnNb4(CoSe6)2
_symmetry_space_group_name_H-M   'P 1'
_cell_length_a   7.26816307
_cell_length_b   7.26816203
_cell_length_c   19.32378554
_cell_angle_alpha   69.92238248
_cell_angle_beta   69.92238487
_cell_angle_gamma   27.08891288
_symmetry_Int_Tables_number   1
_chemical_formula_structural   MnNb4(CoSe6)2
_chemical_formula_sum   'Mn1 Nb4 Co2 Se12'
_cell_volume   434.90016845
_cell_formula_units_Z   1
loop_
 _symmetry_equiv_pos_site_id
 _symmetry_equiv_pos_as_xyz
  1  'x, y, z'
loop_
 _atom_site_type_symbol
 _atom_site_label
 _atom_site_symmetry_multiplicity
 _atom_site_fract_x
 _atom_site_fract_y
 _atom_site_fract_z
 _atom_site_occupancy
  Mn  Mn0  1  0.000000  0.000000  0.000000  1
  Nb  Nb1  1  0.740115  0.740115  0.592953  1
  Nb  Nb2  1  0.259885  0.259885  0.407047  1
  Nb  Nb3  1  0.616407  0.616407  0.854137  1
  Nb  Nb4  1  0.383593  0.383593  0.145863  1
  Co  Co5  1  0.775544  0.775544  0.279800  1
  Co  Co6  1  0.224456  0.224456  0.720200  1
  Se  Se7  1  0.868679  0.868679  0.451844  1
  Se  Se8  1  0.035135  0.035135  0.112870  1
  Se  Se9  1  0.800719  0.800719  0.767944  1
  Se  Se10  1  0.397751  0.397751  0.278006  1
  Se  Se11  1  0.180017  0.180017  0.931891  1
  Se  Se12  1  0.602249  0.602249  0.721994  1
  Se  Se13  1  0.131321  0.131321  0.548156  1
  Se  Se14  1  0.819983  0.819983  0.068109  1
  Se  Se15  1  0.367156  0.367156  0.610242  1
  Se  Se16  1  0.964865  0.964865  0.887130  1
  Se  Se17  1  0.199281  0.199281  0.232056  1
  Se  Se18  1  0.632844  0.632844  0.389758  1
