# generated using pymatgen
data_DyTm3(AlGa2)2
_symmetry_space_group_name_H-M   'P 1'
_cell_length_a   6.95082005
_cell_length_b   6.95082005
_cell_length_c   4.43324800
_cell_angle_alpha   90.00000000
_cell_angle_beta   90.00000000
_cell_angle_gamma   89.70489940
_symmetry_Int_Tables_number   1
_chemical_formula_structural   DyTm3(AlGa2)2
_chemical_formula_sum   'Dy1 Tm3 Al2 Ga4'
_cell_volume   214.18465673
_cell_formula_units_Z   1
loop_
 _symmetry_equiv_pos_site_id
 _symmetry_equiv_pos_as_xyz
  1  'x, y, z'
loop_
 _atom_site_type_symbol
 _atom_site_label
 _atom_site_symmetry_multiplicity
 _atom_site_fract_x
 _atom_site_fract_y
 _atom_site_fract_z
 _atom_site_occupancy
  Dy  Dy0  1  0.673159  0.173159  0.500000  1
  Tm  Tm1  1  0.326170  0.826170  0.500000  1
  Tm  Tm2  1  0.827344  0.673267  0.500000  1
  Tm  Tm3  1  0.173267  0.327344  0.500000  1
  Al  Al4  1  0.499720  0.500265  0.000000  1
  Al  Al5  1  0.000265  0.999720  0.000000  1
  Ga  Ga6  1  0.869911  0.369911  0.000000  1
  Ga  Ga7  1  0.367519  0.130984  0.000000  1
  Ga  Ga8  1  0.131661  0.631661  0.000000  1
  Ga  Ga9  1  0.630984  0.867519  0.000000  1
