# generated using pymatgen
data_Dy5Y5IrRh5
_symmetry_space_group_name_H-M   'P 1'
_cell_length_a   10.92219654
_cell_length_b   10.92478400
_cell_length_c   6.37259033
_cell_angle_alpha   90.00000000
_cell_angle_beta   90.09515794
_cell_angle_gamma   90.00000000
_symmetry_Int_Tables_number   1
_chemical_formula_structural   Dy5Y5IrRh5
_chemical_formula_sum   'Dy10 Y10 Ir2 Rh10'
_cell_volume   760.39324077
_cell_formula_units_Z   2
loop_
 _symmetry_equiv_pos_site_id
 _symmetry_equiv_pos_as_xyz
  1  'x, y, z'
loop_
 _atom_site_type_symbol
 _atom_site_label
 _atom_site_symmetry_multiplicity
 _atom_site_fract_x
 _atom_site_fract_y
 _atom_site_fract_z
 _atom_site_occupancy
  Dy  Dy0  1  0.791816  0.410569  0.119887  1
  Dy  Dy1  1  0.791816  0.589431  0.619887  1
  Dy  Dy2  1  0.911670  0.708621  0.119634  1
  Dy  Dy3  1  0.911670  0.291379  0.619634  1
  Dy  Dy4  1  0.090841  0.707810  0.619716  1
  Dy  Dy5  1  0.090841  0.292190  0.119716  1
  Dy  Dy6  1  0.999767  0.999489  0.500528  1
  Dy  Dy7  1  0.999767  0.000511  0.000528  1
  Dy  Dy8  1  0.500128  0.499408  0.999571  1
  Dy  Dy9  1  0.500128  0.500592  0.499571  1
  Y  Y10  1  0.290584  0.090874  0.380087  1
  Y  Y11  1  0.290584  0.909126  0.880087  1
  Y  Y12  1  0.709299  0.088980  0.879053  1
  Y  Y13  1  0.709299  0.911020  0.379053  1
  Y  Y14  1  0.587359  0.789675  0.879804  1
  Y  Y15  1  0.587359  0.210325  0.379804  1
  Y  Y16  1  0.410134  0.790572  0.379783  1
  Y  Y17  1  0.410134  0.209428  0.879783  1
  Y  Y18  1  0.210470  0.412467  0.619548  1
  Y  Y19  1  0.210470  0.587533  0.119548  1
  Ir  Ir20  1  0.346434  0.346539  0.249267  1
  Ir  Ir21  1  0.346434  0.653461  0.749267  1
  Rh  Rh22  1  0.847737  0.154674  0.251566  1
  Rh  Rh23  1  0.847737  0.845326  0.751566  1
  Rh  Rh24  1  0.150327  0.153375  0.751399  1
  Rh  Rh25  1  0.150327  0.846625  0.251399  1
  Rh  Rh26  1  0.656313  0.348448  0.751114  1
  Rh  Rh27  1  0.656313  0.651552  0.251114  1
  Rh  Rh28  1  0.500474  0.999832  0.126398  1
  Rh  Rh29  1  0.500474  0.000168  0.626398  1
  Rh  Rh30  1  0.996649  0.499838  0.872647  1
  Rh  Rh31  1  0.996649  0.500162  0.372647  1
