# generated using pymatgen
data_DyHo3Tc2(B8Rh)2
_symmetry_space_group_name_H-M   'P 1'
_cell_length_a   3.58004400
_cell_length_b   5.96331978
_cell_length_c   11.55463375
_cell_angle_alpha   90.24648238
_cell_angle_beta   90.00000000
_cell_angle_gamma   90.00000000
_symmetry_Int_Tables_number   1
_chemical_formula_structural   DyHo3Tc2(B8Rh)2
_chemical_formula_sum   'Dy1 Ho3 Tc2 B16 Rh2'
_cell_volume   246.67698319
_cell_formula_units_Z   1
loop_
 _symmetry_equiv_pos_site_id
 _symmetry_equiv_pos_as_xyz
  1  'x, y, z'
loop_
 _atom_site_type_symbol
 _atom_site_label
 _atom_site_symmetry_multiplicity
 _atom_site_fract_x
 _atom_site_fract_y
 _atom_site_fract_z
 _atom_site_occupancy
  Dy  Dy0  1  0.500000  0.371510  0.149089  1
  Ho  Ho1  1  0.500000  0.628498  0.850872  1
  Ho  Ho2  1  0.500000  0.128986  0.648772  1
  Ho  Ho3  1  0.500000  0.871001  0.351268  1
  Tc  Tc4  1  0.500000  0.365517  0.411207  1
  Tc  Tc5  1  0.500000  0.634471  0.588985  1
  B  B6  1  0.000000  0.112581  0.047532  1
  B  B7  1  0.000000  0.887022  0.952263  1
  B  B8  1  0.000000  0.387164  0.546696  1
  B  B9  1  0.000000  0.612891  0.453340  1
  B  B10  1  0.000000  0.135153  0.469271  1
  B  B11  1  0.000000  0.864817  0.530732  1
  B  B12  1  0.000000  0.363988  0.969020  1
  B  B13  1  0.000000  0.636197  0.030713  1
  B  B14  1  0.000000  0.023167  0.193129  1
  B  B15  1  0.000000  0.976575  0.806894  1
  B  B16  1  0.000000  0.475981  0.692436  1
  B  B17  1  0.000000  0.524127  0.307752  1
  B  B18  1  0.000000  0.211135  0.314348  1
  B  B19  1  0.000000  0.788819  0.685780  1
  B  B20  1  0.000000  0.289960  0.813786  1
  B  B21  1  0.000000  0.710380  0.186239  1
  Rh  Rh22  1  0.500000  0.140787  0.905498  1
  Rh  Rh23  1  0.500000  0.859273  0.094376  1
