# generated using pymatgen
data_TbY5(Ho2Pb3)2
_symmetry_space_group_name_H-M   'P 1'
_cell_length_a   9.05871600
_cell_length_b   9.06548294
_cell_length_c   6.64036400
_cell_angle_alpha   90.00000000
_cell_angle_beta   90.00000000
_cell_angle_gamma   119.97531066
_symmetry_Int_Tables_number   1
_chemical_formula_structural   TbY5(Ho2Pb3)2
_chemical_formula_sum   'Tb1 Y5 Ho4 Pb6'
_cell_volume   472.37629998
_cell_formula_units_Z   1
loop_
 _symmetry_equiv_pos_site_id
 _symmetry_equiv_pos_as_xyz
  1  'x, y, z'
loop_
 _atom_site_type_symbol
 _atom_site_label
 _atom_site_symmetry_multiplicity
 _atom_site_fract_x
 _atom_site_fract_y
 _atom_site_fract_z
 _atom_site_occupancy
  Tb  Tb0  1  0.238418  0.000000  0.250000  1
  Y  Y1  1  0.238493  0.238430  0.750000  1
  Y  Y2  1  0.000064  0.761570  0.750000  1
  Y  Y3  1  0.999959  0.238398  0.250000  1
  Y  Y4  1  0.761562  0.761602  0.250000  1
  Y  Y5  1  0.761588  0.000000  0.750000  1
  Ho  Ho6  1  0.333349  0.666667  0.000000  1
  Ho  Ho7  1  0.666683  0.333333  0.500000  1
  Ho  Ho8  1  0.666683  0.333333  0.000000  1
  Ho  Ho9  1  0.333349  0.666667  0.500000  1
  Pb  Pb10  1  0.604840  0.000000  0.250000  1
  Pb  Pb11  1  0.604729  0.604773  0.750000  1
  Pb  Pb12  1  0.999956  0.395227  0.750000  1
  Pb  Pb13  1  0.999871  0.604544  0.250000  1
  Pb  Pb14  1  0.395327  0.395456  0.250000  1
  Pb  Pb15  1  0.395128  0.000000  0.750000  1
