# generated using pymatgen
data_BaLi8Ca3(CrN3)4
_symmetry_space_group_name_H-M   'P 1'
_cell_length_a   9.06096873
_cell_length_b   7.20912971
_cell_length_c   10.61346003
_cell_angle_alpha   90.00072696
_cell_angle_beta   89.99204979
_cell_angle_gamma   90.61656508
_symmetry_Int_Tables_number   1
_chemical_formula_structural   BaLi8Ca3(CrN3)4
_chemical_formula_sum   'Ba2 Li16 Ca6 Cr8 N24'
_cell_volume   693.24909089
_cell_formula_units_Z   2
loop_
 _symmetry_equiv_pos_site_id
 _symmetry_equiv_pos_as_xyz
  1  'x, y, z'
loop_
 _atom_site_type_symbol
 _atom_site_label
 _atom_site_symmetry_multiplicity
 _atom_site_fract_x
 _atom_site_fract_y
 _atom_site_fract_z
 _atom_site_occupancy
  Ba  Ba0  1  0.181088  0.576773  0.425117  1
  Ba  Ba1  1  0.318993  0.423207  0.925159  1
  Li  Li2  1  0.885342  0.098109  0.781584  1
  Li  Li3  1  0.614605  0.902014  0.281526  1
  Li  Li4  1  0.385499  0.390870  0.222693  1
  Li  Li5  1  0.114610  0.609108  0.722656  1
  Li  Li6  1  0.111045  0.912198  0.218896  1
  Li  Li7  1  0.388774  0.087822  0.718897  1
  Li  Li8  1  0.619146  0.600468  0.777501  1
  Li  Li9  1  0.880912  0.399490  0.277530  1
  Li  Li10  1  0.117943  0.292395  0.173237  1
  Li  Li11  1  0.381942  0.707690  0.673189  1
  Li  Li12  1  0.627676  0.203819  0.816184  1
  Li  Li13  1  0.872327  0.796188  0.316113  1
  Li  Li14  1  0.875218  0.714822  0.817754  1
  Li  Li15  1  0.624837  0.285330  0.317747  1
  Li  Li16  1  0.375937  0.788535  0.188807  1
  Li  Li17  1  0.124135  0.211528  0.688857  1
  Ca  Ca18  1  0.302416  0.080517  0.407568  1
  Ca  Ca19  1  0.197554  0.919430  0.907510  1
  Ca  Ca20  1  0.801230  0.413316  0.598574  1
  Ca  Ca21  1  0.698872  0.586688  0.098581  1
  Ca  Ca22  1  0.697014  0.915367  0.590453  1
  Ca  Ca23  1  0.802913  0.084658  0.090342  1
  Cr  Cr24  1  0.947174  0.109326  0.417054  1
  Cr  Cr25  1  0.552735  0.890653  0.917083  1
  Cr  Cr26  1  0.461337  0.384916  0.581298  1
  Cr  Cr27  1  0.038775  0.615123  0.081252  1
  Cr  Cr28  1  0.040151  0.901104  0.584701  1
  Cr  Cr29  1  0.459754  0.098767  0.084682  1
  Cr  Cr30  1  0.550684  0.604092  0.417808  1
  Cr  Cr31  1  0.949417  0.395798  0.917735  1
  N  N32  1  0.927332  0.117462  0.596058  1
  N  N33  1  0.572536  0.882477  0.096053  1
  N  N34  1  0.437896  0.383563  0.405068  1
  N  N35  1  0.062181  0.616376  0.905027  1
  N  N36  1  0.063799  0.903758  0.407456  1
  N  N37  1  0.436068  0.096229  0.907496  1
  N  N38  1  0.578386  0.601504  0.593773  1
  N  N39  1  0.921715  0.398488  0.093735  1
  N  N40  1  0.781111  0.072095  0.339543  1
  N  N41  1  0.718834  0.927940  0.839575  1
  N  N42  1  0.291727  0.417112  0.654035  1
  N  N43  1  0.208282  0.583020  0.154012  1
  N  N44  1  0.209039  0.924716  0.662462  1
  N  N45  1  0.290931  0.075290  0.162515  1
  N  N46  1  0.715668  0.576642  0.336923  1
  N  N47  1  0.784439  0.423211  0.836913  1
  N  N48  1  0.054566  0.277570  0.353925  1
  N  N49  1  0.445419  0.722450  0.853829  1
  N  N50  1  0.561182  0.196831  0.627226  1
  N  N51  1  0.938722  0.803251  0.127101  1
  N  N52  1  0.939934  0.707328  0.624602  1
  N  N53  1  0.560023  0.292617  0.124552  1
  N  N54  1  0.448886  0.795734  0.380040  1
  N  N55  1  0.051259  0.204203  0.879993  1
