# generated using pymatgen
data_Zr3BeSi2Os3
_symmetry_space_group_name_H-M   'P 1'
_cell_length_a   6.78726000
_cell_length_b   6.78725986
_cell_length_c   3.47987700
_cell_angle_alpha   90.00000000
_cell_angle_beta   90.00000000
_cell_angle_gamma   119.99999093
_symmetry_Int_Tables_number   1
_chemical_formula_structural   Zr3BeSi2Os3
_chemical_formula_sum   'Zr3 Be1 Si2 Os3'
_cell_volume   138.83006542
_cell_formula_units_Z   1
loop_
 _symmetry_equiv_pos_site_id
 _symmetry_equiv_pos_as_xyz
  1  'x, y, z'
loop_
 _atom_site_type_symbol
 _atom_site_label
 _atom_site_symmetry_multiplicity
 _atom_site_fract_x
 _atom_site_fract_y
 _atom_site_fract_z
 _atom_site_occupancy
  Zr  Zr0  1  0.398236  0.398236  0.500000  1
  Zr  Zr1  1  0.601764  0.000000  0.500000  1
  Zr  Zr2  1  0.000000  0.601764  0.500000  1
  Be  Be3  1  0.000000  0.000000  0.500000  1
  Si  Si4  1  0.666667  0.333333  0.000000  1
  Si  Si5  1  0.333333  0.666667  0.000000  1
  Os  Os6  1  0.757525  0.757525  0.000000  1
  Os  Os7  1  0.242475  0.000000  0.000000  1
  Os  Os8  1  0.000000  0.242475  0.000000  1
