# generated using pymatgen
data_Y2Hf3Co9P7
_symmetry_space_group_name_H-M   'P 1'
_cell_length_a   3.68964600
_cell_length_b   9.36817788
_cell_length_c   9.36817700
_cell_angle_alpha   120.00000041
_cell_angle_beta   90.00000000
_cell_angle_gamma   90.00000000
_symmetry_Int_Tables_number   1
_chemical_formula_structural   Y2Hf3Co9P7
_chemical_formula_sum   'Y2 Hf3 Co9 P7'
_cell_volume   280.43069360
_cell_formula_units_Z   1
loop_
 _symmetry_equiv_pos_site_id
 _symmetry_equiv_pos_as_xyz
  1  'x, y, z'
loop_
 _atom_site_type_symbol
 _atom_site_label
 _atom_site_symmetry_multiplicity
 _atom_site_fract_x
 _atom_site_fract_y
 _atom_site_fract_z
 _atom_site_occupancy
  Y  Y0  1  0.000000  0.666667  0.333333  1
  Y  Y1  1  0.500000  0.333333  0.666667  1
  Hf  Hf2  1  0.500000  0.768550  0.889138  1
  Hf  Hf3  1  0.500000  0.120587  0.231450  1
  Hf  Hf4  1  0.500000  0.110862  0.879413  1
  Co  Co5  1  0.000000  0.573204  0.936491  1
  Co  Co6  1  0.000000  0.363288  0.426796  1
  Co  Co7  1  0.000000  0.063509  0.636712  1
  Co  Co8  1  0.000000  0.877148  0.163867  1
  Co  Co9  1  0.000000  0.286718  0.122852  1
  Co  Co10  1  0.000000  0.836133  0.713282  1
  Co  Co11  1  0.500000  0.946808  0.393089  1
  Co  Co12  1  0.500000  0.446280  0.053192  1
  Co  Co13  1  0.500000  0.606911  0.553720  1
  P  P14  1  0.000000  0.000000  0.000000  1
  P  P15  1  0.500000  0.714892  0.133636  1
  P  P16  1  0.500000  0.418744  0.285108  1
  P  P17  1  0.500000  0.866364  0.581256  1
  P  P18  1  0.000000  0.575270  0.680213  1
  P  P19  1  0.000000  0.104943  0.424730  1
  P  P20  1  0.000000  0.319787  0.895057  1
