# generated using pymatgen
data_Tb9Tm(Bi3C)2
_symmetry_space_group_name_H-M   'P 1'
_cell_length_a   9.18287789
_cell_length_b   9.18287885
_cell_length_c   6.51635500
_cell_angle_alpha   90.00000000
_cell_angle_beta   90.00000000
_cell_angle_gamma   119.94962415
_symmetry_Int_Tables_number   1
_chemical_formula_structural   Tb9Tm(Bi3C)2
_chemical_formula_sum   'Tb9 Tm1 Bi6 C2'
_cell_volume   476.11653515
_cell_formula_units_Z   1
loop_
 _symmetry_equiv_pos_site_id
 _symmetry_equiv_pos_as_xyz
  1  'x, y, z'
loop_
 _atom_site_type_symbol
 _atom_site_label
 _atom_site_symmetry_multiplicity
 _atom_site_fract_x
 _atom_site_fract_y
 _atom_site_fract_z
 _atom_site_occupancy
  Tb  Tb0  1  0.666476  0.333097  0.000156  1
  Tb  Tb1  1  0.333097  0.666476  0.000156  1
  Tb  Tb2  1  0.333097  0.666476  0.499844  1
  Tb  Tb3  1  0.666476  0.333097  0.499844  1
  Tb  Tb4  1  0.209898  0.000597  0.750000  1
  Tb  Tb5  1  0.000597  0.209898  0.750000  1
  Tb  Tb6  1  0.207571  0.207571  0.250000  1
  Tb  Tb7  1  0.790163  0.998751  0.250000  1
  Tb  Tb8  1  0.998751  0.790163  0.250000  1
  Tm  Tm9  1  0.799122  0.799122  0.750000  1
  Bi  Bi10  1  0.402406  0.402406  0.750000  1
  Bi  Bi11  1  0.598779  0.998570  0.750000  1
  Bi  Bi12  1  0.998570  0.598779  0.750000  1
  Bi  Bi13  1  0.597798  0.597798  0.250000  1
  Bi  Bi14  1  0.400760  0.000136  0.250000  1
  Bi  Bi15  1  0.000136  0.400760  0.250000  1
  C  C16  1  0.998152  0.998152  0.998804  1
  C  C17  1  0.998152  0.998152  0.501196  1
