# generated using pymatgen
data_Dy6Th2MgZnRu2
_symmetry_space_group_name_H-M   'P 1'
_cell_length_a   9.66449787
_cell_length_b   9.66449766
_cell_length_c   9.65131400
_cell_angle_alpha   60.04510806
_cell_angle_beta   60.04510878
_cell_angle_gamma   60.23200874
_symmetry_Int_Tables_number   1
_chemical_formula_structural   Dy6Th2MgZnRu2
_chemical_formula_sum   'Dy12 Th4 Mg2 Zn2 Ru4'
_cell_volume   638.97306718
_cell_formula_units_Z   2
loop_
 _symmetry_equiv_pos_site_id
 _symmetry_equiv_pos_as_xyz
  1  'x, y, z'
loop_
 _atom_site_type_symbol
 _atom_site_label
 _atom_site_symmetry_multiplicity
 _atom_site_fract_x
 _atom_site_fract_y
 _atom_site_fract_z
 _atom_site_occupancy
  Dy  Dy0  1  0.811233  0.188062  0.188891  1
  Dy  Dy1  1  0.188062  0.811233  0.811813  1
  Dy  Dy2  1  0.188062  0.811233  0.188891  1
  Dy  Dy3  1  0.811233  0.188062  0.811813  1
  Dy  Dy4  1  0.187389  0.187389  0.812611  1
  Dy  Dy5  1  0.808970  0.808970  0.191030  1
  Dy  Dy6  1  0.929967  0.563338  0.565744  1
  Dy  Dy7  1  0.563338  0.929967  0.940952  1
  Dy  Dy8  1  0.563338  0.929967  0.565744  1
  Dy  Dy9  1  0.929967  0.563338  0.940952  1
  Dy  Dy10  1  0.564569  0.564569  0.935431  1
  Dy  Dy11  1  0.935936  0.935936  0.564064  1
  Th  Th12  1  0.348212  0.348212  0.346078  1
  Th  Th13  1  0.348212  0.348212  0.957498  1
  Th  Th14  1  0.351480  0.952988  0.347766  1
  Th  Th15  1  0.952988  0.351480  0.347766  1
  Mg  Mg16  1  0.579875  0.270712  0.574707  1
  Mg  Mg17  1  0.270712  0.579875  0.574707  1
  Zn  Zn18  1  0.582733  0.582733  0.582771  1
  Zn  Zn19  1  0.582733  0.582733  0.251763  1
  Ru  Ru20  1  0.143653  0.143653  0.142755  1
  Ru  Ru21  1  0.143653  0.143653  0.569939  1
  Ru  Ru22  1  0.144038  0.569647  0.143158  1
  Ru  Ru23  1  0.569647  0.144038  0.143158  1
