# generated using pymatgen
data_La3Th(FeB10)2
_symmetry_space_group_name_H-M   'P 1'
_cell_length_a   4.20928000
_cell_length_b   5.67221703
_cell_length_c   11.29096011
_cell_angle_alpha   90.11590850
_cell_angle_beta   90.00000000
_cell_angle_gamma   90.00000000
_symmetry_Int_Tables_number   1
_chemical_formula_structural   La3Th(FeB10)2
_chemical_formula_sum   'La3 Th1 Fe2 B20'
_cell_volume   269.58184421
_cell_formula_units_Z   1
loop_
 _symmetry_equiv_pos_site_id
 _symmetry_equiv_pos_as_xyz
  1  'x, y, z'
loop_
 _atom_site_type_symbol
 _atom_site_label
 _atom_site_symmetry_multiplicity
 _atom_site_fract_x
 _atom_site_fract_y
 _atom_site_fract_z
 _atom_site_occupancy
  La  La0  1  0.500000  0.291386  0.868051  1
  La  La1  1  0.500000  0.709537  0.131711  1
  La  La2  1  0.500000  0.791289  0.633086  1
  Th  Th3  1  0.500000  0.214361  0.369762  1
  Fe  Fe4  1  0.000000  0.496136  0.497926  1
  Fe  Fe5  1  0.000000  0.000162  0.000388  1
  B  B6  1  0.000000  0.126111  0.539628  1
  B  B7  1  0.000000  0.870139  0.459945  1
  B  B8  1  0.000000  0.627843  0.959557  1
  B  B9  1  0.000000  0.371432  0.040845  1
  B  B10  1  0.000000  0.151473  0.696545  1
  B  B11  1  0.000000  0.849870  0.303272  1
  B  B12  1  0.297752  0.204204  0.114318  1
  B  B13  1  0.297010  0.795824  0.887174  1
  B  B14  1  0.701922  0.704907  0.386643  1
  B  B15  1  0.702793  0.293958  0.611739  1
  B  B16  1  0.702990  0.795824  0.887174  1
  B  B17  1  0.702248  0.204204  0.114318  1
  B  B18  1  0.297207  0.293958  0.611739  1
  B  B19  1  0.298078  0.704907  0.386643  1
  B  B20  1  0.000000  0.039697  0.188167  1
  B  B21  1  0.000000  0.961323  0.813041  1
  B  B22  1  0.000000  0.539860  0.312257  1
  B  B23  1  0.000000  0.460953  0.685921  1
  B  B24  1  0.000000  0.348983  0.197550  1
  B  B25  1  0.000000  0.651662  0.802596  1
