# generated using pymatgen
data_Tb3Y5(B6Os)4
_symmetry_space_group_name_H-M   'P 1'
_cell_length_a   3.66163900
_cell_length_b   9.18085817
_cell_length_c   11.56482918
_cell_angle_alpha   90.00310148
_cell_angle_beta   90.00000000
_cell_angle_gamma   90.00000000
_symmetry_Int_Tables_number   1
_chemical_formula_structural   Tb3Y5(B6Os)4
_chemical_formula_sum   'Tb3 Y5 B24 Os4'
_cell_volume   388.77472677
_cell_formula_units_Z   1
loop_
 _symmetry_equiv_pos_site_id
 _symmetry_equiv_pos_as_xyz
  1  'x, y, z'
loop_
 _atom_site_type_symbol
 _atom_site_label
 _atom_site_symmetry_multiplicity
 _atom_site_fract_x
 _atom_site_fract_y
 _atom_site_fract_z
 _atom_site_occupancy
  Tb  Tb0  1  0.000000  0.322402  0.413789  1
  Tb  Tb1  1  0.000000  0.677563  0.586263  1
  Tb  Tb2  1  0.000000  0.822475  0.086164  1
  Y  Y3  1  0.000000  0.177915  0.913801  1
  Y  Y4  1  0.000000  0.943669  0.373035  1
  Y  Y5  1  0.000000  0.056332  0.626977  1
  Y  Y6  1  0.000000  0.443631  0.126909  1
  Y  Y7  1  0.000000  0.556308  0.873088  1
  B  B8  1  0.500000  0.553754  0.432868  1
  B  B9  1  0.500000  0.446182  0.567213  1
  B  B10  1  0.500000  0.053783  0.067054  1
  B  B11  1  0.500000  0.946319  0.932870  1
  B  B12  1  0.500000  0.747141  0.419684  1
  B  B13  1  0.500000  0.252823  0.580363  1
  B  B14  1  0.500000  0.247095  0.080229  1
  B  B15  1  0.500000  0.752912  0.919659  1
  B  B16  1  0.500000  0.790263  0.266604  1
  B  B17  1  0.500000  0.209612  0.733465  1
  B  B18  1  0.500000  0.290260  0.233332  1
  B  B19  1  0.500000  0.709718  0.766627  1
  B  B20  1  0.500000  0.631515  0.185722  1
  B  B21  1  0.500000  0.368383  0.814316  1
  B  B22  1  0.500000  0.131548  0.314223  1
  B  B23  1  0.500000  0.868479  0.685766  1
  B  B24  1  0.500000  0.983205  0.212888  1
  B  B25  1  0.500000  0.016939  0.787067  1
  B  B26  1  0.500000  0.483179  0.287043  1
  B  B27  1  0.500000  0.516742  0.713023  1
  B  B28  1  0.500000  0.608679  0.030197  1
  B  B29  1  0.500000  0.391081  0.969745  1
  B  B30  1  0.500000  0.108581  0.469856  1
  B  B31  1  0.500000  0.891405  0.530171  1
  Os  Os32  1  0.000000  0.637077  0.321460  1
  Os  Os33  1  0.000000  0.362867  0.678573  1
  Os  Os34  1  0.000000  0.137143  0.178448  1
  Os  Os35  1  0.000000  0.863022  0.821511  1
