# generated using pymatgen
data_V2Ir3Os2Rh
_symmetry_space_group_name_H-M   'P 1'
_cell_length_a   5.43657447
_cell_length_b   5.47581069
_cell_length_c   4.35265300
_cell_angle_alpha   90.00000000
_cell_angle_beta   90.00000000
_cell_angle_gamma   119.75844245
_symmetry_Int_Tables_number   1
_chemical_formula_structural   V2Ir3Os2Rh
_chemical_formula_sum   'V2 Ir3 Os2 Rh1'
_cell_volume   112.48909436
_cell_formula_units_Z   1
loop_
 _symmetry_equiv_pos_site_id
 _symmetry_equiv_pos_as_xyz
  1  'x, y, z'
loop_
 _atom_site_type_symbol
 _atom_site_label
 _atom_site_symmetry_multiplicity
 _atom_site_fract_x
 _atom_site_fract_y
 _atom_site_fract_z
 _atom_site_occupancy
  V  V0  1  0.333491  0.662086  0.750000  1
  V  V1  1  0.666961  0.336652  0.250000  1
  Ir  Ir2  1  0.665554  0.828786  0.250000  1
  Ir  Ir3  1  0.163957  0.827320  0.250000  1
  Ir  Ir4  1  0.335475  0.174078  0.750000  1
  Os  Os5  1  0.168827  0.335780  0.250000  1
  Os  Os6  1  0.830308  0.664181  0.750000  1
  Rh  Rh7  1  0.835428  0.171115  0.750000  1
