# generated using pymatgen
data_YbTmB4Ir5
_symmetry_space_group_name_H-M   'P 1'
_cell_length_a   7.49209290
_cell_length_b   6.33032881
_cell_length_c   5.58608700
_cell_angle_alpha   77.63388724
_cell_angle_beta   55.62210503
_cell_angle_gamma   46.74400331
_symmetry_Int_Tables_number   1
_chemical_formula_structural   YbTmB4Ir5
_chemical_formula_sum   'Yb1 Tm1 B4 Ir5'
_cell_volume   152.52829858
_cell_formula_units_Z   1
loop_
 _symmetry_equiv_pos_site_id
 _symmetry_equiv_pos_as_xyz
  1  'x, y, z'
loop_
 _atom_site_type_symbol
 _atom_site_label
 _atom_site_symmetry_multiplicity
 _atom_site_fract_x
 _atom_site_fract_y
 _atom_site_fract_z
 _atom_site_occupancy
  Yb  Yb0  1  0.641363  0.641364  0.358637  1
  Tm  Tm1  1  0.364489  0.364489  0.635511  1
  B  B2  1  0.287649  0.975924  0.024077  1
  B  B3  1  0.023167  0.710198  0.289803  1
  B  B4  1  0.975923  0.287649  0.712351  1
  B  B5  1  0.710197  0.023168  0.976833  1
  Ir  Ir6  1  0.997340  0.997340  0.002660  1
  Ir  Ir7  1  0.500186  0.500184  0.999815  1
  Ir  Ir8  1  0.249751  0.249749  0.250249  1
  Ir  Ir9  1  0.000185  0.000185  0.499814  1
  Ir  Ir10  1  0.749751  0.749750  0.750249  1
