# generated using pymatgen
data_Pr20Rh15Au
_symmetry_space_group_name_H-M   'P 1'
_cell_length_a   7.71821100
_cell_length_b   7.76182491
_cell_length_c   15.17111900
_cell_angle_alpha   90.00000000
_cell_angle_beta   90.00000000
_cell_angle_gamma   90.25835442
_symmetry_Int_Tables_number   1
_chemical_formula_structural   Pr20Rh15Au
_chemical_formula_sum   'Pr20 Rh15 Au1'
_cell_volume   908.85309092
_cell_formula_units_Z   1
loop_
 _symmetry_equiv_pos_site_id
 _symmetry_equiv_pos_as_xyz
  1  'x, y, z'
loop_
 _atom_site_type_symbol
 _atom_site_label
 _atom_site_symmetry_multiplicity
 _atom_site_fract_x
 _atom_site_fract_y
 _atom_site_fract_z
 _atom_site_occupancy
  Pr  Pr0  1  0.671904  0.161660  0.619896  1
  Pr  Pr1  1  0.155111  0.331716  0.882681  1
  Pr  Pr2  1  0.335279  0.832936  0.122180  1
  Pr  Pr3  1  0.835471  0.666367  0.377024  1
  Pr  Pr4  1  0.335279  0.832936  0.377820  1
  Pr  Pr5  1  0.835471  0.666367  0.122976  1
  Pr  Pr6  1  0.671904  0.161660  0.880104  1
  Pr  Pr7  1  0.155111  0.331716  0.617319  1
  Pr  Pr8  1  0.520936  0.690297  0.589964  1
  Pr  Pr9  1  0.020388  0.816834  0.909771  1
  Pr  Pr10  1  0.482951  0.318339  0.092225  1
  Pr  Pr11  1  0.983594  0.181048  0.402903  1
  Pr  Pr12  1  0.482951  0.318339  0.407775  1
  Pr  Pr13  1  0.983594  0.181048  0.097097  1
  Pr  Pr14  1  0.520936  0.690297  0.910036  1
  Pr  Pr15  1  0.020388  0.816834  0.590229  1
  Pr  Pr16  1  0.836289  0.515765  0.750000  1
  Pr  Pr17  1  0.322533  0.987198  0.750000  1
  Pr  Pr18  1  0.175073  0.489903  0.250000  1
  Pr  Pr19  1  0.672623  0.010032  0.250000  1
  Rh  Rh20  1  0.676069  0.968217  0.457359  1
  Rh  Rh21  1  0.171228  0.529041  0.043792  1
  Rh  Rh22  1  0.327577  0.031641  0.957661  1
  Rh  Rh23  1  0.822993  0.469461  0.541827  1
  Rh  Rh24  1  0.327577  0.031641  0.542339  1
  Rh  Rh25  1  0.822993  0.469461  0.958173  1
  Rh  Rh26  1  0.676069  0.968217  0.042641  1
  Rh  Rh27  1  0.171228  0.529041  0.456208  1
  Rh  Rh28  1  0.958573  0.100101  0.750000  1
  Rh  Rh29  1  0.539096  0.598315  0.250000  1
  Rh  Rh30  1  0.042381  0.901782  0.250000  1
  Rh  Rh31  1  0.697144  0.855496  0.750000  1
  Rh  Rh32  1  0.195029  0.643857  0.750000  1
  Rh  Rh33  1  0.303470  0.145283  0.250000  1
  Rh  Rh34  1  0.795719  0.355647  0.250000  1
  Au  Au35  1  0.455076  0.401505  0.750000  1
