# generated using pymatgen
data_Dy9Lu(SiSn3)2
_symmetry_space_group_name_H-M   'P 1'
_cell_length_a   9.21498100
_cell_length_b   9.21498069
_cell_length_c   6.44617100
_cell_angle_alpha   90.00000000
_cell_angle_beta   90.00000000
_cell_angle_gamma   120.00000469
_symmetry_Int_Tables_number   1
_chemical_formula_structural   Dy9Lu(SiSn3)2
_chemical_formula_sum   'Dy9 Lu1 Si2 Sn6'
_cell_volume   474.04689578
_cell_formula_units_Z   1
loop_
 _symmetry_equiv_pos_site_id
 _symmetry_equiv_pos_as_xyz
  1  'x, y, z'
loop_
 _atom_site_type_symbol
 _atom_site_label
 _atom_site_symmetry_multiplicity
 _atom_site_fract_x
 _atom_site_fract_y
 _atom_site_fract_z
 _atom_site_occupancy
  Dy  Dy0  1  0.333333  0.666667  0.000000  1
  Dy  Dy1  1  0.333333  0.666667  0.500000  1
  Dy  Dy2  1  0.666667  0.333333  0.500000  1
  Dy  Dy3  1  0.747487  0.747265  0.749752  1
  Dy  Dy4  1  0.252735  0.000222  0.749752  1
  Dy  Dy5  1  0.999778  0.252513  0.749752  1
  Dy  Dy6  1  0.252735  0.252513  0.250248  1
  Dy  Dy7  1  0.747487  0.000222  0.250248  1
  Dy  Dy8  1  0.999778  0.747265  0.250248  1
  Lu  Lu9  1  0.666667  0.333333  0.000000  1
  Si  Si10  1  0.000000  0.000000  0.000000  1
  Si  Si11  1  0.000000  0.000000  0.500000  1
  Sn  Sn12  1  0.391714  0.391164  0.750205  1
  Sn  Sn13  1  0.608836  0.000549  0.750205  1
  Sn  Sn14  1  0.999451  0.608286  0.750205  1
  Sn  Sn15  1  0.608836  0.608286  0.249795  1
  Sn  Sn16  1  0.391714  0.000549  0.249795  1
  Sn  Sn17  1  0.999451  0.391164  0.249795  1
