# generated using pymatgen
data_Tb12IrRh3
_symmetry_space_group_name_H-M   'P 1'
_cell_length_a   6.31169544
_cell_length_b   7.20637950
_cell_length_c   9.53029000
_cell_angle_alpha   90.00000000
_cell_angle_beta   90.00000000
_cell_angle_gamma   89.95713924
_symmetry_Int_Tables_number   1
_chemical_formula_structural   Tb12IrRh3
_chemical_formula_sum   'Tb12 Ir1 Rh3'
_cell_volume   433.48009371
_cell_formula_units_Z   1
loop_
 _symmetry_equiv_pos_site_id
 _symmetry_equiv_pos_as_xyz
  1  'x, y, z'
loop_
 _atom_site_type_symbol
 _atom_site_label
 _atom_site_symmetry_multiplicity
 _atom_site_fract_x
 _atom_site_fract_y
 _atom_site_fract_z
 _atom_site_occupancy
  Tb  Tb0  1  0.329223  0.677510  0.063856  1
  Tb  Tb1  1  0.170077  0.176231  0.436515  1
  Tb  Tb2  1  0.669351  0.322907  0.563675  1
  Tb  Tb3  1  0.831260  0.823307  0.937837  1
  Tb  Tb4  1  0.669351  0.322907  0.936325  1
  Tb  Tb5  1  0.831260  0.823307  0.562163  1
  Tb  Tb6  1  0.329223  0.677510  0.436144  1
  Tb  Tb7  1  0.170077  0.176231  0.063485  1
  Tb  Tb8  1  0.865921  0.533486  0.250000  1
  Tb  Tb9  1  0.635660  0.031447  0.250000  1
  Tb  Tb10  1  0.135265  0.467506  0.750000  1
  Tb  Tb11  1  0.364915  0.967500  0.750000  1
  Ir  Ir12  1  0.057578  0.882048  0.250000  1
  Rh  Rh13  1  0.440556  0.381622  0.250000  1
  Rh  Rh14  1  0.939793  0.117906  0.750000  1
  Rh  Rh15  1  0.560489  0.618575  0.750000  1
