# generated using pymatgen
data_Y4Sc6Ge7Pt
_symmetry_space_group_name_H-M   'P 1'
_cell_length_a   7.21871200
_cell_length_b   7.56535500
_cell_length_c   14.04966600
_cell_angle_alpha   90.00000000
_cell_angle_beta   90.00000000
_cell_angle_gamma   90.00000000
_symmetry_Int_Tables_number   1
_chemical_formula_structural   Y4Sc6Ge7Pt
_chemical_formula_sum   'Y8 Sc12 Ge14 Pt2'
_cell_volume   767.28203042
_cell_formula_units_Z   2
loop_
 _symmetry_equiv_pos_site_id
 _symmetry_equiv_pos_as_xyz
  1  'x, y, z'
loop_
 _atom_site_type_symbol
 _atom_site_label
 _atom_site_symmetry_multiplicity
 _atom_site_fract_x
 _atom_site_fract_y
 _atom_site_fract_z
 _atom_site_occupancy
  Y  Y0  1  0.003716  0.821523  0.404845  1
  Y  Y1  1  0.503716  0.678477  0.095155  1
  Y  Y2  1  0.494861  0.320202  0.594829  1
  Y  Y3  1  0.994861  0.179798  0.905171  1
  Y  Y4  1  0.994861  0.179798  0.594829  1
  Y  Y5  1  0.494861  0.320202  0.905171  1
  Y  Y6  1  0.503716  0.678477  0.404845  1
  Y  Y7  1  0.003716  0.821523  0.095155  1
  Sc  Sc8  1  0.679754  0.998350  0.250000  1
  Sc  Sc9  1  0.179754  0.501650  0.250000  1
  Sc  Sc10  1  0.815670  0.503514  0.750000  1
  Sc  Sc11  1  0.315670  0.996486  0.750000  1
  Sc  Sc12  1  0.660792  0.834222  0.628190  1
  Sc  Sc13  1  0.160792  0.665778  0.871810  1
  Sc  Sc14  1  0.841894  0.332811  0.374358  1
  Sc  Sc15  1  0.341894  0.167189  0.125642  1
  Sc  Sc16  1  0.341894  0.167189  0.374358  1
  Sc  Sc17  1  0.841894  0.332811  0.125642  1
  Sc  Sc18  1  0.160792  0.665778  0.628190  1
  Sc  Sc19  1  0.660792  0.834222  0.871810  1
  Ge  Ge20  1  0.811182  0.639659  0.250000  1
  Ge  Ge21  1  0.311182  0.860341  0.250000  1
  Ge  Ge22  1  0.698507  0.135865  0.750000  1
  Ge  Ge23  1  0.198507  0.364135  0.750000  1
  Ge  Ge24  1  0.541653  0.374770  0.250000  1
  Ge  Ge25  1  0.041653  0.125230  0.250000  1
  Ge  Ge26  1  0.817861  0.539602  0.542039  1
  Ge  Ge27  1  0.317861  0.960398  0.957961  1
  Ge  Ge28  1  0.677431  0.041288  0.458698  1
  Ge  Ge29  1  0.177431  0.458712  0.041302  1
  Ge  Ge30  1  0.177431  0.458712  0.458698  1
  Ge  Ge31  1  0.677431  0.041288  0.041302  1
  Ge  Ge32  1  0.317861  0.960398  0.542039  1
  Ge  Ge33  1  0.817861  0.539602  0.957961  1
  Pt  Pt34  1  0.960125  0.883916  0.750000  1
  Pt  Pt35  1  0.460125  0.616084  0.750000  1
