# generated using pymatgen
data_Rb2NaAsO4
_symmetry_space_group_name_H-M   'P 1'
_cell_length_a   6.11330900
_cell_length_b   6.03951519
_cell_length_c   8.08116093
_cell_angle_alpha   87.44772810
_cell_angle_beta   90.00000000
_cell_angle_gamma   90.00000000
_symmetry_Int_Tables_number   1
_chemical_formula_structural   Rb2NaAsO4
_chemical_formula_sum   'Rb4 Na2 As2 O8'
_cell_volume   298.07197974
_cell_formula_units_Z   2
loop_
 _symmetry_equiv_pos_site_id
 _symmetry_equiv_pos_as_xyz
  1  'x, y, z'
loop_
 _atom_site_type_symbol
 _atom_site_label
 _atom_site_symmetry_multiplicity
 _atom_site_fract_x
 _atom_site_fract_y
 _atom_site_fract_z
 _atom_site_occupancy
  Rb  Rb0  1  0.250000  0.157908  0.815764  1
  Rb  Rb1  1  0.750000  0.842092  0.184236  1
  Rb  Rb2  1  0.250000  0.705921  0.511843  1
  Rb  Rb3  1  0.750000  0.294079  0.488157  1
  Na  Na4  1  0.750000  0.363355  0.973926  1
  Na  Na5  1  0.250000  0.636645  0.026074  1
  As  As6  1  0.250000  0.211514  0.252950  1
  As  As7  1  0.750000  0.788486  0.747050  1
  O  O8  1  0.977373  0.646255  0.823542  1
  O  O9  1  0.477373  0.353745  0.176458  1
  O  O10  1  0.022627  0.353745  0.176458  1
  O  O11  1  0.522627  0.646255  0.823542  1
  O  O12  1  0.750000  0.056285  0.815298  1
  O  O13  1  0.750000  0.791337  0.533097  1
  O  O14  1  0.250000  0.943715  0.184702  1
  O  O15  1  0.250000  0.208663  0.466903  1
