# generated using pymatgen
data_TmThCo2(Ni3B)2
_symmetry_space_group_name_H-M   'P 1'
_cell_length_a   4.98465500
_cell_length_b   4.96242503
_cell_length_c   6.97187700
_cell_angle_alpha   90.00000000
_cell_angle_beta   90.00000000
_cell_angle_gamma   120.14829019
_symmetry_Int_Tables_number   1
_chemical_formula_structural   TmThCo2(Ni3B)2
_chemical_formula_sum   'Tm1 Th1 Co2 Ni6 B2'
_cell_volume   149.12776790
_cell_formula_units_Z   1
loop_
 _symmetry_equiv_pos_site_id
 _symmetry_equiv_pos_as_xyz
  1  'x, y, z'
loop_
 _atom_site_type_symbol
 _atom_site_label
 _atom_site_symmetry_multiplicity
 _atom_site_fract_x
 _atom_site_fract_y
 _atom_site_fract_z
 _atom_site_occupancy
  Tm  Tm0  1  0.000000  0.000000  0.498448  1
  Th  Th1  1  0.000000  0.000000  0.008095  1
  Co  Co2  1  0.000000  0.500000  0.296154  1
  Co  Co3  1  0.500000  0.500000  0.296154  1
  Ni  Ni4  1  0.500000  0.500000  0.704716  1
  Ni  Ni5  1  0.500000  0.000000  0.705517  1
  Ni  Ni6  1  0.000000  0.500000  0.704716  1
  Ni  Ni7  1  0.669419  0.338836  0.999946  1
  Ni  Ni8  1  0.330581  0.661164  0.999946  1
  Ni  Ni9  1  0.500000  0.000000  0.292724  1
  B  B10  1  0.668809  0.337616  0.496792  1
  B  B11  1  0.331191  0.662384  0.496792  1
