# generated using pymatgen
data_Ac8MgNi6
_symmetry_space_group_name_H-M   'P 1'
_cell_length_a   7.74267010
_cell_length_b   7.74266970
_cell_length_c   7.74266975
_cell_angle_alpha   74.02189046
_cell_angle_beta   74.02188524
_cell_angle_gamma   74.02189153
_symmetry_Int_Tables_number   1
_chemical_formula_structural   Ac8MgNi6
_chemical_formula_sum   'Ac8 Mg1 Ni6'
_cell_volume   418.88028295
_cell_formula_units_Z   1
loop_
 _symmetry_equiv_pos_site_id
 _symmetry_equiv_pos_as_xyz
  1  'x, y, z'
loop_
 _atom_site_type_symbol
 _atom_site_label
 _atom_site_symmetry_multiplicity
 _atom_site_fract_x
 _atom_site_fract_y
 _atom_site_fract_z
 _atom_site_occupancy
  Ac  Ac0  1  0.296209  0.296209  0.296209  1
  Ac  Ac1  1  0.703791  0.703791  0.703791  1
  Ac  Ac2  1  0.814788  0.333783  0.135804  1
  Ac  Ac3  1  0.333783  0.135804  0.814788  1
  Ac  Ac4  1  0.135804  0.814788  0.333783  1
  Ac  Ac5  1  0.185212  0.666217  0.864196  1
  Ac  Ac6  1  0.666217  0.864196  0.185212  1
  Ac  Ac7  1  0.864196  0.185212  0.666217  1
  Mg  Mg8  1  0.500000  0.500000  0.500000  1
  Ni  Ni9  1  0.467082  0.628085  0.093325  1
  Ni  Ni10  1  0.628085  0.093325  0.467082  1
  Ni  Ni11  1  0.093325  0.467082  0.628085  1
  Ni  Ni12  1  0.532918  0.371915  0.906675  1
  Ni  Ni13  1  0.371915  0.906675  0.532918  1
  Ni  Ni14  1  0.906675  0.532918  0.371915  1
