# generated using pymatgen
data_Nd4Ho5ErPb6
_symmetry_space_group_name_H-M   'P 1'
_cell_length_a   9.17462200
_cell_length_b   9.17462089
_cell_length_c   6.72417800
_cell_angle_alpha   90.00000000
_cell_angle_beta   90.00000000
_cell_angle_gamma   119.55263359
_symmetry_Int_Tables_number   1
_chemical_formula_structural   Nd4Ho5ErPb6
_chemical_formula_sum   'Nd4 Ho5 Er1 Pb6'
_cell_volume   492.36403800
_cell_formula_units_Z   1
loop_
 _symmetry_equiv_pos_site_id
 _symmetry_equiv_pos_as_xyz
  1  'x, y, z'
loop_
 _atom_site_type_symbol
 _atom_site_label
 _atom_site_symmetry_multiplicity
 _atom_site_fract_x
 _atom_site_fract_y
 _atom_site_fract_z
 _atom_site_occupancy
  Nd  Nd0  1  0.238534  0.001174  0.750000  1
  Nd  Nd1  1  0.001174  0.238534  0.750000  1
  Nd  Nd2  1  0.761861  0.998972  0.250000  1
  Nd  Nd3  1  0.998972  0.761861  0.250000  1
  Ho  Ho4  1  0.666526  0.333155  0.999986  1
  Ho  Ho5  1  0.333155  0.666526  0.999986  1
  Ho  Ho6  1  0.333155  0.666526  0.500014  1
  Ho  Ho7  1  0.666526  0.333155  0.500014  1
  Ho  Ho8  1  0.757552  0.757552  0.750000  1
  Er  Er9  1  0.242687  0.242687  0.250000  1
  Pb  Pb10  1  0.401429  0.401429  0.750000  1
  Pb  Pb11  1  0.603867  0.997224  0.750000  1
  Pb  Pb12  1  0.997224  0.603867  0.750000  1
  Pb  Pb13  1  0.598800  0.598800  0.250000  1
  Pb  Pb14  1  0.396226  0.002308  0.250000  1
  Pb  Pb15  1  0.002308  0.396226  0.250000  1
