# generated using pymatgen
data_Y2Tm4IrRh17
_symmetry_space_group_name_H-M   'P 1'
_cell_length_a   5.25082000
_cell_length_b   5.25081992
_cell_length_c   17.53131200
_cell_angle_alpha   90.00000000
_cell_angle_beta   90.00000000
_cell_angle_gamma   119.99998788
_symmetry_Int_Tables_number   1
_chemical_formula_structural   Y2Tm4IrRh17
_chemical_formula_sum   'Y2 Tm4 Ir1 Rh17'
_cell_volume   418.60012993
_cell_formula_units_Z   1
loop_
 _symmetry_equiv_pos_site_id
 _symmetry_equiv_pos_as_xyz
  1  'x, y, z'
loop_
 _atom_site_type_symbol
 _atom_site_label
 _atom_site_symmetry_multiplicity
 _atom_site_fract_x
 _atom_site_fract_y
 _atom_site_fract_z
 _atom_site_occupancy
  Y  Y0  1  0.333333  0.666667  0.749896  1
  Y  Y1  1  0.666667  0.333333  0.250104  1
  Tm  Tm2  1  0.333333  0.666667  0.958372  1
  Tm  Tm3  1  0.666667  0.333333  0.041628  1
  Tm  Tm4  1  0.666667  0.333333  0.458796  1
  Tm  Tm5  1  0.333333  0.666667  0.541204  1
  Ir  Ir6  1  0.000000  0.000000  0.500000  1
  Rh  Rh7  1  0.167300  0.832700  0.375493  1
  Rh  Rh8  1  0.167300  0.334601  0.375493  1
  Rh  Rh9  1  0.665399  0.832700  0.375493  1
  Rh  Rh10  1  0.832700  0.167300  0.624507  1
  Rh  Rh11  1  0.832700  0.665399  0.624507  1
  Rh  Rh12  1  0.334601  0.167300  0.624507  1
  Rh  Rh13  1  0.832598  0.167402  0.875374  1
  Rh  Rh14  1  0.832598  0.665196  0.875374  1
  Rh  Rh15  1  0.334804  0.167402  0.875374  1
  Rh  Rh16  1  0.167402  0.832598  0.124626  1
  Rh  Rh17  1  0.167402  0.334804  0.124626  1
  Rh  Rh18  1  0.665196  0.832598  0.124626  1
  Rh  Rh19  1  0.333333  0.666667  0.249856  1
  Rh  Rh20  1  0.666667  0.333333  0.750144  1
  Rh  Rh21  1  0.000000  0.000000  0.249859  1
  Rh  Rh22  1  0.000000  0.000000  0.750141  1
  Rh  Rh23  1  0.000000  0.000000  0.000000  1
