# generated using pymatgen
data_TbHoTc5(PRh)7
_symmetry_space_group_name_H-M   'P 1'
_cell_length_a   3.94178100
_cell_length_b   9.46476760
_cell_length_c   9.49086913
_cell_angle_alpha   119.61107301
_cell_angle_beta   90.00047811
_cell_angle_gamma   90.00077191
_symmetry_Int_Tables_number   1
_chemical_formula_structural   TbHoTc5(PRh)7
_chemical_formula_sum   'Tb1 Ho1 Tc5 P7 Rh7'
_cell_volume   307.84194531
_cell_formula_units_Z   1
loop_
 _symmetry_equiv_pos_site_id
 _symmetry_equiv_pos_as_xyz
  1  'x, y, z'
loop_
 _atom_site_type_symbol
 _atom_site_label
 _atom_site_symmetry_multiplicity
 _atom_site_fract_x
 _atom_site_fract_y
 _atom_site_fract_z
 _atom_site_occupancy
  Tb  Tb0  1  0.262038  0.668729  0.333407  1
  Ho  Ho1  1  0.762213  0.333473  0.666592  1
  Tc  Tc2  1  0.761853  0.093505  0.870631  1
  Tc  Tc3  1  0.761788  0.127742  0.219347  1
  Tc  Tc4  1  0.761785  0.780318  0.906865  1
  Tc  Tc5  1  0.261819  0.885901  0.160167  1
  Tc  Tc6  1  0.261911  0.840622  0.726322  1
  P  P7  1  0.261316  0.996519  0.997643  1
  P  P8  1  0.761969  0.881447  0.599311  1
  P  P9  1  0.761887  0.402345  0.286771  1
  P  P10  1  0.761778  0.718719  0.120719  1
  P  P11  1  0.262191  0.115927  0.410783  1
  P  P12  1  0.262117  0.587768  0.704155  1
  P  P13  1  0.262032  0.294604  0.881285  1
  Rh  Rh14  1  0.261786  0.272441  0.112217  1
  Rh  Rh15  1  0.761990  0.608127  0.556763  1
  Rh  Rh16  1  0.761804  0.443201  0.055200  1
  Rh  Rh17  1  0.761973  0.947520  0.392317  1
  Rh  Rh18  1  0.261947  0.368609  0.436294  1
  Rh  Rh19  1  0.261816  0.561749  0.931351  1
  Rh  Rh20  1  0.261989  0.070735  0.631864  1
