# generated using pymatgen
data_Rb5Nb2S4Br9
_symmetry_space_group_name_H-M   'P 1'
_cell_length_a   10.62235091
_cell_length_b   10.62235106
_cell_length_c   10.62235112
_cell_angle_alpha   138.22255817
_cell_angle_beta   119.15011949
_cell_angle_gamma   76.53579041
_symmetry_Int_Tables_number   1
_chemical_formula_structural   Rb5Nb2S4Br9
_chemical_formula_sum   'Rb5 Nb2 S4 Br9'
_cell_volume   679.65247703
_cell_formula_units_Z   1
loop_
 _symmetry_equiv_pos_site_id
 _symmetry_equiv_pos_as_xyz
  1  'x, y, z'
loop_
 _atom_site_type_symbol
 _atom_site_label
 _atom_site_symmetry_multiplicity
 _atom_site_fract_x
 _atom_site_fract_y
 _atom_site_fract_z
 _atom_site_occupancy
  Rb  Rb0  1  0.440658  0.663984  0.776674  1
  Rb  Rb1  1  0.887309  0.663984  0.223326  1
  Rb  Rb2  1  0.500000  0.000000  0.500000  1
  Rb  Rb3  1  0.559342  0.336016  0.223326  1
  Rb  Rb4  1  0.112691  0.336016  0.776674  1
  Nb  Nb5  1  0.087786  0.087786  0.000000  1
  Nb  Nb6  1  0.912214  0.912214  0.000000  1
  S  S7  1  0.093869  0.765543  0.859411  1
  S  S8  1  0.906131  0.765543  0.671674  1
  S  S9  1  0.906131  0.234457  0.140589  1
  S  S10  1  0.093869  0.234457  0.328326  1
  Br  Br11  1  0.207208  0.451116  0.243909  1
  Br  Br12  1  0.124292  0.870424  0.253868  1
  Br  Br13  1  0.383445  0.129576  0.253868  1
  Br  Br14  1  0.207208  0.963299  0.756091  1
  Br  Br15  1  0.792792  0.036701  0.243909  1
  Br  Br16  1  0.616555  0.870424  0.746132  1
  Br  Br17  1  0.792792  0.548884  0.756091  1
  Br  Br18  1  0.500000  0.500000  0.000000  1
  Br  Br19  1  0.875708  0.129576  0.746132  1
