# generated using pymatgen
data_Ti8MoSe2
_symmetry_space_group_name_H-M   'P 1'
_cell_length_a   3.39659200
_cell_length_b   6.97826300
_cell_length_c   15.28968700
_cell_angle_alpha   90.00000000
_cell_angle_beta   90.00000000
_cell_angle_gamma   90.00000000
_symmetry_Int_Tables_number   1
_chemical_formula_structural   Ti8MoSe2
_chemical_formula_sum   'Ti16 Mo2 Se4'
_cell_volume   362.40093593
_cell_formula_units_Z   2
loop_
 _symmetry_equiv_pos_site_id
 _symmetry_equiv_pos_as_xyz
  1  'x, y, z'
loop_
 _atom_site_type_symbol
 _atom_site_label
 _atom_site_symmetry_multiplicity
 _atom_site_fract_x
 _atom_site_fract_y
 _atom_site_fract_z
 _atom_site_occupancy
  Ti  Ti0  1  0.000000  0.709726  0.708935  1
  Ti  Ti1  1  0.500000  0.389691  0.635268  1
  Ti  Ti2  1  0.000000  0.598467  0.921971  1
  Ti  Ti3  1  0.000000  0.790274  0.208935  1
  Ti  Ti4  1  0.500000  0.271766  0.947931  1
  Ti  Ti5  1  0.500000  0.728234  0.052069  1
  Ti  Ti6  1  0.000000  0.098467  0.578029  1
  Ti  Ti7  1  0.000000  0.901533  0.421971  1
  Ti  Ti8  1  0.500000  0.228234  0.447931  1
  Ti  Ti9  1  0.000000  0.401533  0.078029  1
  Ti  Ti10  1  0.500000  0.610309  0.364732  1
  Ti  Ti11  1  0.000000  0.209726  0.791065  1
  Ti  Ti12  1  0.500000  0.889691  0.864732  1
  Ti  Ti13  1  0.000000  0.290274  0.291065  1
  Ti  Ti14  1  0.500000  0.110309  0.135268  1
  Ti  Ti15  1  0.500000  0.771766  0.552069  1
  Mo  Mo16  1  0.000000  0.000000  0.000000  1
  Mo  Mo17  1  0.000000  0.500000  0.500000  1
  Se  Se18  1  0.500000  0.504310  0.801786  1
  Se  Se19  1  0.500000  0.495690  0.198214  1
  Se  Se20  1  0.500000  0.004310  0.698214  1
  Se  Se21  1  0.500000  0.995690  0.301786  1
