# generated using pymatgen
data_TaTi3B4(PRu5)2
_symmetry_space_group_name_H-M   'P 1'
_cell_length_a   9.16848592
_cell_length_b   9.16848592
_cell_length_c   2.95420300
_cell_angle_alpha   90.00000000
_cell_angle_beta   90.00000000
_cell_angle_gamma   89.90852408
_symmetry_Int_Tables_number   1
_chemical_formula_structural   TaTi3B4(PRu5)2
_chemical_formula_sum   'Ta1 Ti3 B4 P2 Ru10'
_cell_volume   248.33333801
_cell_formula_units_Z   1
loop_
 _symmetry_equiv_pos_site_id
 _symmetry_equiv_pos_as_xyz
  1  'x, y, z'
loop_
 _atom_site_type_symbol
 _atom_site_label
 _atom_site_symmetry_multiplicity
 _atom_site_fract_x
 _atom_site_fract_y
 _atom_site_fract_z
 _atom_site_occupancy
  Ta  Ta0  1  0.674235  0.174235  0.000000  1
  Ti  Ti1  1  0.825768  0.675145  0.000000  1
  Ti  Ti2  1  0.175145  0.325768  0.000000  1
  Ti  Ti3  1  0.323352  0.823352  0.000000  1
  B  B4  1  0.625666  0.873747  0.000000  1
  B  B5  1  0.373747  0.125666  0.000000  1
  B  B6  1  0.125536  0.625536  0.000000  1
  B  B7  1  0.875378  0.375378  0.000000  1
  P  P8  1  0.499516  0.501936  0.000000  1
  P  P9  1  0.001936  0.999516  0.000000  1
  Ru  Ru10  1  0.570466  0.707367  0.500000  1
  Ru  Ru11  1  0.431631  0.292100  0.500000  1
  Ru  Ru12  1  0.069061  0.792261  0.500000  1
  Ru  Ru13  1  0.932197  0.208191  0.500000  1
  Ru  Ru14  1  0.292261  0.569061  0.500000  1
  Ru  Ru15  1  0.708191  0.432197  0.500000  1
  Ru  Ru16  1  0.207367  0.070466  0.500000  1
  Ru  Ru17  1  0.792100  0.931631  0.500000  1
  Ru  Ru18  1  0.495967  0.995967  0.500000  1
  Ru  Ru19  1  0.000480  0.500480  0.500000  1
