# generated using pymatgen
data_La3Pt2Cl
_symmetry_space_group_name_H-M   'P 1'
_cell_length_a   7.36826100
_cell_length_b   7.36826041
_cell_length_c   7.36826100
_cell_angle_alpha   146.60048789
_cell_angle_beta   132.14800359
_cell_angle_gamma   59.60885276
_symmetry_Int_Tables_number   1
_chemical_formula_structural   La3Pt2Cl
_chemical_formula_sum   'La3 Pt2 Cl1'
_cell_volume   161.81183662
_cell_formula_units_Z   1
loop_
 _symmetry_equiv_pos_site_id
 _symmetry_equiv_pos_as_xyz
  1  'x, y, z'
loop_
 _atom_site_type_symbol
 _atom_site_label
 _atom_site_symmetry_multiplicity
 _atom_site_fract_x
 _atom_site_fract_y
 _atom_site_fract_z
 _atom_site_occupancy
  La  La0  1  0.500000  0.000000  0.500000  1
  La  La1  1  0.183549  0.683549  0.500000  1
  La  La2  1  0.816451  0.316451  0.500000  1
  Pt  Pt3  1  0.658599  0.658599  0.000000  1
  Pt  Pt4  1  0.341401  0.341401  0.000000  1
  Cl  Cl5  1  0.000000  0.000000  0.000000  1
