# generated using pymatgen
data_Sc5Mn(Co3P2)6
_symmetry_space_group_name_H-M   'P 1'
_cell_length_a   11.84768838
_cell_length_b   11.84768774
_cell_length_c   3.58683700
_cell_angle_alpha   90.00000000
_cell_angle_beta   90.00000000
_cell_angle_gamma   119.83003525
_symmetry_Int_Tables_number   1
_chemical_formula_structural   Sc5Mn(Co3P2)6
_chemical_formula_sum   'Sc5 Mn1 Co18 P12'
_cell_volume   436.76794399
_cell_formula_units_Z   1
loop_
 _symmetry_equiv_pos_site_id
 _symmetry_equiv_pos_as_xyz
  1  'x, y, z'
loop_
 _atom_site_type_symbol
 _atom_site_label
 _atom_site_symmetry_multiplicity
 _atom_site_fract_x
 _atom_site_fract_y
 _atom_site_fract_z
 _atom_site_occupancy
  Sc  Sc0  1  0.666324  0.333954  0.000000  1
  Sc  Sc1  1  0.333954  0.666324  0.000000  1
  Sc  Sc2  1  0.184460  0.184460  0.500000  1
  Sc  Sc3  1  0.813141  0.998919  0.500000  1
  Sc  Sc4  1  0.998919  0.813141  0.500000  1
  Mn  Mn5  1  0.554776  0.554776  0.000000  1
  Co  Co6  1  0.449524  0.000236  0.000000  1
  Co  Co7  1  0.000236  0.449524  0.000000  1
  Co  Co8  1  0.821823  0.198769  0.000000  1
  Co  Co9  1  0.803999  0.624513  0.000000  1
  Co  Co10  1  0.374968  0.176655  0.000000  1
  Co  Co11  1  0.198769  0.821823  0.000000  1
  Co  Co12  1  0.624513  0.803999  0.000000  1
  Co  Co13  1  0.176655  0.374968  0.000000  1
  Co  Co14  1  0.643617  0.127324  0.500000  1
  Co  Co15  1  0.873633  0.516392  0.500000  1
  Co  Co16  1  0.482699  0.355228  0.500000  1
  Co  Co17  1  0.127324  0.643617  0.500000  1
  Co  Co18  1  0.516392  0.873633  0.500000  1
  Co  Co19  1  0.355228  0.482699  0.500000  1
  Co  Co20  1  0.717441  0.717441  0.500000  1
  Co  Co21  1  0.284067  0.999336  0.500000  1
  Co  Co22  1  0.999336  0.284067  0.500000  1
  Co  Co23  1  0.000786  0.000786  0.000000  1
  P  P24  1  0.359535  0.359535  0.000000  1
  P  P25  1  0.637689  0.001200  0.000000  1
  P  P26  1  0.001200  0.637689  0.000000  1
  P  P27  1  0.832295  0.316335  0.500000  1
  P  P28  1  0.684506  0.516642  0.500000  1
  P  P29  1  0.482912  0.166656  0.500000  1
  P  P30  1  0.316335  0.832295  0.500000  1
  P  P31  1  0.516642  0.684506  0.500000  1
  P  P32  1  0.166656  0.482912  0.500000  1
  P  P33  1  0.822907  0.822907  0.000000  1
  P  P34  1  0.177653  0.999086  0.000000  1
  P  P35  1  0.999086  0.177653  0.000000  1
