# generated using pymatgen
data_Tb5Er(Si3Os)8
_symmetry_space_group_name_H-M   'P 1'
_cell_length_a   10.12602876
_cell_length_b   10.12602894
_cell_length_c   8.17275021
_cell_angle_alpha   89.97899231
_cell_angle_beta   89.97899044
_cell_angle_gamma   132.46348083
_symmetry_Int_Tables_number   1
_chemical_formula_structural   Tb5Er(Si3Os)8
_chemical_formula_sum   'Tb5 Er1 Si24 Os8'
_cell_volume   618.20247440
_cell_formula_units_Z   1
loop_
 _symmetry_equiv_pos_site_id
 _symmetry_equiv_pos_as_xyz
  1  'x, y, z'
loop_
 _atom_site_type_symbol
 _atom_site_label
 _atom_site_symmetry_multiplicity
 _atom_site_fract_x
 _atom_site_fract_y
 _atom_site_fract_z
 _atom_site_occupancy
  Tb  Tb0  1  0.498194  0.998059  0.249663  1
  Tb  Tb1  1  0.001941  0.501806  0.750337  1
  Tb  Tb2  1  0.501806  0.001941  0.750337  1
  Tb  Tb3  1  0.998059  0.498194  0.249663  1
  Tb  Tb4  1  0.500000  0.500000  0.500000  1
  Er  Er5  1  0.000000  0.000000  0.000000  1
  Si  Si6  1  0.388819  0.155073  0.004618  1
  Si  Si7  1  0.654882  0.888556  0.495233  1
  Si  Si8  1  0.111444  0.345118  0.504767  1
  Si  Si9  1  0.844927  0.611181  0.995382  1
  Si  Si10  1  0.611181  0.844927  0.995382  1
  Si  Si11  1  0.345118  0.111444  0.504767  1
  Si  Si12  1  0.888556  0.654882  0.495233  1
  Si  Si13  1  0.155073  0.388819  0.004618  1
  Si  Si14  1  0.613585  0.378944  0.227806  1
  Si  Si15  1  0.878248  0.112496  0.271617  1
  Si  Si16  1  0.887504  0.121752  0.728383  1
  Si  Si17  1  0.621056  0.386415  0.772194  1
  Si  Si18  1  0.386415  0.621056  0.772194  1
  Si  Si19  1  0.121752  0.887504  0.728383  1
  Si  Si20  1  0.704898  0.295102  0.000000  1
  Si  Si21  1  0.795364  0.204636  0.500000  1
  Si  Si22  1  0.295102  0.704898  0.000000  1
  Si  Si23  1  0.204636  0.795364  0.500000  1
  Si  Si24  1  0.167914  0.167914  0.333050  1
  Si  Si25  1  0.667607  0.667607  0.166984  1
  Si  Si26  1  0.332393  0.332393  0.833016  1
  Si  Si27  1  0.832086  0.832086  0.666950  1
  Si  Si28  1  0.378944  0.613585  0.227806  1
  Si  Si29  1  0.112496  0.878248  0.271617  1
  Os  Os30  1  0.627242  0.627242  0.873345  1
  Os  Os31  1  0.125971  0.125971  0.628547  1
  Os  Os32  1  0.874029  0.874029  0.371453  1
  Os  Os33  1  0.372758  0.372758  0.126655  1
  Os  Os34  1  0.330796  0.669204  0.500000  1
  Os  Os35  1  0.168360  0.831640  0.000000  1
  Os  Os36  1  0.669204  0.330796  0.500000  1
  Os  Os37  1  0.831640  0.168360  0.000000  1
