# generated using pymatgen
data_Rb8La3NdF20
_symmetry_space_group_name_H-M   'P 1'
_cell_length_a   7.04742393
_cell_length_b   7.84859501
_cell_length_c   11.62198818
_cell_angle_alpha   89.99543623
_cell_angle_beta   90.08472671
_cell_angle_gamma   90.00321664
_symmetry_Int_Tables_number   1
_chemical_formula_structural   Rb8La3NdF20
_chemical_formula_sum   'Rb8 La3 Nd1 F20'
_cell_volume   642.83907774
_cell_formula_units_Z   1
loop_
 _symmetry_equiv_pos_site_id
 _symmetry_equiv_pos_as_xyz
  1  'x, y, z'
loop_
 _atom_site_type_symbol
 _atom_site_label
 _atom_site_symmetry_multiplicity
 _atom_site_fract_x
 _atom_site_fract_y
 _atom_site_fract_z
 _atom_site_occupancy
  Rb  Rb0  1  0.530987  0.022900  0.172159  1
  Rb  Rb1  1  0.469082  0.520912  0.828003  1
  Rb  Rb2  1  0.968832  0.023749  0.670342  1
  Rb  Rb3  1  0.031246  0.520342  0.329525  1
  Rb  Rb4  1  0.031389  0.017487  0.329547  1
  Rb  Rb5  1  0.968815  0.514204  0.670387  1
  Rb  Rb6  1  0.469033  0.017142  0.827908  1
  Rb  Rb7  1  0.531100  0.514952  0.172126  1
  La  La8  1  0.560168  0.768196  0.498125  1
  La  La9  1  0.061695  0.268297  0.002183  1
  La  La10  1  0.938134  0.768299  0.997887  1
  Nd  Nd11  1  0.438963  0.268111  0.501657  1
  F  F12  1  0.145701  0.986510  0.076928  1
  F  F13  1  0.854156  0.486400  0.923053  1
  F  F14  1  0.355863  0.990905  0.575007  1
  F  F15  1  0.643345  0.482311  0.425167  1
  F  F16  1  0.393506  0.269524  0.011722  1
  F  F17  1  0.606707  0.769536  0.988433  1
  F  F18  1  0.112377  0.269534  0.512439  1
  F  F19  1  0.890739  0.769396  0.487708  1
  F  F20  1  0.143607  0.549771  0.078300  1
  F  F21  1  0.856245  0.049953  0.921679  1
  F  F22  1  0.357949  0.545012  0.576590  1
  F  F23  1  0.641401  0.053575  0.423780  1
  F  F24  1  0.341178  0.268619  0.310223  1
  F  F25  1  0.660036  0.768709  0.691143  1
  F  F26  1  0.160831  0.268679  0.808819  1
  F  F27  1  0.838596  0.768665  0.191736  1
  F  F28  1  0.368345  0.766605  0.333681  1
  F  F29  1  0.629681  0.266570  0.663958  1
  F  F30  1  0.131644  0.766552  0.833386  1
  F  F31  1  0.868650  0.266591  0.166395  1
