# generated using pymatgen
data_Gd3Th(Ta3Si4)2
_symmetry_space_group_name_H-M   'P 1'
_cell_length_a   7.09410500
_cell_length_b   7.09311808
_cell_length_c   13.14317400
_cell_angle_alpha   90.00000000
_cell_angle_beta   90.00000000
_cell_angle_gamma   90.12572884
_symmetry_Int_Tables_number   1
_chemical_formula_structural   Gd3Th(Ta3Si4)2
_chemical_formula_sum   'Gd6 Th2 Ta12 Si16'
_cell_volume   661.35404411
_cell_formula_units_Z   2
loop_
 _symmetry_equiv_pos_site_id
 _symmetry_equiv_pos_as_xyz
  1  'x, y, z'
loop_
 _atom_site_type_symbol
 _atom_site_label
 _atom_site_symmetry_multiplicity
 _atom_site_fract_x
 _atom_site_fract_y
 _atom_site_fract_z
 _atom_site_occupancy
  Gd  Gd0  1  0.998276  0.339567  0.217857  1
  Gd  Gd1  1  0.001724  0.660433  0.717857  1
  Gd  Gd2  1  0.161289  0.499123  0.468842  1
  Gd  Gd3  1  0.500339  0.839119  0.031395  1
  Gd  Gd4  1  0.838711  0.500877  0.968842  1
  Gd  Gd5  1  0.499661  0.160881  0.531395  1
  Th  Th6  1  0.337408  0.994932  0.781148  1
  Th  Th7  1  0.662592  0.005068  0.281148  1
  Ta  Ta8  1  0.169790  0.170387  0.999218  1
  Ta  Ta9  1  0.830210  0.829613  0.499218  1
  Ta  Ta10  1  0.330819  0.672028  0.250485  1
  Ta  Ta11  1  0.669181  0.327972  0.750485  1
  Ta  Ta12  1  0.153932  0.992061  0.375573  1
  Ta  Ta13  1  0.846068  0.007939  0.875573  1
  Ta  Ta14  1  0.509114  0.654332  0.625623  1
  Ta  Ta15  1  0.345338  0.493603  0.874734  1
  Ta  Ta16  1  0.490886  0.345668  0.125623  1
  Ta  Ta17  1  0.654662  0.506397  0.374734  1
  Ta  Ta18  1  0.995507  0.155141  0.624773  1
  Ta  Ta19  1  0.004493  0.844859  0.124773  1
  Si  Si20  1  0.288302  0.043962  0.184288  1
  Si  Si21  1  0.711698  0.956038  0.684288  1
  Si  Si22  1  0.455052  0.791254  0.437772  1
  Si  Si23  1  0.205652  0.542768  0.064129  1
  Si  Si24  1  0.544948  0.208746  0.937772  1
  Si  Si25  1  0.794348  0.457232  0.564129  1
  Si  Si26  1  0.040981  0.298161  0.814085  1
  Si  Si27  1  0.959019  0.701839  0.314085  1
  Si  Si28  1  0.363890  0.299329  0.316752  1
  Si  Si29  1  0.636110  0.700671  0.816752  1
  Si  Si30  1  0.202024  0.867725  0.565546  1
  Si  Si31  1  0.127395  0.793281  0.935785  1
  Si  Si32  1  0.797976  0.132275  0.065546  1
  Si  Si33  1  0.872605  0.206719  0.435785  1
  Si  Si34  1  0.295956  0.372614  0.681995  1
  Si  Si35  1  0.704044  0.627386  0.181995  1
