# generated using pymatgen
data_Np8CoSe17
_symmetry_space_group_name_H-M   'P 1'
_cell_length_a   8.13895253
_cell_length_b   8.14669497
_cell_length_c   10.80603696
_cell_angle_alpha   80.28618203
_cell_angle_beta   80.32058082
_cell_angle_gamma   65.17091339
_symmetry_Int_Tables_number   1
_chemical_formula_structural   Np8CoSe17
_chemical_formula_sum   'Np8 Co1 Se17'
_cell_volume   637.14566258
_cell_formula_units_Z   1
loop_
 _symmetry_equiv_pos_site_id
 _symmetry_equiv_pos_as_xyz
  1  'x, y, z'
loop_
 _atom_site_type_symbol
 _atom_site_label
 _atom_site_symmetry_multiplicity
 _atom_site_fract_x
 _atom_site_fract_y
 _atom_site_fract_z
 _atom_site_occupancy
  Np  Np0  1  0.180715  0.696072  0.702943  1
  Np  Np1  1  0.696222  0.180518  0.702670  1
  Np  Np2  1  0.819285  0.303928  0.297057  1
  Np  Np3  1  0.303778  0.819482  0.297330  1
  Np  Np4  1  0.203491  0.203320  0.546505  1
  Np  Np5  1  0.796509  0.796680  0.453495  1
  Np  Np6  1  0.680619  0.680399  0.981936  1
  Np  Np7  1  0.319381  0.319601  0.018064  1
  Co  Co8  1  0.000000  0.000000  0.000000  1
  Se  Se9  1  0.821016  0.433324  0.536741  1
  Se  Se10  1  0.433337  0.821015  0.536676  1
  Se  Se11  1  0.178984  0.566676  0.463259  1
  Se  Se12  1  0.566663  0.178985  0.463324  1
  Se  Se13  1  0.052533  0.684229  0.975534  1
  Se  Se14  1  0.684182  0.051869  0.975083  1
  Se  Se15  1  0.947467  0.315771  0.024466  1
  Se  Se16  1  0.315818  0.948131  0.024917  1
  Se  Se17  1  0.051840  0.051614  0.778282  1
  Se  Se18  1  0.948160  0.948386  0.221718  1
  Se  Se19  1  0.214027  0.214660  0.279299  1
  Se  Se20  1  0.785973  0.785340  0.720701  1
  Se  Se21  1  0.299330  0.299004  0.757409  1
  Se  Se22  1  0.700670  0.700996  0.242591  1
  Se  Se23  1  0.521489  0.521533  0.828836  1
  Se  Se24  1  0.478511  0.478467  0.171164  1
  Se  Se25  1  0.000000  0.000000  0.500000  1
