# generated using pymatgen
data_Tb2ZnNiRu
_symmetry_space_group_name_H-M   'P 1'
_cell_length_a   5.43002749
_cell_length_b   5.43002768
_cell_length_c   5.43002805
_cell_angle_alpha   135.19043564
_cell_angle_beta   117.20560840
_cell_angle_gamma   80.40759026
_symmetry_Int_Tables_number   1
_chemical_formula_structural   Tb2ZnNiRu
_chemical_formula_sum   'Tb2 Zn1 Ni1 Ru1'
_cell_volume   97.12326474
_cell_formula_units_Z   1
loop_
 _symmetry_equiv_pos_site_id
 _symmetry_equiv_pos_as_xyz
  1  'x, y, z'
loop_
 _atom_site_type_symbol
 _atom_site_label
 _atom_site_symmetry_multiplicity
 _atom_site_fract_x
 _atom_site_fract_y
 _atom_site_fract_z
 _atom_site_occupancy
  Tb  Tb0  1  0.699560  0.205015  0.494545  1
  Tb  Tb1  1  0.289530  0.794985  0.494545  1
  Zn  Zn2  1  0.996128  0.000000  0.996128  1
  Ni  Ni3  1  0.733763  0.500000  0.233763  1
  Ru  Ru4  1  0.281019  0.500000  0.781019  1
