# generated using pymatgen
data_Tb3SmAl18CuRh5
_symmetry_space_group_name_H-M   'P 1'
_cell_length_a   7.58666527
_cell_length_b   7.58837107
_cell_length_c   9.48649546
_cell_angle_alpha   90.05152057
_cell_angle_beta   90.07254148
_cell_angle_gamma   119.57096119
_symmetry_Int_Tables_number   1
_chemical_formula_structural   Tb3SmAl18CuRh5
_chemical_formula_sum   'Tb3 Sm1 Al18 Cu1 Rh5'
_cell_volume   475.00293275
_cell_formula_units_Z   1
loop_
 _symmetry_equiv_pos_site_id
 _symmetry_equiv_pos_as_xyz
  1  'x, y, z'
loop_
 _atom_site_type_symbol
 _atom_site_label
 _atom_site_symmetry_multiplicity
 _atom_site_fract_x
 _atom_site_fract_y
 _atom_site_fract_z
 _atom_site_occupancy
  Tb  Tb0  1  0.005098  0.328023  0.750377  1
  Tb  Tb1  1  0.671794  0.994916  0.249615  1
  Tb  Tb2  1  0.328183  0.005175  0.750370  1
  Sm  Sm3  1  0.994790  0.671858  0.249410  1
  Al  Al4  1  0.129540  0.130180  0.251651  1
  Al  Al5  1  0.870701  0.870925  0.748456  1
  Al  Al6  1  0.000944  0.337459  0.076110  1
  Al  Al7  1  0.999055  0.661660  0.922384  1
  Al  Al8  1  0.999902  0.665270  0.574932  1
  Al  Al9  1  0.335482  0.000843  0.426479  1
  Al  Al10  1  0.000097  0.334052  0.426475  1
  Al  Al11  1  0.665291  0.999959  0.574219  1
  Al  Al12  1  0.661841  0.999141  0.923161  1
  Al  Al13  1  0.339091  0.001657  0.076226  1
  Al  Al14  1  0.333122  0.333182  0.550390  1
  Al  Al15  1  0.666245  0.666842  0.450578  1
  Al  Al16  1  0.663249  0.663886  0.050739  1
  Al  Al17  1  0.336021  0.336040  0.948296  1
  Al  Al18  1  0.339994  0.549257  0.250360  1
  Al  Al19  1  0.660562  0.450486  0.749640  1
  Al  Al20  1  0.548369  0.338439  0.250330  1
  Al  Al21  1  0.450589  0.660731  0.749670  1
  Cu  Cu22  1  0.000014  0.000143  0.999869  1
  Rh  Rh23  1  0.671632  0.327879  0.999630  1
  Rh  Rh24  1  0.328326  0.671885  0.999670  1
  Rh  Rh25  1  0.328281  0.671890  0.500317  1
  Rh  Rh26  1  0.671681  0.327911  0.500336  1
  Rh  Rh27  1  0.000104  0.000310  0.500309  1
