# generated using pymatgen
data_TbDy4PPb3
_symmetry_space_group_name_H-M   'P 1'
_cell_length_a   9.17261212
_cell_length_b   9.17008663
_cell_length_c   6.79312700
_cell_angle_alpha   90.00000000
_cell_angle_beta   90.00000000
_cell_angle_gamma   119.99090492
_symmetry_Int_Tables_number   1
_chemical_formula_structural   TbDy4PPb3
_chemical_formula_sum   'Tb2 Dy8 P2 Pb6'
_cell_volume   494.88766330
_cell_formula_units_Z   2
loop_
 _symmetry_equiv_pos_site_id
 _symmetry_equiv_pos_as_xyz
  1  'x, y, z'
loop_
 _atom_site_type_symbol
 _atom_site_label
 _atom_site_symmetry_multiplicity
 _atom_site_fract_x
 _atom_site_fract_y
 _atom_site_fract_z
 _atom_site_occupancy
  Tb  Tb0  1  0.762326  0.762156  0.750000  1
  Tb  Tb1  1  0.237674  0.999830  0.750000  1
  Dy  Dy2  1  0.000000  0.237152  0.750000  1
  Dy  Dy3  1  0.237173  0.237331  0.250000  1
  Dy  Dy4  1  0.762827  0.000158  0.250000  1
  Dy  Dy5  1  0.000000  0.763065  0.250000  1
  Dy  Dy6  1  0.666869  0.333391  0.000104  1
  Dy  Dy7  1  0.333131  0.666524  0.000104  1
  Dy  Dy8  1  0.333131  0.666524  0.499896  1
  Dy  Dy9  1  0.666869  0.333391  0.499896  1
  P  P10  1  0.000000  0.000491  0.000693  1
  P  P11  1  0.000000  0.000491  0.499307  1
  Pb  Pb12  1  0.400191  0.400398  0.750000  1
  Pb  Pb13  1  0.599809  0.000207  0.750000  1
  Pb  Pb14  1  0.000000  0.599018  0.750000  1
  Pb  Pb15  1  0.599879  0.599790  0.250000  1
  Pb  Pb16  1  0.400121  0.999911  0.250000  1
  Pb  Pb17  1  0.000000  0.400173  0.250000  1
