# generated using pymatgen
data_Tb4Pr16Ir7Rh5
_symmetry_space_group_name_H-M   'P 1'
_cell_length_a   11.24454727
_cell_length_b   11.24454727
_cell_length_c   6.62141432
_cell_angle_alpha   90.02519305
_cell_angle_beta   90.02519305
_cell_angle_gamma   89.99764314
_symmetry_Int_Tables_number   1
_chemical_formula_structural   Tb4Pr16Ir7Rh5
_chemical_formula_sum   'Tb4 Pr16 Ir7 Rh5'
_cell_volume   837.21042714
_cell_formula_units_Z   1
loop_
 _symmetry_equiv_pos_site_id
 _symmetry_equiv_pos_as_xyz
  1  'x, y, z'
loop_
 _atom_site_type_symbol
 _atom_site_label
 _atom_site_symmetry_multiplicity
 _atom_site_fract_x
 _atom_site_fract_y
 _atom_site_fract_z
 _atom_site_occupancy
  Tb  Tb0  1  0.999988  0.999652  0.499863  1
  Tb  Tb1  1  0.000348  0.000012  0.000137  1
  Tb  Tb2  1  0.499816  0.499879  0.999612  1
  Tb  Tb3  1  0.500121  0.500184  0.500388  1
  Pr  Pr4  1  0.288761  0.088583  0.384515  1
  Pr  Pr5  1  0.289421  0.911339  0.884178  1
  Pr  Pr6  1  0.710316  0.088153  0.883517  1
  Pr  Pr7  1  0.710357  0.909801  0.384683  1
  Pr  Pr8  1  0.588545  0.788621  0.884825  1
  Pr  Pr9  1  0.587141  0.211442  0.384370  1
  Pr  Pr10  1  0.410988  0.788890  0.384658  1
  Pr  Pr11  1  0.411216  0.211119  0.884480  1
  Pr  Pr12  1  0.211379  0.411455  0.615175  1
  Pr  Pr13  1  0.211110  0.589012  0.115342  1
  Pr  Pr14  1  0.788558  0.412859  0.115630  1
  Pr  Pr15  1  0.788881  0.588784  0.615520  1
  Pr  Pr16  1  0.911417  0.711239  0.115485  1
  Pr  Pr17  1  0.911847  0.289684  0.616483  1
  Pr  Pr18  1  0.088661  0.710579  0.615822  1
  Pr  Pr19  1  0.090199  0.289643  0.115317  1
  Ir  Ir20  1  0.851024  0.851625  0.750106  1
  Ir  Ir21  1  0.148375  0.148976  0.749894  1
  Ir  Ir22  1  0.149122  0.850878  0.250000  1
  Ir  Ir23  1  0.649522  0.350478  0.750000  1
  Ir  Ir24  1  0.649287  0.649011  0.249938  1
  Ir  Ir25  1  0.350989  0.350713  0.250062  1
  Ir  Ir26  1  0.350823  0.649177  0.750000  1
  Rh  Rh27  1  0.851158  0.148842  0.250000  1
  Rh  Rh28  1  0.500957  0.000382  0.118642  1
  Rh  Rh29  1  0.500299  0.000244  0.617814  1
  Rh  Rh30  1  0.999756  0.499701  0.882186  1
  Rh  Rh31  1  0.999618  0.499043  0.381358  1
