# generated using pymatgen
data_Lu2Mn3P7(Ir2W)3
_symmetry_space_group_name_H-M   'P 1'
_cell_length_a   9.42380450
_cell_length_b   9.42246532
_cell_length_c   3.86943400
_cell_angle_alpha   90.00000000
_cell_angle_beta   90.00000000
_cell_angle_gamma   120.00089475
_symmetry_Int_Tables_number   1
_chemical_formula_structural   Lu2Mn3P7(Ir2W)3
_chemical_formula_sum   'Lu2 Mn3 P7 Ir6 W3'
_cell_volume   297.55343956
_cell_formula_units_Z   1
loop_
 _symmetry_equiv_pos_site_id
 _symmetry_equiv_pos_as_xyz
  1  'x, y, z'
loop_
 _atom_site_type_symbol
 _atom_site_label
 _atom_site_symmetry_multiplicity
 _atom_site_fract_x
 _atom_site_fract_y
 _atom_site_fract_z
 _atom_site_occupancy
  Lu  Lu0  1  0.666644  0.333319  0.000000  1
  Lu  Lu1  1  0.999941  0.999895  0.500000  1
  Mn  Mn2  1  0.492559  0.936471  0.000000  1
  Mn  Mn3  1  0.063846  0.556291  0.000000  1
  Mn  Mn4  1  0.443632  0.507534  0.000000  1
  P  P5  1  0.455412  0.065467  0.500000  1
  P  P6  1  0.934699  0.389928  0.500000  1
  P  P7  1  0.610104  0.544722  0.500000  1
  P  P8  1  0.741402  0.964868  0.000000  1
  P  P9  1  0.034988  0.776434  0.000000  1
  P  P10  1  0.223441  0.258516  0.000000  1
  P  P11  1  0.333372  0.666825  0.000000  1
  Ir  Ir12  1  0.767739  0.737973  0.000000  1
  Ir  Ir13  1  0.261743  0.029702  0.000000  1
  Ir  Ir14  1  0.970261  0.232082  0.000000  1
  Ir  Ir15  1  0.720892  0.115005  0.500000  1
  Ir  Ir16  1  0.885039  0.605780  0.500000  1
  Ir  Ir17  1  0.394239  0.279198  0.500000  1
  W  W18  1  0.543455  0.762239  0.500000  1
  W  W19  1  0.237799  0.781256  0.500000  1
  W  W20  1  0.218790  0.456499  0.500000  1
