# generated using pymatgen
data_Na2NdGa8Ag3
_symmetry_space_group_name_H-M   'P 1'
_cell_length_a   4.41068201
_cell_length_b   8.33150126
_cell_length_c   8.33150039
_cell_angle_alpha   73.80354884
_cell_angle_beta   74.65092399
_cell_angle_gamma   74.65092534
_symmetry_Int_Tables_number   1
_chemical_formula_structural   Na2NdGa8Ag3
_chemical_formula_sum   'Na2 Nd1 Ga8 Ag3'
_cell_volume   277.43692148
_cell_formula_units_Z   1
loop_
 _symmetry_equiv_pos_site_id
 _symmetry_equiv_pos_as_xyz
  1  'x, y, z'
loop_
 _atom_site_type_symbol
 _atom_site_label
 _atom_site_symmetry_multiplicity
 _atom_site_fract_x
 _atom_site_fract_y
 _atom_site_fract_z
 _atom_site_occupancy
  Na  Na0  1  0.306702  0.693298  0.693298  1
  Na  Na1  1  0.693298  0.306702  0.306702  1
  Nd  Nd2  1  0.000000  0.000000  0.000000  1
  Ga  Ga3  1  0.336160  0.291251  0.036430  1
  Ga  Ga4  1  0.663840  0.708749  0.963570  1
  Ga  Ga5  1  0.336160  0.036430  0.291251  1
  Ga  Ga6  1  0.663840  0.963570  0.708749  1
  Ga  Ga7  1  0.140495  0.584840  0.134171  1
  Ga  Ga8  1  0.859505  0.415160  0.865829  1
  Ga  Ga9  1  0.140495  0.134171  0.584840  1
  Ga  Ga10  1  0.859505  0.865829  0.415160  1
  Ag  Ag11  1  0.500000  0.301391  0.698609  1
  Ag  Ag12  1  0.500000  0.698609  0.301391  1
  Ag  Ag13  1  0.000000  0.500000  0.500000  1
