# generated using pymatgen
data_TbAlFe3B
_symmetry_space_group_name_H-M   'P 1'
_cell_length_a   5.19832500
_cell_length_b   5.19806118
_cell_length_c   6.86040900
_cell_angle_alpha   90.00000000
_cell_angle_beta   90.00000000
_cell_angle_gamma   120.00169805
_symmetry_Int_Tables_number   1
_chemical_formula_structural   TbAlFe3B
_chemical_formula_sum   'Tb2 Al2 Fe6 B2'
_cell_volume   160.53806458
_cell_formula_units_Z   2
loop_
 _symmetry_equiv_pos_site_id
 _symmetry_equiv_pos_as_xyz
  1  'x, y, z'
loop_
 _atom_site_type_symbol
 _atom_site_label
 _atom_site_symmetry_multiplicity
 _atom_site_fract_x
 _atom_site_fract_y
 _atom_site_fract_z
 _atom_site_occupancy
  Tb  Tb0  1  0.999978  0.000000  0.000000  1
  Tb  Tb1  1  0.999989  0.000000  0.500000  1
  Al  Al2  1  0.333310  0.666670  0.000000  1
  Al  Al3  1  0.666642  0.333330  0.000000  1
  Fe  Fe4  1  0.499986  0.000000  0.295369  1
  Fe  Fe5  1  0.499985  0.500000  0.295392  1
  Fe  Fe6  1  0.999985  0.500000  0.295392  1
  Fe  Fe7  1  0.499986  0.000000  0.704631  1
  Fe  Fe8  1  0.499985  0.500000  0.704608  1
  Fe  Fe9  1  0.999985  0.500000  0.704608  1
  B  B10  1  0.333326  0.666683  0.500000  1
  B  B11  1  0.666643  0.333317  0.500000  1
