# generated using pymatgen
data_GdY3(As4O9)2
_symmetry_space_group_name_H-M   'P 1'
_cell_length_a   6.78630506
_cell_length_b   7.58146633
_cell_length_c   9.85544266
_cell_angle_alpha   94.91164915
_cell_angle_beta   104.14105655
_cell_angle_gamma   104.76173748
_symmetry_Int_Tables_number   1
_chemical_formula_structural   GdY3(As4O9)2
_chemical_formula_sum   'Gd1 Y3 As8 O18'
_cell_volume   469.52018795
_cell_formula_units_Z   1
loop_
 _symmetry_equiv_pos_site_id
 _symmetry_equiv_pos_as_xyz
  1  'x, y, z'
loop_
 _atom_site_type_symbol
 _atom_site_label
 _atom_site_symmetry_multiplicity
 _atom_site_fract_x
 _atom_site_fract_y
 _atom_site_fract_z
 _atom_site_occupancy
  Gd  Gd0  1  0.243899  0.939793  0.615447  1
  Y  Y1  1  0.755855  0.061013  0.383980  1
  Y  Y2  1  0.720018  0.530195  0.408480  1
  Y  Y3  1  0.279476  0.469229  0.591019  1
  As  As4  1  0.681223  0.775736  0.077976  1
  As  As5  1  0.319079  0.225430  0.923466  1
  As  As6  1  0.172453  0.752677  0.913521  1
  As  As7  1  0.827173  0.246750  0.086927  1
  As  As8  1  0.744600  0.915401  0.708794  1
  As  As9  1  0.256330  0.084303  0.289885  1
  As  As10  1  0.809938  0.350888  0.700923  1
  As  As11  1  0.191040  0.648703  0.298531  1
  O  O12  1  0.721786  0.750481  0.257990  1
  O  O13  1  0.278566  0.252060  0.743646  1
  O  O14  1  0.317188  0.979288  0.873232  1
  O  O15  1  0.683924  0.021364  0.129745  1
  O  O16  1  0.607269  0.323021  0.985711  1
  O  O17  1  0.392924  0.676972  0.014630  1
  O  O18  1  0.129707  0.647017  0.739101  1
  O  O19  1  0.870086  0.352765  0.260949  1
  O  O20  1  0.842889  0.874034  0.557396  1
  O  O21  1  0.152373  0.127680  0.438481  1
  O  O22  1  0.486168  0.767909  0.667368  1
  O  O23  1  0.515610  0.230583  0.333684  1
  O  O24  1  0.372906  0.535025  0.379695  1
  O  O25  1  0.627423  0.464163  0.619750  1
  O  O26  1  0.088176  0.667112  0.452200  1
  O  O27  1  0.911045  0.330324  0.546697  1
  O  O28  1  0.374640  0.898944  0.358928  1
  O  O29  1  0.626238  0.101140  0.641849  1
