# generated using pymatgen
data_Cs3Sb4AsSe9
_symmetry_space_group_name_H-M   'P 1'
_cell_length_a   14.17754148
_cell_length_b   14.17754101
_cell_length_c   9.73714735
_cell_angle_alpha   84.52300831
_cell_angle_beta   84.52300483
_cell_angle_gamma   139.94619564
_symmetry_Int_Tables_number   1
_chemical_formula_structural   Cs3Sb4AsSe9
_chemical_formula_sum   'Cs6 Sb8 As2 Se18'
_cell_volume   1209.56203728
_cell_formula_units_Z   2
loop_
 _symmetry_equiv_pos_site_id
 _symmetry_equiv_pos_as_xyz
  1  'x, y, z'
loop_
 _atom_site_type_symbol
 _atom_site_label
 _atom_site_symmetry_multiplicity
 _atom_site_fract_x
 _atom_site_fract_y
 _atom_site_fract_z
 _atom_site_occupancy
  Cs  Cs0  1  0.414605  0.579700  0.503096  1
  Cs  Cs1  1  0.579700  0.414605  0.503096  1
  Cs  Cs2  1  0.011945  0.443960  0.242135  1
  Cs  Cs3  1  0.443960  0.011945  0.242135  1
  Cs  Cs4  1  0.986051  0.555050  0.760391  1
  Cs  Cs5  1  0.555050  0.986051  0.760391  1
  Sb  Sb6  1  0.965022  0.722028  0.155785  1
  Sb  Sb7  1  0.722028  0.965022  0.155785  1
  Sb  Sb8  1  0.414797  0.564380  0.003246  1
  Sb  Sb9  1  0.564380  0.414797  0.003246  1
  Sb  Sb10  1  0.922122  0.070175  0.510604  1
  Sb  Sb11  1  0.070175  0.922122  0.510604  1
  Sb  Sb12  1  0.127037  0.127037  0.119094  1
  Sb  Sb13  1  0.875305  0.875305  0.877314  1
  As  As14  1  0.035056  0.291242  0.838184  1
  As  As15  1  0.291242  0.035056  0.838184  1
  Se  Se16  1  0.999905  0.315950  0.607313  1
  Se  Se17  1  0.315950  0.999905  0.607313  1
  Se  Se18  1  0.001420  0.685582  0.401233  1
  Se  Se19  1  0.685582  0.001420  0.401233  1
  Se  Se20  1  0.237027  0.552020  0.847917  1
  Se  Se21  1  0.552020  0.237027  0.847917  1
  Se  Se22  1  0.754162  0.440010  0.150812  1
  Se  Se23  1  0.440010  0.754162  0.150812  1
  Se  Se24  1  0.127319  0.127319  0.631433  1
  Se  Se25  1  0.876283  0.876283  0.375339  1
  Se  Se26  1  0.365193  0.365193  0.871985  1
  Se  Se27  1  0.628007  0.628007  0.123191  1
  Se  Se28  1  0.814634  0.197908  0.994549  1
  Se  Se29  1  0.197908  0.814634  0.994549  1
  Se  Se30  1  0.164839  0.315726  0.225651  1
  Se  Se31  1  0.315726  0.164839  0.225651  1
  Se  Se32  1  0.848127  0.697414  0.759906  1
  Se  Se33  1  0.697414  0.848127  0.759906  1
