# generated using pymatgen
data_Er6MnCoSi5Ge
_symmetry_space_group_name_H-M   'P 1'
_cell_length_a   5.63718970
_cell_length_b   5.63718930
_cell_length_c   13.49167910
_cell_angle_alpha   70.76017799
_cell_angle_beta   70.76017941
_cell_angle_gamma   43.21882346
_symmetry_Int_Tables_number   1
_chemical_formula_structural   Er6MnCoSi5Ge
_chemical_formula_sum   'Er6 Mn1 Co1 Si5 Ge1'
_cell_volume   274.53375778
_cell_formula_units_Z   1
loop_
 _symmetry_equiv_pos_site_id
 _symmetry_equiv_pos_as_xyz
  1  'x, y, z'
loop_
 _atom_site_type_symbol
 _atom_site_label
 _atom_site_symmetry_multiplicity
 _atom_site_fract_x
 _atom_site_fract_y
 _atom_site_fract_z
 _atom_site_occupancy
  Er  Er0  1  0.745457  0.745457  0.771277  1
  Er  Er1  1  0.398136  0.398136  0.921219  1
  Er  Er2  1  0.602435  0.602435  0.080082  1
  Er  Er3  1  0.477428  0.477428  0.379342  1
  Er  Er4  1  0.254377  0.254377  0.230007  1
  Er  Er5  1  0.522430  0.522430  0.620687  1
  Mn  Mn6  1  0.754416  0.754416  0.414039  1
  Co  Co7  1  0.249330  0.249330  0.579557  1
  Si  Si8  1  0.131410  0.131410  0.459099  1
  Si  Si9  1  0.861456  0.861456  0.545702  1
  Si  Si10  1  0.952170  0.952170  0.237469  1
  Si  Si11  1  0.886389  0.886389  0.075529  1
  Si  Si12  1  0.116784  0.116784  0.926249  1
  Ge  Ge13  1  0.047783  0.047783  0.759745  1
