# generated using pymatgen
data_Y9Er(In3S)2
_symmetry_space_group_name_H-M   'P 1'
_cell_length_a   9.13904000
_cell_length_b   9.13904017
_cell_length_c   6.70654000
_cell_angle_alpha   90.00000000
_cell_angle_beta   90.00000000
_cell_angle_gamma   119.99999939
_symmetry_Int_Tables_number   1
_chemical_formula_structural   Y9Er(In3S)2
_chemical_formula_sum   'Y9 Er1 In6 S2'
_cell_volume   485.09893131
_cell_formula_units_Z   1
loop_
 _symmetry_equiv_pos_site_id
 _symmetry_equiv_pos_as_xyz
  1  'x, y, z'
loop_
 _atom_site_type_symbol
 _atom_site_label
 _atom_site_symmetry_multiplicity
 _atom_site_fract_x
 _atom_site_fract_y
 _atom_site_fract_z
 _atom_site_occupancy
  Y  Y0  1  0.758297  0.758227  0.249694  1
  Y  Y1  1  0.999931  0.758227  0.750306  1
  Y  Y2  1  0.758297  0.000069  0.750306  1
  Y  Y3  1  0.333333  0.666667  0.500000  1
  Y  Y4  1  0.241773  0.241703  0.750306  1
  Y  Y5  1  0.999931  0.241703  0.249694  1
  Y  Y6  1  0.666667  0.333333  0.500000  1
  Y  Y7  1  0.241773  0.000069  0.249694  1
  Y  Y8  1  0.333333  0.666667  0.000000  1
  Er  Er9  1  0.666667  0.333333  0.000000  1
  In  In10  1  0.402083  0.000457  0.750997  1
  In  In11  1  0.999543  0.597917  0.249003  1
  In  In12  1  0.598375  0.000457  0.249003  1
  In  In13  1  0.999543  0.401625  0.750997  1
  In  In14  1  0.402083  0.401625  0.249003  1
  In  In15  1  0.598375  0.597917  0.750997  1
  S  S16  1  0.000000  0.000000  0.500000  1
  S  S17  1  0.000000  0.000000  0.000000  1
