# generated using pymatgen
data_Nd2B2Pd5Pt2Au
_symmetry_space_group_name_H-M   'P 1'
_cell_length_a   5.52501724
_cell_length_b   5.52501619
_cell_length_c   7.70450300
_cell_angle_alpha   90.00000000
_cell_angle_beta   90.00000000
_cell_angle_gamma   120.14201438
_symmetry_Int_Tables_number   1
_chemical_formula_structural   Nd2B2Pd5Pt2Au
_chemical_formula_sum   'Nd2 B2 Pd5 Pt2 Au1'
_cell_volume   203.38512359
_cell_formula_units_Z   1
loop_
 _symmetry_equiv_pos_site_id
 _symmetry_equiv_pos_as_xyz
  1  'x, y, z'
loop_
 _atom_site_type_symbol
 _atom_site_label
 _atom_site_symmetry_multiplicity
 _atom_site_fract_x
 _atom_site_fract_y
 _atom_site_fract_z
 _atom_site_occupancy
  Nd  Nd0  1  0.999745  0.000255  0.500000  1
  Nd  Nd1  1  0.000123  0.999877  0.000000  1
  B  B2  1  0.338633  0.661367  0.000000  1
  B  B3  1  0.661912  0.338088  0.000000  1
  Pd  Pd4  1  0.666514  0.333486  0.500000  1
  Pd  Pd5  1  0.500312  0.000476  0.193901  1
  Pd  Pd6  1  0.500312  0.000476  0.806099  1
  Pd  Pd7  1  0.999524  0.499688  0.193901  1
  Pd  Pd8  1  0.999524  0.499688  0.806099  1
  Pt  Pt9  1  0.500676  0.499324  0.196760  1
  Pt  Pt10  1  0.500676  0.499324  0.803240  1
  Au  Au11  1  0.332050  0.667950  0.500000  1
