# generated using pymatgen
data_U5Fe(ReC4)2
_symmetry_space_group_name_H-M   'P 1'
_cell_length_a   11.19313100
_cell_length_b   11.19313100
_cell_length_c   3.26775000
_cell_angle_alpha   90.00000000
_cell_angle_beta   90.00000000
_cell_angle_gamma   90.00000000
_symmetry_Int_Tables_number   1
_chemical_formula_structural   U5Fe(ReC4)2
_chemical_formula_sum   'U10 Fe2 Re4 C16'
_cell_volume   409.40391987
_cell_formula_units_Z   2
loop_
 _symmetry_equiv_pos_site_id
 _symmetry_equiv_pos_as_xyz
  1  'x, y, z'
loop_
 _atom_site_type_symbol
 _atom_site_label
 _atom_site_symmetry_multiplicity
 _atom_site_fract_x
 _atom_site_fract_y
 _atom_site_fract_z
 _atom_site_occupancy
  U  U0  1  0.000000  0.500000  0.000000  1
  U  U1  1  0.275476  0.540040  0.500000  1
  U  U2  1  0.724524  0.459960  0.500000  1
  U  U3  1  0.540040  0.724524  0.500000  1
  U  U4  1  0.775476  0.959960  0.500000  1
  U  U5  1  0.224524  0.040040  0.500000  1
  U  U6  1  0.959960  0.224524  0.500000  1
  U  U7  1  0.459960  0.275476  0.500000  1
  U  U8  1  0.500000  0.000000  0.000000  1
  U  U9  1  0.040040  0.775476  0.500000  1
  Fe  Fe10  1  0.500000  0.500000  0.000000  1
  Fe  Fe11  1  0.000000  0.000000  0.000000  1
  Re  Re12  1  0.206878  0.293122  0.000000  1
  Re  Re13  1  0.706878  0.206878  0.000000  1
  Re  Re14  1  0.293122  0.793122  0.000000  1
  Re  Re15  1  0.793122  0.706878  0.000000  1
  C  C16  1  0.353709  0.406154  0.000000  1
  C  C17  1  0.618926  0.118926  0.500000  1
  C  C18  1  0.906154  0.853709  0.000000  1
  C  C19  1  0.653702  0.846298  0.000000  1
  C  C20  1  0.346298  0.153702  0.000000  1
  C  C21  1  0.118926  0.381074  0.500000  1
  C  C22  1  0.146291  0.906154  0.000000  1
  C  C23  1  0.846298  0.346298  0.000000  1
  C  C24  1  0.646291  0.593846  0.000000  1
  C  C25  1  0.593846  0.353709  0.000000  1
  C  C26  1  0.881074  0.618926  0.500000  1
  C  C27  1  0.853709  0.093846  0.000000  1
  C  C28  1  0.381074  0.881074  0.500000  1
  C  C29  1  0.153702  0.653702  0.000000  1
  C  C30  1  0.093846  0.146291  0.000000  1
  C  C31  1  0.406154  0.646291  0.000000  1
