# generated using pymatgen
data_CaIrCl6
_symmetry_space_group_name_H-M   'P 1'
_cell_length_a   6.68828753
_cell_length_b   6.68828806
_cell_length_c   6.59281179
_cell_angle_alpha   80.52211019
_cell_angle_beta   80.52211617
_cell_angle_gamma   120.35749465
_symmetry_Int_Tables_number   1
_chemical_formula_structural   CaIrCl6
_chemical_formula_sum   'Ca1 Ir1 Cl6'
_cell_volume   240.12500060
_cell_formula_units_Z   1
loop_
 _symmetry_equiv_pos_site_id
 _symmetry_equiv_pos_as_xyz
  1  'x, y, z'
loop_
 _atom_site_type_symbol
 _atom_site_label
 _atom_site_symmetry_multiplicity
 _atom_site_fract_x
 _atom_site_fract_y
 _atom_site_fract_z
 _atom_site_occupancy
  Ca  Ca0  1  0.165628  0.834372  0.000000  1
  Ir  Ir1  1  0.833628  0.166372  0.000000  1
  Cl  Cl2  1  0.474465  0.091823  0.222213  1
  Cl  Cl3  1  0.908177  0.525535  0.777787  1
  Cl  Cl4  1  0.189870  0.237659  0.776735  1
  Cl  Cl5  1  0.762341  0.810130  0.223265  1
  Cl  Cl6  1  0.046699  0.380806  0.220501  1
  Cl  Cl7  1  0.619194  0.953301  0.779499  1
