# generated using pymatgen
data_K12Co3PO16
_symmetry_space_group_name_H-M   'P 1'
_cell_length_a   6.05379800
_cell_length_b   8.24059700
_cell_length_c   11.46939200
_cell_angle_alpha   90.00000000
_cell_angle_beta   90.00000000
_cell_angle_gamma   90.00000000
_symmetry_Int_Tables_number   1
_chemical_formula_structural   K12Co3PO16
_chemical_formula_sum   'K12 Co3 P1 O16'
_cell_volume   572.17252230
_cell_formula_units_Z   1
loop_
 _symmetry_equiv_pos_site_id
 _symmetry_equiv_pos_as_xyz
  1  'x, y, z'
loop_
 _atom_site_type_symbol
 _atom_site_label
 _atom_site_symmetry_multiplicity
 _atom_site_fract_x
 _atom_site_fract_y
 _atom_site_fract_z
 _atom_site_occupancy
  K  K0  1  0.862056  0.749999  0.063815  1
  K  K1  1  0.315675  0.511380  0.144994  1
  K  K2  1  0.315675  0.988620  0.144994  1
  K  K3  1  0.816002  0.007949  0.353752  1
  K  K4  1  0.816002  0.492052  0.353752  1
  K  K5  1  0.369232  0.250001  0.435016  1
  K  K6  1  0.626348  0.749999  0.570171  1
  K  K7  1  0.183661  0.509444  0.647970  1
  K  K8  1  0.183661  0.990556  0.647970  1
  K  K9  1  0.692453  0.007978  0.853875  1
  K  K10  1  0.692453  0.492023  0.853875  1
  K  K11  1  0.132938  0.250001  0.934315  1
  Co  Co12  1  0.720368  0.250001  0.114768  1
  Co  Co13  1  0.219337  0.749999  0.384808  1
  Co  Co14  1  0.779525  0.250001  0.615588  1
  P  P15  1  0.280634  0.749999  0.884173  1
  O  O16  1  0.542141  0.250001  0.999360  1
  O  O17  1  0.878039  0.080238  0.109626  1
  O  O18  1  0.878039  0.419763  0.109626  1
  O  O19  1  0.567054  0.250001  0.239006  1
  O  O20  1  0.067030  0.749999  0.259835  1
  O  O21  1  0.377556  0.580696  0.389650  1
  O  O22  1  0.377556  0.919304  0.389650  1
  O  O23  1  0.039476  0.749999  0.499715  1
  O  O24  1  0.958326  0.250001  0.500549  1
  O  O25  1  0.621875  0.080347  0.611487  1
  O  O26  1  0.621875  0.419654  0.611487  1
  O  O27  1  0.933578  0.250001  0.739777  1
  O  O28  1  0.419232  0.749999  0.768618  1
  O  O29  1  0.133093  0.594457  0.888938  1
  O  O30  1  0.133093  0.905543  0.888938  1
  O  O31  1  0.446009  0.749999  0.989894  1
