# generated using pymatgen
data_Dy3ThReTcB12
_symmetry_space_group_name_H-M   'P 1'
_cell_length_a   3.73643500
_cell_length_b   9.22326208
_cell_length_c   11.63025329
_cell_angle_alpha   90.16985266
_cell_angle_beta   90.00000000
_cell_angle_gamma   90.00000000
_symmetry_Int_Tables_number   1
_chemical_formula_structural   Dy3ThReTcB12
_chemical_formula_sum   'Dy6 Th2 Re2 Tc2 B24'
_cell_volume   400.80141468
_cell_formula_units_Z   2
loop_
 _symmetry_equiv_pos_site_id
 _symmetry_equiv_pos_as_xyz
  1  'x, y, z'
loop_
 _atom_site_type_symbol
 _atom_site_label
 _atom_site_symmetry_multiplicity
 _atom_site_fract_x
 _atom_site_fract_y
 _atom_site_fract_z
 _atom_site_occupancy
  Dy  Dy0  1  0.000000  0.824539  0.084909  1
  Dy  Dy1  1  0.000000  0.175461  0.915091  1
  Dy  Dy2  1  0.000000  0.942330  0.369035  1
  Dy  Dy3  1  0.000000  0.057670  0.630965  1
  Dy  Dy4  1  0.000000  0.443130  0.128237  1
  Dy  Dy5  1  0.000000  0.556870  0.871763  1
  Th  Th6  1  0.000000  0.321379  0.413384  1
  Th  Th7  1  0.000000  0.678621  0.586616  1
  Re  Re8  1  0.000000  0.138291  0.178709  1
  Re  Re9  1  0.000000  0.861709  0.821291  1
  Tc  Tc10  1  0.000000  0.638319  0.319848  1
  Tc  Tc11  1  0.000000  0.361681  0.680152  1
  B  B12  1  0.500000  0.555462  0.429517  1
  B  B13  1  0.500000  0.444538  0.570483  1
  B  B14  1  0.500000  0.053363  0.066528  1
  B  B15  1  0.500000  0.946637  0.933472  1
  B  B16  1  0.500000  0.749344  0.414978  1
  B  B17  1  0.500000  0.250656  0.585022  1
  B  B18  1  0.500000  0.248041  0.080436  1
  B  B19  1  0.500000  0.751959  0.919564  1
  B  B20  1  0.500000  0.791355  0.263900  1
  B  B21  1  0.500000  0.208645  0.736100  1
  B  B22  1  0.500000  0.289683  0.231858  1
  B  B23  1  0.500000  0.710317  0.768142  1
  B  B24  1  0.500000  0.631361  0.184294  1
  B  B25  1  0.500000  0.368639  0.815706  1
  B  B26  1  0.500000  0.129253  0.311843  1
  B  B27  1  0.500000  0.870747  0.688157  1
  B  B28  1  0.500000  0.982503  0.210538  1
  B  B29  1  0.500000  0.017497  0.789462  1
  B  B30  1  0.500000  0.485211  0.285280  1
  B  B31  1  0.500000  0.514789  0.714720  1
  B  B32  1  0.500000  0.602468  0.028363  1
  B  B33  1  0.500000  0.397532  0.971637  1
  B  B34  1  0.500000  0.100015  0.472005  1
  B  B35  1  0.500000  0.899985  0.527995  1
