# generated using pymatgen
data_LiTh2Pt3
_symmetry_space_group_name_H-M   'P 1'
_cell_length_a   5.48479377
_cell_length_b   5.48479353
_cell_length_c   5.80681878
_cell_angle_alpha   82.56652616
_cell_angle_beta   97.43347177
_cell_angle_gamma   132.83903171
_symmetry_Int_Tables_number   1
_chemical_formula_structural   LiTh2Pt3
_chemical_formula_sum   'Li1 Th2 Pt3'
_cell_volume   126.80902814
_cell_formula_units_Z   1
loop_
 _symmetry_equiv_pos_site_id
 _symmetry_equiv_pos_as_xyz
  1  'x, y, z'
loop_
 _atom_site_type_symbol
 _atom_site_label
 _atom_site_symmetry_multiplicity
 _atom_site_fract_x
 _atom_site_fract_y
 _atom_site_fract_z
 _atom_site_occupancy
  Li  Li0  1  0.000000  0.000000  0.000000  1
  Th  Th1  1  0.681591  0.318409  0.721018  1
  Th  Th2  1  0.318409  0.681591  0.278982  1
  Pt  Pt3  1  0.000000  0.000000  0.500000  1
  Pt  Pt4  1  0.384904  0.615096  0.795231  1
  Pt  Pt5  1  0.615096  0.384904  0.204769  1
