# generated using pymatgen
data_ErTm3(Mn2Br)2
_symmetry_space_group_name_H-M   'P 1'
_cell_length_a   3.80001400
_cell_length_b   3.80001430
_cell_length_c   16.85184500
_cell_angle_alpha   90.00000000
_cell_angle_beta   90.00000000
_cell_angle_gamma   119.99999743
_symmetry_Int_Tables_number   1
_chemical_formula_structural   ErTm3(Mn2Br)2
_chemical_formula_sum   'Er1 Tm3 Mn4 Br2'
_cell_volume   210.74075224
_cell_formula_units_Z   1
loop_
 _symmetry_equiv_pos_site_id
 _symmetry_equiv_pos_as_xyz
  1  'x, y, z'
loop_
 _atom_site_type_symbol
 _atom_site_label
 _atom_site_symmetry_multiplicity
 _atom_site_fract_x
 _atom_site_fract_y
 _atom_site_fract_z
 _atom_site_occupancy
  Er  Er0  1  0.000000  0.000000  0.114188  1
  Tm  Tm1  1  0.000000  0.000000  0.386241  1
  Tm  Tm2  1  0.000000  0.000000  0.613784  1
  Tm  Tm3  1  0.000000  0.000000  0.886213  1
  Mn  Mn4  1  0.333334  0.666667  0.010245  1
  Mn  Mn5  1  0.333334  0.666667  0.489544  1
  Mn  Mn6  1  0.666667  0.333334  0.510442  1
  Mn  Mn7  1  0.666667  0.333334  0.989240  1
  Br  Br8  1  0.666667  0.333334  0.250082  1
  Br  Br9  1  0.333334  0.666667  0.750019  1
