# generated using pymatgen
data_Ac(NdSi2)2
_symmetry_space_group_name_H-M   'P 1'
_cell_length_a   4.08816312
_cell_length_b   4.50965538
_cell_length_c   9.67627700
_cell_angle_alpha   76.51565458
_cell_angle_beta   77.81601946
_cell_angle_gamma   90.00458773
_symmetry_Int_Tables_number   1
_chemical_formula_structural   Ac(NdSi2)2
_chemical_formula_sum   'Ac1 Nd2 Si4'
_cell_volume   169.34045449
_cell_formula_units_Z   1
loop_
 _symmetry_equiv_pos_site_id
 _symmetry_equiv_pos_as_xyz
  1  'x, y, z'
loop_
 _atom_site_type_symbol
 _atom_site_label
 _atom_site_symmetry_multiplicity
 _atom_site_fract_x
 _atom_site_fract_y
 _atom_site_fract_z
 _atom_site_occupancy
  Ac  Ac0  1  0.000001  0.000000  0.000000  1
  Nd  Nd1  1  0.683580  0.183435  0.634542  1
  Nd  Nd2  1  0.316419  0.816564  0.365459  1
  Si  Si3  1  0.853553  0.353604  0.294275  1
  Si  Si4  1  0.146447  0.646396  0.705726  1
  Si  Si5  1  0.566488  0.567764  0.865271  1
  Si  Si6  1  0.433513  0.432237  0.134729  1
