# generated using pymatgen
data_Ca4Os3RuO14
_symmetry_space_group_name_H-M   'P 1'
_cell_length_a   7.29528668
_cell_length_b   7.29528533
_cell_length_c   7.30406400
_cell_angle_alpha   120.49425051
_cell_angle_beta   118.39707244
_cell_angle_gamma   90.90451331
_symmetry_Int_Tables_number   1
_chemical_formula_structural   Ca4Os3RuO14
_chemical_formula_sum   'Ca4 Os3 Ru1 O14'
_cell_volume   277.18684879
_cell_formula_units_Z   1
loop_
 _symmetry_equiv_pos_site_id
 _symmetry_equiv_pos_as_xyz
  1  'x, y, z'
loop_
 _atom_site_type_symbol
 _atom_site_label
 _atom_site_symmetry_multiplicity
 _atom_site_fract_x
 _atom_site_fract_y
 _atom_site_fract_z
 _atom_site_occupancy
  Ca  Ca0  1  0.500000  0.500000  0.000000  1
  Ca  Ca1  1  0.000000  0.000000  0.000000  1
  Ca  Ca2  1  0.500000  0.500000  0.500000  1
  Ca  Ca3  1  0.500000  0.000000  0.000000  1
  Os  Os4  1  0.000000  0.500000  0.000000  1
  Os  Os5  1  0.000000  0.500000  0.500000  1
  Os  Os6  1  0.500000  0.000000  0.500000  1
  Ru  Ru7  1  0.000000  0.000000  0.500000  1
  O  O8  1  0.950238  0.584777  0.769408  1
  O  O9  1  0.048480  0.815149  0.634416  1
  O  O10  1  0.680734  0.914065  0.365584  1
  O  O11  1  0.315369  0.680831  0.230592  1
  O  O12  1  0.049762  0.415223  0.230592  1
  O  O13  1  0.951520  0.184851  0.365584  1
  O  O14  1  0.319266  0.085935  0.634416  1
  O  O15  1  0.684631  0.319169  0.769408  1
  O  O16  1  0.086094  0.252848  0.838943  1
  O  O17  1  0.913906  0.747152  0.161057  1
  O  O18  1  0.365744  0.097670  0.270108  1
  O  O19  1  0.634256  0.902330  0.729892  1
  O  O20  1  0.672437  0.404364  0.270108  1
  O  O21  1  0.327563  0.595636  0.729892  1
