# generated using pymatgen
data_Ho11Er(PdRh)2
_symmetry_space_group_name_H-M   'P 1'
_cell_length_a   6.37885313
_cell_length_b   7.08034101
_cell_length_c   9.46288620
_cell_angle_alpha   90.00518879
_cell_angle_beta   89.97707713
_cell_angle_gamma   89.99736111
_symmetry_Int_Tables_number   1
_chemical_formula_structural   Ho11Er(PdRh)2
_chemical_formula_sum   'Ho11 Er1 Pd2 Rh2'
_cell_volume   427.38606531
_cell_formula_units_Z   1
loop_
 _symmetry_equiv_pos_site_id
 _symmetry_equiv_pos_as_xyz
  1  'x, y, z'
loop_
 _atom_site_type_symbol
 _atom_site_label
 _atom_site_symmetry_multiplicity
 _atom_site_fract_x
 _atom_site_fract_y
 _atom_site_fract_z
 _atom_site_occupancy
  Ho  Ho0  1  0.675545  0.184999  0.060307  1
  Ho  Ho1  1  0.175627  0.314984  0.939965  1
  Ho  Ho2  1  0.829248  0.677095  0.437909  1
  Ho  Ho3  1  0.329349  0.822933  0.561967  1
  Ho  Ho4  1  0.329379  0.822922  0.938040  1
  Ho  Ho5  1  0.829443  0.677112  0.062025  1
  Ho  Ho6  1  0.175683  0.315048  0.559927  1
  Ho  Ho7  1  0.861980  0.974154  0.749918  1
  Ho  Ho8  1  0.362181  0.525839  0.250012  1
  Ho  Ho9  1  0.627230  0.466167  0.749921  1
  Ho  Ho10  1  0.127196  0.033828  0.250114  1
  Er  Er11  1  0.675533  0.184872  0.439626  1
  Pd  Pd12  1  0.054241  0.611735  0.750044  1
  Pd  Pd13  1  0.554169  0.888449  0.250164  1
  Rh  Rh14  1  0.446751  0.114454  0.749932  1
  Rh  Rh15  1  0.946444  0.385410  0.250129  1
