# generated using pymatgen
data_TaTi2Cr2B4W
_symmetry_space_group_name_H-M   'P 1'
_cell_length_a   5.85395304
_cell_length_b   5.85395321
_cell_length_c   3.16991700
_cell_angle_alpha   90.00000000
_cell_angle_beta   90.00000000
_cell_angle_gamma   90.74152461
_symmetry_Int_Tables_number   1
_chemical_formula_structural   TaTi2Cr2B4W
_chemical_formula_sum   'Ta1 Ti2 Cr2 B4 W1'
_cell_volume   108.62005027
_cell_formula_units_Z   1
loop_
 _symmetry_equiv_pos_site_id
 _symmetry_equiv_pos_as_xyz
  1  'x, y, z'
loop_
 _atom_site_type_symbol
 _atom_site_label
 _atom_site_symmetry_multiplicity
 _atom_site_fract_x
 _atom_site_fract_y
 _atom_site_fract_z
 _atom_site_occupancy
  Ta  Ta0  1  0.319092  0.819092  0.500000  1
  Ti  Ti1  1  0.178816  0.318949  0.500000  1
  Ti  Ti2  1  0.818949  0.678816  0.500000  1
  Cr  Cr3  1  0.501188  0.498420  0.000000  1
  Cr  Cr4  1  0.998420  0.001188  0.000000  1
  B  B5  1  0.107224  0.607224  0.000000  1
  B  B6  1  0.888580  0.388580  0.000000  1
  B  B7  1  0.616661  0.890452  0.000000  1
  B  B8  1  0.390452  0.116661  0.000000  1
  W  W9  1  0.680620  0.180620  0.500000  1
