# generated using pymatgen
data_Y6ZrCo17P12
_symmetry_space_group_name_H-M   'P 1'
_cell_length_a   3.71705000
_cell_length_b   10.60695100
_cell_length_c   12.33746100
_cell_angle_alpha   90.00000000
_cell_angle_beta   90.00000000
_cell_angle_gamma   90.00000000
_symmetry_Int_Tables_number   1
_chemical_formula_structural   Y6ZrCo17P12
_chemical_formula_sum   'Y6 Zr1 Co17 P12'
_cell_volume   486.42373537
_cell_formula_units_Z   1
loop_
 _symmetry_equiv_pos_site_id
 _symmetry_equiv_pos_as_xyz
  1  'x, y, z'
loop_
 _atom_site_type_symbol
 _atom_site_label
 _atom_site_symmetry_multiplicity
 _atom_site_fract_x
 _atom_site_fract_y
 _atom_site_fract_z
 _atom_site_occupancy
  Y  Y0  1  0.000000  0.500000  0.529249  1
  Y  Y1  1  0.500000  0.000000  0.477875  1
  Y  Y2  1  0.500000  0.820916  0.207124  1
  Y  Y3  1  0.500000  0.179084  0.207124  1
  Y  Y4  1  0.000000  0.683308  0.795905  1
  Y  Y5  1  0.000000  0.316692  0.795905  1
  Zr  Zr6  1  0.500000  0.500000  0.154199  1
  Co  Co7  1  0.000000  0.000000  0.837067  1
  Co  Co8  1  0.500000  0.500000  0.702820  1
  Co  Co9  1  0.000000  0.000000  0.296309  1
  Co  Co10  1  0.000000  0.500000  0.982919  1
  Co  Co11  1  0.500000  0.000000  0.013299  1
  Co  Co12  1  0.500000  0.326913  0.987767  1
  Co  Co13  1  0.500000  0.673087  0.987767  1
  Co  Co14  1  0.000000  0.161292  0.001466  1
  Co  Co15  1  0.000000  0.838708  0.001466  1
  Co  Co16  1  0.500000  0.294159  0.434897  1
  Co  Co17  1  0.500000  0.705841  0.434897  1
  Co  Co18  1  0.000000  0.201892  0.570430  1
  Co  Co19  1  0.000000  0.798108  0.570430  1
  Co  Co20  1  0.500000  0.880576  0.707713  1
  Co  Co21  1  0.500000  0.119424  0.707713  1
  Co  Co22  1  0.000000  0.622372  0.298540  1
  Co  Co23  1  0.000000  0.377628  0.298540  1
  P  P24  1  0.500000  0.500000  0.881289  1
  P  P25  1  0.000000  0.000000  0.116321  1
  P  P26  1  0.500000  0.500000  0.361478  1
  P  P27  1  0.000000  0.000000  0.655483  1
  P  P28  1  0.500000  0.308532  0.617983  1
  P  P29  1  0.500000  0.691468  0.617983  1
  P  P30  1  0.000000  0.188659  0.386663  1
  P  P31  1  0.000000  0.811341  0.386663  1
  P  P32  1  0.500000  0.852823  0.888627  1
  P  P33  1  0.500000  0.147177  0.888627  1
  P  P34  1  0.000000  0.664864  0.098730  1
  P  P35  1  0.000000  0.335136  0.098730  1
