# generated using pymatgen
data_Tm4Al17GaIr5Au
_symmetry_space_group_name_H-M   'P 1'
_cell_length_a   7.55996356
_cell_length_b   7.55996244
_cell_length_c   9.44213611
_cell_angle_alpha   89.98275485
_cell_angle_beta   89.98274445
_cell_angle_gamma   119.46713692
_symmetry_Int_Tables_number   1
_chemical_formula_structural   Tm4Al17GaIr5Au
_chemical_formula_sum   'Tm4 Al17 Ga1 Ir5 Au1'
_cell_volume   469.83691229
_cell_formula_units_Z   1
loop_
 _symmetry_equiv_pos_site_id
 _symmetry_equiv_pos_as_xyz
  1  'x, y, z'
loop_
 _atom_site_type_symbol
 _atom_site_label
 _atom_site_symmetry_multiplicity
 _atom_site_fract_x
 _atom_site_fract_y
 _atom_site_fract_z
 _atom_site_occupancy
  Tm  Tm0  1  0.995482  0.676405  0.251545  1
  Tm  Tm1  1  0.004144  0.325910  0.748495  1
  Tm  Tm2  1  0.676405  0.995482  0.251545  1
  Tm  Tm3  1  0.325910  0.004144  0.748495  1
  Al  Al4  1  0.863559  0.863559  0.744186  1
  Al  Al5  1  0.001075  0.344418  0.079492  1
  Al  Al6  1  0.998395  0.655292  0.920184  1
  Al  Al7  1  0.000042  0.663965  0.574661  1
  Al  Al8  1  0.335872  0.999855  0.425583  1
  Al  Al9  1  0.999855  0.335872  0.425583  1
  Al  Al10  1  0.663965  0.000042  0.574661  1
  Al  Al11  1  0.655292  0.998395  0.920184  1
  Al  Al12  1  0.344418  0.001075  0.079492  1
  Al  Al13  1  0.332771  0.332771  0.555812  1
  Al  Al14  1  0.666696  0.666696  0.446232  1
  Al  Al15  1  0.657982  0.657982  0.060477  1
  Al  Al16  1  0.341509  0.341509  0.938076  1
  Al  Al17  1  0.337818  0.552400  0.251266  1
  Al  Al18  1  0.660878  0.448814  0.748877  1
  Al  Al19  1  0.552400  0.337818  0.251266  1
  Al  Al20  1  0.448814  0.660878  0.748877  1
  Ga  Ga21  1  0.140692  0.140692  0.255376  1
  Ir  Ir22  1  0.671231  0.327299  0.000231  1
  Ir  Ir23  1  0.327299  0.671231  0.000231  1
  Ir  Ir24  1  0.327495  0.671395  0.499871  1
  Ir  Ir25  1  0.671395  0.327495  0.499871  1
  Ir  Ir26  1  0.999336  0.999336  0.502582  1
  Au  Au27  1  0.999268  0.999268  0.996848  1
