# generated using pymatgen
data_NaLi3CoO4
_symmetry_space_group_name_H-M   'P 1'
_cell_length_a   5.77695997
_cell_length_b   7.37024091
_cell_length_c   9.75278063
_cell_angle_alpha   84.26034776
_cell_angle_beta   76.89755447
_cell_angle_gamma   79.81450410
_symmetry_Int_Tables_number   1
_chemical_formula_structural   NaLi3CoO4
_chemical_formula_sum   'Na4 Li12 Co4 O16'
_cell_volume   397.28714212
_cell_formula_units_Z   4
loop_
 _symmetry_equiv_pos_site_id
 _symmetry_equiv_pos_as_xyz
  1  'x, y, z'
loop_
 _atom_site_type_symbol
 _atom_site_label
 _atom_site_symmetry_multiplicity
 _atom_site_fract_x
 _atom_site_fract_y
 _atom_site_fract_z
 _atom_site_occupancy
  Na  Na0  1  0.487515  0.121631  0.622236  1
  Na  Na1  1  0.512485  0.878369  0.377764  1
  Na  Na2  1  0.463721  0.365270  0.873403  1
  Na  Na3  1  0.536279  0.634730  0.126597  1
  Li  Li4  1  0.975527  0.817235  0.116706  1
  Li  Li5  1  0.024473  0.182765  0.883294  1
  Li  Li6  1  0.313191  0.318692  0.354097  1
  Li  Li7  1  0.686809  0.681308  0.645903  1
  Li  Li8  1  0.937154  0.542379  0.879041  1
  Li  Li9  1  0.062846  0.457621  0.120959  1
  Li  Li10  1  0.041094  0.935041  0.623530  1
  Li  Li11  1  0.322177  0.055075  0.100385  1
  Li  Li12  1  0.680213  0.447533  0.396591  1
  Li  Li13  1  0.319787  0.552467  0.603409  1
  Li  Li14  1  0.958906  0.064959  0.376470  1
  Li  Li15  1  0.677823  0.944925  0.899615  1
  Co  Co16  1  0.940130  0.288580  0.636507  1
  Co  Co17  1  0.059870  0.711420  0.363493  1
  Co  Co18  1  0.337132  0.796065  0.850366  1
  Co  Co19  1  0.662868  0.203935  0.149634  1
  O  O20  1  0.666232  0.201819  0.334859  1
  O  O21  1  0.333768  0.798181  0.665141  1
  O  O22  1  0.856825  0.344410  0.033547  1
  O  O23  1  0.143175  0.655590  0.966453  1
  O  O24  1  0.644506  0.694424  0.856338  1
  O  O25  1  0.355494  0.305576  0.143662  1
  O  O26  1  0.673838  0.433495  0.598705  1
  O  O27  1  0.326162  0.566505  0.401295  1
  O  O28  1  0.171144  0.891678  0.238943  1
  O  O29  1  0.828856  0.108322  0.761057  1
  O  O30  1  0.866100  0.837634  0.507264  1
  O  O31  1  0.133900  0.162366  0.492736  1
  O  O32  1  0.876807  0.611912  0.272564  1
  O  O33  1  0.123193  0.388088  0.727436  1
  O  O34  1  0.684149  0.973275  0.094969  1
  O  O35  1  0.315851  0.026725  0.905031  1
