# generated using pymatgen
data_TbDyAl4(ZnAu)2
_symmetry_space_group_name_H-M   'P 1'
_cell_length_a   4.22000600
_cell_length_b   4.22000600
_cell_length_c   10.90109700
_cell_angle_alpha   90.00000000
_cell_angle_beta   90.00000000
_cell_angle_gamma   90.00000000
_symmetry_Int_Tables_number   1
_chemical_formula_structural   TbDyAl4(ZnAu)2
_chemical_formula_sum   'Tb1 Dy1 Al4 Zn2 Au2'
_cell_volume   194.13164785
_cell_formula_units_Z   1
loop_
 _symmetry_equiv_pos_site_id
 _symmetry_equiv_pos_as_xyz
  1  'x, y, z'
loop_
 _atom_site_type_symbol
 _atom_site_label
 _atom_site_symmetry_multiplicity
 _atom_site_fract_x
 _atom_site_fract_y
 _atom_site_fract_z
 _atom_site_occupancy
  Tb  Tb0  1  0.500000  0.000000  0.756873  1
  Dy  Dy1  1  0.000000  0.500000  0.243140  1
  Al  Al2  1  0.000000  0.000000  0.499986  1
  Al  Al3  1  0.500000  0.500000  0.499986  1
  Al  Al4  1  0.000000  0.500000  0.865288  1
  Al  Al5  1  0.500000  0.000000  0.134771  1
  Zn  Zn6  1  0.000000  0.000000  0.000016  1
  Zn  Zn7  1  0.500000  0.500000  0.000016  1
  Au  Au8  1  0.000000  0.500000  0.637978  1
  Au  Au9  1  0.500000  0.000000  0.361947  1
