# generated using pymatgen
data_Ca3(SnPd)2
_symmetry_space_group_name_H-M   'P 1'
_cell_length_a   5.86921200
_cell_length_b   8.62590800
_cell_length_c   14.02896000
_cell_angle_alpha   90.00000000
_cell_angle_beta   90.00000000
_cell_angle_gamma   90.00000000
_symmetry_Int_Tables_number   1
_chemical_formula_structural   Ca3(SnPd)2
_chemical_formula_sum   'Ca12 Sn8 Pd8'
_cell_volume   710.24812453
_cell_formula_units_Z   4
loop_
 _symmetry_equiv_pos_site_id
 _symmetry_equiv_pos_as_xyz
  1  'x, y, z'
loop_
 _atom_site_type_symbol
 _atom_site_label
 _atom_site_symmetry_multiplicity
 _atom_site_fract_x
 _atom_site_fract_y
 _atom_site_fract_z
 _atom_site_occupancy
  Ca  Ca0  1  0.149845  0.394498  0.599358  1
  Ca  Ca1  1  0.850155  0.605502  0.099358  1
  Ca  Ca2  1  0.149845  0.105502  0.400642  1
  Ca  Ca3  1  0.850155  0.894498  0.900642  1
  Ca  Ca4  1  0.850155  0.605502  0.400642  1
  Ca  Ca5  1  0.149845  0.394498  0.900642  1
  Ca  Ca6  1  0.850155  0.894498  0.599358  1
  Ca  Ca7  1  0.149845  0.105502  0.099358  1
  Ca  Ca8  1  0.641662  0.256905  0.750000  1
  Ca  Ca9  1  0.358338  0.743095  0.250000  1
  Ca  Ca10  1  0.641662  0.243095  0.250000  1
  Ca  Ca11  1  0.358338  0.756905  0.750000  1
  Sn  Sn12  1  0.645360  0.250000  0.500000  1
  Sn  Sn13  1  0.354640  0.750000  0.000000  1
  Sn  Sn14  1  0.354640  0.750000  0.500000  1
  Sn  Sn15  1  0.645360  0.250000  0.000000  1
  Sn  Sn16  1  0.141265  0.102948  0.750000  1
  Sn  Sn17  1  0.858735  0.897052  0.250000  1
  Sn  Sn18  1  0.141265  0.397052  0.250000  1
  Sn  Sn19  1  0.858735  0.602948  0.750000  1
  Pd  Pd20  1  0.374486  0.032579  0.588566  1
  Pd  Pd21  1  0.625514  0.967421  0.088566  1
  Pd  Pd22  1  0.374486  0.467421  0.411434  1
  Pd  Pd23  1  0.625514  0.532579  0.911434  1
  Pd  Pd24  1  0.625514  0.967421  0.411434  1
  Pd  Pd25  1  0.374486  0.032579  0.911434  1
  Pd  Pd26  1  0.625514  0.532579  0.588566  1
  Pd  Pd27  1  0.374486  0.467421  0.088566  1
