# generated using pymatgen
data_Er5Tm3(Lu3Pb4)4
_symmetry_space_group_name_H-M   'P 1'
_cell_length_a   8.11590304
_cell_length_b   8.17735417
_cell_length_c   15.39722132
_cell_angle_alpha   90.02190724
_cell_angle_beta   90.00807640
_cell_angle_gamma   89.99187600
_symmetry_Int_Tables_number   1
_chemical_formula_structural   Er5Tm3(Lu3Pb4)4
_chemical_formula_sum   'Er5 Tm3 Lu12 Pb16'
_cell_volume   1021.86134229
_cell_formula_units_Z   1
loop_
 _symmetry_equiv_pos_site_id
 _symmetry_equiv_pos_as_xyz
  1  'x, y, z'
loop_
 _atom_site_type_symbol
 _atom_site_label
 _atom_site_symmetry_multiplicity
 _atom_site_fract_x
 _atom_site_fract_y
 _atom_site_fract_z
 _atom_site_occupancy
  Er  Er0  1  0.960780  0.823543  0.099486  1
  Er  Er1  1  0.460768  0.676466  0.099451  1
  Er  Er2  1  0.960782  0.823529  0.400542  1
  Er  Er3  1  0.539245  0.323543  0.599494  1
  Er  Er4  1  0.039254  0.176471  0.900510  1
  Tm  Tm5  1  0.539261  0.323542  0.900473  1
  Tm  Tm6  1  0.039280  0.176424  0.599526  1
  Tm  Tm7  1  0.460717  0.676439  0.400501  1
  Lu  Lu8  1  0.377225  0.842963  0.878191  1
  Lu  Lu9  1  0.877268  0.657072  0.621829  1
  Lu  Lu10  1  0.622737  0.157077  0.378222  1
  Lu  Lu11  1  0.122763  0.342897  0.121780  1
  Lu  Lu12  1  0.622764  0.157095  0.121744  1
  Lu  Lu13  1  0.122780  0.342904  0.378253  1
  Lu  Lu14  1  0.377203  0.842927  0.621782  1
  Lu  Lu15  1  0.877227  0.657043  0.878170  1
  Lu  Lu16  1  0.208918  0.505324  0.749991  1
  Lu  Lu17  1  0.708935  0.994675  0.749995  1
  Lu  Lu18  1  0.791034  0.494636  0.250027  1
  Lu  Lu19  1  0.291081  0.005365  0.250019  1
  Pb  Pb20  1  0.281314  0.033882  0.042736  1
  Pb  Pb21  1  0.781210  0.466194  0.457257  1
  Pb  Pb22  1  0.718817  0.966197  0.542799  1
  Pb  Pb23  1  0.218785  0.533810  0.957213  1
  Pb  Pb24  1  0.718624  0.966203  0.957230  1
  Pb  Pb25  1  0.218677  0.533887  0.542731  1
  Pb  Pb26  1  0.281280  0.033886  0.457317  1
  Pb  Pb27  1  0.781236  0.466040  0.042656  1
  Pb  Pb28  1  0.571032  0.627877  0.750004  1
  Pb  Pb29  1  0.071023  0.872083  0.749999  1
  Pb  Pb30  1  0.428920  0.372160  0.250009  1
  Pb  Pb31  1  0.928951  0.127866  0.249994  1
  Pb  Pb32  1  0.349976  0.156088  0.750050  1
  Pb  Pb33  1  0.850012  0.343967  0.749939  1
  Pb  Pb34  1  0.650008  0.843983  0.250057  1
  Pb  Pb35  1  0.150114  0.655943  0.250022  1
