# generated using pymatgen
data_Lu3Zr5(V3Si4)4
_symmetry_space_group_name_H-M   'P 1'
_cell_length_a   6.67963166
_cell_length_b   6.67895276
_cell_length_c   12.38382594
_cell_angle_alpha   89.98295159
_cell_angle_beta   90.06188454
_cell_angle_gamma   89.86424725
_symmetry_Int_Tables_number   1
_chemical_formula_structural   Lu3Zr5(V3Si4)4
_chemical_formula_sum   'Lu3 Zr5 V12 Si16'
_cell_volume   552.47703960
_cell_formula_units_Z   1
loop_
 _symmetry_equiv_pos_site_id
 _symmetry_equiv_pos_as_xyz
  1  'x, y, z'
loop_
 _atom_site_type_symbol
 _atom_site_label
 _atom_site_symmetry_multiplicity
 _atom_site_fract_x
 _atom_site_fract_y
 _atom_site_fract_z
 _atom_site_occupancy
  Lu  Lu0  1  0.000105  0.662814  0.029939  1
  Lu  Lu1  1  0.000671  0.335928  0.529054  1
  Lu  Lu2  1  0.663089  0.000199  0.970279  1
  Zr  Zr3  1  0.162403  0.496013  0.780381  1
  Zr  Zr4  1  0.837884  0.503509  0.281743  1
  Zr  Zr5  1  0.496199  0.162534  0.219566  1
  Zr  Zr6  1  0.503857  0.837813  0.719447  1
  Zr  Zr7  1  0.340143  0.995523  0.469125  1
  V  V8  1  0.340174  0.507206  0.376082  1
  V  V9  1  0.838669  0.995720  0.374210  1
  V  V10  1  0.006127  0.160389  0.127566  1
  V  V11  1  0.994066  0.841541  0.625661  1
  V  V12  1  0.658746  0.493499  0.874939  1
  V  V13  1  0.504229  0.341126  0.623780  1
  V  V14  1  0.493422  0.658836  0.125414  1
  V  V15  1  0.160871  0.005251  0.872317  1
  V  V16  1  0.665623  0.669579  0.500000  1
  V  V17  1  0.833127  0.166834  0.749338  1
  V  V18  1  0.167828  0.832950  0.250783  1
  V  V19  1  0.332680  0.332413  0.000079  1
  Si  Si20  1  0.039549  0.712138  0.435998  1
  Si  Si21  1  0.961730  0.289413  0.935783  1
  Si  Si22  1  0.708353  0.040320  0.564251  1
  Si  Si23  1  0.208866  0.460570  0.186080  1
  Si  Si24  1  0.790822  0.538846  0.685084  1
  Si  Si25  1  0.460795  0.209011  0.814245  1
  Si  Si26  1  0.539438  0.790915  0.314428  1
  Si  Si27  1  0.289813  0.961411  0.064243  1
  Si  Si28  1  0.875108  0.794962  0.816999  1
  Si  Si29  1  0.126835  0.203318  0.319143  1
  Si  Si30  1  0.795794  0.875117  0.183313  1
  Si  Si31  1  0.296696  0.628507  0.570895  1
  Si  Si32  1  0.702170  0.373393  0.070871  1
  Si  Si33  1  0.624141  0.296333  0.429107  1
  Si  Si34  1  0.373281  0.701546  0.929458  1
  Si  Si35  1  0.206695  0.124523  0.680400  1
