# generated using pymatgen
data_Ti4CrFe3(BiO5)4
_symmetry_space_group_name_H-M   'P 1'
_cell_length_a   5.98309500
_cell_length_b   7.76454136
_cell_length_c   8.66749464
_cell_angle_alpha   89.93083985
_cell_angle_beta   90.00000000
_cell_angle_gamma   90.00000000
_symmetry_Int_Tables_number   1
_chemical_formula_structural   Ti4CrFe3(BiO5)4
_chemical_formula_sum   'Ti4 Cr1 Fe3 Bi4 O20'
_cell_volume   402.65673875
_cell_formula_units_Z   1
loop_
 _symmetry_equiv_pos_site_id
 _symmetry_equiv_pos_as_xyz
  1  'x, y, z'
loop_
 _atom_site_type_symbol
 _atom_site_label
 _atom_site_symmetry_multiplicity
 _atom_site_fract_x
 _atom_site_fract_y
 _atom_site_fract_z
 _atom_site_occupancy
  Ti  Ti0  1  0.499284  0.877307  0.142855  1
  Ti  Ti1  1  0.499590  0.623301  0.642364  1
  Ti  Ti2  1  0.499590  0.376699  0.357636  1
  Ti  Ti3  1  0.499284  0.122693  0.857145  1
  Cr  Cr4  1  0.252235  0.000000  0.500000  1
  Fe  Fe5  1  0.749897  0.500000  0.000000  1
  Fe  Fe6  1  0.249964  0.500000  0.000000  1
  Fe  Fe7  1  0.750690  0.000000  0.500000  1
  Bi  Bi8  1  0.000309  0.836322  0.836346  1
  Bi  Bi9  1  0.000145  0.334953  0.663146  1
  Bi  Bi10  1  0.000309  0.163678  0.163654  1
  Bi  Bi11  1  0.000145  0.665047  0.336854  1
  O  O12  1  0.499701  0.656545  0.080971  1
  O  O13  1  0.002649  0.160536  0.443531  1
  O  O14  1  0.258105  0.882652  0.293161  1
  O  O15  1  0.706086  0.000000  0.000000  1
  O  O16  1  0.740257  0.619593  0.792555  1
  O  O17  1  0.740870  0.117844  0.707354  1
  O  O18  1  0.499701  0.343455  0.919029  1
  O  O19  1  0.292871  0.500000  0.500000  1
  O  O20  1  0.002649  0.839464  0.556469  1
  O  O21  1  0.258105  0.117348  0.706839  1
  O  O22  1  0.000007  0.662352  0.056406  1
  O  O23  1  0.740257  0.380407  0.207445  1
  O  O24  1  0.740870  0.882156  0.292646  1
  O  O25  1  0.259106  0.618671  0.792493  1
  O  O26  1  0.292249  0.000000  0.000000  1
  O  O27  1  0.499409  0.843743  0.578452  1
  O  O28  1  0.499409  0.156257  0.421548  1
  O  O29  1  0.707146  0.500000  0.500000  1
  O  O30  1  0.259106  0.381329  0.207507  1
  O  O31  1  0.000007  0.337648  0.943594  1
