# generated using pymatgen
data_TbZr3(Nb3Si4)2
_symmetry_space_group_name_H-M   'P 1'
_cell_length_a   6.93679235
_cell_length_b   6.93385757
_cell_length_c   12.88088700
_cell_angle_alpha   90.00000000
_cell_angle_beta   90.00000000
_cell_angle_gamma   90.08672698
_symmetry_Int_Tables_number   1
_chemical_formula_structural   TbZr3(Nb3Si4)2
_chemical_formula_sum   'Tb2 Zr6 Nb12 Si16'
_cell_volume   619.55359809
_cell_formula_units_Z   2
loop_
 _symmetry_equiv_pos_site_id
 _symmetry_equiv_pos_as_xyz
  1  'x, y, z'
loop_
 _atom_site_type_symbol
 _atom_site_label
 _atom_site_symmetry_multiplicity
 _atom_site_fract_x
 _atom_site_fract_y
 _atom_site_fract_z
 _atom_site_occupancy
  Tb  Tb0  1  0.338656  0.997239  0.781515  1
  Tb  Tb1  1  0.661344  0.002761  0.281515  1
  Zr  Zr2  1  0.004562  0.343741  0.216665  1
  Zr  Zr3  1  0.995438  0.656259  0.716665  1
  Zr  Zr4  1  0.159281  0.502493  0.468375  1
  Zr  Zr5  1  0.497500  0.840257  0.033199  1
  Zr  Zr6  1  0.840719  0.497507  0.968375  1
  Zr  Zr7  1  0.502500  0.159743  0.533199  1
  Nb  Nb8  1  0.169000  0.170498  0.000322  1
  Nb  Nb9  1  0.831000  0.829502  0.500322  1
  Nb  Nb10  1  0.328054  0.667406  0.250209  1
  Nb  Nb11  1  0.671946  0.332594  0.750209  1
  Nb  Nb12  1  0.152671  0.993723  0.376135  1
  Nb  Nb13  1  0.847329  0.006277  0.876135  1
  Nb  Nb14  1  0.507507  0.653493  0.625382  1
  Nb  Nb15  1  0.347670  0.496774  0.874509  1
  Nb  Nb16  1  0.492493  0.346507  0.125382  1
  Nb  Nb17  1  0.652330  0.503226  0.374509  1
  Nb  Nb18  1  0.997283  0.156594  0.623094  1
  Nb  Nb19  1  0.002717  0.843406  0.123094  1
  Si  Si20  1  0.292454  0.043866  0.186355  1
  Si  Si21  1  0.707546  0.956134  0.686355  1
  Si  Si22  1  0.454460  0.796326  0.437922  1
  Si  Si23  1  0.202528  0.544042  0.062779  1
  Si  Si24  1  0.545540  0.203674  0.937922  1
  Si  Si25  1  0.797472  0.455958  0.562779  1
  Si  Si26  1  0.043951  0.300984  0.813345  1
  Si  Si27  1  0.956049  0.699016  0.313345  1
  Si  Si28  1  0.361326  0.294337  0.322319  1
  Si  Si29  1  0.638674  0.705663  0.822319  1
  Si  Si30  1  0.205435  0.864505  0.569742  1
  Si  Si31  1  0.130903  0.789425  0.930963  1
  Si  Si32  1  0.794565  0.135495  0.069742  1
  Si  Si33  1  0.869097  0.210575  0.430963  1
  Si  Si34  1  0.293051  0.370053  0.677171  1
  Si  Si35  1  0.706949  0.629947  0.177171  1
