# generated using pymatgen
data_Ba3LaTi4O12
_symmetry_space_group_name_H-M   'P 1'
_cell_length_a   4.00604800
_cell_length_b   5.69014500
_cell_length_c   11.37979000
_cell_angle_alpha   90.00000000
_cell_angle_beta   90.00000000
_cell_angle_gamma   90.00000000
_symmetry_Int_Tables_number   1
_chemical_formula_structural   Ba3LaTi4O12
_chemical_formula_sum   'Ba3 La1 Ti4 O12'
_cell_volume   259.40224474
_cell_formula_units_Z   1
loop_
 _symmetry_equiv_pos_site_id
 _symmetry_equiv_pos_as_xyz
  1  'x, y, z'
loop_
 _atom_site_type_symbol
 _atom_site_label
 _atom_site_symmetry_multiplicity
 _atom_site_fract_x
 _atom_site_fract_y
 _atom_site_fract_z
 _atom_site_occupancy
  Ba  Ba0  1  0.500000  0.000000  0.250776  1
  Ba  Ba1  1  0.500000  0.500000  0.500000  1
  Ba  Ba2  1  0.500000  0.000000  0.749224  1
  La  La3  1  0.500000  0.500000  0.000000  1
  Ti  Ti4  1  0.000000  0.000000  0.500000  1
  Ti  Ti5  1  0.000000  0.500000  0.749504  1
  Ti  Ti6  1  0.000000  0.000000  0.000000  1
  Ti  Ti7  1  0.000000  0.500000  0.250496  1
  O  O8  1  0.000000  0.251842  0.628040  1
  O  O9  1  0.000000  0.740713  0.882695  1
  O  O10  1  0.000000  0.259287  0.117305  1
  O  O11  1  0.000000  0.748158  0.371960  1
  O  O12  1  0.000000  0.251842  0.371960  1
  O  O13  1  0.000000  0.748158  0.628040  1
  O  O14  1  0.000000  0.259287  0.882695  1
  O  O15  1  0.000000  0.740713  0.117305  1
  O  O16  1  0.500000  0.000000  0.500000  1
  O  O17  1  0.500000  0.500000  0.762895  1
  O  O18  1  0.500000  0.000000  0.000000  1
  O  O19  1  0.500000  0.500000  0.237105  1
