# generated using pymatgen
data_Ca(ZrSe2)8
_symmetry_space_group_name_H-M   'P 1'
_cell_length_a   7.58321700
_cell_length_b   7.58321663
_cell_length_c   14.34262000
_cell_angle_alpha   90.00000000
_cell_angle_beta   90.00000000
_cell_angle_gamma   119.99998854
_symmetry_Int_Tables_number   1
_chemical_formula_structural   Ca(ZrSe2)8
_chemical_formula_sum   'Ca1 Zr8 Se16'
_cell_volume   714.27610281
_cell_formula_units_Z   1
loop_
 _symmetry_equiv_pos_site_id
 _symmetry_equiv_pos_as_xyz
  1  'x, y, z'
loop_
 _atom_site_type_symbol
 _atom_site_label
 _atom_site_symmetry_multiplicity
 _atom_site_fract_x
 _atom_site_fract_y
 _atom_site_fract_z
 _atom_site_occupancy
  Ca  Ca0  1  0.000000  0.000000  0.000000  1
  Zr  Zr1  1  0.502187  0.497813  0.744333  1
  Zr  Zr2  1  0.497813  0.502187  0.255667  1
  Zr  Zr3  1  0.502187  0.004374  0.744333  1
  Zr  Zr4  1  0.497813  0.995626  0.255667  1
  Zr  Zr5  1  0.995626  0.497813  0.744333  1
  Zr  Zr6  1  0.004374  0.502187  0.255667  1
  Zr  Zr7  1  0.000000  0.000000  0.738661  1
  Zr  Zr8  1  0.000000  0.000000  0.261339  1
  Se  Se9  1  0.834065  0.668132  0.141805  1
  Se  Se10  1  0.832236  0.664473  0.631718  1
  Se  Se11  1  0.834065  0.165935  0.141805  1
  Se  Se12  1  0.832236  0.167764  0.631718  1
  Se  Se13  1  0.333333  0.666667  0.141781  1
  Se  Se14  1  0.333333  0.666667  0.636058  1
  Se  Se15  1  0.331868  0.165935  0.141805  1
  Se  Se16  1  0.335527  0.167764  0.631718  1
  Se  Se17  1  0.668132  0.834065  0.858195  1
  Se  Se18  1  0.664473  0.832236  0.368282  1
  Se  Se19  1  0.666667  0.333333  0.858219  1
  Se  Se20  1  0.666667  0.333333  0.363942  1
  Se  Se21  1  0.165935  0.834065  0.858195  1
  Se  Se22  1  0.167764  0.832236  0.368282  1
  Se  Se23  1  0.165935  0.331868  0.858195  1
  Se  Se24  1  0.167764  0.335527  0.368282  1
