# generated using pymatgen
data_LiTb3Ag2SnGe2
_symmetry_space_group_name_H-M   'P 1'
_cell_length_a   7.23716702
_cell_length_b   7.20529711
_cell_length_c   4.35714500
_cell_angle_alpha   90.00000000
_cell_angle_beta   90.00000000
_cell_angle_gamma   119.85442811
_symmetry_Int_Tables_number   1
_chemical_formula_structural   LiTb3Ag2SnGe2
_chemical_formula_sum   'Li1 Tb3 Ag2 Sn1 Ge2'
_cell_volume   197.05539260
_cell_formula_units_Z   1
loop_
 _symmetry_equiv_pos_site_id
 _symmetry_equiv_pos_as_xyz
  1  'x, y, z'
loop_
 _atom_site_type_symbol
 _atom_site_label
 _atom_site_symmetry_multiplicity
 _atom_site_fract_x
 _atom_site_fract_y
 _atom_site_fract_z
 _atom_site_occupancy
  Li  Li0  1  0.000000  0.239551  0.500000  1
  Tb  Tb1  1  0.000000  0.567993  0.000000  1
  Tb  Tb2  1  0.561843  0.998853  0.000000  1
  Tb  Tb3  1  0.438157  0.437009  0.000000  1
  Ag  Ag4  1  0.253557  0.002133  0.500000  1
  Ag  Ag5  1  0.746443  0.748577  0.500000  1
  Sn  Sn6  1  0.000000  0.009262  0.000000  1
  Ge  Ge7  1  0.327868  0.662247  0.500000  1
  Ge  Ge8  1  0.672132  0.334378  0.500000  1
