# generated using pymatgen
data_ScAlInNi3
_symmetry_space_group_name_H-M   'P 1'
_cell_length_a   4.87597530
_cell_length_b   4.87597578
_cell_length_c   4.87597585
_cell_angle_alpha   62.46492749
_cell_angle_beta   62.46491640
_cell_angle_gamma   62.46492960
_symmetry_Int_Tables_number   1
_chemical_formula_structural   ScAlInNi3
_chemical_formula_sum   'Sc1 Al1 In1 Ni3'
_cell_volume   86.47683442
_cell_formula_units_Z   1
loop_
 _symmetry_equiv_pos_site_id
 _symmetry_equiv_pos_as_xyz
  1  'x, y, z'
loop_
 _atom_site_type_symbol
 _atom_site_label
 _atom_site_symmetry_multiplicity
 _atom_site_fract_x
 _atom_site_fract_y
 _atom_site_fract_z
 _atom_site_occupancy
  Sc  Sc0  1  0.249602  0.249602  0.249602  1
  Al  Al1  1  0.624460  0.624460  0.624460  1
  In  In2  1  0.999498  0.999498  0.999498  1
  Ni  Ni3  1  0.626083  0.626083  0.124273  1
  Ni  Ni4  1  0.626083  0.124273  0.626083  1
  Ni  Ni5  1  0.124273  0.626083  0.626083  1
