# generated using pymatgen
data_YThNi2Ag
_symmetry_space_group_name_H-M   'P 1'
_cell_length_a   7.39887182
_cell_length_b   7.39887203
_cell_length_c   3.69802100
_cell_angle_alpha   90.00000000
_cell_angle_beta   90.00000000
_cell_angle_gamma   91.49116686
_symmetry_Int_Tables_number   1
_chemical_formula_structural   YThNi2Ag
_chemical_formula_sum   'Y2 Th2 Ni4 Ag2'
_cell_volume   202.37333705
_cell_formula_units_Z   2
loop_
 _symmetry_equiv_pos_site_id
 _symmetry_equiv_pos_as_xyz
  1  'x, y, z'
loop_
 _atom_site_type_symbol
 _atom_site_label
 _atom_site_symmetry_multiplicity
 _atom_site_fract_x
 _atom_site_fract_y
 _atom_site_fract_z
 _atom_site_occupancy
  Y  Y0  1  0.173776  0.326224  0.500000  1
  Y  Y1  1  0.826224  0.673776  0.500000  1
  Th  Th2  1  0.675884  0.175884  0.500000  1
  Th  Th3  1  0.324116  0.824116  0.500000  1
  Ni  Ni4  1  0.123767  0.623767  0.000000  1
  Ni  Ni5  1  0.876233  0.376233  0.000000  1
  Ni  Ni6  1  0.618846  0.881154  0.000000  1
  Ni  Ni7  1  0.381154  0.118846  0.000000  1
  Ag  Ag8  1  0.500000  0.500000  0.000000  1
  Ag  Ag9  1  0.000000  0.000000  0.000000  1
