# generated using pymatgen
data_Hf5ReSb2
_symmetry_space_group_name_H-M   'P 1'
_cell_length_a   5.59991324
_cell_length_b   8.30974153
_cell_length_c   8.30974096
_cell_angle_alpha   83.48090162
_cell_angle_beta   70.30892485
_cell_angle_gamma   70.30892231
_symmetry_Int_Tables_number   1
_chemical_formula_structural   Hf5ReSb2
_chemical_formula_sum   'Hf10 Re2 Sb4'
_cell_volume   342.78215011
_cell_formula_units_Z   2
loop_
 _symmetry_equiv_pos_site_id
 _symmetry_equiv_pos_as_xyz
  1  'x, y, z'
loop_
 _atom_site_type_symbol
 _atom_site_label
 _atom_site_symmetry_multiplicity
 _atom_site_fract_x
 _atom_site_fract_y
 _atom_site_fract_z
 _atom_site_occupancy
  Hf  Hf0  1  0.072393  0.136001  0.719212  1
  Hf  Hf1  1  0.927607  0.863999  0.280788  1
  Hf  Hf2  1  0.791605  0.280788  0.136001  1
  Hf  Hf3  1  0.427607  0.280788  0.863999  1
  Hf  Hf4  1  0.208395  0.719212  0.863999  1
  Hf  Hf5  1  0.572393  0.719212  0.136001  1
  Hf  Hf6  1  0.708395  0.863999  0.719212  1
  Hf  Hf7  1  0.291605  0.136001  0.280788  1
  Hf  Hf8  1  0.250000  0.500000  0.500000  1
  Hf  Hf9  1  0.750000  0.500000  0.500000  1
  Re  Re10  1  0.250000  0.000000  0.000000  1
  Re  Re11  1  0.750000  0.000000  0.000000  1
  Sb  Sb12  1  0.163782  0.500000  0.172435  1
  Sb  Sb13  1  0.836218  0.500000  0.827565  1
  Sb  Sb14  1  0.336218  0.827565  0.500000  1
  Sb  Sb15  1  0.663782  0.172435  0.500000  1
