# generated using pymatgen
data_Tb16Ho4Si15Os
_symmetry_space_group_name_H-M   'P 1'
_cell_length_a   7.40767019
_cell_length_b   7.76783930
_cell_length_c   14.65116700
_cell_angle_alpha   90.00000000
_cell_angle_beta   90.00000000
_cell_angle_gamma   89.99959053
_symmetry_Int_Tables_number   1
_chemical_formula_structural   Tb16Ho4Si15Os
_chemical_formula_sum   'Tb16 Ho4 Si15 Os1'
_cell_volume   843.05146875
_cell_formula_units_Z   1
loop_
 _symmetry_equiv_pos_site_id
 _symmetry_equiv_pos_as_xyz
  1  'x, y, z'
loop_
 _atom_site_type_symbol
 _atom_site_label
 _atom_site_symmetry_multiplicity
 _atom_site_fract_x
 _atom_site_fract_y
 _atom_site_fract_z
 _atom_site_occupancy
  Tb  Tb0  1  0.672337  0.185096  0.625114  1
  Tb  Tb1  1  0.190951  0.323882  0.873625  1
  Tb  Tb2  1  0.318691  0.819376  0.123364  1
  Tb  Tb3  1  0.817454  0.679205  0.377139  1
  Tb  Tb4  1  0.318691  0.819376  0.376636  1
  Tb  Tb5  1  0.817454  0.679205  0.122861  1
  Tb  Tb6  1  0.672337  0.185096  0.874886  1
  Tb  Tb7  1  0.190951  0.323882  0.626375  1
  Tb  Tb8  1  0.522458  0.673964  0.597338  1
  Tb  Tb9  1  0.026950  0.815981  0.903268  1
  Tb  Tb10  1  0.473140  0.315260  0.097383  1
  Tb  Tb11  1  0.973193  0.183574  0.402742  1
  Tb  Tb12  1  0.473140  0.315260  0.402617  1
  Tb  Tb13  1  0.973193  0.183574  0.097258  1
  Tb  Tb14  1  0.522458  0.673964  0.902662  1
  Tb  Tb15  1  0.026950  0.815981  0.596732  1
  Ho  Ho16  1  0.840380  0.512564  0.750000  1
  Ho  Ho17  1  0.354601  0.986046  0.750000  1
  Ho  Ho18  1  0.150512  0.484125  0.250000  1
  Ho  Ho19  1  0.649965  0.014933  0.250000  1
  Si  Si20  1  0.645244  0.972123  0.459903  1
  Si  Si21  1  0.148078  0.527923  0.039644  1
  Si  Si22  1  0.350268  0.025091  0.960590  1
  Si  Si23  1  0.857194  0.471446  0.539383  1
  Si  Si24  1  0.350268  0.025091  0.539410  1
  Si  Si25  1  0.857194  0.471446  0.960617  1
  Si  Si26  1  0.645244  0.972123  0.040097  1
  Si  Si27  1  0.148078  0.527923  0.460356  1
  Si  Si28  1  0.979740  0.099603  0.750000  1
  Si  Si29  1  0.523669  0.601312  0.250000  1
  Si  Si30  1  0.020349  0.896249  0.250000  1
  Si  Si31  1  0.741190  0.875429  0.750000  1
  Si  Si32  1  0.231447  0.634329  0.750000  1
  Si  Si33  1  0.266505  0.128046  0.250000  1
  Si  Si34  1  0.768279  0.372911  0.250000  1
  Os  Os35  1  0.481441  0.408607  0.750000  1
