# generated using pymatgen
data_DyTh(BRu)4
_symmetry_space_group_name_H-M   'P 1'
_cell_length_a   6.72869570
_cell_length_b   5.97688009
_cell_length_c   5.56829650
_cell_angle_alpha   71.19726613
_cell_angle_beta   57.23145811
_cell_angle_gamma   51.57127743
_symmetry_Int_Tables_number   1
_chemical_formula_structural   DyTh(BRu)4
_chemical_formula_sum   'Dy1 Th1 B4 Ru4'
_cell_volume   147.47812524
_cell_formula_units_Z   1
loop_
 _symmetry_equiv_pos_site_id
 _symmetry_equiv_pos_as_xyz
  1  'x, y, z'
loop_
 _atom_site_type_symbol
 _atom_site_label
 _atom_site_symmetry_multiplicity
 _atom_site_fract_x
 _atom_site_fract_y
 _atom_site_fract_z
 _atom_site_occupancy
  Dy  Dy0  1  0.000000  0.000000  0.000000  1
  Th  Th1  1  0.250000  0.250000  0.250000  1
  B  B2  1  0.312055  0.687945  0.312055  1
  B  B3  1  0.687945  0.312055  0.687945  1
  B  B4  1  0.568125  0.931875  0.568125  1
  B  B5  1  0.931875  0.568125  0.931875  1
  Ru  Ru6  1  0.636676  0.636676  0.363324  1
  Ru  Ru7  1  0.363324  0.363324  0.636676  1
  Ru  Ru8  1  0.612170  0.612170  0.887830  1
  Ru  Ru9  1  0.887830  0.887830  0.612170  1
