# generated using pymatgen
data_Dy2CoNiRu2
_symmetry_space_group_name_H-M   'P 1'
_cell_length_a   5.16896060
_cell_length_b   5.27386844
_cell_length_c   5.16896002
_cell_angle_alpha   120.31491878
_cell_angle_beta   120.39413579
_cell_angle_gamma   88.82388821
_symmetry_Int_Tables_number   1
_chemical_formula_structural   Dy2CoNiRu2
_chemical_formula_sum   'Dy2 Co1 Ni1 Ru2'
_cell_volume   99.56787795
_cell_formula_units_Z   1
loop_
 _symmetry_equiv_pos_site_id
 _symmetry_equiv_pos_as_xyz
  1  'x, y, z'
loop_
 _atom_site_type_symbol
 _atom_site_label
 _atom_site_symmetry_multiplicity
 _atom_site_fract_x
 _atom_site_fract_y
 _atom_site_fract_z
 _atom_site_occupancy
  Dy  Dy0  1  0.377614  0.131053  0.253439  1
  Dy  Dy1  1  0.622386  0.868947  0.746561  1
  Co  Co2  1  0.000000  0.500000  0.000000  1
  Ni  Ni3  1  0.000000  0.000000  0.500000  1
  Ru  Ru4  1  0.000000  0.500000  0.500000  1
  Ru  Ru5  1  0.500000  0.500000  0.000000  1
