# generated using pymatgen
data_Cs2Li(IrO4)3
_symmetry_space_group_name_H-M   'P 1'
_cell_length_a   7.42376385
_cell_length_b   7.42376350
_cell_length_c   7.42376315
_cell_angle_alpha   58.52341953
_cell_angle_beta   58.52341682
_cell_angle_gamma   58.52342342
_symmetry_Int_Tables_number   1
_chemical_formula_structural   Cs2Li(IrO4)3
_chemical_formula_sum   'Cs2 Li1 Ir3 O12'
_cell_volume   279.53506167
_cell_formula_units_Z   1
loop_
 _symmetry_equiv_pos_site_id
 _symmetry_equiv_pos_as_xyz
  1  'x, y, z'
loop_
 _atom_site_type_symbol
 _atom_site_label
 _atom_site_symmetry_multiplicity
 _atom_site_fract_x
 _atom_site_fract_y
 _atom_site_fract_z
 _atom_site_occupancy
  Cs  Cs0  1  0.621558  0.621558  0.621558  1
  Cs  Cs1  1  0.378442  0.378442  0.378442  1
  Li  Li2  1  0.000000  0.000000  0.000000  1
  Ir  Ir3  1  0.500000  0.000000  0.000000  1
  Ir  Ir4  1  0.000000  0.500000  0.000000  1
  Ir  Ir5  1  0.000000  0.000000  0.500000  1
  O  O6  1  0.921008  0.326555  0.326555  1
  O  O7  1  0.046509  0.046509  0.685954  1
  O  O8  1  0.046509  0.685954  0.046509  1
  O  O9  1  0.953491  0.314046  0.953491  1
  O  O10  1  0.953491  0.953491  0.314046  1
  O  O11  1  0.685954  0.046509  0.046509  1
  O  O12  1  0.326555  0.326555  0.921008  1
  O  O13  1  0.326555  0.921008  0.326555  1
  O  O14  1  0.673445  0.078992  0.673445  1
  O  O15  1  0.078992  0.673445  0.673445  1
  O  O16  1  0.673445  0.673445  0.078992  1
  O  O17  1  0.314046  0.953491  0.953491  1
