# generated using pymatgen
data_Ca20Si11Pt
_symmetry_space_group_name_H-M   'P 1'
_cell_length_a   7.65392400
_cell_length_b   7.65392400
_cell_length_c   14.69498300
_cell_angle_alpha   90.00000000
_cell_angle_beta   90.00000000
_cell_angle_gamma   90.00000000
_symmetry_Int_Tables_number   1
_chemical_formula_structural   Ca20Si11Pt
_chemical_formula_sum   'Ca20 Si11 Pt1'
_cell_volume   860.86961452
_cell_formula_units_Z   1
loop_
 _symmetry_equiv_pos_site_id
 _symmetry_equiv_pos_as_xyz
  1  'x, y, z'
loop_
 _atom_site_type_symbol
 _atom_site_label
 _atom_site_symmetry_multiplicity
 _atom_site_fract_x
 _atom_site_fract_y
 _atom_site_fract_z
 _atom_site_occupancy
  Ca  Ca0  1  0.316941  0.674164  0.107580  1
  Ca  Ca1  1  0.174164  0.183059  0.107580  1
  Ca  Ca2  1  0.500000  0.000000  0.743066  1
  Ca  Ca3  1  0.324970  0.683819  0.390838  1
  Ca  Ca4  1  0.674695  0.682087  0.892376  1
  Ca  Ca5  1  0.183819  0.175030  0.390838  1
  Ca  Ca6  1  0.675030  0.316181  0.390838  1
  Ca  Ca7  1  0.175700  0.816003  0.609147  1
  Ca  Ca8  1  0.325305  0.317913  0.892376  1
  Ca  Ca9  1  0.182087  0.825305  0.892376  1
  Ca  Ca10  1  0.500000  0.000000  0.241895  1
  Ca  Ca11  1  0.824300  0.183997  0.609147  1
  Ca  Ca12  1  0.316003  0.324300  0.609147  1
  Ca  Ca13  1  0.816181  0.824970  0.390838  1
  Ca  Ca14  1  0.817913  0.174695  0.892376  1
  Ca  Ca15  1  0.825836  0.816941  0.107580  1
  Ca  Ca16  1  0.000000  0.500000  0.261119  1
  Ca  Ca17  1  0.000000  0.500000  0.756175  1
  Ca  Ca18  1  0.683059  0.325836  0.107580  1
  Ca  Ca19  1  0.683997  0.675700  0.609147  1
  Si  Si20  1  0.111022  0.113567  0.750717  1
  Si  Si21  1  0.386433  0.611022  0.750717  1
  Si  Si22  1  0.613840  0.610962  0.249245  1
  Si  Si23  1  0.500000  0.000000  0.003239  1
  Si  Si24  1  0.110962  0.886160  0.249245  1
  Si  Si25  1  0.613567  0.388978  0.750717  1
  Si  Si26  1  0.888978  0.886433  0.750717  1
  Si  Si27  1  0.386160  0.389038  0.249245  1
  Si  Si28  1  0.889038  0.113840  0.249245  1
  Si  Si29  1  0.500000  0.000000  0.503281  1
  Si  Si30  1  0.000000  0.500000  0.496869  1
  Pt  Pt31  1  0.000000  0.500000  0.994750  1
