# generated using pymatgen
data_TbErLu4(Co3P2)6
_symmetry_space_group_name_H-M   'P 1'
_cell_length_a   3.66847500
_cell_length_b   10.46885200
_cell_length_c   12.10478100
_cell_angle_alpha   90.00000000
_cell_angle_beta   90.00000000
_cell_angle_gamma   90.00000000
_symmetry_Int_Tables_number   1
_chemical_formula_structural   TbErLu4(Co3P2)6
_chemical_formula_sum   'Tb1 Er1 Lu4 Co18 P12'
_cell_volume   464.88074725
_cell_formula_units_Z   1
loop_
 _symmetry_equiv_pos_site_id
 _symmetry_equiv_pos_as_xyz
  1  'x, y, z'
loop_
 _atom_site_type_symbol
 _atom_site_label
 _atom_site_symmetry_multiplicity
 _atom_site_fract_x
 _atom_site_fract_y
 _atom_site_fract_z
 _atom_site_occupancy
  Tb  Tb0  1  0.500000  0.000000  0.476933  1
  Er  Er1  1  0.000000  0.500000  0.522885  1
  Lu  Lu2  1  0.500000  0.818474  0.205616  1
  Lu  Lu3  1  0.500000  0.181526  0.205616  1
  Lu  Lu4  1  0.000000  0.681345  0.794212  1
  Lu  Lu5  1  0.000000  0.318655  0.794212  1
  Co  Co6  1  0.500000  0.500000  0.159275  1
  Co  Co7  1  0.000000  0.000000  0.840961  1
  Co  Co8  1  0.500000  0.500000  0.704453  1
  Co  Co9  1  0.000000  0.000000  0.294513  1
  Co  Co10  1  0.000000  0.500000  0.986803  1
  Co  Co11  1  0.500000  0.000000  0.013178  1
  Co  Co12  1  0.500000  0.332971  0.994793  1
  Co  Co13  1  0.500000  0.667029  0.994793  1
  Co  Co14  1  0.000000  0.167051  0.005199  1
  Co  Co15  1  0.000000  0.832949  0.005199  1
  Co  Co16  1  0.500000  0.297921  0.430436  1
  Co  Co17  1  0.500000  0.702079  0.430436  1
  Co  Co18  1  0.000000  0.203423  0.569796  1
  Co  Co19  1  0.000000  0.796577  0.569796  1
  Co  Co20  1  0.500000  0.878086  0.710435  1
  Co  Co21  1  0.500000  0.121914  0.710435  1
  Co  Co22  1  0.000000  0.621606  0.289910  1
  Co  Co23  1  0.000000  0.378394  0.289910  1
  P  P24  1  0.500000  0.500000  0.882612  1
  P  P25  1  0.000000  0.000000  0.117136  1
  P  P26  1  0.500000  0.500000  0.345106  1
  P  P27  1  0.000000  0.000000  0.656067  1
  P  P28  1  0.500000  0.311937  0.617319  1
  P  P29  1  0.500000  0.688063  0.617319  1
  P  P30  1  0.000000  0.189046  0.382254  1
  P  P31  1  0.000000  0.810954  0.382254  1
  P  P32  1  0.500000  0.846043  0.891974  1
  P  P33  1  0.500000  0.153957  0.891974  1
  P  P34  1  0.000000  0.653872  0.108095  1
  P  P35  1  0.000000  0.346128  0.108095  1
