# generated using pymatgen
data_Tm9Lu(Sn3Se)2
_symmetry_space_group_name_H-M   'P 1'
_cell_length_a   8.99142500
_cell_length_b   8.99142658
_cell_length_c   6.60888100
_cell_angle_alpha   90.00000000
_cell_angle_beta   90.00000000
_cell_angle_gamma   119.99999787
_symmetry_Int_Tables_number   1
_chemical_formula_structural   Tm9Lu(Sn3Se)2
_chemical_formula_sum   'Tm9 Lu1 Sn6 Se2'
_cell_volume   462.71726188
_cell_formula_units_Z   1
loop_
 _symmetry_equiv_pos_site_id
 _symmetry_equiv_pos_as_xyz
  1  'x, y, z'
loop_
 _atom_site_type_symbol
 _atom_site_label
 _atom_site_symmetry_multiplicity
 _atom_site_fract_x
 _atom_site_fract_y
 _atom_site_fract_z
 _atom_site_occupancy
  Tm  Tm0  1  0.666667  0.333333  0.000000  1
  Tm  Tm1  1  0.333333  0.666667  0.000000  1
  Tm  Tm2  1  0.333333  0.666667  0.500000  1
  Tm  Tm3  1  0.746353  0.746299  0.749928  1
  Tm  Tm4  1  0.253701  0.000055  0.749928  1
  Tm  Tm5  1  0.999945  0.253647  0.749928  1
  Tm  Tm6  1  0.253701  0.253647  0.250072  1
  Tm  Tm7  1  0.746353  0.000055  0.250072  1
  Tm  Tm8  1  0.999945  0.746299  0.250072  1
  Lu  Lu9  1  0.666667  0.333333  0.500000  1
  Sn  Sn10  1  0.396590  0.396257  0.749688  1
  Sn  Sn11  1  0.603743  0.000334  0.749688  1
  Sn  Sn12  1  0.999666  0.603410  0.749688  1
  Sn  Sn13  1  0.603743  0.603410  0.250312  1
  Sn  Sn14  1  0.396590  0.000334  0.250312  1
  Sn  Sn15  1  0.999666  0.396257  0.250312  1
  Se  Se16  1  0.000000  0.000000  0.000000  1
  Se  Se17  1  0.000000  0.000000  0.500000  1
