# generated using pymatgen
data_Pr3EuSn12
_symmetry_space_group_name_H-M   'P 1'
_cell_length_a   11.97716405
_cell_length_b   11.97716360
_cell_length_c   11.97716400
_cell_angle_alpha   32.48885424
_cell_angle_beta   32.48885765
_cell_angle_gamma   32.48886163
_symmetry_Int_Tables_number   1
_chemical_formula_structural   Pr3EuSn12
_chemical_formula_sum   'Pr3 Eu1 Sn12'
_cell_volume   440.77892520
_cell_formula_units_Z   1
loop_
 _symmetry_equiv_pos_site_id
 _symmetry_equiv_pos_as_xyz
  1  'x, y, z'
loop_
 _atom_site_type_symbol
 _atom_site_label
 _atom_site_symmetry_multiplicity
 _atom_site_fract_x
 _atom_site_fract_y
 _atom_site_fract_z
 _atom_site_occupancy
  Pr  Pr0  1  0.877957  0.877957  0.877957  1
  Pr  Pr1  1  0.121863  0.121863  0.121863  1
  Pr  Pr2  1  0.707316  0.707316  0.707316  1
  Eu  Eu3  1  0.291664  0.291664  0.291664  1
  Sn  Sn4  1  0.292809  0.792766  0.792766  1
  Sn  Sn5  1  0.792766  0.792766  0.292809  1
  Sn  Sn6  1  0.854884  0.385884  0.385884  1
  Sn  Sn7  1  0.385884  0.385884  0.854884  1
  Sn  Sn8  1  0.385884  0.854884  0.385884  1
  Sn  Sn9  1  0.616257  0.142349  0.616257  1
  Sn  Sn10  1  0.142349  0.616257  0.616257  1
  Sn  Sn11  1  0.616257  0.616257  0.142349  1
  Sn  Sn12  1  0.792766  0.292809  0.792766  1
  Sn  Sn13  1  0.208947  0.703453  0.208947  1
  Sn  Sn14  1  0.208947  0.208947  0.703453  1
  Sn  Sn15  1  0.703453  0.208947  0.208947  1
