# generated using pymatgen
data_Pu2V2O11
_symmetry_space_group_name_H-M   'P 1'
_cell_length_a   13.11541900
_cell_length_b   6.15143605
_cell_length_c   7.34997305
_cell_angle_alpha   59.76698770
_cell_angle_beta   90.00000000
_cell_angle_gamma   90.00000000
_symmetry_Int_Tables_number   1
_chemical_formula_structural   Pu2V2O11
_chemical_formula_sum   'Pu4 V4 O22'
_cell_volume   512.33089710
_cell_formula_units_Z   2
loop_
 _symmetry_equiv_pos_site_id
 _symmetry_equiv_pos_as_xyz
  1  'x, y, z'
loop_
 _atom_site_type_symbol
 _atom_site_label
 _atom_site_symmetry_multiplicity
 _atom_site_fract_x
 _atom_site_fract_y
 _atom_site_fract_z
 _atom_site_occupancy
  Pu  Pu0  1  0.676784  0.162619  0.171102  1
  Pu  Pu1  1  0.176784  0.837381  0.328898  1
  Pu  Pu2  1  0.323216  0.837381  0.828898  1
  Pu  Pu3  1  0.823216  0.162619  0.671102  1
  V  V4  1  0.929309  0.210241  0.146570  1
  V  V5  1  0.429309  0.789759  0.353430  1
  V  V6  1  0.070691  0.789759  0.853430  1
  V  V7  1  0.570691  0.210241  0.646570  1
  O  O8  1  0.511296  0.039491  0.237339  1
  O  O9  1  0.011296  0.960509  0.262661  1
  O  O10  1  0.488704  0.960509  0.762661  1
  O  O11  1  0.988704  0.039491  0.737339  1
  O  O12  1  0.657885  0.173107  0.487285  1
  O  O13  1  0.157885  0.826893  0.012715  1
  O  O14  1  0.342115  0.826893  0.512715  1
  O  O15  1  0.842115  0.173107  0.987285  1
  O  O16  1  0.500000  0.500000  0.500000  1
  O  O17  1  0.000000  0.500000  0.000000  1
  O  O18  1  0.846145  0.205323  0.331596  1
  O  O19  1  0.346145  0.794677  0.168404  1
  O  O20  1  0.153855  0.794677  0.668404  1
  O  O21  1  0.653855  0.205323  0.831596  1
  O  O22  1  0.797728  0.836913  0.799734  1
  O  O23  1  0.647756  0.486394  0.044889  1
  O  O24  1  0.202272  0.163087  0.200266  1
  O  O25  1  0.702272  0.836913  0.299734  1
  O  O26  1  0.852244  0.486394  0.544889  1
  O  O27  1  0.352244  0.513606  0.955111  1
  O  O28  1  0.147756  0.513606  0.455111  1
  O  O29  1  0.297728  0.163087  0.700266  1
