# generated using pymatgen
data_YZr(Ga3Rh)3
_symmetry_space_group_name_H-M   'P 1'
_cell_length_a   7.52916804
_cell_length_b   7.51511964
_cell_length_c   9.42034600
_cell_angle_alpha   90.00000000
_cell_angle_beta   90.00000000
_cell_angle_gamma   119.95803705
_symmetry_Int_Tables_number   1
_chemical_formula_structural   YZr(Ga3Rh)3
_chemical_formula_sum   'Y2 Zr2 Ga18 Rh6'
_cell_volume   461.81056052
_cell_formula_units_Z   2
loop_
 _symmetry_equiv_pos_site_id
 _symmetry_equiv_pos_as_xyz
  1  'x, y, z'
loop_
 _atom_site_type_symbol
 _atom_site_label
 _atom_site_symmetry_multiplicity
 _atom_site_fract_x
 _atom_site_fract_y
 _atom_site_fract_z
 _atom_site_occupancy
  Y  Y0  1  0.667934  0.996135  0.250000  1
  Y  Y1  1  0.332056  0.003848  0.750000  1
  Zr  Zr2  1  0.996208  0.668739  0.250000  1
  Zr  Zr3  1  0.003796  0.331258  0.750000  1
  Ga  Ga4  1  0.329591  0.332893  0.568495  1
  Ga  Ga5  1  0.670410  0.667100  0.431504  1
  Ga  Ga6  1  0.670410  0.667100  0.068496  1
  Ga  Ga7  1  0.329591  0.332893  0.931505  1
  Ga  Ga8  1  0.335558  0.545461  0.250000  1
  Ga  Ga9  1  0.664437  0.454531  0.750000  1
  Ga  Ga10  1  0.551455  0.341378  0.250000  1
  Ga  Ga11  1  0.448546  0.658615  0.750000  1
  Ga  Ga12  1  0.999196  0.337772  0.078991  1
  Ga  Ga13  1  0.000793  0.662219  0.921008  1
  Ga  Ga14  1  0.000793  0.662219  0.578992  1
  Ga  Ga15  1  0.330361  0.996427  0.417449  1
  Ga  Ga16  1  0.999196  0.337772  0.421009  1
  Ga  Ga17  1  0.669642  0.003580  0.582551  1
  Ga  Ga18  1  0.669642  0.003580  0.917449  1
  Ga  Ga19  1  0.330361  0.996427  0.082551  1
  Ga  Ga20  1  0.123635  0.122758  0.250000  1
  Ga  Ga21  1  0.876364  0.877240  0.750000  1
  Rh  Rh22  1  0.000000  0.999996  0.000001  1
  Rh  Rh23  1  0.000000  0.999996  0.499999  1
  Rh  Rh24  1  0.671055  0.327820  0.999453  1
  Rh  Rh25  1  0.328954  0.672216  0.000556  1
  Rh  Rh26  1  0.328954  0.672216  0.499444  1
  Rh  Rh27  1  0.671055  0.327820  0.500547  1
