# generated using pymatgen
data_K4Li2HoAlSb4
_symmetry_space_group_name_H-M   'P 1'
_cell_length_a   9.50117781
_cell_length_b   9.50121313
_cell_length_c   9.50172612
_cell_angle_alpha   137.11945270
_cell_angle_beta   62.15294624
_cell_angle_gamma   137.25626907
_symmetry_Int_Tables_number   1
_chemical_formula_structural   K4Li2HoAlSb4
_chemical_formula_sum   'K4 Li2 Ho1 Al1 Sb4'
_cell_volume   391.43696185
_cell_formula_units_Z   1
loop_
 _symmetry_equiv_pos_site_id
 _symmetry_equiv_pos_as_xyz
  1  'x, y, z'
loop_
 _atom_site_type_symbol
 _atom_site_label
 _atom_site_symmetry_multiplicity
 _atom_site_fract_x
 _atom_site_fract_y
 _atom_site_fract_z
 _atom_site_occupancy
  K  K0  1  0.819890  0.260243  0.091754  1
  K  K1  1  0.680144  0.771930  0.440392  1
  K  K2  1  0.331544  0.239782  0.559629  1
  K  K3  1  0.168476  0.728068  0.908194  1
  Li  Li4  1  0.749990  0.250006  0.499987  1
  Li  Li5  1  0.249974  0.750002  0.499996  1
  Ho  Ho6  1  0.250009  0.250023  0.000029  1
  Al  Al7  1  0.749975  0.749974  0.999975  1
  Sb  Sb8  1  0.417584  0.755308  0.141148  1
  Sb  Sb9  1  0.082376  0.223569  0.337814  1
  Sb  Sb10  1  0.885842  0.744686  0.662271  1
  Sb  Sb11  1  0.614196  0.276411  0.858814  1
