# generated using pymatgen
data_LiDy5Tm11In3Rh4
_symmetry_space_group_name_H-M   'P 1'
_cell_length_a   9.57512978
_cell_length_b   9.56938569
_cell_length_c   9.56938527
_cell_angle_alpha   59.87825726
_cell_angle_beta   59.73393567
_cell_angle_gamma   59.73394052
_symmetry_Int_Tables_number   1
_chemical_formula_structural   LiDy5Tm11In3Rh4
_chemical_formula_sum   'Li1 Dy5 Tm11 In3 Rh4'
_cell_volume   616.93804521
_cell_formula_units_Z   1
loop_
 _symmetry_equiv_pos_site_id
 _symmetry_equiv_pos_as_xyz
  1  'x, y, z'
loop_
 _atom_site_type_symbol
 _atom_site_label
 _atom_site_symmetry_multiplicity
 _atom_site_fract_x
 _atom_site_fract_y
 _atom_site_fract_z
 _atom_site_occupancy
  Li  Li0  1  0.427799  0.427380  0.427380  1
  Dy  Dy1  1  0.062497  0.061690  0.437551  1
  Dy  Dy2  1  0.437194  0.063984  0.436405  1
  Dy  Dy3  1  0.062497  0.437551  0.061690  1
  Dy  Dy4  1  0.049367  0.649787  0.649787  1
  Dy  Dy5  1  0.437194  0.436405  0.063984  1
  Tm  Tm6  1  0.650601  0.047190  0.649630  1
  Tm  Tm7  1  0.186333  0.814630  0.186381  1
  Tm  Tm8  1  0.186333  0.186381  0.814630  1
  Tm  Tm9  1  0.808732  0.808970  0.191347  1
  Tm  Tm10  1  0.440054  0.059418  0.059418  1
  Tm  Tm11  1  0.814531  0.186674  0.186674  1
  Tm  Tm12  1  0.061274  0.438746  0.438746  1
  Tm  Tm13  1  0.808732  0.191347  0.808970  1
  Tm  Tm14  1  0.190624  0.809544  0.809544  1
  Tm  Tm15  1  0.650601  0.649630  0.047190  1
  Tm  Tm16  1  0.649360  0.650900  0.650900  1
  In  In17  1  0.745775  0.417513  0.417513  1
  In  In18  1  0.418762  0.746094  0.416103  1
  In  In19  1  0.418762  0.416103  0.746094  1
  Rh  Rh20  1  0.855968  0.857242  0.425816  1
  Rh  Rh21  1  0.854634  0.858738  0.858738  1
  Rh  Rh22  1  0.426407  0.858268  0.858268  1
  Rh  Rh23  1  0.855968  0.425816  0.857242  1
