# generated using pymatgen
data_Dy2LuCd3Ga2Ag
_symmetry_space_group_name_H-M   'P 1'
_cell_length_a   7.33230657
_cell_length_b   7.33230691
_cell_length_c   4.32408400
_cell_angle_alpha   90.00000000
_cell_angle_beta   90.00000000
_cell_angle_gamma   119.93143016
_symmetry_Int_Tables_number   1
_chemical_formula_structural   Dy2LuCd3Ga2Ag
_chemical_formula_sum   'Dy2 Lu1 Cd3 Ga2 Ag1'
_cell_volume   201.46781060
_cell_formula_units_Z   1
loop_
 _symmetry_equiv_pos_site_id
 _symmetry_equiv_pos_as_xyz
  1  'x, y, z'
loop_
 _atom_site_type_symbol
 _atom_site_label
 _atom_site_symmetry_multiplicity
 _atom_site_fract_x
 _atom_site_fract_y
 _atom_site_fract_z
 _atom_site_occupancy
  Dy  Dy0  1  0.577152  0.999286  0.500000  1
  Dy  Dy1  1  0.999286  0.577152  0.500000  1
  Lu  Lu2  1  0.421640  0.421640  0.500000  1
  Cd  Cd3  1  0.748466  0.748466  0.000000  1
  Cd  Cd4  1  0.251201  0.999901  0.000000  1
  Cd  Cd5  1  0.999901  0.251201  0.000000  1
  Ga  Ga6  1  0.665221  0.334145  0.000000  1
  Ga  Ga7  1  0.334145  0.665221  0.000000  1
  Ag  Ag8  1  0.002988  0.002988  0.500000  1
