# generated using pymatgen
data_Zr8Ti12Ga7Ge9
_symmetry_space_group_name_H-M   'P 1'
_cell_length_a   6.87717931
_cell_length_b   6.98031613
_cell_length_c   13.13073263
_cell_angle_alpha   90.05636053
_cell_angle_beta   90.06321423
_cell_angle_gamma   89.96680108
_symmetry_Int_Tables_number   1
_chemical_formula_structural   Zr8Ti12Ga7Ge9
_chemical_formula_sum   'Zr8 Ti12 Ga7 Ge9'
_cell_volume   630.33852531
_cell_formula_units_Z   1
loop_
 _symmetry_equiv_pos_site_id
 _symmetry_equiv_pos_as_xyz
  1  'x, y, z'
loop_
 _atom_site_type_symbol
 _atom_site_label
 _atom_site_symmetry_multiplicity
 _atom_site_fract_x
 _atom_site_fract_y
 _atom_site_fract_z
 _atom_site_occupancy
  Zr  Zr0  1  0.493369  0.672513  0.094033  1
  Zr  Zr1  1  0.993418  0.826680  0.405905  1
  Zr  Zr2  1  0.506103  0.327089  0.593895  1
  Zr  Zr3  1  0.005254  0.176542  0.907483  1
  Zr  Zr4  1  0.503817  0.327267  0.906693  1
  Zr  Zr5  1  0.000549  0.171976  0.594022  1
  Zr  Zr6  1  0.499746  0.672295  0.405739  1
  Zr  Zr7  1  0.998412  0.823972  0.093679  1
  Ti  Ti8  1  0.332506  0.007404  0.249017  1
  Ti  Ti9  1  0.832419  0.492878  0.249633  1
  Ti  Ti10  1  0.667238  0.992753  0.748907  1
  Ti  Ti11  1  0.167133  0.507561  0.751757  1
  Ti  Ti12  1  0.656088  0.170544  0.127978  1
  Ti  Ti13  1  0.154564  0.329319  0.371005  1
  Ti  Ti14  1  0.344859  0.829659  0.628929  1
  Ti  Ti15  1  0.846288  0.668643  0.872802  1
  Ti  Ti16  1  0.343044  0.830420  0.872042  1
  Ti  Ti17  1  0.842671  0.671617  0.627989  1
  Ti  Ti18  1  0.657356  0.171077  0.371869  1
  Ti  Ti19  1  0.154640  0.329639  0.127181  1
  Ga  Ga20  1  0.693695  0.854734  0.249105  1
  Ga  Ga21  1  0.194355  0.645514  0.251022  1
  Ga  Ga22  1  0.305306  0.146462  0.749638  1
  Ga  Ga23  1  0.806198  0.354580  0.750196  1
  Ga  Ga24  1  0.678404  0.959905  0.958023  1
  Ga  Ga25  1  0.178985  0.540238  0.541470  1
  Ga  Ga26  1  0.320843  0.039686  0.458549  1
  Ge  Ge27  1  0.818213  0.459831  0.041628  1
  Ge  Ge28  1  0.325279  0.039670  0.040924  1
  Ge  Ge29  1  0.826522  0.460238  0.459287  1
  Ge  Ge30  1  0.673720  0.960283  0.540289  1
  Ge  Ge31  1  0.180197  0.540967  0.958845  1
  Ge  Ge32  1  0.457481  0.381653  0.249992  1
  Ge  Ge33  1  0.958755  0.116329  0.249464  1
  Ge  Ge34  1  0.541742  0.617238  0.750594  1
  Ge  Ge35  1  0.040830  0.882825  0.750416  1
