# generated using pymatgen
data_Pr8Cd2IrOs
_symmetry_space_group_name_H-M   'P 1'
_cell_length_a   10.02483616
_cell_length_b   10.02483587
_cell_length_c   10.07409300
_cell_angle_alpha   59.83733216
_cell_angle_beta   59.83733312
_cell_angle_gamma   59.68974883
_symmetry_Int_Tables_number   1
_chemical_formula_structural   Pr8Cd2IrOs
_chemical_formula_sum   'Pr16 Cd4 Ir2 Os2'
_cell_volume   712.44225652
_cell_formula_units_Z   2
loop_
 _symmetry_equiv_pos_site_id
 _symmetry_equiv_pos_as_xyz
  1  'x, y, z'
loop_
 _atom_site_type_symbol
 _atom_site_label
 _atom_site_symmetry_multiplicity
 _atom_site_fract_x
 _atom_site_fract_y
 _atom_site_fract_z
 _atom_site_occupancy
  Pr  Pr0  1  0.346388  0.346388  0.348533  1
  Pr  Pr1  1  0.346388  0.346388  0.958689  1
  Pr  Pr2  1  0.345497  0.959579  0.347462  1
  Pr  Pr3  1  0.959579  0.345497  0.347462  1
  Pr  Pr4  1  0.810179  0.191025  0.191023  1
  Pr  Pr5  1  0.191025  0.810179  0.807773  1
  Pr  Pr6  1  0.191025  0.810179  0.191023  1
  Pr  Pr7  1  0.810179  0.191025  0.807773  1
  Pr  Pr8  1  0.191052  0.191052  0.808948  1
  Pr  Pr9  1  0.808803  0.808803  0.191197  1
  Pr  Pr10  1  0.939509  0.558743  0.561716  1
  Pr  Pr11  1  0.558743  0.939509  0.940032  1
  Pr  Pr12  1  0.558743  0.939509  0.561716  1
  Pr  Pr13  1  0.939509  0.558743  0.940032  1
  Pr  Pr14  1  0.561332  0.561332  0.938668  1
  Pr  Pr15  1  0.940920  0.940920  0.559080  1
  Cd  Cd16  1  0.579376  0.579376  0.579841  1
  Cd  Cd17  1  0.579376  0.579376  0.261406  1
  Cd  Cd18  1  0.579218  0.260894  0.579944  1
  Cd  Cd19  1  0.260894  0.579218  0.579944  1
  Ir  Ir20  1  0.141931  0.579196  0.139437  1
  Ir  Ir21  1  0.579196  0.141931  0.139437  1
  Os  Os22  1  0.140569  0.140569  0.137726  1
  Os  Os23  1  0.140569  0.140569  0.581136  1
