# generated using pymatgen
data_NdSn3SbRh6
_symmetry_space_group_name_H-M   'P 1'
_cell_length_a   7.65331200
_cell_length_b   7.65331233
_cell_length_c   4.06898200
_cell_angle_alpha   90.00000000
_cell_angle_beta   90.00000000
_cell_angle_gamma   119.99999856
_symmetry_Int_Tables_number   1
_chemical_formula_structural   NdSn3SbRh6
_chemical_formula_sum   'Nd1 Sn3 Sb1 Rh6'
_cell_volume   206.40264693
_cell_formula_units_Z   1
loop_
 _symmetry_equiv_pos_site_id
 _symmetry_equiv_pos_as_xyz
  1  'x, y, z'
loop_
 _atom_site_type_symbol
 _atom_site_label
 _atom_site_symmetry_multiplicity
 _atom_site_fract_x
 _atom_site_fract_y
 _atom_site_fract_z
 _atom_site_occupancy
  Nd  Nd0  1  0.000000  0.000000  0.000000  1
  Sn  Sn1  1  0.390976  0.195488  0.500001  1
  Sn  Sn2  1  0.804513  0.195488  0.500001  1
  Sn  Sn3  1  0.804513  0.609024  0.500001  1
  Sb  Sb4  1  0.333334  0.666667  0.000000  1
  Rh  Rh5  1  0.532168  0.064337  0.000000  1
  Rh  Rh6  1  0.532167  0.467831  0.000000  1
  Rh  Rh7  1  0.935662  0.467831  0.000000  1
  Rh  Rh8  1  0.203105  0.406211  0.500001  1
  Rh  Rh9  1  0.203106  0.796895  0.500001  1
  Rh  Rh10  1  0.593789  0.796895  0.500001  1
