# generated using pymatgen
data_Y2Er2(Ga8Pd3)3
_symmetry_space_group_name_H-M   'P 1'
_cell_length_a   7.50418813
_cell_length_b   7.56616094
_cell_length_c   13.40379389
_cell_angle_alpha   84.83333225
_cell_angle_beta   79.74813867
_cell_angle_gamma   60.22030054
_symmetry_Int_Tables_number   1
_chemical_formula_structural   Y2Er2(Ga8Pd3)3
_chemical_formula_sum   'Y2 Er2 Ga24 Pd9'
_cell_volume   649.99073281
_cell_formula_units_Z   1
loop_
 _symmetry_equiv_pos_site_id
 _symmetry_equiv_pos_as_xyz
  1  'x, y, z'
loop_
 _atom_site_type_symbol
 _atom_site_label
 _atom_site_symmetry_multiplicity
 _atom_site_fract_x
 _atom_site_fract_y
 _atom_site_fract_z
 _atom_site_occupancy
  Y  Y0  1  0.393846  0.168703  0.810884  1
  Y  Y1  1  0.606154  0.831297  0.189116  1
  Er  Er2  1  0.732657  0.497081  0.810575  1
  Er  Er3  1  0.267343  0.502919  0.189425  1
  Ga  Ga4  1  0.686639  0.832926  0.939937  1
  Ga  Ga5  1  0.313361  0.167074  0.060063  1
  Ga  Ga6  1  0.145236  0.834345  0.558833  1
  Ga  Ga7  1  0.854764  0.165655  0.441167  1
  Ga  Ga8  1  0.478630  0.166935  0.556689  1
  Ga  Ga9  1  0.521370  0.833065  0.443311  1
  Ga  Ga10  1  0.218381  0.165305  0.326962  1
  Ga  Ga11  1  0.781619  0.834695  0.673038  1
  Ga  Ga12  1  0.436803  0.505266  0.672806  1
  Ga  Ga13  1  0.563197  0.494734  0.327194  1
  Ga  Ga14  1  0.107539  0.161411  0.671754  1
  Ga  Ga15  1  0.892461  0.838589  0.328246  1
  Ga  Ga16  1  0.356146  0.499272  0.941014  1
  Ga  Ga17  1  0.643854  0.500728  0.058986  1
  Ga  Ga18  1  0.017389  0.168329  0.947328  1
  Ga  Ga19  1  0.982611  0.831671  0.052672  1
  Ga  Ga20  1  0.186916  0.499612  0.442719  1
  Ga  Ga21  1  0.813084  0.500388  0.557281  1
  Ga  Ga22  1  0.733764  0.164460  0.182709  1
  Ga  Ga23  1  0.266236  0.835540  0.817291  1
  Ga  Ga24  1  0.060072  0.631168  0.816406  1
  Ga  Ga25  1  0.939928  0.368832  0.183594  1
  Ga  Ga26  1  0.856482  0.041615  0.816703  1
  Ga  Ga27  1  0.143518  0.958385  0.183297  1
  Pd  Pd28  1  0.117400  0.495220  0.638459  1
  Pd  Pd29  1  0.882600  0.504780  0.361541  1
  Pd  Pd30  1  0.659109  0.169613  0.999396  1
  Pd  Pd31  1  0.340891  0.830387  0.000604  1
  Pd  Pd32  1  0.540567  0.167131  0.361016  1
  Pd  Pd33  1  0.459433  0.832869  0.638984  1
  Pd  Pd34  1  0.778155  0.173293  0.637671  1
  Pd  Pd35  1  0.221845  0.826707  0.362329  1
  Pd  Pd36  1  0.000000  0.500000  0.000000  1
