# generated using pymatgen
data_HfZr19Si15Au
_symmetry_space_group_name_H-M   'P 1'
_cell_length_a   7.19818621
_cell_length_b   7.18078000
_cell_length_c   13.10754317
_cell_angle_alpha   90.11228606
_cell_angle_beta   89.96460663
_cell_angle_gamma   89.91642909
_symmetry_Int_Tables_number   1
_chemical_formula_structural   HfZr19Si15Au
_chemical_formula_sum   'Hf1 Zr19 Si15 Au1'
_cell_volume   677.50829265
_cell_formula_units_Z   1
loop_
 _symmetry_equiv_pos_site_id
 _symmetry_equiv_pos_as_xyz
  1  'x, y, z'
loop_
 _atom_site_type_symbol
 _atom_site_label
 _atom_site_symmetry_multiplicity
 _atom_site_fract_x
 _atom_site_fract_y
 _atom_site_fract_z
 _atom_site_occupancy
  Hf  Hf0  1  0.998669  0.147126  0.623547  1
  Zr  Zr1  1  0.675851  0.325676  0.748916  1
  Zr  Zr2  1  0.324200  0.674662  0.250688  1
  Zr  Zr3  1  0.823950  0.824878  0.500769  1
  Zr  Zr4  1  0.180418  0.175661  0.998478  1
  Zr  Zr5  1  0.498457  0.150838  0.534867  1
  Zr  Zr6  1  0.494163  0.840402  0.033261  1
  Zr  Zr7  1  0.647283  0.997269  0.289949  1
  Zr  Zr8  1  0.347607  0.997323  0.783152  1
  Zr  Zr9  1  0.854465  0.511834  0.960855  1
  Zr  Zr10  1  0.149466  0.497516  0.465754  1
  Zr  Zr11  1  0.002751  0.651665  0.714996  1
  Zr  Zr12  1  0.005173  0.352284  0.219678  1
  Zr  Zr13  1  0.495848  0.356219  0.127681  1
  Zr  Zr14  1  0.500341  0.647031  0.626673  1
  Zr  Zr15  1  0.855459  0.001810  0.871635  1
  Zr  Zr16  1  0.145814  0.998605  0.377416  1
  Zr  Zr17  1  0.646629  0.500877  0.374189  1
  Zr  Zr18  1  0.353759  0.498568  0.871557  1
  Zr  Zr19  1  0.007356  0.849838  0.126817  1
  Si  Si20  1  0.205269  0.855498  0.572971  1
  Si  Si21  1  0.643359  0.708641  0.821989  1
  Si  Si22  1  0.356517  0.292644  0.324413  1
  Si  Si23  1  0.854402  0.205290  0.429048  1
  Si  Si24  1  0.144655  0.794967  0.926571  1
  Si  Si25  1  0.705889  0.646991  0.178451  1
  Si  Si26  1  0.293637  0.353563  0.676322  1
  Si  Si27  1  0.547288  0.196058  0.933633  1
  Si  Si28  1  0.448188  0.799332  0.438431  1
  Si  Si29  1  0.698384  0.952220  0.685125  1
  Si  Si30  1  0.302828  0.050518  0.187405  1
  Si  Si31  1  0.801518  0.449431  0.563222  1
  Si  Si32  1  0.198456  0.548875  0.061760  1
  Si  Si33  1  0.948704  0.700586  0.314530  1
  Si  Si34  1  0.049745  0.301224  0.811962  1
  Au  Au35  1  0.793501  0.144080  0.073293  1
