# generated using pymatgen
data_Er6Ti5Al11Os7
_symmetry_space_group_name_H-M   'P 1'
_cell_length_a   9.00423298
_cell_length_b   9.00423422
_cell_length_c   8.98313473
_cell_angle_alpha   59.92227814
_cell_angle_beta   59.92227428
_cell_angle_gamma   59.99999883
_symmetry_Int_Tables_number   1
_chemical_formula_structural   Er6Ti5Al11Os7
_chemical_formula_sum   'Er6 Ti5 Al11 Os7'
_cell_volume   514.39319152
_cell_formula_units_Z   1
loop_
 _symmetry_equiv_pos_site_id
 _symmetry_equiv_pos_as_xyz
  1  'x, y, z'
loop_
 _atom_site_type_symbol
 _atom_site_label
 _atom_site_symmetry_multiplicity
 _atom_site_fract_x
 _atom_site_fract_y
 _atom_site_fract_z
 _atom_site_occupancy
  Er  Er0  1  0.707651  0.707651  0.292677  1
  Er  Er1  1  0.292022  0.707651  0.292677  1
  Er  Er2  1  0.707651  0.292022  0.292677  1
  Er  Er3  1  0.291877  0.291877  0.712226  1
  Er  Er4  1  0.704019  0.291877  0.712226  1
  Er  Er5  1  0.291877  0.704019  0.712226  1
  Ti  Ti6  1  0.880529  0.880529  0.358414  1
  Ti  Ti7  1  0.879016  0.361680  0.880286  1
  Ti  Ti8  1  0.361680  0.879016  0.880286  1
  Ti  Ti9  1  0.879016  0.879016  0.880286  1
  Ti  Ti10  1  0.122901  0.122901  0.631298  1
  Al  Al11  1  0.117692  0.644475  0.120141  1
  Al  Al12  1  0.644475  0.117692  0.120141  1
  Al  Al13  1  0.117692  0.117692  0.120141  1
  Al  Al14  1  0.669384  0.669384  0.991850  1
  Al  Al15  1  0.669408  0.991965  0.669219  1
  Al  Al16  1  0.991965  0.669408  0.669219  1
  Al  Al17  1  0.669408  0.669408  0.669219  1
  Al  Al18  1  0.329203  0.329203  0.012392  1
  Al  Al19  1  0.332766  0.005198  0.329268  1
  Al  Al20  1  0.005198  0.332766  0.329268  1
  Al  Al21  1  0.332766  0.332766  0.329268  1
  Os  Os22  1  0.004794  0.004794  0.985617  1
  Os  Os23  1  0.999112  0.999112  0.504313  1
  Os  Os24  1  0.497461  0.999112  0.504313  1
  Os  Os25  1  0.999112  0.497461  0.504313  1
  Os  Os26  1  0.500663  0.500663  0.998680  1
  Os  Os27  1  0.999995  0.500663  0.998680  1
  Os  Os28  1  0.500663  0.999995  0.998680  1
