# generated using pymatgen
data_Ho6Tm4Sn5Bi
_symmetry_space_group_name_H-M   'P 1'
_cell_length_a   8.93547000
_cell_length_b   8.92725353
_cell_length_c   6.45202800
_cell_angle_alpha   90.00000000
_cell_angle_beta   90.00000000
_cell_angle_gamma   120.03045060
_symmetry_Int_Tables_number   1
_chemical_formula_structural   Ho6Tm4Sn5Bi
_chemical_formula_sum   'Ho6 Tm4 Sn5 Bi1'
_cell_volume   445.58319593
_cell_formula_units_Z   1
loop_
 _symmetry_equiv_pos_site_id
 _symmetry_equiv_pos_as_xyz
  1  'x, y, z'
loop_
 _atom_site_type_symbol
 _atom_site_label
 _atom_site_symmetry_multiplicity
 _atom_site_fract_x
 _atom_site_fract_y
 _atom_site_fract_z
 _atom_site_occupancy
  Ho  Ho0  1  0.994466  0.757462  0.750000  1
  Ho  Ho1  1  0.000461  0.239234  0.250000  1
  Ho  Ho2  1  0.761227  0.760766  0.250000  1
  Ho  Ho3  1  0.764772  0.000000  0.750000  1
  Ho  Ho4  1  0.237004  0.242538  0.750000  1
  Ho  Ho5  1  0.237745  0.000000  0.250000  1
  Tm  Tm6  1  0.332513  0.662499  0.498270  1
  Tm  Tm7  1  0.670015  0.337501  0.001730  1
  Tm  Tm8  1  0.670015  0.337501  0.498270  1
  Tm  Tm9  1  0.332513  0.662499  0.001730  1
  Sn  Sn10  1  0.396020  0.394641  0.250000  1
  Sn  Sn11  1  0.001379  0.605359  0.250000  1
  Sn  Sn12  1  0.999547  0.396341  0.750000  1
  Sn  Sn13  1  0.603207  0.603659  0.750000  1
  Sn  Sn14  1  0.604754  0.000000  0.250000  1
  Bi  Bi15  1  0.394360  0.000000  0.750000  1
