# generated using pymatgen
data_Zr5Ti4Nb(Sn3B)2
_symmetry_space_group_name_H-M   'P 1'
_cell_length_a   8.41311916
_cell_length_b   8.41311864
_cell_length_c   5.59170600
_cell_angle_alpha   90.00000000
_cell_angle_beta   90.00000000
_cell_angle_gamma   120.31504743
_symmetry_Int_Tables_number   1
_chemical_formula_structural   Zr5Ti4Nb(Sn3B)2
_chemical_formula_sum   'Zr5 Ti4 Nb1 Sn6 B2'
_cell_volume   341.66580773
_cell_formula_units_Z   1
loop_
 _symmetry_equiv_pos_site_id
 _symmetry_equiv_pos_as_xyz
  1  'x, y, z'
loop_
 _atom_site_type_symbol
 _atom_site_label
 _atom_site_symmetry_multiplicity
 _atom_site_fract_x
 _atom_site_fract_y
 _atom_site_fract_z
 _atom_site_occupancy
  Zr  Zr0  1  0.236338  0.001583  0.750000  1
  Zr  Zr1  1  0.001583  0.236338  0.750000  1
  Zr  Zr2  1  0.227192  0.227192  0.250000  1
  Zr  Zr3  1  0.765377  0.997672  0.250000  1
  Zr  Zr4  1  0.997672  0.765377  0.250000  1
  Ti  Ti5  1  0.667401  0.333399  0.999719  1
  Ti  Ti6  1  0.333399  0.667401  0.999719  1
  Ti  Ti7  1  0.333399  0.667401  0.500281  1
  Ti  Ti8  1  0.667401  0.333399  0.500281  1
  Nb  Nb9  1  0.774553  0.774553  0.750000  1
  Sn  Sn10  1  0.411542  0.411542  0.750000  1
  Sn  Sn11  1  0.597868  0.997958  0.750000  1
  Sn  Sn12  1  0.997958  0.597868  0.750000  1
  Sn  Sn13  1  0.593921  0.593921  0.250000  1
  Sn  Sn14  1  0.403979  0.999254  0.250000  1
  Sn  Sn15  1  0.999254  0.403979  0.250000  1
  B  B16  1  0.995581  0.995581  0.992351  1
  B  B17  1  0.995581  0.995581  0.507649  1
