# generated using pymatgen
data_Zr9Nb(Sn3As)2
_symmetry_space_group_name_H-M   'P 1'
_cell_length_a   8.67940600
_cell_length_b   8.67940579
_cell_length_c   5.92010700
_cell_angle_alpha   90.00000000
_cell_angle_beta   90.00000000
_cell_angle_gamma   119.99998555
_symmetry_Int_Tables_number   1
_chemical_formula_structural   Zr9Nb(Sn3As)2
_chemical_formula_sum   'Zr9 Nb1 Sn6 As2'
_cell_volume   386.22488165
_cell_formula_units_Z   1
loop_
 _symmetry_equiv_pos_site_id
 _symmetry_equiv_pos_as_xyz
  1  'x, y, z'
loop_
 _atom_site_type_symbol
 _atom_site_label
 _atom_site_symmetry_multiplicity
 _atom_site_fract_x
 _atom_site_fract_y
 _atom_site_fract_z
 _atom_site_occupancy
  Zr  Zr0  1  0.333333  0.666667  0.000000  1
  Zr  Zr1  1  0.333333  0.666667  0.500000  1
  Zr  Zr2  1  0.666667  0.333333  0.500000  1
  Zr  Zr3  1  0.739062  0.738071  0.749820  1
  Zr  Zr4  1  0.261929  0.000991  0.749820  1
  Zr  Zr5  1  0.999009  0.260938  0.749820  1
  Zr  Zr6  1  0.261929  0.260938  0.250180  1
  Zr  Zr7  1  0.739062  0.000991  0.250180  1
  Zr  Zr8  1  0.999009  0.738071  0.250180  1
  Nb  Nb9  1  0.666667  0.333333  0.000000  1
  Sn  Sn10  1  0.398082  0.395556  0.753364  1
  Sn  Sn11  1  0.604444  0.002526  0.753364  1
  Sn  Sn12  1  0.997474  0.601918  0.753364  1
  Sn  Sn13  1  0.604444  0.601918  0.246636  1
  Sn  Sn14  1  0.398082  0.002526  0.246636  1
  Sn  Sn15  1  0.997474  0.395556  0.246636  1
  As  As16  1  0.000000  0.000000  0.000000  1
  As  As17  1  0.000000  0.000000  0.500000  1
