# generated using pymatgen
data_Nd13Gd4Th3Rh16
_symmetry_space_group_name_H-M   'P 1'
_cell_length_a   7.65567677
_cell_length_b   7.74088161
_cell_length_c   15.03780300
_cell_angle_alpha   90.08085633
_cell_angle_beta   89.76431035
_cell_angle_gamma   90.04993107
_symmetry_Int_Tables_number   1
_chemical_formula_structural   Nd13Gd4Th3Rh16
_chemical_formula_sum   'Nd13 Gd4 Th3 Rh16'
_cell_volume   891.15682132
_cell_formula_units_Z   1
loop_
 _symmetry_equiv_pos_site_id
 _symmetry_equiv_pos_as_xyz
  1  'x, y, z'
loop_
 _atom_site_type_symbol
 _atom_site_label
 _atom_site_symmetry_multiplicity
 _atom_site_fract_x
 _atom_site_fract_y
 _atom_site_fract_z
 _atom_site_occupancy
  Nd  Nd0  1  0.835721  0.666173  0.377932  1
  Nd  Nd1  1  0.334829  0.834275  0.378214  1
  Nd  Nd2  1  0.835955  0.665416  0.121346  1
  Nd  Nd3  1  0.663498  0.164644  0.878756  1
  Nd  Nd4  1  0.164493  0.334149  0.621954  1
  Nd  Nd5  1  0.516698  0.683983  0.594433  1
  Nd  Nd6  1  0.016725  0.815725  0.904975  1
  Nd  Nd7  1  0.484805  0.317248  0.096146  1
  Nd  Nd8  1  0.983137  0.186545  0.405903  1
  Nd  Nd9  1  0.484048  0.318735  0.404998  1
  Nd  Nd10  1  0.983097  0.181667  0.095172  1
  Nd  Nd11  1  0.516253  0.682701  0.905384  1
  Nd  Nd12  1  0.017073  0.815624  0.593816  1
  Gd  Gd13  1  0.823123  0.513100  0.750026  1
  Gd  Gd14  1  0.323189  0.986419  0.749698  1
  Gd  Gd15  1  0.172770  0.487737  0.251123  1
  Gd  Gd16  1  0.678865  0.012031  0.251072  1
  Th  Th17  1  0.664748  0.163136  0.622285  1
  Th  Th18  1  0.163366  0.336634  0.877754  1
  Th  Th19  1  0.336483  0.835843  0.122555  1
  Rh  Rh20  1  0.683711  0.973030  0.463186  1
  Rh  Rh21  1  0.189760  0.538235  0.037475  1
  Rh  Rh22  1  0.309740  0.039151  0.961398  1
  Rh  Rh23  1  0.814577  0.455468  0.544681  1
  Rh  Rh24  1  0.338278  0.030135  0.548676  1
  Rh  Rh25  1  0.843163  0.468078  0.951136  1
  Rh  Rh26  1  0.655947  0.966469  0.048644  1
  Rh  Rh27  1  0.168774  0.527071  0.453852  1
  Rh  Rh28  1  0.460084  0.383336  0.752162  1
  Rh  Rh29  1  0.961893  0.114768  0.750085  1
  Rh  Rh30  1  0.531637  0.611118  0.246318  1
  Rh  Rh31  1  0.046330  0.891688  0.243309  1
  Rh  Rh32  1  0.696441  0.862771  0.745342  1
  Rh  Rh33  1  0.196734  0.637325  0.753984  1
  Rh  Rh34  1  0.308198  0.142169  0.246517  1
  Rh  Rh35  1  0.795857  0.357400  0.249695  1
