# generated using pymatgen
data_Zr8Cd4CoPd7
_symmetry_space_group_name_H-M   'P 1'
_cell_length_a   7.57208332
_cell_length_b   7.57208323
_cell_length_c   6.73854611
_cell_angle_alpha   90.13030904
_cell_angle_beta   89.86968873
_cell_angle_gamma   89.68551097
_symmetry_Int_Tables_number   1
_chemical_formula_structural   Zr8Cd4CoPd7
_chemical_formula_sum   'Zr8 Cd4 Co1 Pd7'
_cell_volume   386.35644986
_cell_formula_units_Z   1
loop_
 _symmetry_equiv_pos_site_id
 _symmetry_equiv_pos_as_xyz
  1  'x, y, z'
loop_
 _atom_site_type_symbol
 _atom_site_label
 _atom_site_symmetry_multiplicity
 _atom_site_fract_x
 _atom_site_fract_y
 _atom_site_fract_z
 _atom_site_occupancy
  Zr  Zr0  1  0.663523  0.643865  0.492270  1
  Zr  Zr1  1  0.807136  0.192864  0.491692  1
  Zr  Zr2  1  0.686045  0.673673  0.004735  1
  Zr  Zr3  1  0.831104  0.168896  0.010025  1
  Zr  Zr4  1  0.183582  0.816418  0.499422  1
  Zr  Zr5  1  0.326327  0.313955  0.004735  1
  Zr  Zr6  1  0.151433  0.848567  0.999163  1
  Zr  Zr7  1  0.356135  0.336477  0.492270  1
  Cd  Cd8  1  0.999813  0.498767  0.249061  1
  Cd  Cd9  1  0.500369  0.996102  0.748852  1
  Cd  Cd10  1  0.501233  0.000187  0.249061  1
  Cd  Cd11  1  0.003898  0.499631  0.748852  1
  Co  Co12  1  0.625815  0.374185  0.230114  1
  Pd  Pd13  1  0.370596  0.629404  0.777317  1
  Pd  Pd14  1  0.868638  0.872708  0.722253  1
  Pd  Pd15  1  0.627573  0.372427  0.781215  1
  Pd  Pd16  1  0.371568  0.628432  0.219713  1
  Pd  Pd17  1  0.127288  0.129369  0.278498  1
  Pd  Pd18  1  0.870631  0.872712  0.278498  1
  Pd  Pd19  1  0.127292  0.131362  0.722253  1
