# generated using pymatgen
data_AcLaSiI
_symmetry_space_group_name_H-M   'P 1'
_cell_length_a   8.36262400
_cell_length_b   8.36262441
_cell_length_c   8.36262319
_cell_angle_alpha   31.34155092
_cell_angle_beta   31.34154788
_cell_angle_gamma   31.34154576
_symmetry_Int_Tables_number   1
_chemical_formula_structural   AcLaSiI
_chemical_formula_sum   'Ac1 La1 Si1 I1'
_cell_volume   140.43468745
_cell_formula_units_Z   1
loop_
 _symmetry_equiv_pos_site_id
 _symmetry_equiv_pos_as_xyz
  1  'x, y, z'
loop_
 _atom_site_type_symbol
 _atom_site_label
 _atom_site_symmetry_multiplicity
 _atom_site_fract_x
 _atom_site_fract_y
 _atom_site_fract_z
 _atom_site_occupancy
  Ac  Ac0  1  0.233774  0.233774  0.233774  1
  La  La1  1  0.766109  0.766109  0.766109  1
  Si  Si2  1  0.496502  0.496502  0.496502  1
  I  I3  1  0.003615  0.003615  0.003615  1
