# generated using pymatgen
data_Er3TaIn2Ir3
_symmetry_space_group_name_H-M   'P 1'
_cell_length_a   7.31319350
_cell_length_b   7.04941030
_cell_length_c   4.22098200
_cell_angle_alpha   90.00000000
_cell_angle_beta   90.00000000
_cell_angle_gamma   118.81383066
_symmetry_Int_Tables_number   1
_chemical_formula_structural   Er3TaIn2Ir3
_chemical_formula_sum   'Er3 Ta1 In2 Ir3'
_cell_volume   190.66537246
_cell_formula_units_Z   1
loop_
 _symmetry_equiv_pos_site_id
 _symmetry_equiv_pos_as_xyz
  1  'x, y, z'
loop_
 _atom_site_type_symbol
 _atom_site_label
 _atom_site_symmetry_multiplicity
 _atom_site_fract_x
 _atom_site_fract_y
 _atom_site_fract_z
 _atom_site_occupancy
  Er  Er0  1  0.589572  0.586306  0.000000  1
  Er  Er1  1  0.410428  0.996733  0.000000  1
  Er  Er2  1  0.000000  0.402780  0.000000  1
  Ta  Ta3  1  0.000000  0.752192  0.500000  1
  In  In4  1  0.251210  0.252566  0.500000  1
  In  In5  1  0.748790  0.001357  0.500000  1
  Ir  Ir6  1  0.000000  0.963236  0.000000  1
  Ir  Ir7  1  0.687100  0.365964  0.500000  1
  Ir  Ir8  1  0.312900  0.678865  0.500000  1
