# generated using pymatgen
data_Ho7Sn23(RuRh)3
_symmetry_space_group_name_H-M   'P 1'
_cell_length_a   9.85571400
_cell_length_b   9.85571290
_cell_length_c   10.07228400
_cell_angle_alpha   90.00000000
_cell_angle_beta   90.00000000
_cell_angle_gamma   119.99999699
_symmetry_Int_Tables_number   1
_chemical_formula_structural   Ho7Sn23(RuRh)3
_chemical_formula_sum   'Ho7 Sn23 Ru3 Rh3'
_cell_volume   847.29519525
_cell_formula_units_Z   1
loop_
 _symmetry_equiv_pos_site_id
 _symmetry_equiv_pos_as_xyz
  1  'x, y, z'
loop_
 _atom_site_type_symbol
 _atom_site_label
 _atom_site_symmetry_multiplicity
 _atom_site_fract_x
 _atom_site_fract_y
 _atom_site_fract_z
 _atom_site_occupancy
  Ho  Ho0  1  0.000000  0.000000  0.985701  1
  Ho  Ho1  1  0.517178  0.482822  0.694936  1
  Ho  Ho2  1  0.517178  0.034354  0.694936  1
  Ho  Ho3  1  0.965646  0.482822  0.694936  1
  Ho  Ho4  1  0.038589  0.519295  0.308524  1
  Ho  Ho5  1  0.480705  0.961411  0.308524  1
  Ho  Ho6  1  0.480705  0.519295  0.308524  1
  Sn  Sn7  1  0.666667  0.333333  0.183075  1
  Sn  Sn8  1  0.666667  0.333333  0.877670  1
  Sn  Sn9  1  0.333333  0.666667  0.123906  1
  Sn  Sn10  1  0.350272  0.351063  0.999992  1
  Sn  Sn11  1  0.000791  0.649728  0.999992  1
  Sn  Sn12  1  0.648937  0.999209  0.999992  1
  Sn  Sn13  1  0.648937  0.649728  0.999992  1
  Sn  Sn14  1  0.333333  0.666667  0.818500  1
  Sn  Sn15  1  0.441443  0.220722  0.459380  1
  Sn  Sn16  1  0.220881  0.779119  0.543570  1
  Sn  Sn17  1  0.220881  0.441761  0.543570  1
  Sn  Sn18  1  0.558239  0.779119  0.543570  1
  Sn  Sn19  1  0.118629  0.881371  0.276379  1
  Sn  Sn20  1  0.779278  0.558557  0.459380  1
  Sn  Sn21  1  0.779278  0.220722  0.459380  1
  Sn  Sn22  1  0.350272  0.999209  0.999992  1
  Sn  Sn23  1  0.118629  0.237258  0.276379  1
  Sn  Sn24  1  0.762742  0.881371  0.276379  1
  Sn  Sn25  1  0.236728  0.118364  0.722056  1
  Sn  Sn26  1  0.881636  0.763272  0.722056  1
  Sn  Sn27  1  0.881636  0.118364  0.722056  1
  Sn  Sn28  1  0.000000  0.000000  0.495996  1
  Sn  Sn29  1  0.000791  0.351063  0.999992  1
  Ru  Ru30  1  0.168120  0.831880  0.800507  1
  Ru  Ru31  1  0.168120  0.336241  0.800507  1
  Ru  Ru32  1  0.663759  0.831880  0.800507  1
  Rh  Rh33  1  0.341037  0.170519  0.199711  1
  Rh  Rh34  1  0.829481  0.658963  0.199711  1
  Rh  Rh35  1  0.829481  0.170519  0.199711  1
