# generated using pymatgen
data_Th2Ga3Ge2Pd3
_symmetry_space_group_name_H-M   'P 1'
_cell_length_a   6.11268957
_cell_length_b   8.61282340
_cell_length_c   8.61284500
_cell_angle_alpha   74.83883528
_cell_angle_beta   69.21483509
_cell_angle_gamma   69.21469584
_symmetry_Int_Tables_number   1
_chemical_formula_structural   Th2Ga3Ge2Pd3
_chemical_formula_sum   'Th4 Ga6 Ge4 Pd6'
_cell_volume   391.54376505
_cell_formula_units_Z   2
loop_
 _symmetry_equiv_pos_site_id
 _symmetry_equiv_pos_as_xyz
  1  'x, y, z'
loop_
 _atom_site_type_symbol
 _atom_site_label
 _atom_site_symmetry_multiplicity
 _atom_site_fract_x
 _atom_site_fract_y
 _atom_site_fract_z
 _atom_site_occupancy
  Th  Th0  1  0.870167  0.865429  0.394043  1
  Th  Th1  1  0.129833  0.134571  0.605957  1
  Th  Th2  1  0.370177  0.394001  0.865425  1
  Th  Th3  1  0.629823  0.605999  0.134575  1
  Ga  Ga4  1  0.249955  0.500002  0.500004  1
  Ga  Ga5  1  0.750045  0.499998  0.499996  1
  Ga  Ga6  1  0.019359  0.230603  0.230645  1
  Ga  Ga7  1  0.480612  0.769364  0.769443  1
  Ga  Ga8  1  0.980641  0.769397  0.769355  1
  Ga  Ga9  1  0.519388  0.230636  0.230557  1
  Ge  Ge10  1  0.610548  0.041361  0.737904  1
  Ge  Ge11  1  0.389452  0.958639  0.262096  1
  Ge  Ge12  1  0.110532  0.737928  0.041366  1
  Ge  Ge13  1  0.889468  0.262072  0.958634  1
  Pd  Pd14  1  0.250026  0.000198  0.999794  1
  Pd  Pd15  1  0.749974  0.999802  0.000206  1
  Pd  Pd16  1  0.636374  0.248607  0.478600  1
  Pd  Pd17  1  0.363626  0.751393  0.521400  1
  Pd  Pd18  1  0.136412  0.478613  0.248574  1
  Pd  Pd19  1  0.863588  0.521387  0.751426  1
