# generated using pymatgen
data_Y3ThGa20Pt11
_symmetry_space_group_name_H-M   'P 1'
_cell_length_a   4.26337059
_cell_length_b   10.93701884
_cell_length_c   13.65262000
_cell_angle_alpha   81.72384145
_cell_angle_beta   80.80338656
_cell_angle_gamma   78.46097846
_symmetry_Int_Tables_number   1
_chemical_formula_structural   Y3ThGa20Pt11
_chemical_formula_sum   'Y3 Th1 Ga20 Pt11'
_cell_volume   611.57762161
_cell_formula_units_Z   1
loop_
 _symmetry_equiv_pos_site_id
 _symmetry_equiv_pos_as_xyz
  1  'x, y, z'
loop_
 _atom_site_type_symbol
 _atom_site_label
 _atom_site_symmetry_multiplicity
 _atom_site_fract_x
 _atom_site_fract_y
 _atom_site_fract_z
 _atom_site_occupancy
  Y  Y0  1  0.876965  0.910189  0.335693  1
  Y  Y1  1  0.771082  0.628972  0.822085  1
  Y  Y2  1  0.229353  0.369365  0.178039  1
  Th  Th3  1  0.122609  0.088404  0.665499  1
  Ga  Ga4  1  0.009815  0.071220  0.914724  1
  Ga  Ga5  1  0.989549  0.926558  0.091339  1
  Ga  Ga6  1  0.061120  0.678210  0.193697  1
  Ga  Ga7  1  0.937363  0.325295  0.806742  1
  Ga  Ga8  1  0.103887  0.342828  0.452951  1
  Ga  Ga9  1  0.894774  0.660549  0.545086  1
  Ga  Ga10  1  0.199695  0.604054  0.991413  1
  Ga  Ga11  1  0.800682  0.395036  0.008072  1
  Ga  Ga12  1  0.258906  0.778275  0.699535  1
  Ga  Ga13  1  0.744871  0.217082  0.298398  1
  Ga  Ga14  1  0.303804  0.894435  0.495787  1
  Ga  Ga15  1  0.698766  0.104158  0.499891  1
  Ga  Ga16  1  0.383289  0.527749  0.700983  1
  Ga  Ga17  1  0.615830  0.473440  0.299104  1
  Ga  Ga18  1  0.396575  0.201246  0.001979  1
  Ga  Ga19  1  0.604321  0.797608  0.998404  1
  Ga  Ga20  1  0.540683  0.290843  0.626529  1
  Ga  Ga21  1  0.457388  0.716131  0.370321  1
  Ga  Ga22  1  0.639031  0.928955  0.797719  1
  Ga  Ga23  1  0.360131  0.066091  0.207594  1
  Pt  Pt24  1  0.497395  0.504859  0.500164  1
  Pt  Pt25  1  0.029648  0.574226  0.369973  1
  Pt  Pt26  1  0.969726  0.427944  0.629088  1
  Pt  Pt27  1  0.143383  0.833370  0.887502  1
  Pt  Pt28  1  0.857364  0.165082  0.111240  1
  Pt  Pt29  1  0.242255  0.127364  0.392585  1
  Pt  Pt30  1  0.757412  0.873665  0.608878  1
  Pt  Pt31  1  0.347500  0.417754  0.891230  1
  Pt  Pt32  1  0.653022  0.580286  0.108328  1
  Pt  Pt33  1  0.509854  0.167502  0.815971  1
  Pt  Pt34  1  0.491952  0.831256  0.183456  1
