# generated using pymatgen
data_Tb4Y(SiHg)2
_symmetry_space_group_name_H-M   'P 1'
_cell_length_a   8.83740579
_cell_length_b   8.83740697
_cell_length_c   7.58283600
_cell_angle_alpha   90.00000000
_cell_angle_beta   90.00000000
_cell_angle_gamma   129.31188604
_symmetry_Int_Tables_number   1
_chemical_formula_structural   Tb4Y(SiHg)2
_chemical_formula_sum   'Tb8 Y2 Si4 Hg4'
_cell_volume   458.20397280
_cell_formula_units_Z   2
loop_
 _symmetry_equiv_pos_site_id
 _symmetry_equiv_pos_as_xyz
  1  'x, y, z'
loop_
 _atom_site_type_symbol
 _atom_site_label
 _atom_site_symmetry_multiplicity
 _atom_site_fract_x
 _atom_site_fract_y
 _atom_site_fract_z
 _atom_site_occupancy
  Tb  Tb0  1  0.055008  0.310079  0.324247  1
  Tb  Tb1  1  0.944992  0.689921  0.675753  1
  Tb  Tb2  1  0.444992  0.189921  0.824247  1
  Tb  Tb3  1  0.810079  0.555008  0.175753  1
  Tb  Tb4  1  0.555008  0.810079  0.175753  1
  Tb  Tb5  1  0.189921  0.444992  0.824247  1
  Tb  Tb6  1  0.689921  0.944992  0.675753  1
  Tb  Tb7  1  0.310079  0.055008  0.324247  1
  Y  Y8  1  0.000000  0.000000  0.000000  1
  Y  Y9  1  0.500000  0.500000  0.500000  1
  Si  Si10  1  0.381439  0.381439  0.121708  1
  Si  Si11  1  0.618561  0.618561  0.878292  1
  Si  Si12  1  0.118561  0.118561  0.621708  1
  Si  Si13  1  0.881439  0.881439  0.378292  1
  Hg  Hg14  1  0.781859  0.218141  0.000000  1
  Hg  Hg15  1  0.218141  0.781859  0.000000  1
  Hg  Hg16  1  0.718141  0.281859  0.500000  1
  Hg  Hg17  1  0.281859  0.718141  0.500000  1
