# generated using pymatgen
data_Ho16CdIn5Pd2
_symmetry_space_group_name_H-M   'P 1'
_cell_length_a   10.45566900
_cell_length_b   10.47262276
_cell_length_c   6.93186446
_cell_angle_alpha   90.06439614
_cell_angle_beta   90.00000000
_cell_angle_gamma   119.94646599
_symmetry_Int_Tables_number   1
_chemical_formula_structural   Ho16CdIn5Pd2
_chemical_formula_sum   'Ho16 Cd1 In5 Pd2'
_cell_volume   657.69060662
_cell_formula_units_Z   1
loop_
 _symmetry_equiv_pos_site_id
 _symmetry_equiv_pos_as_xyz
  1  'x, y, z'
loop_
 _atom_site_type_symbol
 _atom_site_label
 _atom_site_symmetry_multiplicity
 _atom_site_fract_x
 _atom_site_fract_y
 _atom_site_fract_z
 _atom_site_occupancy
  Ho  Ho0  1  0.528201  0.056401  0.508964  1
  Ho  Ho1  1  0.942231  0.472138  0.509965  1
  Ho  Ho2  1  0.529907  0.472138  0.509965  1
  Ho  Ho3  1  0.471508  0.943016  0.009077  1
  Ho  Ho4  1  0.057356  0.528456  0.009364  1
  Ho  Ho5  1  0.471100  0.528456  0.009364  1
  Ho  Ho6  1  0.174674  0.349348  0.716122  1
  Ho  Ho7  1  0.653130  0.824179  0.717850  1
  Ho  Ho8  1  0.171050  0.824179  0.717850  1
  Ho  Ho9  1  0.824920  0.649840  0.210771  1
  Ho  Ho10  1  0.350121  0.174719  0.216773  1
  Ho  Ho11  1  0.824597  0.174719  0.216773  1
  Ho  Ho12  1  0.668332  0.336664  0.879371  1
  Ho  Ho13  1  0.333320  0.666642  0.379413  1
  Ho  Ho14  1  0.000042  0.000083  0.488465  1
  Ho  Ho15  1  0.000110  0.000221  0.990706  1
  Cd  Cd16  1  0.836434  0.672868  0.753071  1
  In  In17  1  0.325940  0.162579  0.750784  1
  In  In18  1  0.836640  0.162579  0.750784  1
  In  In19  1  0.162760  0.325521  0.250090  1
  In  In20  1  0.674778  0.837408  0.250445  1
  In  In21  1  0.162629  0.837408  0.250445  1
  Pd  Pd22  1  0.666748  0.333496  0.280955  1
  Pd  Pd23  1  0.333469  0.666940  0.780681  1
