# generated using pymatgen
data_Sm7Er(BeSi3)4
_symmetry_space_group_name_H-M   'P 1'
_cell_length_a   7.89794800
_cell_length_b   7.89794971
_cell_length_c   8.33411800
_cell_angle_alpha   90.00000000
_cell_angle_beta   90.00000000
_cell_angle_gamma   120.00000123
_symmetry_Int_Tables_number   1
_chemical_formula_structural   Sm7Er(BeSi3)4
_chemical_formula_sum   'Sm7 Er1 Be4 Si12'
_cell_volume   450.21390631
_cell_formula_units_Z   1
loop_
 _symmetry_equiv_pos_site_id
 _symmetry_equiv_pos_as_xyz
  1  'x, y, z'
loop_
 _atom_site_type_symbol
 _atom_site_label
 _atom_site_symmetry_multiplicity
 _atom_site_fract_x
 _atom_site_fract_y
 _atom_site_fract_z
 _atom_site_occupancy
  Sm  Sm0  1  0.999085  0.499544  0.250000  1
  Sm  Sm1  1  0.500456  0.499544  0.250000  1
  Sm  Sm2  1  0.499554  0.999106  0.750000  1
  Sm  Sm3  1  0.000894  0.500446  0.750000  1
  Sm  Sm4  1  0.499554  0.500446  0.750000  1
  Sm  Sm5  1  0.500456  0.000915  0.250000  1
  Sm  Sm6  1  0.000000  0.000000  0.750000  1
  Er  Er7  1  0.000000  0.000000  0.250000  1
  Be  Be8  1  0.333333  0.666667  0.004617  1
  Be  Be9  1  0.666667  0.333333  0.997176  1
  Be  Be10  1  0.666667  0.333333  0.502824  1
  Be  Be11  1  0.333333  0.666667  0.495383  1
  Si  Si12  1  0.172070  0.827930  0.498259  1
  Si  Si13  1  0.172070  0.344140  0.498259  1
  Si  Si14  1  0.655860  0.827930  0.498259  1
  Si  Si15  1  0.344184  0.172093  0.001120  1
  Si  Si16  1  0.827907  0.655816  0.498880  1
  Si  Si17  1  0.827907  0.172093  0.001120  1
  Si  Si18  1  0.827907  0.655816  0.001120  1
  Si  Si19  1  0.172070  0.344140  0.001741  1
  Si  Si20  1  0.655860  0.827930  0.001741  1
  Si  Si21  1  0.344184  0.172093  0.498880  1
  Si  Si22  1  0.827907  0.172093  0.498880  1
  Si  Si23  1  0.172070  0.827930  0.001741  1
