# generated using pymatgen
data_Tb12Pr4Cd3AgPt4
_symmetry_space_group_name_H-M   'P 1'
_cell_length_a   9.77875163
_cell_length_b   9.77009766
_cell_length_c   9.77009779
_cell_angle_alpha   60.31101741
_cell_angle_beta   60.20283993
_cell_angle_gamma   60.20283803
_symmetry_Int_Tables_number   1
_chemical_formula_structural   Tb12Pr4Cd3AgPt4
_chemical_formula_sum   'Tb12 Pr4 Cd3 Ag1 Pt4'
_cell_volume   663.60192103
_cell_formula_units_Z   1
loop_
 _symmetry_equiv_pos_site_id
 _symmetry_equiv_pos_as_xyz
  1  'x, y, z'
loop_
 _atom_site_type_symbol
 _atom_site_label
 _atom_site_symmetry_multiplicity
 _atom_site_fract_x
 _atom_site_fract_y
 _atom_site_fract_z
 _atom_site_occupancy
  Tb  Tb0  1  0.350415  0.349577  0.349577  1
  Tb  Tb1  1  0.351918  0.352910  0.944570  1
  Tb  Tb2  1  0.351918  0.944570  0.352910  1
  Tb  Tb3  1  0.942835  0.353059  0.353059  1
  Tb  Tb4  1  0.812363  0.189059  0.189059  1
  Tb  Tb5  1  0.187914  0.811272  0.811272  1
  Tb  Tb6  1  0.189851  0.811791  0.189544  1
  Tb  Tb7  1  0.811368  0.187552  0.810544  1
  Tb  Tb8  1  0.189851  0.189544  0.811791  1
  Tb  Tb9  1  0.811368  0.810544  0.187552  1
  Tb  Tb10  1  0.939449  0.558447  0.558447  1
  Tb  Tb11  1  0.557478  0.941108  0.941108  1
  Pr  Pr12  1  0.563319  0.934009  0.564605  1
  Pr  Pr13  1  0.935741  0.562580  0.935032  1
  Pr  Pr14  1  0.563319  0.564605  0.934009  1
  Pr  Pr15  1  0.935741  0.935032  0.562580  1
  Cd  Cd16  1  0.579144  0.583418  0.260276  1
  Cd  Cd17  1  0.579144  0.260276  0.583418  1
  Cd  Cd18  1  0.260309  0.579885  0.579885  1
  Ag  Ag19  1  0.587054  0.580029  0.580029  1
  Pt  Pt20  1  0.145324  0.143497  0.143497  1
  Pt  Pt21  1  0.141572  0.144918  0.571080  1
  Pt  Pt22  1  0.141572  0.571080  0.144918  1
  Pt  Pt23  1  0.571029  0.141235  0.141235  1
