# generated using pymatgen
data_Dy4Hf3PtF28
_symmetry_space_group_name_H-M   'P 1'
_cell_length_a   5.66531811
_cell_length_b   9.00060688
_cell_length_c   12.11804442
_cell_angle_alpha   62.48199609
_cell_angle_beta   89.93107874
_cell_angle_gamma   89.94965191
_symmetry_Int_Tables_number   1
_chemical_formula_structural   Dy4Hf3PtF28
_chemical_formula_sum   'Dy4 Hf3 Pt1 F28'
_cell_volume   548.00705268
_cell_formula_units_Z   1
loop_
 _symmetry_equiv_pos_site_id
 _symmetry_equiv_pos_as_xyz
  1  'x, y, z'
loop_
 _atom_site_type_symbol
 _atom_site_label
 _atom_site_symmetry_multiplicity
 _atom_site_fract_x
 _atom_site_fract_y
 _atom_site_fract_z
 _atom_site_occupancy
  Dy  Dy0  1  0.757950  0.815498  0.765394  1
  Dy  Dy1  1  0.257991  0.184845  0.732639  1
  Dy  Dy2  1  0.240864  0.184176  0.238540  1
  Dy  Dy3  1  0.743446  0.813321  0.267011  1
  Hf  Hf4  1  0.756299  0.273245  0.956748  1
  Hf  Hf5  1  0.256331  0.725312  0.544135  1
  Hf  Hf6  1  0.244480  0.725231  0.044914  1
  Pt  Pt7  1  0.740042  0.272455  0.455923  1
  F  F8  1  0.460204  0.709483  0.919721  1
  F  F9  1  0.936169  0.295540  0.581476  1
  F  F10  1  0.538008  0.289084  0.080915  1
  F  F11  1  0.041168  0.711145  0.418944  1
  F  F12  1  0.446568  0.279180  0.542044  1
  F  F13  1  0.950206  0.723902  0.951129  1
  F  F14  1  0.550780  0.720097  0.452474  1
  F  F15  1  0.049018  0.275325  0.051126  1
  F  F16  1  0.774736  0.523226  0.860419  1
  F  F17  1  0.269889  0.474795  0.639052  1
  F  F18  1  0.223630  0.475353  0.141729  1
  F  F19  1  0.727930  0.518490  0.358326  1
  F  F20  1  0.758714  0.023574  0.058261  1
  F  F21  1  0.260403  0.974958  0.443995  1
  F  F22  1  0.242420  0.974775  0.941215  1
  F  F23  1  0.743847  0.026133  0.549066  1
  F  F24  1  0.981321  0.731851  0.646133  1
  F  F25  1  0.484393  0.267686  0.852585  1
  F  F26  1  0.026063  0.273604  0.362799  1
  F  F27  1  0.518824  0.731763  0.146623  1
  F  F28  1  0.039354  0.747702  0.172561  1
  F  F29  1  0.549476  0.256961  0.325028  1
  F  F30  1  0.965694  0.253115  0.828672  1
  F  F31  1  0.464180  0.745490  0.672111  1
  F  F32  1  0.422300  0.971750  0.234803  1
  F  F33  1  0.921172  0.028811  0.268508  1
  F  F34  1  0.577785  0.029925  0.764487  1
  F  F35  1  0.078344  0.972199  0.730497  1
