# generated using pymatgen
data_Ta4Nb4FeCo2Si14Ni5
_symmetry_space_group_name_H-M   'P 1'
_cell_length_a   9.25137313
_cell_length_b   9.25344258
_cell_length_c   9.27570300
_cell_angle_alpha   94.22631550
_cell_angle_beta   94.12804372
_cell_angle_gamma   148.60792829
_symmetry_Int_Tables_number   1
_chemical_formula_structural   Ta4Nb4FeCo2Si14Ni5
_chemical_formula_sum   'Ta4 Nb4 Fe1 Co2 Si14 Ni5'
_cell_volume   398.34704594
_cell_formula_units_Z   1
loop_
 _symmetry_equiv_pos_site_id
 _symmetry_equiv_pos_as_xyz
  1  'x, y, z'
loop_
 _atom_site_type_symbol
 _atom_site_label
 _atom_site_symmetry_multiplicity
 _atom_site_fract_x
 _atom_site_fract_y
 _atom_site_fract_z
 _atom_site_occupancy
  Ta  Ta0  1  0.133551  0.134122  0.266619  1
  Ta  Ta1  1  0.866162  0.866608  0.734010  1
  Ta  Ta2  1  0.866295  0.133358  0.000903  1
  Ta  Ta3  1  0.133848  0.867441  0.000770  1
  Nb  Nb4  1  0.496692  0.687673  0.189651  1
  Nb  Nb5  1  0.498087  0.306729  0.809022  1
  Nb  Nb6  1  0.311884  0.502814  0.809884  1
  Nb  Nb7  1  0.693396  0.501839  0.190590  1
  Fe  Fe8  1  0.598462  0.099455  0.197923  1
  Co  Co9  1  0.901076  0.100109  0.500923  1
  Co  Co10  1  0.900089  0.401218  0.801113  1
  Si  Si11  1  0.289751  0.291288  0.586934  1
  Si  Si12  1  0.709016  0.710470  0.413247  1
  Si  Si13  1  0.706500  0.292109  0.999558  1
  Si  Si14  1  0.292903  0.707447  0.999525  1
  Si  Si15  1  0.988520  0.284071  0.295652  1
  Si  Si16  1  0.995735  0.700728  0.707075  1
  Si  Si17  1  0.714268  0.008949  0.705377  1
  Si  Si18  1  0.301674  0.006220  0.293485  1
  Si  Si19  1  0.521910  0.929517  0.404914  1
  Si  Si20  1  0.513169  0.104482  0.595517  1
  Si  Si21  1  0.075979  0.482862  0.594616  1
  Si  Si22  1  0.890963  0.481504  0.404071  1
  Si  Si23  1  0.750543  0.750613  0.000223  1
  Si  Si24  1  0.249615  0.249462  0.999865  1
  Ni  Ni25  1  0.397445  0.896022  0.793601  1
  Ni  Ni26  1  0.103490  0.601818  0.205320  1
  Ni  Ni27  1  0.103480  0.895212  0.499391  1
  Ni  Ni28  1  0.396404  0.603720  0.499208  1
  Ni  Ni29  1  0.599091  0.402139  0.501012  1
