# generated using pymatgen
data_NbNi4P4Pd3
_symmetry_space_group_name_H-M   'P 1'
_cell_length_a   3.68149400
_cell_length_b   6.08070418
_cell_length_c   6.86546433
_cell_angle_alpha   90.30015221
_cell_angle_beta   90.00000000
_cell_angle_gamma   90.00000000
_symmetry_Int_Tables_number   1
_chemical_formula_structural   NbNi4P4Pd3
_chemical_formula_sum   'Nb1 Ni4 P4 Pd3'
_cell_volume   153.68869709
_cell_formula_units_Z   1
loop_
 _symmetry_equiv_pos_site_id
 _symmetry_equiv_pos_as_xyz
  1  'x, y, z'
loop_
 _atom_site_type_symbol
 _atom_site_label
 _atom_site_symmetry_multiplicity
 _atom_site_fract_x
 _atom_site_fract_y
 _atom_site_fract_z
 _atom_site_occupancy
  Nb  Nb0  1  0.750000  0.467449  0.329852  1
  Ni  Ni1  1  0.750000  0.359597  0.930301  1
  Ni  Ni2  1  0.250000  0.128747  0.432090  1
  Ni  Ni3  1  0.750000  0.860588  0.572437  1
  Ni  Ni4  1  0.250000  0.650729  0.059680  1
  P  P5  1  0.250000  0.764185  0.379538  1
  P  P6  1  0.250000  0.278624  0.124567  1
  P  P7  1  0.750000  0.229996  0.620747  1
  P  P8  1  0.750000  0.727789  0.878011  1
  Pd  Pd9  1  0.250000  0.525202  0.670522  1
  Pd  Pd10  1  0.250000  0.035879  0.837527  1
  Pd  Pd11  1  0.750000  0.971215  0.164730  1
