# generated using pymatgen
data_Tb3DyAl18(Ir2Au)2
_symmetry_space_group_name_H-M   'P 1'
_cell_length_a   7.63517501
_cell_length_b   7.63512281
_cell_length_c   9.45698100
_cell_angle_alpha   90.00000000
_cell_angle_beta   90.00000000
_cell_angle_gamma   119.62623373
_symmetry_Int_Tables_number   1
_chemical_formula_structural   Tb3DyAl18(Ir2Au)2
_chemical_formula_sum   'Tb3 Dy1 Al18 Ir4 Au2'
_cell_volume   479.22732372
_cell_formula_units_Z   1
loop_
 _symmetry_equiv_pos_site_id
 _symmetry_equiv_pos_as_xyz
  1  'x, y, z'
loop_
 _atom_site_type_symbol
 _atom_site_label
 _atom_site_symmetry_multiplicity
 _atom_site_fract_x
 _atom_site_fract_y
 _atom_site_fract_z
 _atom_site_occupancy
  Tb  Tb0  1  0.004860  0.324241  0.750000  1
  Tb  Tb1  1  0.675799  0.995134  0.250000  1
  Tb  Tb2  1  0.324208  0.004859  0.750000  1
  Dy  Dy3  1  0.995127  0.675701  0.250000  1
  Al  Al4  1  0.139532  0.139480  0.250000  1
  Al  Al5  1  0.860424  0.860412  0.750000  1
  Al  Al6  1  0.000297  0.344893  0.077267  1
  Al  Al7  1  0.999696  0.655217  0.922873  1
  Al  Al8  1  0.999696  0.655217  0.577127  1
  Al  Al9  1  0.344685  0.000208  0.422734  1
  Al  Al10  1  0.000297  0.344893  0.422733  1
  Al  Al11  1  0.655206  0.999697  0.577193  1
  Al  Al12  1  0.655206  0.999697  0.922807  1
  Al  Al13  1  0.344685  0.000208  0.077266  1
  Al  Al14  1  0.341885  0.341880  0.558497  1
  Al  Al15  1  0.658217  0.658130  0.441429  1
  Al  Al16  1  0.658217  0.658130  0.058571  1
  Al  Al17  1  0.341885  0.341880  0.941503  1
  Al  Al18  1  0.336871  0.550327  0.250000  1
  Al  Al19  1  0.663086  0.449716  0.750000  1
  Al  Al20  1  0.550397  0.336988  0.250000  1
  Al  Al21  1  0.449721  0.663090  0.750000  1
  Ir  Ir22  1  0.671357  0.328764  0.000047  1
  Ir  Ir23  1  0.328640  0.671291  0.000043  1
  Ir  Ir24  1  0.328640  0.671291  0.499957  1
  Ir  Ir25  1  0.671357  0.328764  0.499953  1
  Au  Au26  1  0.000005  0.999944  0.000032  1
  Au  Au27  1  0.000005  0.999944  0.499968  1
