# generated using pymatgen
data_K2Ti2Pb2O7
_symmetry_space_group_name_H-M   'P 1'
_cell_length_a   6.04395000
_cell_length_b   6.04395066
_cell_length_c   8.23096800
_cell_angle_alpha   90.00000000
_cell_angle_beta   90.00000000
_cell_angle_gamma   119.99999639
_symmetry_Int_Tables_number   1
_chemical_formula_structural   K2Ti2Pb2O7
_chemical_formula_sum   'K2 Ti2 Pb2 O7'
_cell_volume   260.38941976
_cell_formula_units_Z   1
loop_
 _symmetry_equiv_pos_site_id
 _symmetry_equiv_pos_as_xyz
  1  'x, y, z'
loop_
 _atom_site_type_symbol
 _atom_site_label
 _atom_site_symmetry_multiplicity
 _atom_site_fract_x
 _atom_site_fract_y
 _atom_site_fract_z
 _atom_site_occupancy
  K  K0  1  0.666667  0.333333  0.923581  1
  K  K1  1  0.333333  0.666667  0.076419  1
  Ti  Ti2  1  0.000000  0.000000  0.273356  1
  Ti  Ti3  1  0.000000  0.000000  0.726644  1
  Pb  Pb4  1  0.333333  0.666667  0.634382  1
  Pb  Pb5  1  0.666667  0.333333  0.365618  1
  O  O6  1  0.814893  0.144267  0.202541  1
  O  O7  1  0.185107  0.855733  0.797459  1
  O  O8  1  0.329373  0.185107  0.202541  1
  O  O9  1  0.000000  0.000000  0.500000  1
  O  O10  1  0.144267  0.329373  0.797459  1
  O  O11  1  0.855733  0.670627  0.202541  1
  O  O12  1  0.670627  0.814893  0.797459  1
