# generated using pymatgen
data_Sr14SmBi11
_symmetry_space_group_name_H-M   'P 1'
_cell_length_a   17.85572174
_cell_length_b   17.85572208
_cell_length_c   17.85572200
_cell_angle_alpha   117.53088420
_cell_angle_beta   117.53088477
_cell_angle_gamma   94.33263160
_symmetry_Int_Tables_number   1
_chemical_formula_structural   Sr14SmBi11
_chemical_formula_sum   'Sr56 Sm4 Bi44'
_cell_volume   4162.83308668
_cell_formula_units_Z   4
loop_
 _symmetry_equiv_pos_site_id
 _symmetry_equiv_pos_as_xyz
  1  'x, y, z'
loop_
 _atom_site_type_symbol
 _atom_site_label
 _atom_site_symmetry_multiplicity
 _atom_site_fract_x
 _atom_site_fract_y
 _atom_site_fract_z
 _atom_site_occupancy
  Sr  Sr0  1  0.500469  0.605286  0.840471  1
  Sr  Sr1  1  0.625000  0.228932  0.103932  1
  Sr  Sr2  1  0.160213  0.027416  0.782563  1
  Sr  Sr3  1  0.895509  0.376635  0.839078  1
  Sr  Sr4  1  0.125000  0.021068  0.396068  1
  Sr  Sr5  1  0.771068  0.875000  0.396068  1
  Sr  Sr6  1  0.127651  0.410213  0.632798  1
  Sr  Sr7  1  0.764815  0.659998  0.159529  1
  Sr  Sr8  1  0.712443  0.373365  0.018874  1
  Sr  Sr9  1  0.443569  0.962443  0.839078  1
  Sr  Sr10  1  0.306431  0.287557  0.660922  1
  Sr  Sr11  1  0.037557  0.876635  0.481126  1
  Sr  Sr12  1  0.485185  0.144714  0.395183  1
  Sr  Sr13  1  0.355286  0.014815  0.604817  1
  Sr  Sr14  1  0.125000  0.521068  0.896068  1
  Sr  Sr15  1  0.985185  0.590002  0.340471  1
  Sr  Sr16  1  0.943569  0.104491  0.481126  1
  Sr  Sr17  1  0.626635  0.645509  0.339078  1
  Sr  Sr18  1  0.894714  0.999531  0.159529  1
  Sr  Sr19  1  0.354491  0.693569  0.981126  1
  Sr  Sr20  1  0.123365  0.604491  0.160922  1
  Sr  Sr21  1  0.000469  0.159998  0.895183  1
  Sr  Sr22  1  0.660213  0.877651  0.132798  1
  Sr  Sr23  1  0.505148  0.872349  0.282563  1
  Sr  Sr24  1  0.854491  0.873365  0.660922  1
  Sr  Sr25  1  0.212443  0.193569  0.339078  1
  Sr  Sr26  1  0.005148  0.722584  0.632798  1
  Sr  Sr27  1  0.744852  0.527416  0.867202  1
  Sr  Sr28  1  0.264815  0.105286  0.104817  1
  Sr  Sr29  1  0.244852  0.377651  0.217437  1
  Sr  Sr30  1  0.340002  0.499531  0.104817  1
  Sr  Sr31  1  0.249531  0.644714  0.659529  1
  Sr  Sr32  1  0.749531  0.090002  0.604817  1
  Sr  Sr33  1  0.625000  0.728932  0.603932  1
  Sr  Sr34  1  0.909998  0.514815  0.659529  1
  Sr  Sr35  1  0.840002  0.735185  0.840471  1
  Sr  Sr36  1  0.622349  0.839787  0.867202  1
  Sr  Sr37  1  0.277416  0.910213  0.282563  1
  Sr  Sr38  1  0.855286  0.250469  0.340471  1
  Sr  Sr39  1  0.126635  0.787557  0.981126  1
  Sr  Sr40  1  0.777416  0.494852  0.367202  1
  Sr  Sr41  1  0.972584  0.755148  0.132798  1
  Sr  Sr42  1  0.122349  0.255148  0.782563  1
  Sr  Sr43  1  0.589787  0.222584  0.717437  1
  Sr  Sr44  1  0.623365  0.462443  0.518874  1
  Sr  Sr45  1  0.978932  0.375000  0.103932  1
  Sr  Sr46  1  0.537557  0.056431  0.160922  1
  Sr  Sr47  1  0.394714  0.235185  0.895183  1
  Sr  Sr48  1  0.409998  0.750469  0.395183  1
  Sr  Sr49  1  0.478932  0.375000  0.603932  1
  Sr  Sr50  1  0.089787  0.372349  0.367202  1
  Sr  Sr51  1  0.806431  0.145509  0.018874  1
  Sr  Sr52  1  0.271068  0.875000  0.896068  1
  Sr  Sr53  1  0.472584  0.339787  0.217437  1
  Sr  Sr54  1  0.395509  0.556431  0.518874  1
  Sr  Sr55  1  0.627651  0.994852  0.717437  1
  Sm  Sm56  1  0.250000  0.750000  0.500000  1
  Sm  Sm57  1  0.750000  0.250000  0.500000  1
  Sm  Sm58  1  0.000000  0.000000  0.000000  1
  Sm  Sm59  1  0.500000  0.500000  0.000000  1
  Bi  Bi60  1  0.865473  0.365473  0.230945  1
  Bi  Bi61  1  0.290807  0.699370  0.145343  1
  Bi  Bi62  1  0.884527  0.884527  0.269055  1
  Bi  Bi63  1  0.554026  0.145463  0.854657  1
  Bi  Bi64  1  0.949370  0.040807  0.645343  1
  Bi  Bi65  1  0.365473  0.134527  0.500000  1
  Bi  Bi66  1  0.459193  0.550630  0.354657  1
  Bi  Bi67  1  0.354537  0.945974  0.145343  1
  Bi  Bi68  1  0.059190  0.208004  0.135702  1
  Bi  Bi69  1  0.054026  0.199370  0.408563  1
  Bi  Bi70  1  0.500000  0.000000  0.500000  1
  Bi  Bi71  1  0.195974  0.104537  0.645343  1
  Bi  Bi72  1  0.791996  0.927699  0.851186  1
  Bi  Bi73  1  0.677699  0.326513  0.635702  1
  Bi  Bi74  1  0.458004  0.809190  0.635702  1
  Bi  Bi75  1  0.173487  0.822301  0.364298  1
  Bi  Bi76  1  0.572301  0.708004  0.148814  1
  Bi  Bi77  1  0.673487  0.309190  0.351186  1
  Bi  Bi78  1  0.076513  0.940810  0.148814  1
  Bi  Bi79  1  0.750000  0.750000  0.000000  1
  Bi  Bi80  1  0.559190  0.423487  0.851186  1
  Bi  Bi81  1  0.384527  0.115473  0.000000  1
  Bi  Bi82  1  0.072301  0.923487  0.864298  1
  Bi  Bi83  1  0.000000  0.500000  0.500000  1
  Bi  Bi84  1  0.291996  0.440810  0.864298  1
  Bi  Bi85  1  0.800630  0.209193  0.854657  1
  Bi  Bi86  1  0.250000  0.250000  0.000000  1
  Bi  Bi87  1  0.395463  0.304026  0.354657  1
  Bi  Bi88  1  0.300630  0.445974  0.591437  1
  Bi  Bi89  1  0.695974  0.050630  0.091437  1
  Bi  Bi90  1  0.790807  0.645463  0.591437  1
  Bi  Bi91  1  0.190810  0.826513  0.648814  1
  Bi  Bi92  1  0.959193  0.604537  0.908563  1
  Bi  Bi93  1  0.115473  0.384527  0.000000  1
  Bi  Bi94  1  0.958004  0.322301  0.648814  1
  Bi  Bi95  1  0.634527  0.865473  0.500000  1
  Bi  Bi96  1  0.690810  0.041996  0.364298  1
  Bi  Bi97  1  0.576513  0.427699  0.135702  1
  Bi  Bi98  1  0.854537  0.709193  0.408563  1
  Bi  Bi99  1  0.895463  0.540807  0.091437  1
  Bi  Bi100  1  0.449370  0.804026  0.908563  1
  Bi  Bi101  1  0.134527  0.634527  0.769055  1
  Bi  Bi102  1  0.615473  0.615473  0.730945  1
  Bi  Bi103  1  0.177699  0.541996  0.351186  1
