# generated using pymatgen
data_Er3Nb3C5
_symmetry_space_group_name_H-M   'P 1'
_cell_length_a   5.83708490
_cell_length_b   5.79064216
_cell_length_c   5.73928869
_cell_angle_alpha   80.54399201
_cell_angle_beta   82.32418675
_cell_angle_gamma   120.89285820
_symmetry_Int_Tables_number   1
_chemical_formula_structural   Er3Nb3C5
_chemical_formula_sum   'Er3 Nb3 C5'
_cell_volume   158.67203044
_cell_formula_units_Z   1
loop_
 _symmetry_equiv_pos_site_id
 _symmetry_equiv_pos_as_xyz
  1  'x, y, z'
loop_
 _atom_site_type_symbol
 _atom_site_label
 _atom_site_symmetry_multiplicity
 _atom_site_fract_x
 _atom_site_fract_y
 _atom_site_fract_z
 _atom_site_occupancy
  Er  Er0  1  0.759214  0.750662  0.749327  1
  Er  Er1  1  0.244384  0.250285  0.249300  1
  Er  Er2  1  0.098376  0.426164  0.750242  1
  Nb  Nb3  1  0.538080  0.906661  0.260509  1
  Nb  Nb4  1  0.899444  0.548325  0.264504  1
  Nb  Nb5  1  0.455240  0.097438  0.738583  1
  C  C6  1  0.523102  0.504985  0.487028  1
  C  C7  1  0.661765  0.313687  0.009584  1
  C  C8  1  0.327269  0.695338  0.008067  1
  C  C9  1  0.808637  0.173732  0.495088  1
  C  C10  1  0.184489  0.832722  0.487768  1
