# generated using pymatgen
data_Ce3Pr13(MgOs)4
_symmetry_space_group_name_H-M   'P 1'
_cell_length_a   10.00994675
_cell_length_b   10.00617515
_cell_length_c   10.00617400
_cell_angle_alpha   60.00000381
_cell_angle_beta   60.01246697
_cell_angle_gamma   60.01246686
_symmetry_Int_Tables_number   1
_chemical_formula_structural   Ce3Pr13(MgOs)4
_chemical_formula_sum   'Ce3 Pr13 Mg4 Os4'
_cell_volume   708.81801159
_cell_formula_units_Z   1
loop_
 _symmetry_equiv_pos_site_id
 _symmetry_equiv_pos_as_xyz
  1  'x, y, z'
loop_
 _atom_site_type_symbol
 _atom_site_label
 _atom_site_symmetry_multiplicity
 _atom_site_fract_x
 _atom_site_fract_y
 _atom_site_fract_z
 _atom_site_occupancy
  Ce  Ce0  1  0.337896  0.340973  0.340973  1
  Ce  Ce1  1  0.337896  0.340973  0.980159  1
  Ce  Ce2  1  0.337896  0.980159  0.340973  1
  Pr  Pr3  1  0.962845  0.345718  0.345718  1
  Pr  Pr4  1  0.810960  0.189199  0.189199  1
  Pr  Pr5  1  0.189484  0.809964  0.809964  1
  Pr  Pr6  1  0.189484  0.809964  0.190586  1
  Pr  Pr7  1  0.810960  0.189199  0.810641  1
  Pr  Pr8  1  0.189484  0.190586  0.809964  1
  Pr  Pr9  1  0.810960  0.810641  0.189199  1
  Pr  Pr10  1  0.941308  0.559971  0.559971  1
  Pr  Pr11  1  0.557952  0.941328  0.941328  1
  Pr  Pr12  1  0.557952  0.941328  0.559392  1
  Pr  Pr13  1  0.941308  0.559971  0.938751  1
  Pr  Pr14  1  0.557952  0.559392  0.941328  1
  Pr  Pr15  1  0.941308  0.938751  0.559971  1
  Mg  Mg16  1  0.576885  0.579225  0.579225  1
  Mg  Mg17  1  0.576885  0.579225  0.264662  1
  Mg  Mg18  1  0.576885  0.264662  0.579225  1
  Mg  Mg19  1  0.264403  0.578532  0.578532  1
  Os  Os20  1  0.154353  0.137613  0.137613  1
  Os  Os21  1  0.154353  0.137613  0.570420  1
  Os  Os22  1  0.154353  0.570420  0.137613  1
  Os  Os23  1  0.566234  0.144588  0.144588  1
