# generated using pymatgen
data_YGaTeO6
_symmetry_space_group_name_H-M   'P 1'
_cell_length_a   5.17448800
_cell_length_b   5.17380570
_cell_length_c   9.86297600
_cell_angle_alpha   90.00318621
_cell_angle_beta   89.99834783
_cell_angle_gamma   119.99565071
_symmetry_Int_Tables_number   1
_chemical_formula_structural   YGaTeO6
_chemical_formula_sum   'Y2 Ga2 Te2 O12'
_cell_volume   228.68366214
_cell_formula_units_Z   2
loop_
 _symmetry_equiv_pos_site_id
 _symmetry_equiv_pos_as_xyz
  1  'x, y, z'
loop_
 _atom_site_type_symbol
 _atom_site_label
 _atom_site_symmetry_multiplicity
 _atom_site_fract_x
 _atom_site_fract_y
 _atom_site_fract_z
 _atom_site_occupancy
  Y  Y0  1  0.000000  0.000000  0.000000  1
  Y  Y1  1  0.000000  0.000000  0.500000  1
  Ga  Ga2  1  0.333168  0.666583  0.250001  1
  Ga  Ga3  1  0.666832  0.333417  0.749999  1
  Te  Te4  1  0.333489  0.666745  0.750000  1
  Te  Te5  1  0.666511  0.333255  0.250000  1
  O  O6  1  0.365563  0.356725  0.139669  1
  O  O7  1  0.643139  0.008808  0.139680  1
  O  O8  1  0.991007  0.634294  0.139660  1
  O  O9  1  0.634437  0.643275  0.860331  1
  O  O10  1  0.356861  0.991192  0.860320  1
  O  O11  1  0.008993  0.365706  0.860340  1
  O  O12  1  0.643139  0.634332  0.360320  1
  O  O13  1  0.365564  0.008838  0.360331  1
  O  O14  1  0.991008  0.356716  0.360339  1
  O  O15  1  0.356861  0.365668  0.639680  1
  O  O16  1  0.634436  0.991162  0.639669  1
  O  O17  1  0.008992  0.643284  0.639661  1
