# generated using pymatgen
data_Hf17Zr(Re4Au)2
_symmetry_space_group_name_H-M   'P 1'
_cell_length_a   8.72090609
_cell_length_b   8.72090655
_cell_length_c   8.55548000
_cell_angle_alpha   90.00000000
_cell_angle_beta   90.00000000
_cell_angle_gamma   119.90354600
_symmetry_Int_Tables_number   1
_chemical_formula_structural   Hf17Zr(Re4Au)2
_chemical_formula_sum   'Hf17 Zr1 Re8 Au2'
_cell_volume   564.05251558
_cell_formula_units_Z   1
loop_
 _symmetry_equiv_pos_site_id
 _symmetry_equiv_pos_as_xyz
  1  'x, y, z'
loop_
 _atom_site_type_symbol
 _atom_site_label
 _atom_site_symmetry_multiplicity
 _atom_site_fract_x
 _atom_site_fract_y
 _atom_site_fract_z
 _atom_site_occupancy
  Hf  Hf0  1  0.192248  0.807752  0.451306  1
  Hf  Hf1  1  0.191456  0.384057  0.451622  1
  Hf  Hf2  1  0.615943  0.808544  0.451622  1
  Hf  Hf3  1  0.807768  0.192232  0.548819  1
  Hf  Hf4  1  0.808558  0.616318  0.549241  1
  Hf  Hf5  1  0.383682  0.191442  0.549241  1
  Hf  Hf6  1  0.807768  0.192232  0.951181  1
  Hf  Hf7  1  0.808558  0.616318  0.950759  1
  Hf  Hf8  1  0.383682  0.191442  0.950759  1
  Hf  Hf9  1  0.192248  0.807752  0.048694  1
  Hf  Hf10  1  0.191456  0.384057  0.048378  1
  Hf  Hf11  1  0.615943  0.808544  0.048378  1
  Hf  Hf12  1  0.541455  0.082401  0.250000  1
  Hf  Hf13  1  0.917599  0.458545  0.250000  1
  Hf  Hf14  1  0.458473  0.541527  0.750000  1
  Hf  Hf15  1  0.458259  0.916721  0.750000  1
  Hf  Hf16  1  0.083279  0.541741  0.750000  1
  Zr  Zr17  1  0.541774  0.458226  0.250000  1
  Re  Re18  1  0.889914  0.110086  0.250000  1
  Re  Re19  1  0.891441  0.781268  0.250000  1
  Re  Re20  1  0.218732  0.108559  0.250000  1
  Re  Re21  1  0.109908  0.890092  0.750000  1
  Re  Re22  1  0.109784  0.219785  0.750000  1
  Re  Re23  1  0.780215  0.890216  0.750000  1
  Re  Re24  1  0.000005  0.999995  0.500045  1
  Re  Re25  1  0.000005  0.999995  0.999955  1
  Au  Au26  1  0.333432  0.666568  0.250000  1
  Au  Au27  1  0.666414  0.333586  0.750000  1
