# generated using pymatgen
data_Y2Tm10TcRu3
_symmetry_space_group_name_H-M   'P 1'
_cell_length_a   6.23705604
_cell_length_b   7.30404783
_cell_length_c   9.00970300
_cell_angle_alpha   90.00000000
_cell_angle_beta   90.00000000
_cell_angle_gamma   90.19685656
_symmetry_Int_Tables_number   1
_chemical_formula_structural   Y2Tm10TcRu3
_chemical_formula_sum   'Y2 Tm10 Tc1 Ru3'
_cell_volume   410.44140516
_cell_formula_units_Z   1
loop_
 _symmetry_equiv_pos_site_id
 _symmetry_equiv_pos_as_xyz
  1  'x, y, z'
loop_
 _atom_site_type_symbol
 _atom_site_label
 _atom_site_symmetry_multiplicity
 _atom_site_fract_x
 _atom_site_fract_y
 _atom_site_fract_z
 _atom_site_occupancy
  Y  Y0  1  0.627909  0.038758  0.250000  1
  Y  Y1  1  0.369533  0.959162  0.750000  1
  Tm  Tm2  1  0.132296  0.457057  0.750000  1
  Tm  Tm3  1  0.874605  0.542343  0.250000  1
  Tm  Tm4  1  0.163278  0.178235  0.064231  1
  Tm  Tm5  1  0.835499  0.821537  0.936271  1
  Tm  Tm6  1  0.665445  0.327382  0.937862  1
  Tm  Tm7  1  0.835499  0.821537  0.563729  1
  Tm  Tm8  1  0.332082  0.673863  0.063310  1
  Tm  Tm9  1  0.163278  0.178235  0.435769  1
  Tm  Tm10  1  0.332082  0.673863  0.436690  1
  Tm  Tm11  1  0.665445  0.327382  0.562138  1
  Tc  Tc12  1  0.463178  0.386718  0.250000  1
  Ru  Ru13  1  0.540178  0.614637  0.750000  1
  Ru  Ru14  1  0.957491  0.117218  0.750000  1
  Ru  Ru15  1  0.042202  0.882073  0.250000  1
