# generated using pymatgen
data_Hf3Si2AsRu3
_symmetry_space_group_name_H-M   'P 1'
_cell_length_a   7.61971586
_cell_length_b   7.62856726
_cell_length_c   7.62856704
_cell_angle_alpha   128.13792400
_cell_angle_beta   121.08454974
_cell_angle_gamma   82.33303614
_symmetry_Int_Tables_number   1
_chemical_formula_structural   Hf3Si2AsRu3
_chemical_formula_sum   'Hf6 Si4 As2 Ru6'
_cell_volume   287.14720550
_cell_formula_units_Z   2
loop_
 _symmetry_equiv_pos_site_id
 _symmetry_equiv_pos_as_xyz
  1  'x, y, z'
loop_
 _atom_site_type_symbol
 _atom_site_label
 _atom_site_symmetry_multiplicity
 _atom_site_fract_x
 _atom_site_fract_y
 _atom_site_fract_z
 _atom_site_occupancy
  Hf  Hf0  1  0.469718  0.698339  0.727106  1
  Hf  Hf1  1  0.530282  0.257389  0.228621  1
  Hf  Hf2  1  0.740909  0.834477  0.577933  1
  Hf  Hf3  1  0.259091  0.837025  0.093568  1
  Hf  Hf4  1  0.051800  0.256353  0.704470  1
  Hf  Hf5  1  0.948200  0.652670  0.204553  1
  Si  Si6  1  0.273689  0.270723  0.498058  1
  Si  Si7  1  0.726311  0.224369  0.997035  1
  Si  Si8  1  0.327683  0.584661  0.248799  1
  Si  Si9  1  0.672317  0.921115  0.256978  1
  As  As10  1  0.160014  0.920352  0.749160  1
  As  As11  1  0.839986  0.589146  0.760338  1
  Ru  Ru12  1  0.500000  0.497649  0.997649  1
  Ru  Ru13  1  0.000000  0.493677  0.493677  1
  Ru  Ru14  1  0.099015  0.257433  0.110025  1
  Ru  Ru15  1  0.900985  0.011010  0.158417  1
  Ru  Ru16  1  0.353173  0.005083  0.601303  1
  Ru  Ru17  1  0.646827  0.248130  0.651910  1
