# generated using pymatgen
data_Y3MnCdW3O14
_symmetry_space_group_name_H-M   'P 1'
_cell_length_a   7.23048474
_cell_length_b   7.23037370
_cell_length_c   7.23041820
_cell_angle_alpha   117.11211705
_cell_angle_beta   62.88821564
_cell_angle_gamma   117.11172951
_symmetry_Int_Tables_number   1
_chemical_formula_structural   Y3MnCdW3O14
_chemical_formula_sum   'Y3 Mn1 Cd1 W3 O14'
_cell_volume   284.43884289
_cell_formula_units_Z   1
loop_
 _symmetry_equiv_pos_site_id
 _symmetry_equiv_pos_as_xyz
  1  'x, y, z'
loop_
 _atom_site_type_symbol
 _atom_site_label
 _atom_site_symmetry_multiplicity
 _atom_site_fract_x
 _atom_site_fract_y
 _atom_site_fract_z
 _atom_site_occupancy
  Y  Y0  1  0.999978  0.499995  0.000009  1
  Y  Y1  1  0.500004  0.000013  0.000006  1
  Y  Y2  1  0.500004  0.499993  0.499990  1
  Mn  Mn3  1  0.000053  0.000020  0.499922  1
  Cd  Cd4  1  0.499996  0.500002  0.999997  1
  W  W5  1  0.500004  0.000035  0.499988  1
  W  W6  1  0.999977  0.499984  0.500023  1
  W  W7  1  0.999985  0.999993  0.000000  1
  O  O8  1  0.626611  0.373377  0.126623  1
  O  O9  1  0.373368  0.626625  0.873377  1
  O  O10  1  0.081326  0.322809  0.177190  1
  O  O11  1  0.677185  0.918670  0.177192  1
  O  O12  1  0.677186  0.322809  0.581326  1
  O  O13  1  0.918675  0.677183  0.822820  1
  O  O14  1  0.322809  0.081314  0.822817  1
  O  O15  1  0.322810  0.677183  0.418685  1
  O  O16  1  0.644911  0.904793  0.595213  1
  O  O17  1  0.095207  0.355109  0.595214  1
  O  O18  1  0.095206  0.904790  0.144901  1
  O  O19  1  0.355121  0.095209  0.404795  1
  O  O20  1  0.904791  0.644892  0.404799  1
  O  O21  1  0.904792  0.095206  0.855114  1
