# generated using pymatgen
data_Tb8Dy12Si15As
_symmetry_space_group_name_H-M   'P 1'
_cell_length_a   7.69168170
_cell_length_b   7.73067938
_cell_length_c   14.12796332
_cell_angle_alpha   89.26781267
_cell_angle_beta   89.85688488
_cell_angle_gamma   89.98006087
_symmetry_Int_Tables_number   1
_chemical_formula_structural   Tb8Dy12Si15As
_chemical_formula_sum   'Tb8 Dy12 Si15 As1'
_cell_volume   840.00464125
_cell_formula_units_Z   1
loop_
 _symmetry_equiv_pos_site_id
 _symmetry_equiv_pos_as_xyz
  1  'x, y, z'
loop_
 _atom_site_type_symbol
 _atom_site_label
 _atom_site_symmetry_multiplicity
 _atom_site_fract_x
 _atom_site_fract_y
 _atom_site_fract_z
 _atom_site_occupancy
  Tb  Tb0  1  0.995290  0.354942  0.209509  1
  Tb  Tb1  1  0.004382  0.647367  0.710461  1
  Tb  Tb2  1  0.142496  0.504441  0.463170  1
  Tb  Tb3  1  0.505461  0.849247  0.037859  1
  Tb  Tb4  1  0.854585  0.502044  0.959456  1
  Tb  Tb5  1  0.498326  0.146626  0.540746  1
  Tb  Tb6  1  0.354764  0.997043  0.790315  1
  Tb  Tb7  1  0.644301  0.000840  0.289359  1
  Dy  Dy8  1  0.177634  0.176899  0.999720  1
  Dy  Dy9  1  0.822695  0.824547  0.500891  1
  Dy  Dy10  1  0.321824  0.680360  0.249810  1
  Dy  Dy11  1  0.679171  0.321684  0.749968  1
  Dy  Dy12  1  0.146650  0.009565  0.371639  1
  Dy  Dy13  1  0.855947  0.993405  0.875962  1
  Dy  Dy14  1  0.493572  0.644953  0.627027  1
  Dy  Dy15  1  0.356435  0.506020  0.873797  1
  Dy  Dy16  1  0.499606  0.349317  0.128847  1
  Dy  Dy17  1  0.648384  0.499902  0.376561  1
  Dy  Dy18  1  0.005824  0.144755  0.623085  1
  Dy  Dy19  1  0.992063  0.851761  0.121692  1
  Si  Si20  1  0.648460  0.707334  0.815970  1
  Si  Si21  1  0.206429  0.854823  0.565127  1
  Si  Si22  1  0.147210  0.791895  0.931369  1
  Si  Si23  1  0.791842  0.147696  0.066634  1
  Si  Si24  1  0.851489  0.205464  0.431346  1
  Si  Si25  1  0.292522  0.352355  0.683667  1
  Si  Si26  1  0.704056  0.642348  0.183614  1
  Si  Si27  1  0.298195  0.035076  0.178488  1
  Si  Si28  1  0.702623  0.945733  0.688840  1
  Si  Si29  1  0.445707  0.801541  0.438783  1
  Si  Si30  1  0.201968  0.550136  0.061936  1
  Si  Si31  1  0.557104  0.203522  0.939234  1
  Si  Si32  1  0.797113  0.447785  0.563216  1
  Si  Si33  1  0.056319  0.297545  0.810826  1
  Si  Si34  1  0.946796  0.703137  0.311966  1
  As  As35  1  0.352756  0.307893  0.329108  1
