# generated using pymatgen
data_MnCdBr6
_symmetry_space_group_name_H-M   'P 1'
_cell_length_a   6.81059700
_cell_length_b   6.81059587
_cell_length_c   13.61168300
_cell_angle_alpha   90.00000000
_cell_angle_beta   90.00000000
_cell_angle_gamma   120.00000063
_symmetry_Int_Tables_number   1
_chemical_formula_structural   MnCdBr6
_chemical_formula_sum   'Mn2 Cd2 Br12'
_cell_volume   546.78016116
_cell_formula_units_Z   2
loop_
 _symmetry_equiv_pos_site_id
 _symmetry_equiv_pos_as_xyz
  1  'x, y, z'
loop_
 _atom_site_type_symbol
 _atom_site_label
 _atom_site_symmetry_multiplicity
 _atom_site_fract_x
 _atom_site_fract_y
 _atom_site_fract_z
 _atom_site_occupancy
  Mn  Mn0  1  0.333333  0.666667  0.250000  1
  Mn  Mn1  1  0.666667  0.333333  0.750000  1
  Cd  Cd2  1  0.000000  0.000000  0.250000  1
  Cd  Cd3  1  0.000000  0.000000  0.750000  1
  Br  Br4  1  0.628570  0.954938  0.142641  1
  Br  Br5  1  0.045062  0.673633  0.142641  1
  Br  Br6  1  0.326367  0.371430  0.142641  1
  Br  Br7  1  0.045062  0.371430  0.357359  1
  Br  Br8  1  0.371430  0.326367  0.642641  1
  Br  Br9  1  0.673633  0.045062  0.642641  1
  Br  Br10  1  0.954938  0.628570  0.642641  1
  Br  Br11  1  0.673633  0.628570  0.857359  1
  Br  Br12  1  0.954938  0.326367  0.857359  1
  Br  Br13  1  0.371430  0.045062  0.857359  1
  Br  Br14  1  0.628570  0.673633  0.357359  1
  Br  Br15  1  0.326367  0.954938  0.357359  1
