# generated using pymatgen
data_Er2GaSi4Ir3
_symmetry_space_group_name_H-M   'P 1'
_cell_length_a   8.17750280
_cell_length_b   8.17750281
_cell_length_c   5.73816900
_cell_angle_alpha   71.65988787
_cell_angle_beta   71.65988786
_cell_angle_gamma   94.24640118
_symmetry_Int_Tables_number   1
_chemical_formula_structural   Er2GaSi4Ir3
_chemical_formula_sum   'Er4 Ga2 Si8 Ir6'
_cell_volume   339.29132295
_cell_formula_units_Z   2
loop_
 _symmetry_equiv_pos_site_id
 _symmetry_equiv_pos_as_xyz
  1  'x, y, z'
loop_
 _atom_site_type_symbol
 _atom_site_label
 _atom_site_symmetry_multiplicity
 _atom_site_fract_x
 _atom_site_fract_y
 _atom_site_fract_z
 _atom_site_occupancy
  Er  Er0  1  0.866995  0.597323  0.757026  1
  Er  Er1  1  0.133005  0.402677  0.242974  1
  Er  Er2  1  0.402677  0.133005  0.742974  1
  Er  Er3  1  0.597323  0.866995  0.257026  1
  Ga  Ga4  1  0.774443  0.225557  0.750000  1
  Ga  Ga5  1  0.225557  0.774443  0.250000  1
  Si  Si6  1  0.517170  0.482830  0.750000  1
  Si  Si7  1  0.482830  0.517170  0.250000  1
  Si  Si8  1  0.212323  0.787677  0.750000  1
  Si  Si9  1  0.787677  0.212323  0.250000  1
  Si  Si10  1  0.264070  0.062501  0.338339  1
  Si  Si11  1  0.735930  0.937499  0.661661  1
  Si  Si12  1  0.937499  0.735930  0.161661  1
  Si  Si13  1  0.062501  0.264070  0.838339  1
  Ir  Ir14  1  0.533292  0.259674  0.140361  1
  Ir  Ir15  1  0.740326  0.466708  0.359639  1
  Ir  Ir16  1  0.466708  0.740326  0.859639  1
  Ir  Ir17  1  0.259674  0.533292  0.640361  1
  Ir  Ir18  1  0.992095  0.007905  0.250000  1
  Ir  Ir19  1  0.007905  0.992095  0.750000  1
