# generated using pymatgen
data_Y4Tm12In6CoOs
_symmetry_space_group_name_H-M   'P 1'
_cell_length_a   10.26740400
_cell_length_b   10.26740426
_cell_length_c   7.03005200
_cell_angle_alpha   90.00000000
_cell_angle_beta   90.00000000
_cell_angle_gamma   119.99999915
_symmetry_Int_Tables_number   1
_chemical_formula_structural   Y4Tm12In6CoOs
_chemical_formula_sum   'Y4 Tm12 In6 Co1 Os1'
_cell_volume   641.81592063
_cell_formula_units_Z   1
loop_
 _symmetry_equiv_pos_site_id
 _symmetry_equiv_pos_as_xyz
  1  'x, y, z'
loop_
 _atom_site_type_symbol
 _atom_site_label
 _atom_site_symmetry_multiplicity
 _atom_site_fract_x
 _atom_site_fract_y
 _atom_site_fract_z
 _atom_site_occupancy
  Y  Y0  1  0.333333  0.666667  0.104866  1
  Y  Y1  1  0.666667  0.333333  0.594649  1
  Y  Y2  1  0.000000  0.000000  0.495076  1
  Y  Y3  1  0.000000  0.000000  0.997662  1
  Tm  Tm4  1  0.466497  0.533503  0.481736  1
  Tm  Tm5  1  0.067006  0.533503  0.481736  1
  Tm  Tm6  1  0.466497  0.932994  0.481736  1
  Tm  Tm7  1  0.535503  0.464497  0.982101  1
  Tm  Tm8  1  0.928994  0.464497  0.982101  1
  Tm  Tm9  1  0.535503  0.071006  0.982101  1
  Tm  Tm10  1  0.820741  0.179259  0.275202  1
  Tm  Tm11  1  0.358519  0.179259  0.275202  1
  Tm  Tm12  1  0.820741  0.641481  0.275202  1
  Tm  Tm13  1  0.177890  0.822110  0.775920  1
  Tm  Tm14  1  0.644219  0.822110  0.775920  1
  Tm  Tm15  1  0.177890  0.355781  0.775920  1
  In  In16  1  0.162086  0.837914  0.234195  1
  In  In17  1  0.675830  0.837914  0.234195  1
  In  In18  1  0.162086  0.324170  0.234195  1
  In  In19  1  0.836551  0.163449  0.732912  1
  In  In20  1  0.326898  0.163449  0.732912  1
  In  In21  1  0.836551  0.673102  0.732912  1
  Co  Co22  1  0.666667  0.333333  0.204072  1
  Os  Os23  1  0.333333  0.666667  0.702031  1
