# generated using pymatgen
data_TbYb7(Sc3Pt4)4
_symmetry_space_group_name_H-M   'P 1'
_cell_length_a   7.28158419
_cell_length_b   7.33413258
_cell_length_c   14.06403905
_cell_angle_alpha   89.95913741
_cell_angle_beta   89.98280406
_cell_angle_gamma   90.01973861
_symmetry_Int_Tables_number   1
_chemical_formula_structural   TbYb7(Sc3Pt4)4
_chemical_formula_sum   'Tb1 Yb7 Sc12 Pt16'
_cell_volume   751.07713206
_cell_formula_units_Z   1
loop_
 _symmetry_equiv_pos_site_id
 _symmetry_equiv_pos_as_xyz
  1  'x, y, z'
loop_
 _atom_site_type_symbol
 _atom_site_label
 _atom_site_symmetry_multiplicity
 _atom_site_fract_x
 _atom_site_fract_y
 _atom_site_fract_z
 _atom_site_occupancy
  Tb  Tb0  1  0.489183  0.675825  0.594230  1
  Yb  Yb1  1  0.989205  0.824701  0.907532  1
  Yb  Yb2  1  0.511897  0.325083  0.093260  1
  Yb  Yb3  1  0.012405  0.175185  0.405996  1
  Yb  Yb4  1  0.511862  0.324090  0.405849  1
  Yb  Yb5  1  0.011446  0.175427  0.093298  1
  Yb  Yb6  1  0.487973  0.675033  0.906243  1
  Yb  Yb7  1  0.988654  0.824997  0.593339  1
  Sc  Sc8  1  0.648643  0.167717  0.624051  1
  Sc  Sc9  1  0.148131  0.334161  0.875423  1
  Sc  Sc10  1  0.351250  0.833766  0.124027  1
  Sc  Sc11  1  0.852009  0.665483  0.375658  1
  Sc  Sc12  1  0.350744  0.834706  0.374174  1
  Sc  Sc13  1  0.851297  0.665560  0.124690  1
  Sc  Sc14  1  0.649085  0.166849  0.876301  1
  Sc  Sc15  1  0.146613  0.333184  0.625029  1
  Sc  Sc16  1  0.812596  0.504973  0.750944  1
  Sc  Sc17  1  0.310687  0.996230  0.750845  1
  Sc  Sc18  1  0.188848  0.494779  0.249853  1
  Sc  Sc19  1  0.688545  0.004796  0.249404  1
  Pt  Pt20  1  0.674650  0.953684  0.454184  1
  Pt  Pt21  1  0.175549  0.542968  0.047086  1
  Pt  Pt22  1  0.324854  0.043340  0.952814  1
  Pt  Pt23  1  0.819981  0.461355  0.546392  1
  Pt  Pt24  1  0.325301  0.040550  0.546942  1
  Pt  Pt25  1  0.824158  0.457294  0.953028  1
  Pt  Pt26  1  0.675696  0.956896  0.046926  1
  Pt  Pt27  1  0.180154  0.543337  0.456131  1
  Pt  Pt28  1  0.447703  0.370742  0.749429  1
  Pt  Pt29  1  0.946298  0.127408  0.750897  1
  Pt  Pt30  1  0.552005  0.628791  0.249690  1
  Pt  Pt31  1  0.051281  0.871084  0.249479  1
  Pt  Pt32  1  0.672024  0.863468  0.748520  1
  Pt  Pt33  1  0.173097  0.636390  0.748990  1
  Pt  Pt34  1  0.327505  0.134927  0.249263  1
  Pt  Pt35  1  0.828670  0.365221  0.250081  1
