# generated using pymatgen
data_Tb12Pr8Si15Hg
_symmetry_space_group_name_H-M   'P 1'
_cell_length_a   7.57625582
_cell_length_b   7.86593422
_cell_length_c   14.99797066
_cell_angle_alpha   89.97297226
_cell_angle_beta   89.48827333
_cell_angle_gamma   90.22961900
_symmetry_Int_Tables_number   1
_chemical_formula_structural   Tb12Pr8Si15Hg
_chemical_formula_sum   'Tb12 Pr8 Si15 Hg1'
_cell_volume   893.75107071
_cell_formula_units_Z   1
loop_
 _symmetry_equiv_pos_site_id
 _symmetry_equiv_pos_as_xyz
  1  'x, y, z'
loop_
 _atom_site_type_symbol
 _atom_site_label
 _atom_site_symmetry_multiplicity
 _atom_site_fract_x
 _atom_site_fract_y
 _atom_site_fract_z
 _atom_site_occupancy
  Tb  Tb0  1  0.335910  0.170054  0.626817  1
  Tb  Tb1  1  0.668392  0.822785  0.375458  1
  Tb  Tb2  1  0.662505  0.989456  0.751467  1
  Tb  Tb3  1  0.169994  0.678767  0.373609  1
  Tb  Tb4  1  0.824561  0.319904  0.878377  1
  Tb  Tb5  1  0.823279  0.325472  0.622719  1
  Tb  Tb6  1  0.838713  0.489681  0.250530  1
  Tb  Tb7  1  0.340479  0.007809  0.249113  1
  Tb  Tb8  1  0.324119  0.177580  0.878003  1
  Tb  Tb9  1  0.174122  0.678657  0.122402  1
  Tb  Tb10  1  0.674671  0.821091  0.122186  1
  Tb  Tb11  1  0.161279  0.509802  0.753667  1
  Pr  Pr12  1  0.014058  0.174549  0.397742  1
  Pr  Pr13  1  0.518012  0.319583  0.398027  1
  Pr  Pr14  1  0.479907  0.680455  0.902096  1
  Pr  Pr15  1  0.490410  0.685576  0.601782  1
  Pr  Pr16  1  0.981450  0.827798  0.600179  1
  Pr  Pr17  1  0.979287  0.821067  0.902388  1
  Pr  Pr18  1  0.519097  0.319295  0.097925  1
  Pr  Pr19  1  0.020432  0.180557  0.099349  1
  Si  Si20  1  0.275786  0.879089  0.751944  1
  Si  Si21  1  0.464980  0.611133  0.247699  1
  Si  Si22  1  0.034426  0.116353  0.751632  1
  Si  Si23  1  0.535172  0.389316  0.752466  1
  Si  Si24  1  0.965014  0.887975  0.248108  1
  Si  Si25  1  0.722009  0.120359  0.247518  1
  Si  Si26  1  0.852076  0.532714  0.038175  1
  Si  Si27  1  0.352283  0.967242  0.038813  1
  Si  Si28  1  0.146507  0.466501  0.962254  1
  Si  Si29  1  0.652118  0.035377  0.536924  1
  Si  Si30  1  0.346578  0.966159  0.461013  1
  Si  Si31  1  0.837611  0.536144  0.458331  1
  Si  Si32  1  0.779379  0.620269  0.752844  1
  Si  Si33  1  0.223343  0.377951  0.248275  1
  Si  Si34  1  0.646509  0.032060  0.961400  1
  Hg  Hg35  1  0.165533  0.461418  0.538767  1
