# generated using pymatgen
data_Zr6Al11Cu12As
_symmetry_space_group_name_H-M   'P 1'
_cell_length_a   8.59457852
_cell_length_b   8.57787874
_cell_length_c   8.57787900
_cell_angle_alpha   60.00000287
_cell_angle_beta   60.06425796
_cell_angle_gamma   60.06425732
_symmetry_Int_Tables_number   1
_chemical_formula_structural   Zr6Al11Cu12As
_chemical_formula_sum   'Zr6 Al11 Cu12 As1'
_cell_volume   447.60047828
_cell_formula_units_Z   1
loop_
 _symmetry_equiv_pos_site_id
 _symmetry_equiv_pos_as_xyz
  1  'x, y, z'
loop_
 _atom_site_type_symbol
 _atom_site_label
 _atom_site_symmetry_multiplicity
 _atom_site_fract_x
 _atom_site_fract_y
 _atom_site_fract_z
 _atom_site_occupancy
  Zr  Zr0  1  0.721772  0.283120  0.283120  1
  Zr  Zr1  1  0.278228  0.716880  0.716880  1
  Zr  Zr2  1  0.278228  0.716880  0.288012  1
  Zr  Zr3  1  0.721772  0.283120  0.711988  1
  Zr  Zr4  1  0.278228  0.288012  0.716880  1
  Zr  Zr5  1  0.721772  0.711988  0.283120  1
  Al  Al6  1  0.627949  0.124018  0.124018  1
  Al  Al7  1  0.372051  0.875982  0.875982  1
  Al  Al8  1  0.326972  0.335863  0.335863  1
  Al  Al9  1  0.673028  0.664137  0.664137  1
  Al  Al10  1  0.326972  0.335863  0.001304  1
  Al  Al11  1  0.326972  0.001304  0.335863  1
  Al  Al12  1  0.673028  0.664137  0.998696  1
  Al  Al13  1  0.673028  0.998696  0.664137  1
  Al  Al14  1  0.009490  0.330170  0.330170  1
  Al  Al15  1  0.990510  0.669830  0.669830  1
  Al  Al16  1  0.000000  0.000000  0.000000  1
  Cu  Cu17  1  0.122530  0.121455  0.121455  1
  Cu  Cu18  1  0.877470  0.878545  0.878545  1
  Cu  Cu19  1  0.122530  0.121455  0.634561  1
  Cu  Cu20  1  0.122530  0.634561  0.121455  1
  Cu  Cu21  1  0.877470  0.878545  0.365439  1
  Cu  Cu22  1  0.877470  0.365439  0.878545  1
  Cu  Cu23  1  0.500000  0.000000  0.000000  1
  Cu  Cu24  1  0.000000  0.500000  0.500000  1
  Cu  Cu25  1  0.000000  0.500000  0.000000  1
  Cu  Cu26  1  0.500000  0.000000  0.500000  1
  Cu  Cu27  1  0.000000  0.000000  0.500000  1
  Cu  Cu28  1  0.500000  0.500000  0.000000  1
  As  As29  1  0.500000  0.500000  0.500000  1
