# generated using pymatgen
data_TbNp7F30
_symmetry_space_group_name_H-M   'P 1'
_cell_length_a   8.66190552
_cell_length_b   8.67047973
_cell_length_c   8.66190564
_cell_angle_alpha   100.53501761
_cell_angle_beta   100.05931247
_cell_angle_gamma   100.53501976
_symmetry_Int_Tables_number   1
_chemical_formula_structural   TbNp7F30
_chemical_formula_sum   'Tb1 Np7 F30'
_cell_volume   614.04172888
_cell_formula_units_Z   1
loop_
 _symmetry_equiv_pos_site_id
 _symmetry_equiv_pos_as_xyz
  1  'x, y, z'
loop_
 _atom_site_type_symbol
 _atom_site_label
 _atom_site_symmetry_multiplicity
 _atom_site_fract_x
 _atom_site_fract_y
 _atom_site_fract_z
 _atom_site_occupancy
  Tb  Tb0  1  0.823769  0.250000  0.676231  1
  Np  Np1  1  0.250708  0.250000  0.249292  1
  Np  Np2  1  0.177177  0.750000  0.322823  1
  Np  Np3  1  0.246713  0.675769  0.822592  1
  Np  Np4  1  0.677408  0.824231  0.253287  1
  Np  Np5  1  0.749720  0.750000  0.750280  1
  Np  Np6  1  0.324059  0.179098  0.748057  1
  Np  Np7  1  0.751943  0.320902  0.175941  1
  F  F8  1  0.968948  0.530353  0.251878  1
  F  F9  1  0.816186  0.336598  0.441651  1
  F  F10  1  0.487053  0.716791  0.716836  1
  F  F11  1  0.344616  0.449771  0.826774  1
  F  F12  1  0.012837  0.785461  0.783973  1
  F  F13  1  0.752337  0.030060  0.466017  1
  F  F14  1  0.946231  0.839686  0.323191  1
  F  F15  1  0.217942  0.219390  0.989589  1
  F  F16  1  0.780856  0.007108  0.778137  1
  F  F17  1  0.324524  0.946824  0.838971  1
  F  F18  1  0.282549  0.287048  0.512145  1
  F  F19  1  0.447200  0.825922  0.343920  1
  F  F20  1  0.529115  0.250000  0.970885  1
  F  F21  1  0.284422  0.512122  0.280681  1
  F  F22  1  0.156080  0.674078  0.052800  1
  F  F23  1  0.839682  0.319817  0.947366  1
  F  F24  1  0.721863  0.492892  0.719144  1
  F  F25  1  0.465134  0.750000  0.034866  1
  F  F26  1  0.552634  0.180183  0.660318  1
  F  F27  1  0.716027  0.714539  0.487163  1
  F  F28  1  0.673226  0.050229  0.155384  1
  F  F29  1  0.219319  0.987878  0.215578  1
  F  F30  1  0.783164  0.783209  0.012947  1
  F  F31  1  0.058349  0.163402  0.683814  1
  F  F32  1  0.248122  0.969647  0.531052  1
  F  F33  1  0.987855  0.212952  0.217451  1
  F  F34  1  0.661029  0.553176  0.175476  1
  F  F35  1  0.510411  0.280610  0.282058  1
  F  F36  1  0.176809  0.660314  0.553769  1
  F  F37  1  0.033983  0.469940  0.747663  1
