# generated using pymatgen
data_CaSb12OsRu2Rh
_symmetry_space_group_name_H-M   'P 1'
_cell_length_a   8.14442886
_cell_length_b   8.15233079
_cell_length_c   8.16043891
_cell_angle_alpha   109.43505900
_cell_angle_beta   109.38797422
_cell_angle_gamma   109.42425204
_symmetry_Int_Tables_number   1
_chemical_formula_structural   CaSb12OsRu2Rh
_chemical_formula_sum   'Ca1 Sb12 Os1 Ru2 Rh1'
_cell_volume   417.94827951
_cell_formula_units_Z   1
loop_
 _symmetry_equiv_pos_site_id
 _symmetry_equiv_pos_as_xyz
  1  'x, y, z'
loop_
 _atom_site_type_symbol
 _atom_site_label
 _atom_site_symmetry_multiplicity
 _atom_site_fract_x
 _atom_site_fract_y
 _atom_site_fract_z
 _atom_site_occupancy
  Ca  Ca0  1  0.000000  0.000000  0.000000  1
  Sb  Sb1  1  0.845360  0.661853  0.503961  1
  Sb  Sb2  1  0.154640  0.338147  0.496039  1
  Sb  Sb3  1  0.156706  0.659760  0.817662  1
  Sb  Sb4  1  0.843294  0.340240  0.182338  1
  Sb  Sb5  1  0.661163  0.503677  0.844895  1
  Sb  Sb6  1  0.338837  0.496323  0.155105  1
  Sb  Sb7  1  0.660856  0.817224  0.158050  1
  Sb  Sb8  1  0.339144  0.182776  0.841950  1
  Sb  Sb9  1  0.503813  0.844751  0.660739  1
  Sb  Sb10  1  0.496187  0.155249  0.339261  1
  Sb  Sb11  1  0.182080  0.842451  0.339576  1
  Sb  Sb12  1  0.817920  0.157549  0.660424  1
  Os  Os13  1  0.500000  0.000000  0.000000  1
  Ru  Ru14  1  0.000000  0.500000  0.000000  1
  Ru  Ru15  1  0.000000  0.000000  0.500000  1
  Rh  Rh16  1  0.500000  0.500000  0.500000  1
