# generated using pymatgen
data_Pr3Y(LuBi)6
_symmetry_space_group_name_H-M   'P 1'
_cell_length_a   8.31865300
_cell_length_b   9.44008700
_cell_length_c   12.22875100
_cell_angle_alpha   90.00000000
_cell_angle_beta   90.00000000
_cell_angle_gamma   90.00000000
_symmetry_Int_Tables_number   1
_chemical_formula_structural   Pr3Y(LuBi)6
_chemical_formula_sum   'Pr6 Y2 Lu12 Bi12'
_cell_volume   960.30923988
_cell_formula_units_Z   2
loop_
 _symmetry_equiv_pos_site_id
 _symmetry_equiv_pos_as_xyz
  1  'x, y, z'
loop_
 _atom_site_type_symbol
 _atom_site_label
 _atom_site_symmetry_multiplicity
 _atom_site_fract_x
 _atom_site_fract_y
 _atom_site_fract_z
 _atom_site_occupancy
  Pr  Pr0  1  0.184912  0.750000  0.720152  1
  Pr  Pr1  1  0.684912  0.750000  0.779848  1
  Pr  Pr2  1  0.816584  0.250000  0.280186  1
  Pr  Pr3  1  0.316584  0.250000  0.219814  1
  Pr  Pr4  1  0.351837  0.750000  0.216376  1
  Pr  Pr5  1  0.851837  0.750000  0.283624  1
  Y  Y6  1  0.647316  0.250000  0.782844  1
  Y  Y7  1  0.147316  0.250000  0.717156  1
  Lu  Lu8  1  0.023525  0.750000  0.988348  1
  Lu  Lu9  1  0.523525  0.750000  0.511652  1
  Lu  Lu10  1  0.976712  0.250000  0.009561  1
  Lu  Lu11  1  0.476712  0.250000  0.490439  1
  Lu  Lu12  1  0.308205  0.432819  0.940294  1
  Lu  Lu13  1  0.808205  0.067181  0.559706  1
  Lu  Lu14  1  0.691784  0.932990  0.057795  1
  Lu  Lu15  1  0.191784  0.567010  0.442205  1
  Lu  Lu16  1  0.691784  0.567010  0.057795  1
  Lu  Lu17  1  0.191784  0.932990  0.442205  1
  Lu  Lu18  1  0.308205  0.067181  0.940294  1
  Lu  Lu19  1  0.808205  0.432819  0.559706  1
  Bi  Bi20  1  0.435515  0.008581  0.669857  1
  Bi  Bi21  1  0.935515  0.491419  0.830143  1
  Bi  Bi22  1  0.564199  0.503944  0.333348  1
  Bi  Bi23  1  0.064199  0.996056  0.166652  1
  Bi  Bi24  1  0.564199  0.996056  0.333348  1
  Bi  Bi25  1  0.064199  0.503944  0.166652  1
  Bi  Bi26  1  0.435515  0.491419  0.669857  1
  Bi  Bi27  1  0.935515  0.008581  0.830143  1
  Bi  Bi28  1  0.402819  0.750000  0.957166  1
  Bi  Bi29  1  0.902819  0.750000  0.542834  1
  Bi  Bi30  1  0.596887  0.250000  0.037889  1
  Bi  Bi31  1  0.096887  0.250000  0.462111  1
