# generated using pymatgen
data_Sr2Si3HgPd6
_symmetry_space_group_name_H-M   'P 1'
_cell_length_a   6.93950976
_cell_length_b   6.89854706
_cell_length_c   6.93951100
_cell_angle_alpha   130.11435386
_cell_angle_beta   114.28020834
_cell_angle_gamma   87.01821929
_symmetry_Int_Tables_number   1
_chemical_formula_structural   Sr2Si3HgPd6
_chemical_formula_sum   'Sr2 Si3 Hg1 Pd6'
_cell_volume   220.52236621
_cell_formula_units_Z   1
loop_
 _symmetry_equiv_pos_site_id
 _symmetry_equiv_pos_as_xyz
  1  'x, y, z'
loop_
 _atom_site_type_symbol
 _atom_site_label
 _atom_site_symmetry_multiplicity
 _atom_site_fract_x
 _atom_site_fract_y
 _atom_site_fract_z
 _atom_site_occupancy
  Sr  Sr0  1  0.007119  0.977764  0.970644  1
  Sr  Sr1  1  0.498413  0.050652  0.552239  1
  Si  Si2  1  0.814570  0.262519  0.447949  1
  Si  Si3  1  0.650827  0.705243  0.054415  1
  Si  Si4  1  0.193038  0.643988  0.450950  1
  Hg  Hg5  1  0.349454  0.408707  0.059253  1
  Pd  Pd6  1  0.938244  0.503597  0.951271  1
  Pd  Pd7  1  0.552324  0.503597  0.565352  1
  Pd  Pd8  1  0.010648  0.984051  0.505761  1
  Pd  Pd9  1  0.807161  0.480418  0.280508  1
  Pd  Pd10  1  0.199910  0.480418  0.673256  1
  Pd  Pd11  1  0.478289  0.984051  0.973402  1
