# generated using pymatgen
data_Sc4AlGaTc6
_symmetry_space_group_name_H-M   'P 1'
_cell_length_a   5.20732000
_cell_length_b   5.20732101
_cell_length_c   8.69947100
_cell_angle_alpha   90.00000000
_cell_angle_beta   90.00000000
_cell_angle_gamma   120.00000626
_symmetry_Int_Tables_number   1
_chemical_formula_structural   Sc4AlGaTc6
_chemical_formula_sum   'Sc4 Al1 Ga1 Tc6'
_cell_volume   204.29233256
_cell_formula_units_Z   1
loop_
 _symmetry_equiv_pos_site_id
 _symmetry_equiv_pos_as_xyz
  1  'x, y, z'
loop_
 _atom_site_type_symbol
 _atom_site_label
 _atom_site_symmetry_multiplicity
 _atom_site_fract_x
 _atom_site_fract_y
 _atom_site_fract_z
 _atom_site_occupancy
  Sc  Sc0  1  0.333333  0.666667  0.431563  1
  Sc  Sc1  1  0.666667  0.333333  0.568437  1
  Sc  Sc2  1  0.666667  0.333333  0.931958  1
  Sc  Sc3  1  0.333333  0.666667  0.068042  1
  Al  Al4  1  0.000000  0.000000  0.500000  1
  Ga  Ga5  1  0.000000  0.000000  0.000000  1
  Tc  Tc6  1  0.828883  0.171117  0.250075  1
  Tc  Tc7  1  0.828883  0.657767  0.250075  1
  Tc  Tc8  1  0.342233  0.171117  0.250075  1
  Tc  Tc9  1  0.171117  0.828883  0.749925  1
  Tc  Tc10  1  0.171117  0.342233  0.749925  1
  Tc  Tc11  1  0.657767  0.828883  0.749925  1
