# generated using pymatgen
data_Er2PdPt5
_symmetry_space_group_name_H-M   'P 1'
_cell_length_a   5.80712661
_cell_length_b   5.80712635
_cell_length_c   5.78188400
_cell_angle_alpha   60.14368673
_cell_angle_beta   60.14368819
_cell_angle_gamma   59.71261842
_symmetry_Int_Tables_number   1
_chemical_formula_structural   Er2PdPt5
_chemical_formula_sum   'Er2 Pd1 Pt5'
_cell_volume   137.86708172
_cell_formula_units_Z   1
loop_
 _symmetry_equiv_pos_site_id
 _symmetry_equiv_pos_as_xyz
  1  'x, y, z'
loop_
 _atom_site_type_symbol
 _atom_site_label
 _atom_site_symmetry_multiplicity
 _atom_site_fract_x
 _atom_site_fract_y
 _atom_site_fract_z
 _atom_site_occupancy
  Er  Er0  1  0.499999  0.499999  0.000000  1
  Er  Er1  1  0.000000  0.000000  0.499999  1
  Pd  Pd2  1  0.499999  0.499999  0.499999  1
  Pt  Pt3  1  0.000000  0.000000  0.000000  1
  Pt  Pt4  1  0.499999  0.000000  0.000000  1
  Pt  Pt5  1  0.000000  0.499999  0.000000  1
  Pt  Pt6  1  0.499999  0.000000  0.499999  1
  Pt  Pt7  1  0.000000  0.499999  0.499999  1
