# generated using pymatgen
data_Nd3Th(TcB2)6
_symmetry_space_group_name_H-M   'P 1'
_cell_length_a   6.31087743
_cell_length_b   6.30593920
_cell_length_c   7.63788912
_cell_angle_alpha   90.57002013
_cell_angle_beta   90.76568087
_cell_angle_gamma   114.69532230
_symmetry_Int_Tables_number   1
_chemical_formula_structural   Nd3Th(TcB2)6
_chemical_formula_sum   'Nd3 Th1 Tc6 B12'
_cell_volume   276.09323126
_cell_formula_units_Z   1
loop_
 _symmetry_equiv_pos_site_id
 _symmetry_equiv_pos_as_xyz
  1  'x, y, z'
loop_
 _atom_site_type_symbol
 _atom_site_label
 _atom_site_symmetry_multiplicity
 _atom_site_fract_x
 _atom_site_fract_y
 _atom_site_fract_z
 _atom_site_occupancy
  Nd  Nd0  1  0.560824  0.905682  0.173000  1
  Nd  Nd1  1  0.904996  0.561800  0.676989  1
  Nd  Nd2  1  0.438492  0.092966  0.824966  1
  Th  Th3  1  0.090560  0.436339  0.327088  1
  Tc  Tc4  1  0.585681  0.416161  0.250612  1
  Tc  Tc5  1  0.415245  0.584351  0.749164  1
  Tc  Tc6  1  0.989475  0.802902  0.088543  1
  Tc  Tc7  1  0.196848  0.010854  0.411168  1
  Tc  Tc8  1  0.011015  0.197425  0.912815  1
  Tc  Tc9  1  0.803934  0.990225  0.587540  1
  B  B10  1  0.242178  0.150598  0.130152  1
  B  B11  1  0.848165  0.757549  0.370184  1
  B  B12  1  0.758668  0.848846  0.868501  1
  B  B13  1  0.152092  0.241595  0.633166  1
  B  B14  1  0.582713  0.158017  0.480692  1
  B  B15  1  0.841737  0.417513  0.017145  1
  B  B16  1  0.419082  0.841884  0.517247  1
  B  B17  1  0.158520  0.583205  0.981602  1
  B  B18  1  0.441281  0.349892  0.533056  1
  B  B19  1  0.649938  0.559094  0.967423  1
  B  B20  1  0.558191  0.650729  0.466870  1
  B  B21  1  0.350364  0.442374  0.032076  1
