# generated using pymatgen
data_Lu3In3GaPt2
_symmetry_space_group_name_H-M   'P 1'
_cell_length_a   7.61588800
_cell_length_b   7.61588795
_cell_length_c   3.85013900
_cell_angle_alpha   90.00000000
_cell_angle_beta   90.00000000
_cell_angle_gamma   119.99999153
_symmetry_Int_Tables_number   1
_chemical_formula_structural   Lu3In3GaPt2
_chemical_formula_sum   'Lu3 In3 Ga1 Pt2'
_cell_volume   193.39630495
_cell_formula_units_Z   1
loop_
 _symmetry_equiv_pos_site_id
 _symmetry_equiv_pos_as_xyz
  1  'x, y, z'
loop_
 _atom_site_type_symbol
 _atom_site_label
 _atom_site_symmetry_multiplicity
 _atom_site_fract_x
 _atom_site_fract_y
 _atom_site_fract_z
 _atom_site_occupancy
  Lu  Lu0  1  0.016294  0.608515  0.500000  1
  Lu  Lu1  1  0.592221  0.983706  0.500000  1
  Lu  Lu2  1  0.391485  0.407779  0.500000  1
  In  In3  1  0.998617  0.261621  0.000000  1
  In  In4  1  0.263004  0.001383  0.000000  1
  In  In5  1  0.738379  0.736996  0.000000  1
  Ga  Ga6  1  0.666667  0.333333  0.000000  1
  Pt  Pt7  1  0.000000  0.000000  0.500000  1
  Pt  Pt8  1  0.333333  0.666667  0.000000  1
