# generated using pymatgen
data_DyTm5(LuSn2)4
_symmetry_space_group_name_H-M   'P 1'
_cell_length_a   7.94114400
_cell_length_b   8.05904205
_cell_length_c   15.21585909
_cell_angle_alpha   90.01227750
_cell_angle_beta   90.00000000
_cell_angle_gamma   90.00000000
_symmetry_Int_Tables_number   1
_chemical_formula_structural   DyTm5(LuSn2)4
_chemical_formula_sum   'Dy2 Tm10 Lu8 Sn16'
_cell_volume   973.78473128
_cell_formula_units_Z   2
loop_
 _symmetry_equiv_pos_site_id
 _symmetry_equiv_pos_as_xyz
  1  'x, y, z'
loop_
 _atom_site_type_symbol
 _atom_site_label
 _atom_site_symmetry_multiplicity
 _atom_site_fract_x
 _atom_site_fract_y
 _atom_site_fract_z
 _atom_site_occupancy
  Dy  Dy0  1  0.519604  0.321358  0.595180  1
  Dy  Dy1  1  0.019604  0.178642  0.904820  1
  Tm  Tm2  1  0.633373  0.161802  0.123479  1
  Tm  Tm3  1  0.133373  0.338198  0.376521  1
  Tm  Tm4  1  0.367720  0.837953  0.623176  1
  Tm  Tm5  1  0.867720  0.662047  0.876824  1
  Tm  Tm6  1  0.522188  0.321128  0.903684  1
  Tm  Tm7  1  0.022188  0.178872  0.596316  1
  Tm  Tm8  1  0.478371  0.679304  0.403687  1
  Tm  Tm9  1  0.978371  0.820696  0.096313  1
  Tm  Tm10  1  0.479110  0.678568  0.095937  1
  Tm  Tm11  1  0.979110  0.821432  0.404063  1
  Lu  Lu12  1  0.365323  0.838018  0.876793  1
  Lu  Lu13  1  0.865323  0.661982  0.623207  1
  Lu  Lu14  1  0.634228  0.161370  0.376029  1
  Lu  Lu15  1  0.134228  0.338630  0.123971  1
  Lu  Lu16  1  0.196855  0.504791  0.750350  1
  Lu  Lu17  1  0.696855  0.995209  0.749650  1
  Lu  Lu18  1  0.803324  0.495520  0.250287  1
  Lu  Lu19  1  0.303324  0.004480  0.249713  1
  Sn  Sn20  1  0.294204  0.037798  0.041892  1
  Sn  Sn21  1  0.794204  0.462202  0.458108  1
  Sn  Sn22  1  0.707726  0.961738  0.540843  1
  Sn  Sn23  1  0.207726  0.538262  0.959157  1
  Sn  Sn24  1  0.702976  0.959903  0.958653  1
  Sn  Sn25  1  0.202976  0.540097  0.541347  1
  Sn  Sn26  1  0.295263  0.038651  0.458260  1
  Sn  Sn27  1  0.795263  0.461349  0.041740  1
  Sn  Sn28  1  0.562627  0.618365  0.750269  1
  Sn  Sn29  1  0.062627  0.881635  0.749731  1
  Sn  Sn30  1  0.437752  0.381803  0.249983  1
  Sn  Sn31  1  0.937752  0.118197  0.250017  1
  Sn  Sn32  1  0.331301  0.150508  0.750496  1
  Sn  Sn33  1  0.831301  0.349492  0.749504  1
  Sn  Sn34  1  0.668054  0.848402  0.249903  1
  Sn  Sn35  1  0.168054  0.651598  0.250097  1
