# generated using pymatgen
data_Cs6Lu(AlSb2)3
_symmetry_space_group_name_H-M   'P 1'
_cell_length_a   6.76210929
_cell_length_b   8.75507258
_cell_length_c   12.10601551
_cell_angle_alpha   70.01745366
_cell_angle_beta   89.67608091
_cell_angle_gamma   89.54960225
_symmetry_Int_Tables_number   1
_chemical_formula_structural   Cs6Lu(AlSb2)3
_chemical_formula_sum   'Cs6 Lu1 Al3 Sb6'
_cell_volume   673.53710307
_cell_formula_units_Z   1
loop_
 _symmetry_equiv_pos_site_id
 _symmetry_equiv_pos_as_xyz
  1  'x, y, z'
loop_
 _atom_site_type_symbol
 _atom_site_label
 _atom_site_symmetry_multiplicity
 _atom_site_fract_x
 _atom_site_fract_y
 _atom_site_fract_z
 _atom_site_occupancy
  Cs  Cs0  1  0.252899  0.434776  0.426867  1
  Cs  Cs1  1  0.746761  0.134946  0.915763  1
  Cs  Cs2  1  0.751781  0.475895  0.146861  1
  Cs  Cs3  1  0.253603  0.533297  0.849088  1
  Cs  Cs4  1  0.749756  0.566318  0.576898  1
  Cs  Cs5  1  0.247806  0.861278  0.079987  1
  Lu  Lu6  1  0.999561  0.023484  0.348484  1
  Al  Al7  1  0.499069  0.973466  0.658749  1
  Al  Al8  1  0.501004  0.027139  0.345995  1
  Al  Al9  1  0.000471  0.974523  0.649656  1
  Sb  Sb10  1  0.265522  0.819619  0.534943  1
  Sb  Sb11  1  0.736464  0.178134  0.477993  1
  Sb  Sb12  1  0.270081  0.246462  0.180183  1
  Sb  Sb13  1  0.755109  0.766817  0.810154  1
  Sb  Sb14  1  0.242009  0.141907  0.744112  1
  Sb  Sb15  1  0.728105  0.841940  0.254267  1
