# generated using pymatgen
data_Dy10Cd2NiHg
_symmetry_space_group_name_H-M   'P 1'
_cell_length_a   9.63488207
_cell_length_b   9.62081294
_cell_length_c   9.68215900
_cell_angle_alpha   90.00000000
_cell_angle_beta   90.00000000
_cell_angle_gamma   119.95169632
_symmetry_Int_Tables_number   1
_chemical_formula_structural   Dy10Cd2NiHg
_chemical_formula_sum   'Dy20 Cd4 Ni2 Hg2'
_cell_volume   777.62855319
_cell_formula_units_Z   2
loop_
 _symmetry_equiv_pos_site_id
 _symmetry_equiv_pos_as_xyz
  1  'x, y, z'
loop_
 _atom_site_type_symbol
 _atom_site_label
 _atom_site_symmetry_multiplicity
 _atom_site_fract_x
 _atom_site_fract_y
 _atom_site_fract_z
 _atom_site_occupancy
  Dy  Dy0  1  0.996590  0.998295  0.493903  1
  Dy  Dy1  1  0.996590  0.998295  0.006097  1
  Dy  Dy2  1  0.547819  0.458580  0.250000  1
  Dy  Dy3  1  0.547819  0.089240  0.250000  1
  Dy  Dy4  1  0.911142  0.455571  0.250000  1
  Dy  Dy5  1  0.454708  0.544009  0.750000  1
  Dy  Dy6  1  0.454708  0.910699  0.750000  1
  Dy  Dy7  1  0.090773  0.545387  0.750000  1
  Dy  Dy8  1  0.211083  0.789700  0.436639  1
  Dy  Dy9  1  0.211083  0.421385  0.436639  1
  Dy  Dy10  1  0.577956  0.788978  0.436591  1
  Dy  Dy11  1  0.789465  0.211288  0.563818  1
  Dy  Dy12  1  0.789465  0.578176  0.563818  1
  Dy  Dy13  1  0.421723  0.210862  0.563321  1
  Dy  Dy14  1  0.789465  0.211288  0.936182  1
  Dy  Dy15  1  0.789465  0.578176  0.936182  1
  Dy  Dy16  1  0.421723  0.210862  0.936679  1
  Dy  Dy17  1  0.211083  0.789700  0.063361  1
  Dy  Dy18  1  0.211083  0.421385  0.063361  1
  Dy  Dy19  1  0.577956  0.788978  0.063409  1
  Cd  Cd20  1  0.236280  0.118141  0.250000  1
  Cd  Cd21  1  0.113504  0.885357  0.750000  1
  Cd  Cd22  1  0.113504  0.228147  0.750000  1
  Cd  Cd23  1  0.770280  0.885140  0.750000  1
  Ni  Ni24  1  0.333467  0.666735  0.250000  1
  Ni  Ni25  1  0.665985  0.332992  0.750000  1
  Hg  Hg26  1  0.882639  0.121911  0.250000  1
  Hg  Hg27  1  0.882639  0.760728  0.250000  1
