# generated using pymatgen
data_NdY2(NiPt2)3
_symmetry_space_group_name_H-M   'P 1'
_cell_length_a   8.85814919
_cell_length_b   8.85814977
_cell_length_c   8.85814856
_cell_angle_alpha   35.57083406
_cell_angle_beta   35.57082926
_cell_angle_gamma   35.57083595
_symmetry_Int_Tables_number   1
_chemical_formula_structural   NdY2(NiPt2)3
_chemical_formula_sum   'Nd1 Y2 Ni3 Pt6'
_cell_volume   210.21350796
_cell_formula_units_Z   1
loop_
 _symmetry_equiv_pos_site_id
 _symmetry_equiv_pos_as_xyz
  1  'x, y, z'
loop_
 _atom_site_type_symbol
 _atom_site_label
 _atom_site_symmetry_multiplicity
 _atom_site_fract_x
 _atom_site_fract_y
 _atom_site_fract_z
 _atom_site_occupancy
  Nd  Nd0  1  0.000000  0.000000  0.000000  1
  Y  Y1  1  0.859341  0.859341  0.859341  1
  Y  Y2  1  0.140659  0.140659  0.140659  1
  Ni  Ni3  1  0.666995  0.666995  0.666995  1
  Ni  Ni4  1  0.333005  0.333005  0.333005  1
  Ni  Ni5  1  0.500000  0.500000  0.500000  1
  Pt  Pt6  1  0.415268  0.917586  0.415268  1
  Pt  Pt7  1  0.415268  0.415268  0.917586  1
  Pt  Pt8  1  0.917586  0.415268  0.415268  1
  Pt  Pt9  1  0.584732  0.082414  0.584732  1
  Pt  Pt10  1  0.584732  0.584732  0.082414  1
  Pt  Pt11  1  0.082414  0.584732  0.584732  1
