# generated using pymatgen
data_Er4Lu4Sc12Si15Os
_symmetry_space_group_name_H-M   'P 1'
_cell_length_a   7.03073976
_cell_length_b   7.38121338
_cell_length_c   13.84600231
_cell_angle_alpha   90.00239832
_cell_angle_beta   89.97575391
_cell_angle_gamma   90.15320411
_symmetry_Int_Tables_number   1
_chemical_formula_structural   Er4Lu4Sc12Si15Os
_chemical_formula_sum   'Er4 Lu4 Sc12 Si15 Os1'
_cell_volume   718.54106084
_cell_formula_units_Z   1
loop_
 _symmetry_equiv_pos_site_id
 _symmetry_equiv_pos_as_xyz
  1  'x, y, z'
loop_
 _atom_site_type_symbol
 _atom_site_label
 _atom_site_symmetry_multiplicity
 _atom_site_fract_x
 _atom_site_fract_y
 _atom_site_fract_z
 _atom_site_occupancy
  Er  Er0  1  0.511803  0.322639  0.095725  1
  Er  Er1  1  0.011764  0.179540  0.404229  1
  Er  Er2  1  0.511695  0.322668  0.403910  1
  Er  Er3  1  0.488068  0.677242  0.595225  1
  Lu  Lu4  1  0.012116  0.180231  0.096343  1
  Lu  Lu5  1  0.990335  0.827778  0.904337  1
  Lu  Lu6  1  0.487761  0.678093  0.904280  1
  Lu  Lu7  1  0.990194  0.827787  0.595939  1
  Sc  Sc8  1  0.156329  0.500033  0.750167  1
  Sc  Sc9  1  0.838933  0.495340  0.249771  1
  Sc  Sc10  1  0.340054  0.006863  0.249825  1
  Sc  Sc11  1  0.668005  0.995148  0.750137  1
  Sc  Sc12  1  0.316399  0.171016  0.627458  1
  Sc  Sc13  1  0.673037  0.826202  0.373859  1
  Sc  Sc14  1  0.171753  0.678579  0.374104  1
  Sc  Sc15  1  0.672842  0.826075  0.125810  1
  Sc  Sc16  1  0.837241  0.318706  0.627743  1
  Sc  Sc17  1  0.316157  0.171222  0.872819  1
  Sc  Sc18  1  0.837566  0.318436  0.872570  1
  Sc  Sc19  1  0.171817  0.678630  0.125622  1
  Si  Si20  1  0.969951  0.887731  0.249758  1
  Si  Si21  1  0.470374  0.613613  0.249880  1
  Si  Si22  1  0.528442  0.390151  0.750322  1
  Si  Si23  1  0.285189  0.862587  0.750456  1
  Si  Si24  1  0.714888  0.132577  0.249551  1
  Si  Si25  1  0.214244  0.369446  0.249530  1
  Si  Si26  1  0.778434  0.628717  0.750468  1
  Si  Si27  1  0.159981  0.469674  0.537343  1
  Si  Si28  1  0.843508  0.536471  0.461839  1
  Si  Si29  1  0.343806  0.966502  0.459999  1
  Si  Si30  1  0.843642  0.535694  0.038309  1
  Si  Si31  1  0.656431  0.033517  0.538562  1
  Si  Si32  1  0.161059  0.469569  0.962719  1
  Si  Si33  1  0.656226  0.032704  0.961337  1
  Si  Si34  1  0.342805  0.966384  0.039991  1
  Os  Os35  1  0.027150  0.102435  0.750063  1
