# generated using pymatgen
data_La2Er4Zn4Pt13
_symmetry_space_group_name_H-M   'P 1'
_cell_length_a   8.31770142
_cell_length_b   8.31770298
_cell_length_c   8.31310296
_cell_angle_alpha   109.49936693
_cell_angle_beta   109.49937076
_cell_angle_gamma   109.43736588
_symmetry_Int_Tables_number   1
_chemical_formula_structural   La2Er4Zn4Pt13
_chemical_formula_sum   'La2 Er4 Zn4 Pt13'
_cell_volume   442.61643440
_cell_formula_units_Z   1
loop_
 _symmetry_equiv_pos_site_id
 _symmetry_equiv_pos_as_xyz
  1  'x, y, z'
loop_
 _atom_site_type_symbol
 _atom_site_label
 _atom_site_symmetry_multiplicity
 _atom_site_fract_x
 _atom_site_fract_y
 _atom_site_fract_z
 _atom_site_occupancy
  La  La0  1  0.704332  0.000164  0.704496  1
  La  La1  1  0.000164  0.704332  0.704496  1
  Er  Er2  1  0.697446  0.697446  0.001758  1
  Er  Er3  1  0.307018  0.000014  0.307032  1
  Er  Er4  1  0.000014  0.307018  0.307032  1
  Er  Er5  1  0.304312  0.304312  0.001758  1
  Zn  Zn6  1  0.999699  0.999699  0.489853  1
  Zn  Zn7  1  0.999289  0.499289  0.998577  1
  Zn  Zn8  1  0.499289  0.999289  0.998577  1
  Zn  Zn9  1  0.490154  0.490154  0.489853  1
  Pt  Pt10  1  0.332347  0.332347  0.664695  1
  Pt  Pt11  1  0.671710  0.000574  0.325939  1
  Pt  Pt12  1  0.000574  0.671710  0.325939  1
  Pt  Pt13  1  0.665836  0.336114  0.001950  1
  Pt  Pt14  1  0.325365  0.654231  0.325939  1
  Pt  Pt15  1  0.001613  0.329997  0.668737  1
  Pt  Pt16  1  0.336114  0.665836  0.001950  1
  Pt  Pt17  1  0.329997  0.001613  0.668737  1
  Pt  Pt18  1  0.654231  0.325365  0.325939  1
  Pt  Pt19  1  0.662441  0.662441  0.324882  1
  Pt  Pt20  1  0.667123  0.338738  0.668737  1
  Pt  Pt21  1  0.338738  0.667123  0.668737  1
  Pt  Pt22  1  0.012193  0.012193  0.024386  1
