# generated using pymatgen
data_MnCr(IO3)6
_symmetry_space_group_name_H-M   'P 1'
_cell_length_a   5.43641289
_cell_length_b   9.40980053
_cell_length_c   9.25341620
_cell_angle_alpha   120.33956716
_cell_angle_beta   89.13455849
_cell_angle_gamma   92.00438444
_symmetry_Int_Tables_number   1
_chemical_formula_structural   MnCr(IO3)6
_chemical_formula_sum   'Mn1 Cr1 I6 O18'
_cell_volume   408.28332079
_cell_formula_units_Z   1
loop_
 _symmetry_equiv_pos_site_id
 _symmetry_equiv_pos_as_xyz
  1  'x, y, z'
loop_
 _atom_site_type_symbol
 _atom_site_label
 _atom_site_symmetry_multiplicity
 _atom_site_fract_x
 _atom_site_fract_y
 _atom_site_fract_z
 _atom_site_occupancy
  Mn  Mn0  1  0.128159  0.666605  0.331024  1
  Cr  Cr1  1  0.630473  0.331378  0.666687  1
  I  I2  1  0.495242  0.685467  0.021152  1
  I  I3  1  0.490012  0.343000  0.322138  1
  I  I4  1  0.979847  0.026065  0.334773  1
  I  I5  1  0.492711  0.976649  0.659523  1
  I  I6  1  0.999920  0.660352  0.684088  1
  I  I7  1  0.994921  0.319188  0.975914  1
  O  O8  1  0.260842  0.826323  0.047462  1
  O  O9  1  0.335776  0.580199  0.128479  1
  O  O10  1  0.250304  0.228539  0.170054  1
  O  O11  1  0.901693  0.477085  0.192848  1
  O  O12  1  0.751278  0.062051  0.219134  1
  O  O13  1  0.880289  0.816767  0.282001  1
  O  O14  1  0.347739  0.548363  0.436324  1
  O  O15  1  0.332204  0.872738  0.449248  1
  O  O16  1  0.401296  0.277352  0.475715  1
  O  O17  1  0.908659  0.712009  0.522299  1
  O  O18  1  0.834719  0.129198  0.549719  1
  O  O19  1  0.843425  0.450653  0.577086  1
  O  O20  1  0.400750  0.186888  0.716404  1
  O  O21  1  0.261122  0.941087  0.779778  1
  O  O22  1  0.403380  0.518063  0.808386  1
  O  O23  1  0.762699  0.774496  0.832831  1
  O  O24  1  0.841482  0.423990  0.876121  1
  O  O25  1  0.759690  0.165495  0.940815  1
