# generated using pymatgen
data_Dy2Ho2GaTc7
_symmetry_space_group_name_H-M   'P 1'
_cell_length_a   5.31676300
_cell_length_b   5.31676340
_cell_length_c   9.03792800
_cell_angle_alpha   90.00000000
_cell_angle_beta   90.00000000
_cell_angle_gamma   120.00000372
_symmetry_Int_Tables_number   1
_chemical_formula_structural   Dy2Ho2GaTc7
_chemical_formula_sum   'Dy2 Ho2 Ga1 Tc7'
_cell_volume   221.25552728
_cell_formula_units_Z   1
loop_
 _symmetry_equiv_pos_site_id
 _symmetry_equiv_pos_as_xyz
  1  'x, y, z'
loop_
 _atom_site_type_symbol
 _atom_site_label
 _atom_site_symmetry_multiplicity
 _atom_site_fract_x
 _atom_site_fract_y
 _atom_site_fract_z
 _atom_site_occupancy
  Dy  Dy0  1  0.333333  0.666667  0.434176  1
  Dy  Dy1  1  0.666667  0.333333  0.565824  1
  Ho  Ho2  1  0.666667  0.333333  0.934043  1
  Ho  Ho3  1  0.333333  0.666667  0.065957  1
  Ga  Ga4  1  0.000000  0.000000  0.500000  1
  Tc  Tc5  1  0.000000  0.000000  0.000000  1
  Tc  Tc6  1  0.830060  0.169940  0.249669  1
  Tc  Tc7  1  0.830060  0.660119  0.249669  1
  Tc  Tc8  1  0.339881  0.169940  0.249669  1
  Tc  Tc9  1  0.169940  0.830060  0.750331  1
  Tc  Tc10  1  0.169940  0.339881  0.750331  1
  Tc  Tc11  1  0.660119  0.830060  0.750331  1
