# generated using pymatgen
data_Ho5ScAl6(SiAu)3
_symmetry_space_group_name_H-M   'P 1'
_cell_length_a   6.92517459
_cell_length_b   6.91635525
_cell_length_c   8.50676726
_cell_angle_alpha   89.97826784
_cell_angle_beta   90.02676139
_cell_angle_gamma   119.75056107
_symmetry_Int_Tables_number   1
_chemical_formula_structural   Ho5ScAl6(SiAu)3
_chemical_formula_sum   'Ho5 Sc1 Al6 Si3 Au3'
_cell_volume   353.74415624
_cell_formula_units_Z   1
loop_
 _symmetry_equiv_pos_site_id
 _symmetry_equiv_pos_as_xyz
  1  'x, y, z'
loop_
 _atom_site_type_symbol
 _atom_site_label
 _atom_site_symmetry_multiplicity
 _atom_site_fract_x
 _atom_site_fract_y
 _atom_site_fract_z
 _atom_site_occupancy
  Ho  Ho0  1  0.579502  0.999683  0.743935  1
  Ho  Ho1  1  0.998880  0.579048  0.743757  1
  Ho  Ho2  1  0.419767  0.419539  0.744515  1
  Ho  Ho3  1  0.997848  0.579400  0.255351  1
  Ho  Ho4  1  0.580029  0.999330  0.255397  1
  Sc  Sc5  1  0.418642  0.418737  0.258372  1
  Al  Al6  1  0.746508  0.752402  0.004472  1
  Al  Al7  1  0.246854  0.994208  0.001250  1
  Al  Al8  1  0.007623  0.252948  0.001489  1
  Al  Al9  1  0.757325  0.757165  0.495848  1
  Al  Al10  1  0.242643  0.000725  0.498216  1
  Al  Al11  1  0.999530  0.241757  0.498313  1
  Si  Si12  1  0.664003  0.334126  0.003003  1
  Si  Si13  1  0.662700  0.334320  0.496592  1
  Si  Si14  1  0.334159  0.663002  0.496703  1
  Au  Au15  1  0.000360  0.000377  0.753795  1
  Au  Au16  1  0.009479  0.009581  0.246039  1
  Au  Au17  1  0.334149  0.663651  0.002952  1
