# generated using pymatgen
data_Nd4Cu(NiBi4)2
_symmetry_space_group_name_H-M   'P 1'
_cell_length_a   10.82111367
_cell_length_b   10.82111350
_cell_length_c   10.82111325
_cell_angle_alpha   145.42867113
_cell_angle_beta   145.42867185
_cell_angle_gamma   49.69616588
_symmetry_Int_Tables_number   1
_chemical_formula_structural   Nd4Cu(NiBi4)2
_chemical_formula_sum   'Nd4 Cu1 Ni2 Bi8'
_cell_volume   406.06647827
_cell_formula_units_Z   1
loop_
 _symmetry_equiv_pos_site_id
 _symmetry_equiv_pos_as_xyz
  1  'x, y, z'
loop_
 _atom_site_type_symbol
 _atom_site_label
 _atom_site_symmetry_multiplicity
 _atom_site_fract_x
 _atom_site_fract_y
 _atom_site_fract_z
 _atom_site_occupancy
  Nd  Nd0  1  0.642084  0.642084  0.509166  1
  Nd  Nd1  1  0.132917  0.132917  0.490834  1
  Nd  Nd2  1  0.357916  0.867083  0.000000  1
  Nd  Nd3  1  0.867083  0.357916  0.000000  1
  Cu  Cu4  1  0.000000  0.000000  0.000000  1
  Ni  Ni5  1  0.000000  0.500000  0.500000  1
  Ni  Ni6  1  0.500000  0.000000  0.500000  1
  Bi  Bi7  1  0.328434  0.328434  0.519477  1
  Bi  Bi8  1  0.808956  0.808956  0.480523  1
  Bi  Bi9  1  0.671566  0.191044  0.000000  1
  Bi  Bi10  1  0.191044  0.671566  0.000000  1
  Bi  Bi11  1  0.249921  0.249921  0.000000  1
  Bi  Bi12  1  0.750079  0.750079  0.000000  1
  Bi  Bi13  1  0.750000  0.250000  0.500000  1
  Bi  Bi14  1  0.250000  0.750000  0.500000  1
