# generated using pymatgen
data_La2Ho2Zn2P5
_symmetry_space_group_name_H-M   'P 1'
_cell_length_a   4.09147500
_cell_length_b   4.09147500
_cell_length_c   16.76239500
_cell_angle_alpha   90.00000000
_cell_angle_beta   90.00000000
_cell_angle_gamma   120.00000809
_symmetry_Int_Tables_number   1
_chemical_formula_structural   La2Ho2Zn2P5
_chemical_formula_sum   'La2 Ho2 Zn2 P5'
_cell_volume   243.01130097
_cell_formula_units_Z   1
loop_
 _symmetry_equiv_pos_site_id
 _symmetry_equiv_pos_as_xyz
  1  'x, y, z'
loop_
 _atom_site_type_symbol
 _atom_site_label
 _atom_site_symmetry_multiplicity
 _atom_site_fract_x
 _atom_site_fract_y
 _atom_site_fract_z
 _atom_site_occupancy
  La  La0  1  0.000000  0.000000  0.709152  1
  La  La1  1  0.000000  0.000000  0.290848  1
  Ho  Ho2  1  0.666667  0.333333  0.906456  1
  Ho  Ho3  1  0.333333  0.666667  0.093544  1
  Zn  Zn4  1  0.666667  0.333333  0.444144  1
  Zn  Zn5  1  0.333333  0.666667  0.555856  1
  P  P6  1  0.666667  0.333333  0.593551  1
  P  P7  1  0.333333  0.666667  0.406449  1
  P  P8  1  0.666667  0.333333  0.189162  1
  P  P9  1  0.333333  0.666667  0.810838  1
  P  P10  1  0.000000  0.000000  0.000000  1
