# generated using pymatgen
data_PrMg4(Sn3Rh)6
_symmetry_space_group_name_H-M   'P 1'
_cell_length_a   9.80004168
_cell_length_b   9.80010924
_cell_length_c   9.80010600
_cell_angle_alpha   59.99991358
_cell_angle_beta   60.00030926
_cell_angle_gamma   59.99992456
_symmetry_Int_Tables_number   1
_chemical_formula_structural   PrMg4(Sn3Rh)6
_chemical_formula_sum   'Pr1 Mg4 Sn18 Rh6'
_cell_volume   665.54143472
_cell_formula_units_Z   1
loop_
 _symmetry_equiv_pos_site_id
 _symmetry_equiv_pos_as_xyz
  1  'x, y, z'
loop_
 _atom_site_type_symbol
 _atom_site_label
 _atom_site_symmetry_multiplicity
 _atom_site_fract_x
 _atom_site_fract_y
 _atom_site_fract_z
 _atom_site_occupancy
  Pr  Pr0  1  0.499999  0.500000  0.499996  1
  Mg  Mg1  1  0.871904  0.871904  0.384286  1
  Mg  Mg2  1  0.871902  0.384291  0.871900  1
  Mg  Mg3  1  0.384293  0.871901  0.871901  1
  Mg  Mg4  1  0.871906  0.871910  0.871905  1
  Sn  Sn5  1  0.084113  0.084108  0.747673  1
  Sn  Sn6  1  0.084106  0.747673  0.084111  1
  Sn  Sn7  1  0.747673  0.084106  0.084115  1
  Sn  Sn8  1  0.084107  0.084111  0.084109  1
  Sn  Sn9  1  0.249994  0.250005  0.249997  1
  Sn  Sn10  1  0.493087  0.860730  0.153091  1
  Sn  Sn11  1  0.493087  0.493090  0.153090  1
  Sn  Sn12  1  0.860730  0.493088  0.153091  1
  Sn  Sn13  1  0.493094  0.153090  0.860729  1
  Sn  Sn14  1  0.860729  0.153091  0.493093  1
  Sn  Sn15  1  0.493090  0.153090  0.493089  1
  Sn  Sn16  1  0.153090  0.493091  0.493087  1
  Sn  Sn17  1  0.153090  0.860731  0.493087  1
  Sn  Sn18  1  0.153094  0.493088  0.860728  1
  Sn  Sn19  1  0.860729  0.493085  0.493092  1
  Sn  Sn20  1  0.493092  0.493085  0.860730  1
  Sn  Sn21  1  0.493088  0.860728  0.493088  1
  Sn  Sn22  1  0.750000  0.750000  0.750000  1
  Rh  Rh23  1  0.755539  0.755536  0.244464  1
  Rh  Rh24  1  0.244464  0.755535  0.244465  1
  Rh  Rh25  1  0.755536  0.244463  0.244466  1
  Rh  Rh26  1  0.244463  0.244463  0.755538  1
  Rh  Rh27  1  0.755535  0.244465  0.755535  1
  Rh  Rh28  1  0.244461  0.755536  0.755540  1
