# generated using pymatgen
data_Sc3In4CoPt
_symmetry_space_group_name_H-M   'P 1'
_cell_length_a   7.76366900
_cell_length_b   7.76366875
_cell_length_c   3.48814400
_cell_angle_alpha   90.00000000
_cell_angle_beta   90.00000000
_cell_angle_gamma   120.00000534
_symmetry_Int_Tables_number   1
_chemical_formula_structural   Sc3In4CoPt
_chemical_formula_sum   'Sc3 In4 Co1 Pt1'
_cell_volume   182.07864889
_cell_formula_units_Z   1
loop_
 _symmetry_equiv_pos_site_id
 _symmetry_equiv_pos_as_xyz
  1  'x, y, z'
loop_
 _atom_site_type_symbol
 _atom_site_label
 _atom_site_symmetry_multiplicity
 _atom_site_fract_x
 _atom_site_fract_y
 _atom_site_fract_z
 _atom_site_occupancy
  Sc  Sc0  1  0.037623  0.298658  0.500000  1
  Sc  Sc1  1  0.701342  0.738964  0.500000  1
  Sc  Sc2  1  0.261036  0.962377  0.500000  1
  In  In3  1  0.662119  0.074344  0.000000  1
  In  In4  1  0.925656  0.587777  0.000000  1
  In  In5  1  0.412223  0.337881  0.000000  1
  In  In6  1  0.333333  0.666667  0.000000  1
  Co  Co7  1  0.666667  0.333333  0.500000  1
  Pt  Pt8  1  0.000000  0.000000  0.000000  1
