# generated using pymatgen
data_IrSe8
_symmetry_space_group_name_H-M   'P 1'
_cell_length_a   3.74030588
_cell_length_b   9.31650420
_cell_length_c   6.99080794
_cell_angle_alpha   73.45707796
_cell_angle_beta   106.65565563
_cell_angle_gamma   94.78555690
_symmetry_Int_Tables_number   1
_chemical_formula_structural   IrSe8
_chemical_formula_sum   'Ir1 Se8'
_cell_volume   223.72412564
_cell_formula_units_Z   1
loop_
 _symmetry_equiv_pos_site_id
 _symmetry_equiv_pos_as_xyz
  1  'x, y, z'
loop_
 _atom_site_type_symbol
 _atom_site_label
 _atom_site_symmetry_multiplicity
 _atom_site_fract_x
 _atom_site_fract_y
 _atom_site_fract_z
 _atom_site_occupancy
  Ir  Ir0  1  0.499999  0.500000  0.500000  1
  Se  Se1  1  0.438558  0.769045  0.293707  1
  Se  Se2  1  0.561441  0.230957  0.706293  1
  Se  Se3  1  0.282891  0.196919  0.996237  1
  Se  Se4  1  0.848274  0.183235  0.301862  1
  Se  Se5  1  0.871934  0.448728  0.277488  1
  Se  Se6  1  0.128065  0.551274  0.722511  1
  Se  Se7  1  0.151725  0.816765  0.698138  1
  Se  Se8  1  0.717108  0.803081  0.003763  1
