# generated using pymatgen
data_K4RbTlO4
_symmetry_space_group_name_H-M   'P 1'
_cell_length_a   6.79100500
_cell_length_b   11.94251400
_cell_length_c   21.18870800
_cell_angle_alpha   90.00000000
_cell_angle_beta   90.00000000
_cell_angle_gamma   90.00000000
_symmetry_Int_Tables_number   1
_chemical_formula_structural   K4RbTlO4
_chemical_formula_sum   'K32 Rb8 Tl8 O32'
_cell_volume   1718.43965239
_cell_formula_units_Z   8
loop_
 _symmetry_equiv_pos_site_id
 _symmetry_equiv_pos_as_xyz
  1  'x, y, z'
loop_
 _atom_site_type_symbol
 _atom_site_label
 _atom_site_symmetry_multiplicity
 _atom_site_fract_x
 _atom_site_fract_y
 _atom_site_fract_z
 _atom_site_occupancy
  K  K0  1  0.413073  0.581107  0.251773  1
  K  K1  1  0.908280  0.171784  0.173131  1
  K  K2  1  0.091720  0.828216  0.826869  1
  K  K3  1  0.909033  0.062268  0.565412  1
  K  K4  1  0.407295  0.199408  0.857884  1
  K  K5  1  0.909033  0.562268  0.934588  1
  K  K6  1  0.409033  0.437732  0.565412  1
  K  K7  1  0.092705  0.699408  0.142116  1
  K  K8  1  0.586927  0.418893  0.748227  1
  K  K9  1  0.908280  0.671784  0.326869  1
  K  K10  1  0.591720  0.671784  0.826869  1
  K  K11  1  0.408280  0.328216  0.173131  1
  K  K12  1  0.413073  0.081107  0.248227  1
  K  K13  1  0.090967  0.937732  0.434588  1
  K  K14  1  0.592705  0.300592  0.357884  1
  K  K15  1  0.091720  0.328216  0.673131  1
  K  K16  1  0.407295  0.699408  0.642116  1
  K  K17  1  0.090967  0.437732  0.065412  1
  K  K18  1  0.086927  0.081107  0.748227  1
  K  K19  1  0.590967  0.062268  0.065412  1
  K  K20  1  0.907295  0.800592  0.642116  1
  K  K21  1  0.092705  0.199408  0.357884  1
  K  K22  1  0.408280  0.828216  0.326869  1
  K  K23  1  0.586927  0.918893  0.751773  1
  K  K24  1  0.592705  0.800592  0.142116  1
  K  K25  1  0.086927  0.581107  0.751773  1
  K  K26  1  0.913073  0.418893  0.248227  1
  K  K27  1  0.913073  0.918893  0.251773  1
  K  K28  1  0.907295  0.300592  0.857884  1
  K  K29  1  0.590967  0.562268  0.434588  1
  K  K30  1  0.591720  0.171784  0.673131  1
  K  K31  1  0.409033  0.937732  0.934588  1
  Rb  Rb32  1  0.415336  0.658982  0.001047  1
  Rb  Rb33  1  0.584664  0.341018  0.998953  1
  Rb  Rb34  1  0.084664  0.658982  0.501047  1
  Rb  Rb35  1  0.915336  0.841018  0.001047  1
  Rb  Rb36  1  0.915336  0.341018  0.498953  1
  Rb  Rb37  1  0.584664  0.841018  0.501047  1
  Rb  Rb38  1  0.084664  0.158982  0.998953  1
  Rb  Rb39  1  0.415336  0.158982  0.498953  1
  Tl  Tl40  1  0.809364  0.037829  0.874875  1
  Tl  Tl41  1  0.690636  0.037829  0.374875  1
  Tl  Tl42  1  0.190636  0.462171  0.374875  1
  Tl  Tl43  1  0.809364  0.537829  0.625125  1
  Tl  Tl44  1  0.309364  0.962171  0.625125  1
  Tl  Tl45  1  0.309364  0.462171  0.874875  1
  Tl  Tl46  1  0.690636  0.537829  0.125125  1
  Tl  Tl47  1  0.190636  0.962171  0.125125  1
  O  O48  1  0.328303  0.870002  0.047426  1
  O  O49  1  0.215097  0.874158  0.712850  1
  O  O50  1  0.721244  0.359653  0.628055  1
  O  O51  1  0.369418  0.044893  0.377360  1
  O  O52  1  0.278756  0.640347  0.371945  1
  O  O53  1  0.284903  0.874158  0.212850  1
  O  O54  1  0.784903  0.125842  0.287150  1
  O  O55  1  0.715097  0.125842  0.787150  1
  O  O56  1  0.171697  0.870002  0.547426  1
  O  O57  1  0.171697  0.370002  0.952574  1
  O  O58  1  0.671697  0.129998  0.952574  1
  O  O59  1  0.369418  0.544893  0.122640  1
  O  O60  1  0.215097  0.374158  0.787150  1
  O  O61  1  0.328303  0.370002  0.452574  1
  O  O62  1  0.278756  0.140347  0.128055  1
  O  O63  1  0.869418  0.955107  0.122640  1
  O  O64  1  0.721244  0.859653  0.871945  1
  O  O65  1  0.221244  0.640347  0.871945  1
  O  O66  1  0.828303  0.129998  0.452574  1
  O  O67  1  0.869418  0.455107  0.377360  1
  O  O68  1  0.630582  0.455107  0.877360  1
  O  O69  1  0.671697  0.629998  0.547426  1
  O  O70  1  0.130582  0.544893  0.622640  1
  O  O71  1  0.778756  0.859653  0.371945  1
  O  O72  1  0.630582  0.955107  0.622640  1
  O  O73  1  0.284903  0.374158  0.287150  1
  O  O74  1  0.778756  0.359653  0.128055  1
  O  O75  1  0.784903  0.625842  0.212850  1
  O  O76  1  0.130582  0.044893  0.877360  1
  O  O77  1  0.828303  0.629998  0.047426  1
  O  O78  1  0.715097  0.625842  0.712850  1
  O  O79  1  0.221244  0.140347  0.628055  1
