# generated using pymatgen
data_Na2Co9P7W3
_symmetry_space_group_name_H-M   'P 1'
_cell_length_a   9.06755400
_cell_length_b   9.06755354
_cell_length_c   3.68780400
_cell_angle_alpha   90.00000000
_cell_angle_beta   90.00000000
_cell_angle_gamma   120.00000899
_symmetry_Int_Tables_number   1
_chemical_formula_structural   Na2Co9P7W3
_chemical_formula_sum   'Na2 Co9 P7 W3'
_cell_volume   262.59031390
_cell_formula_units_Z   1
loop_
 _symmetry_equiv_pos_site_id
 _symmetry_equiv_pos_as_xyz
  1  'x, y, z'
loop_
 _atom_site_type_symbol
 _atom_site_label
 _atom_site_symmetry_multiplicity
 _atom_site_fract_x
 _atom_site_fract_y
 _atom_site_fract_z
 _atom_site_occupancy
  Na  Na0  1  0.333333  0.666667  0.000000  1
  Na  Na1  1  0.666667  0.333333  0.500000  1
  Co  Co2  1  0.722396  0.882502  0.000000  1
  Co  Co3  1  0.160106  0.277604  0.000000  1
  Co  Co4  1  0.117498  0.839894  0.000000  1
  Co  Co5  1  0.626889  0.569666  0.000000  1
  Co  Co6  1  0.942777  0.373111  0.000000  1
  Co  Co7  1  0.430334  0.057223  0.000000  1
  Co  Co8  1  0.564536  0.952763  0.500000  1
  Co  Co9  1  0.388227  0.435464  0.500000  1
  Co  Co10  1  0.047237  0.611773  0.500000  1
  P  P11  1  0.585494  0.709829  0.500000  1
  P  P12  1  0.124335  0.414506  0.500000  1
  P  P13  1  0.290171  0.875665  0.500000  1
  P  P14  1  0.000000  0.000000  0.000000  1
  P  P15  1  0.883173  0.582349  0.000000  1
  P  P16  1  0.699177  0.116827  0.000000  1
  P  P17  1  0.417651  0.300823  0.000000  1
  W  W18  1  0.876454  0.779858  0.500000  1
  W  W19  1  0.903404  0.123546  0.500000  1
  W  W20  1  0.220142  0.096596  0.500000  1
