# generated using pymatgen
data_Tm12CdFe3Pd
_symmetry_space_group_name_H-M   'P 1'
_cell_length_a   8.18053556
_cell_length_b   8.18053250
_cell_length_c   8.18053500
_cell_angle_alpha   107.48004380
_cell_angle_beta   109.64089236
_cell_angle_gamma   111.31547302
_symmetry_Int_Tables_number   1
_chemical_formula_structural   Tm12CdFe3Pd
_chemical_formula_sum   'Tm12 Cd1 Fe3 Pd1'
_cell_volume   420.95424049
_cell_formula_units_Z   1
loop_
 _symmetry_equiv_pos_site_id
 _symmetry_equiv_pos_as_xyz
  1  'x, y, z'
loop_
 _atom_site_type_symbol
 _atom_site_label
 _atom_site_symmetry_multiplicity
 _atom_site_fract_x
 _atom_site_fract_y
 _atom_site_fract_z
 _atom_site_occupancy
  Tm  Tm0  1  0.187834  0.413243  0.225409  1
  Tm  Tm1  1  0.812166  0.586757  0.774591  1
  Tm  Tm2  1  0.187835  0.962426  0.774591  1
  Tm  Tm3  1  0.928589  0.188701  0.739888  1
  Tm  Tm4  1  0.812165  0.037574  0.225409  1
  Tm  Tm5  1  0.071411  0.811299  0.260112  1
  Tm  Tm6  1  0.448813  0.188701  0.260114  1
  Tm  Tm7  1  0.551187  0.811299  0.739886  1
  Tm  Tm8  1  0.310411  0.310257  0.620669  1
  Tm  Tm9  1  0.689589  0.689743  0.379331  1
  Tm  Tm10  1  0.689588  0.310257  0.999845  1
  Tm  Tm11  1  0.310412  0.689743  0.000155  1
  Cd  Cd12  1  0.000000  0.500000  0.500000  1
  Fe  Fe13  1  0.380989  0.380988  0.999999  1
  Fe  Fe14  1  0.619011  0.619012  0.000001  1
  Fe  Fe15  1  0.000000  0.000000  0.000000  1
  Pd  Pd16  1  0.500000  0.000000  0.500000  1
