# generated using pymatgen
data_Ba4YbEu3Pb4
_symmetry_space_group_name_H-M   'P 1'
_cell_length_a   5.43178500
_cell_length_b   9.01385141
_cell_length_c   10.04605965
_cell_angle_alpha   89.73858289
_cell_angle_beta   90.00000000
_cell_angle_gamma   90.00000000
_symmetry_Int_Tables_number   1
_chemical_formula_structural   Ba4YbEu3Pb4
_chemical_formula_sum   'Ba4 Yb1 Eu3 Pb4'
_cell_volume   491.86304985
_cell_formula_units_Z   1
loop_
 _symmetry_equiv_pos_site_id
 _symmetry_equiv_pos_as_xyz
  1  'x, y, z'
loop_
 _atom_site_type_symbol
 _atom_site_label
 _atom_site_symmetry_multiplicity
 _atom_site_fract_x
 _atom_site_fract_y
 _atom_site_fract_z
 _atom_site_occupancy
  Ba  Ba0  1  0.250000  0.523065  0.319335  1
  Ba  Ba1  1  0.250000  0.020506  0.182536  1
  Ba  Ba2  1  0.750000  0.478743  0.679474  1
  Ba  Ba3  1  0.750000  0.979478  0.817524  1
  Yb  Yb4  1  0.750000  0.855540  0.428600  1
  Eu  Eu5  1  0.250000  0.645711  0.926873  1
  Eu  Eu6  1  0.250000  0.144561  0.572522  1
  Eu  Eu7  1  0.750000  0.354151  0.073513  1
  Pb  Pb8  1  0.250000  0.269912  0.890281  1
  Pb  Pb9  1  0.250000  0.771192  0.605430  1
  Pb  Pb10  1  0.750000  0.730841  0.112840  1
  Pb  Pb11  1  0.750000  0.226299  0.391073  1
