# generated using pymatgen
data_Ce2C2S
_symmetry_space_group_name_H-M   'P 1'
_cell_length_a   4.07601928
_cell_length_b   6.72136820
_cell_length_c   7.16026702
_cell_angle_alpha   102.33195005
_cell_angle_beta   106.50360175
_cell_angle_gamma   89.98412929
_symmetry_Int_Tables_number   1
_chemical_formula_structural   Ce2C2S
_chemical_formula_sum   'Ce4 C4 S2'
_cell_volume   183.36199567
_cell_formula_units_Z   2
loop_
 _symmetry_equiv_pos_site_id
 _symmetry_equiv_pos_as_xyz
  1  'x, y, z'
loop_
 _atom_site_type_symbol
 _atom_site_label
 _atom_site_symmetry_multiplicity
 _atom_site_fract_x
 _atom_site_fract_y
 _atom_site_fract_z
 _atom_site_occupancy
  Ce  Ce0  1  0.847057  0.148055  0.273478  1
  Ce  Ce1  1  0.426536  0.648126  0.273590  1
  Ce  Ce2  1  0.152943  0.851945  0.726522  1
  Ce  Ce3  1  0.573464  0.351874  0.726412  1
  C  C4  1  0.085317  0.529943  0.441805  1
  C  C5  1  0.356482  0.029918  0.441589  1
  C  C6  1  0.643518  0.970082  0.558411  1
  C  C7  1  0.914683  0.470057  0.558196  1
  S  S8  1  0.786197  0.749939  0.999957  1
  S  S9  1  0.213806  0.250063  0.000044  1
