# generated using pymatgen
data_Zr6Al8IrOs3
_symmetry_space_group_name_H-M   'P 1'
_cell_length_a   9.17448544
_cell_length_b   9.15237347
_cell_length_c   8.47611200
_cell_angle_alpha   90.00000000
_cell_angle_beta   90.00000000
_cell_angle_gamma   120.23520878
_symmetry_Int_Tables_number   1
_chemical_formula_structural   Zr6Al8IrOs3
_chemical_formula_sum   'Zr12 Al16 Ir2 Os6'
_cell_volume   614.90574502
_cell_formula_units_Z   2
loop_
 _symmetry_equiv_pos_site_id
 _symmetry_equiv_pos_as_xyz
  1  'x, y, z'
loop_
 _atom_site_type_symbol
 _atom_site_label
 _atom_site_symmetry_multiplicity
 _atom_site_fract_x
 _atom_site_fract_y
 _atom_site_fract_z
 _atom_site_occupancy
  Zr  Zr0  1  0.337881  0.012381  0.061472  1
  Zr  Zr1  1  0.662119  0.987619  0.938528  1
  Zr  Zr2  1  0.001799  0.334754  0.058131  1
  Zr  Zr3  1  0.662119  0.987619  0.561472  1
  Zr  Zr4  1  0.001799  0.334754  0.441869  1
  Zr  Zr5  1  0.998201  0.665246  0.941869  1
  Zr  Zr6  1  0.337881  0.012381  0.438528  1
  Zr  Zr7  1  0.998201  0.665246  0.558131  1
  Zr  Zr8  1  0.664876  0.669491  0.062352  1
  Zr  Zr9  1  0.335124  0.330509  0.937648  1
  Zr  Zr10  1  0.335124  0.330509  0.562352  1
  Zr  Zr11  1  0.664876  0.669491  0.437648  1
  Al  Al12  1  0.338297  0.840278  0.750000  1
  Al  Al13  1  0.657105  0.502673  0.750000  1
  Al  Al14  1  0.661703  0.159722  0.250000  1
  Al  Al15  1  0.342895  0.497327  0.250000  1
  Al  Al16  1  0.828981  0.323038  0.750000  1
  Al  Al17  1  0.171019  0.676962  0.250000  1
  Al  Al18  1  0.337038  0.665078  0.502049  1
  Al  Al19  1  0.662962  0.334922  0.497951  1
  Al  Al20  1  0.662962  0.334922  0.002049  1
  Al  Al21  1  0.337038  0.665078  0.997951  1
  Al  Al22  1  0.170093  0.003140  0.750000  1
  Al  Al23  1  0.829907  0.996860  0.250000  1
  Al  Al24  1  0.007240  0.174258  0.750000  1
  Al  Al25  1  0.992760  0.825742  0.250000  1
  Al  Al26  1  0.831068  0.831251  0.750000  1
  Al  Al27  1  0.168932  0.168749  0.250000  1
  Ir  Ir28  1  0.000000  0.000000  0.500000  1
  Ir  Ir29  1  0.000000  0.000000  0.000000  1
  Os  Os30  1  0.156314  0.500124  0.750000  1
  Os  Os31  1  0.843686  0.499876  0.250000  1
  Os  Os32  1  0.505721  0.673050  0.750000  1
  Os  Os33  1  0.494589  0.165104  0.750000  1
  Os  Os34  1  0.494279  0.326950  0.250000  1
  Os  Os35  1  0.505411  0.834896  0.250000  1
