# generated using pymatgen
data_Dy7ErGa12Ag3Au
_symmetry_space_group_name_H-M   'P 1'
_cell_length_a   7.16145328
_cell_length_b   8.98401467
_cell_length_c   8.97678346
_cell_angle_alpha   120.02869344
_cell_angle_beta   90.00637646
_cell_angle_gamma   90.00018265
_symmetry_Int_Tables_number   1
_chemical_formula_structural   Dy7ErGa12Ag3Au
_chemical_formula_sum   'Dy7 Er1 Ga12 Ag3 Au1'
_cell_volume   500.03148465
_cell_formula_units_Z   1
loop_
 _symmetry_equiv_pos_site_id
 _symmetry_equiv_pos_as_xyz
  1  'x, y, z'
loop_
 _atom_site_type_symbol
 _atom_site_label
 _atom_site_symmetry_multiplicity
 _atom_site_fract_x
 _atom_site_fract_y
 _atom_site_fract_z
 _atom_site_occupancy
  Dy  Dy0  1  0.749891  0.000078  0.000271  1
  Dy  Dy1  1  0.250553  0.000216  0.000289  1
  Dy  Dy2  1  0.748899  0.487820  0.511537  1
  Dy  Dy3  1  0.250108  0.514474  0.484919  1
  Dy  Dy4  1  0.748868  0.023733  0.511596  1
  Dy  Dy5  1  0.250115  0.970418  0.484880  1
  Dy  Dy6  1  0.748865  0.488087  0.976299  1
  Er  Er7  1  0.250400  0.514888  0.029749  1
  Ga  Ga8  1  0.969171  0.835424  0.164059  1
  Ga  Ga9  1  0.036423  0.165460  0.835265  1
  Ga  Ga10  1  0.969237  0.328699  0.164047  1
  Ga  Ga11  1  0.463503  0.165382  0.835271  1
  Ga  Ga12  1  0.036550  0.669745  0.835321  1
  Ga  Ga13  1  0.536403  0.835189  0.164229  1
  Ga  Ga14  1  0.968132  0.835681  0.671221  1
  Ga  Ga15  1  0.463510  0.669897  0.835354  1
  Ga  Ga16  1  0.034795  0.165276  0.330666  1
  Ga  Ga17  1  0.536361  0.329090  0.164147  1
  Ga  Ga18  1  0.465070  0.165286  0.330769  1
  Ga  Ga19  1  0.537409  0.835175  0.670145  1
  Ag  Ag20  1  0.958333  0.666363  0.332559  1
  Ag  Ag21  1  0.035060  0.333636  0.667496  1
  Ag  Ag22  1  0.464153  0.333785  0.667754  1
  Au  Au23  1  0.528190  0.666197  0.332156  1
