# generated using pymatgen
data_Gd3In(SO4)6
_symmetry_space_group_name_H-M   'P 1'
_cell_length_a   9.03437428
_cell_length_b   9.03437453
_cell_length_c   9.64075943
_cell_angle_alpha   117.94027988
_cell_angle_beta   62.05971834
_cell_angle_gamma   120.00000541
_symmetry_Int_Tables_number   1
_chemical_formula_structural   Gd3In(SO4)6
_chemical_formula_sum   'Gd3 In1 S6 O24'
_cell_volume   573.10433755
_cell_formula_units_Z   1
loop_
 _symmetry_equiv_pos_site_id
 _symmetry_equiv_pos_as_xyz
  1  'x, y, z'
loop_
 _atom_site_type_symbol
 _atom_site_label
 _atom_site_symmetry_multiplicity
 _atom_site_fract_x
 _atom_site_fract_y
 _atom_site_fract_z
 _atom_site_occupancy
  Gd  Gd0  1  0.646472  0.353529  0.060587  1
  Gd  Gd1  1  0.853874  0.146127  0.438379  1
  Gd  Gd2  1  0.140624  0.859377  0.578129  1
  In  In3  1  0.347922  0.652079  0.956236  1
  S  S4  1  0.242400  0.023472  0.243496  1
  S  S5  1  0.976527  0.462424  0.243496  1
  S  S6  1  0.537576  0.757599  0.243496  1
  S  S7  1  0.463353  0.269921  0.755322  1
  S  S8  1  0.051245  0.536647  0.755322  1
  S  S9  1  0.730079  0.948755  0.755322  1
  O  O10  1  0.150872  0.477705  0.108423  1
  O  O11  1  0.522294  0.781589  0.108423  1
  O  O12  1  0.218411  0.849127  0.108423  1
  O  O13  1  0.428688  0.152227  0.199977  1
  O  O14  1  0.847773  0.476438  0.199977  1
  O  O15  1  0.523562  0.571312  0.199977  1
  O  O16  1  0.115281  0.096433  0.265996  1
  O  O17  1  0.903566  0.284844  0.265996  1
  O  O18  1  0.715156  0.884719  0.265996  1
  O  O19  1  0.202907  0.996754  0.399300  1
  O  O20  1  0.003247  0.605453  0.399300  1
  O  O21  1  0.394547  0.797093  0.399300  1
  O  O22  1  0.611210  0.235368  0.601432  1
  O  O23  1  0.022727  0.388790  0.601432  1
  O  O24  1  0.764631  0.977272  0.601432  1
  O  O25  1  0.288042  0.138977  0.728124  1
  O  O26  1  0.122810  0.711958  0.728124  1
  O  O27  1  0.861025  0.877190  0.728124  1
  O  O28  1  0.477584  0.456347  0.797311  1
  O  O29  1  0.181452  0.522416  0.797311  1
  O  O30  1  0.543652  0.818546  0.797311  1
  O  O31  1  0.751606  0.122351  0.889510  1
  O  O32  1  0.481234  0.248394  0.889510  1
  O  O33  1  0.877649  0.518767  0.889510  1
