# generated using pymatgen
data_Dy3Cd3AgIrAu
_symmetry_space_group_name_H-M   'P 1'
_cell_length_a   7.92336600
_cell_length_b   7.92336629
_cell_length_c   3.73512700
_cell_angle_alpha   90.00000000
_cell_angle_beta   90.00000000
_cell_angle_gamma   120.00000713
_symmetry_Int_Tables_number   1
_chemical_formula_structural   Dy3Cd3AgIrAu
_chemical_formula_sum   'Dy3 Cd3 Ag1 Ir1 Au1'
_cell_volume   203.07451500
_cell_formula_units_Z   1
loop_
 _symmetry_equiv_pos_site_id
 _symmetry_equiv_pos_as_xyz
  1  'x, y, z'
loop_
 _atom_site_type_symbol
 _atom_site_label
 _atom_site_symmetry_multiplicity
 _atom_site_fract_x
 _atom_site_fract_y
 _atom_site_fract_z
 _atom_site_occupancy
  Dy  Dy0  1  0.026013  0.422066  0.500000  1
  Dy  Dy1  1  0.577934  0.603947  0.500000  1
  Dy  Dy2  1  0.396053  0.973987  0.500000  1
  Cd  Cd3  1  0.996462  0.732049  0.000000  1
  Cd  Cd4  1  0.267951  0.264415  0.000000  1
  Cd  Cd5  1  0.735585  0.003538  0.000000  1
  Ag  Ag6  1  0.000000  0.000000  0.500000  1
  Ir  Ir7  1  0.333333  0.666667  0.000000  1
  Au  Au8  1  0.666667  0.333333  0.000000  1
