# generated using pymatgen
data_Tb4Ga10(IrRh)3
_symmetry_space_group_name_H-M   'P 1'
_cell_length_a   8.60067804
_cell_length_b   8.59882439
_cell_length_c   5.70800915
_cell_angle_alpha   70.60295451
_cell_angle_beta   70.57166214
_cell_angle_gamma   96.51128002
_symmetry_Int_Tables_number   1
_chemical_formula_structural   Tb4Ga10(IrRh)3
_chemical_formula_sum   'Tb4 Ga10 Ir3 Rh3'
_cell_volume   363.41971944
_cell_formula_units_Z   1
loop_
 _symmetry_equiv_pos_site_id
 _symmetry_equiv_pos_as_xyz
  1  'x, y, z'
loop_
 _atom_site_type_symbol
 _atom_site_label
 _atom_site_symmetry_multiplicity
 _atom_site_fract_x
 _atom_site_fract_y
 _atom_site_fract_z
 _atom_site_occupancy
  Tb  Tb0  1  0.867822  0.585592  0.773505  1
  Tb  Tb1  1  0.413850  0.131687  0.727022  1
  Tb  Tb2  1  0.131672  0.413829  0.226929  1
  Tb  Tb3  1  0.585641  0.867832  0.273590  1
  Ga  Ga4  1  0.091719  0.264019  0.821474  1
  Ga  Ga5  1  0.736503  0.908829  0.677906  1
  Ga  Ga6  1  0.908862  0.736462  0.177276  1
  Ga  Ga7  1  0.264084  0.091706  0.322117  1
  Ga  Ga8  1  0.500410  0.499237  0.750203  1
  Ga  Ga9  1  0.499247  0.500397  0.250175  1
  Ga  Ga10  1  0.796694  0.203489  0.750892  1
  Ga  Ga11  1  0.797746  0.202417  0.248834  1
  Ga  Ga12  1  0.202462  0.797708  0.748917  1
  Ga  Ga13  1  0.203369  0.796789  0.250981  1
  Ir  Ir14  1  0.000104  0.999424  0.250263  1
  Ir  Ir15  1  0.438686  0.739823  0.909183  1
  Ir  Ir16  1  0.739811  0.438703  0.408862  1
  Rh  Rh17  1  0.561392  0.260553  0.090935  1
  Rh  Rh18  1  0.999355  0.000091  0.750287  1
  Rh  Rh19  1  0.260571  0.561414  0.590648  1
