# generated using pymatgen
data_DyTm3ReB12Rh
_symmetry_space_group_name_H-M   'P 1'
_cell_length_a   3.64941400
_cell_length_b   9.09330638
_cell_length_c   11.48643300
_cell_angle_alpha   90.41683403
_cell_angle_beta   90.00000000
_cell_angle_gamma   90.00000000
_symmetry_Int_Tables_number   1
_chemical_formula_structural   DyTm3ReB12Rh
_chemical_formula_sum   'Dy2 Tm6 Re2 B24 Rh2'
_cell_volume   381.16994412
_cell_formula_units_Z   2
loop_
 _symmetry_equiv_pos_site_id
 _symmetry_equiv_pos_as_xyz
  1  'x, y, z'
loop_
 _atom_site_type_symbol
 _atom_site_label
 _atom_site_symmetry_multiplicity
 _atom_site_fract_x
 _atom_site_fract_y
 _atom_site_fract_z
 _atom_site_occupancy
  Dy  Dy0  1  0.500000  0.318417  0.410937  1
  Dy  Dy1  1  0.500000  0.681583  0.589063  1
  Tm  Tm2  1  0.500000  0.173907  0.917505  1
  Tm  Tm3  1  0.500000  0.826093  0.082495  1
  Tm  Tm4  1  0.500000  0.442468  0.126318  1
  Tm  Tm5  1  0.500000  0.557532  0.873682  1
  Tm  Tm6  1  0.500000  0.054553  0.628262  1
  Tm  Tm7  1  0.500000  0.945447  0.371738  1
  Re  Re8  1  0.500000  0.138569  0.179290  1
  Re  Re9  1  0.500000  0.861431  0.820710  1
  B  B10  1  0.000000  0.105796  0.471527  1
  B  B11  1  0.000000  0.894204  0.528473  1
  B  B12  1  0.000000  0.394469  0.970735  1
  B  B13  1  0.000000  0.605531  0.029265  1
  B  B14  1  0.000000  0.131440  0.314910  1
  B  B15  1  0.000000  0.868560  0.685090  1
  B  B16  1  0.000000  0.367413  0.817122  1
  B  B17  1  0.000000  0.632587  0.182878  1
  B  B18  1  0.000000  0.052809  0.067033  1
  B  B19  1  0.000000  0.947191  0.932967  1
  B  B20  1  0.000000  0.445339  0.566029  1
  B  B21  1  0.000000  0.554661  0.433971  1
  B  B22  1  0.000000  0.483605  0.287206  1
  B  B23  1  0.000000  0.516395  0.712794  1
  B  B24  1  0.000000  0.017796  0.786962  1
  B  B25  1  0.000000  0.982204  0.213038  1
  B  B26  1  0.000000  0.248998  0.080802  1
  B  B27  1  0.000000  0.751002  0.919198  1
  B  B28  1  0.000000  0.250212  0.578989  1
  B  B29  1  0.000000  0.749788  0.421011  1
  B  B30  1  0.000000  0.293248  0.234443  1
  B  B31  1  0.000000  0.706752  0.765557  1
  B  B32  1  0.000000  0.208038  0.735246  1
  B  B33  1  0.000000  0.791962  0.264754  1
  Rh  Rh34  1  0.500000  0.361355  0.679494  1
  Rh  Rh35  1  0.500000  0.638645  0.320506  1
