# generated using pymatgen
data_Er10ZrIn9Co4
_symmetry_space_group_name_H-M   'P 1'
_cell_length_a   12.79432346
_cell_length_b   12.84686360
_cell_length_c   3.58724400
_cell_angle_alpha   90.00000000
_cell_angle_beta   90.00000000
_cell_angle_gamma   111.91817627
_symmetry_Int_Tables_number   1
_chemical_formula_structural   Er10ZrIn9Co4
_chemical_formula_sum   'Er10 Zr1 In9 Co4'
_cell_volume   547.00498607
_cell_formula_units_Z   1
loop_
 _symmetry_equiv_pos_site_id
 _symmetry_equiv_pos_as_xyz
  1  'x, y, z'
loop_
 _atom_site_type_symbol
 _atom_site_label
 _atom_site_symmetry_multiplicity
 _atom_site_fract_x
 _atom_site_fract_y
 _atom_site_fract_z
 _atom_site_occupancy
  Er  Er0  1  0.581794  0.919796  0.000000  1
  Er  Er1  1  0.081768  0.417402  0.000000  1
  Er  Er2  1  0.917997  0.582692  0.000000  1
  Er  Er3  1  0.161689  0.841422  0.000000  1
  Er  Er4  1  0.838250  0.160494  0.000000  1
  Er  Er5  1  0.376038  0.626330  0.000000  1
  Er  Er6  1  0.624749  0.374109  0.000000  1
  Er  Er7  1  0.313072  0.312661  0.000000  1
  Er  Er8  1  0.685570  0.686049  0.000000  1
  Er  Er9  1  0.000984  0.000487  0.000000  1
  Zr  Zr10  1  0.419250  0.086593  0.000000  1
  In  In11  1  0.369530  0.846831  0.500000  1
  In  In12  1  0.628202  0.156086  0.500000  1
  In  In13  1  0.840787  0.369196  0.500000  1
  In  In14  1  0.159202  0.631776  0.500000  1
  In  In15  1  0.222691  0.075168  0.500000  1
  In  In16  1  0.780238  0.923759  0.500000  1
  In  In17  1  0.080137  0.220274  0.500000  1
  In  In18  1  0.920947  0.779928  0.500000  1
  In  In19  1  0.499301  0.499157  0.500000  1
  Co  Co20  1  0.447858  0.234529  0.500000  1
  Co  Co21  1  0.550489  0.754198  0.500000  1
  Co  Co22  1  0.246045  0.450417  0.500000  1
  Co  Co23  1  0.753412  0.550647  0.500000  1
