# generated using pymatgen
data_Tb3Hf(Ni4As3)2
_symmetry_space_group_name_H-M   'P 1'
_cell_length_a   3.94198700
_cell_length_b   11.17571100
_cell_length_c   12.84335600
_cell_angle_alpha   90.00000000
_cell_angle_beta   90.00000000
_cell_angle_gamma   90.00000000
_symmetry_Int_Tables_number   1
_chemical_formula_structural   Tb3Hf(Ni4As3)2
_chemical_formula_sum   'Tb6 Hf2 Ni16 As12'
_cell_volume   565.80772294
_cell_formula_units_Z   2
loop_
 _symmetry_equiv_pos_site_id
 _symmetry_equiv_pos_as_xyz
  1  'x, y, z'
loop_
 _atom_site_type_symbol
 _atom_site_label
 _atom_site_symmetry_multiplicity
 _atom_site_fract_x
 _atom_site_fract_y
 _atom_site_fract_z
 _atom_site_occupancy
  Tb  Tb0  1  0.000000  0.500000  0.528430  1
  Tb  Tb1  1  0.500000  0.000000  0.471570  1
  Tb  Tb2  1  0.500000  0.821566  0.205465  1
  Tb  Tb3  1  0.500000  0.178434  0.205465  1
  Tb  Tb4  1  0.000000  0.678434  0.794535  1
  Tb  Tb5  1  0.000000  0.321566  0.794535  1
  Hf  Hf6  1  0.500000  0.500000  0.150646  1
  Hf  Hf7  1  0.000000  0.000000  0.849354  1
  Ni  Ni8  1  0.500000  0.500000  0.699177  1
  Ni  Ni9  1  0.000000  0.000000  0.300823  1
  Ni  Ni10  1  0.000000  0.500000  0.984166  1
  Ni  Ni11  1  0.500000  0.000000  0.015834  1
  Ni  Ni12  1  0.500000  0.336618  0.992782  1
  Ni  Ni13  1  0.500000  0.663382  0.992782  1
  Ni  Ni14  1  0.000000  0.163382  0.007218  1
  Ni  Ni15  1  0.000000  0.836618  0.007218  1
  Ni  Ni16  1  0.500000  0.301839  0.427674  1
  Ni  Ni17  1  0.500000  0.698161  0.427674  1
  Ni  Ni18  1  0.000000  0.198161  0.572326  1
  Ni  Ni19  1  0.000000  0.801839  0.572326  1
  Ni  Ni20  1  0.500000  0.880332  0.706318  1
  Ni  Ni21  1  0.500000  0.119668  0.706318  1
  Ni  Ni22  1  0.000000  0.619668  0.293682  1
  Ni  Ni23  1  0.000000  0.380332  0.293682  1
  As  As24  1  0.500000  0.500000  0.878278  1
  As  As25  1  0.000000  0.000000  0.121722  1
  As  As26  1  0.500000  0.500000  0.357932  1
  As  As27  1  0.000000  0.000000  0.642068  1
  As  As28  1  0.500000  0.313305  0.614539  1
  As  As29  1  0.500000  0.686695  0.614539  1
  As  As30  1  0.000000  0.186695  0.385461  1
  As  As31  1  0.000000  0.813305  0.385461  1
  As  As32  1  0.500000  0.837373  0.891735  1
  As  As33  1  0.500000  0.162627  0.891735  1
  As  As34  1  0.000000  0.662627  0.108265  1
  As  As35  1  0.000000  0.337373  0.108265  1
