# generated using pymatgen
data_Ca4Tb3TmCd8
_symmetry_space_group_name_H-M   'P 1'
_cell_length_a   7.53395400
_cell_length_b   7.51162700
_cell_length_c   7.44641400
_cell_angle_alpha   90.00000000
_cell_angle_beta   90.00060080
_cell_angle_gamma   90.00000000
_symmetry_Int_Tables_number   1
_chemical_formula_structural   Ca4Tb3TmCd8
_chemical_formula_sum   'Ca4 Tb3 Tm1 Cd8'
_cell_volume   421.40933969
_cell_formula_units_Z   1
loop_
 _symmetry_equiv_pos_site_id
 _symmetry_equiv_pos_as_xyz
  1  'x, y, z'
loop_
 _atom_site_type_symbol
 _atom_site_label
 _atom_site_symmetry_multiplicity
 _atom_site_fract_x
 _atom_site_fract_y
 _atom_site_fract_z
 _atom_site_occupancy
  Ca  Ca0  1  0.749470  0.250000  0.000096  1
  Ca  Ca1  1  0.249522  0.750000  0.499915  1
  Ca  Ca2  1  0.750495  0.250000  0.500094  1
  Ca  Ca3  1  0.250495  0.750000  0.999912  1
  Tb  Tb4  1  0.749416  0.750000  0.000006  1
  Tb  Tb5  1  0.750578  0.750000  0.499995  1
  Tb  Tb6  1  0.249411  0.250000  0.500012  1
  Tm  Tm7  1  0.250502  0.250000  0.000000  1
  Cd  Cd8  1  0.001158  0.499058  0.247534  1
  Cd  Cd9  1  0.001158  0.000944  0.247534  1
  Cd  Cd10  1  0.499163  0.001113  0.250126  1
  Cd  Cd11  1  0.499163  0.498887  0.250126  1
  Cd  Cd12  1  0.498889  0.499053  0.749851  1
  Cd  Cd13  1  0.498889  0.000949  0.749851  1
  Cd  Cd14  1  0.000845  0.001119  0.752475  1
  Cd  Cd15  1  0.000845  0.498881  0.752475  1
