# generated using pymatgen
data_DyHo7Sc11Si16Rh
_symmetry_space_group_name_H-M   'P 1'
_cell_length_a   6.98051255
_cell_length_b   7.38752187
_cell_length_c   13.89497706
_cell_angle_alpha   90.00997736
_cell_angle_beta   90.00415271
_cell_angle_gamma   89.94988551
_symmetry_Int_Tables_number   1
_chemical_formula_structural   DyHo7Sc11Si16Rh
_chemical_formula_sum   'Dy1 Ho7 Sc11 Si16 Rh1'
_cell_volume   716.54546625
_cell_formula_units_Z   1
loop_
 _symmetry_equiv_pos_site_id
 _symmetry_equiv_pos_as_xyz
  1  'x, y, z'
loop_
 _atom_site_type_symbol
 _atom_site_label
 _atom_site_symmetry_multiplicity
 _atom_site_fract_x
 _atom_site_fract_y
 _atom_site_fract_z
 _atom_site_occupancy
  Dy  Dy0  1  0.012251  0.178219  0.093478  1
  Ho  Ho1  1  0.990928  0.815086  0.901527  1
  Ho  Ho2  1  0.488590  0.674101  0.902251  1
  Ho  Ho3  1  0.990899  0.815056  0.598396  1
  Ho  Ho4  1  0.510645  0.322793  0.094543  1
  Ho  Ho5  1  0.012349  0.178476  0.406338  1
  Ho  Ho6  1  0.510654  0.322734  0.405520  1
  Ho  Ho7  1  0.488524  0.674059  0.597688  1
  Sc  Sc8  1  0.840519  0.496871  0.250072  1
  Sc  Sc9  1  0.341484  0.004512  0.250051  1
  Sc  Sc10  1  0.654981  0.997537  0.750001  1
  Sc  Sc11  1  0.322799  0.177538  0.627945  1
  Sc  Sc12  1  0.672103  0.824940  0.374516  1
  Sc  Sc13  1  0.173014  0.674131  0.376045  1
  Sc  Sc14  1  0.672141  0.824900  0.125550  1
  Sc  Sc15  1  0.830696  0.328855  0.629107  1
  Sc  Sc16  1  0.322861  0.177503  0.872027  1
  Sc  Sc17  1  0.830609  0.328946  0.870882  1
  Sc  Sc18  1  0.173023  0.674076  0.124010  1
  Si  Si19  1  0.025667  0.099172  0.749978  1
  Si  Si20  1  0.972518  0.887298  0.250123  1
  Si  Si21  1  0.469189  0.614538  0.250036  1
  Si  Si22  1  0.518650  0.394317  0.749981  1
  Si  Si23  1  0.282971  0.864510  0.749986  1
  Si  Si24  1  0.715477  0.130237  0.250203  1
  Si  Si25  1  0.215075  0.371565  0.250141  1
  Si  Si26  1  0.791699  0.628104  0.749974  1
  Si  Si27  1  0.159820  0.463914  0.542535  1
  Si  Si28  1  0.842936  0.535274  0.463474  1
  Si  Si29  1  0.344596  0.964732  0.463368  1
  Si  Si30  1  0.842834  0.535624  0.036428  1
  Si  Si31  1  0.658708  0.034518  0.540313  1
  Si  Si32  1  0.159869  0.464219  0.957324  1
  Si  Si33  1  0.658640  0.034454  0.959656  1
  Si  Si34  1  0.345037  0.964483  0.036532  1
  Rh  Rh35  1  0.157249  0.522707  0.750001  1
