# generated using pymatgen
data_Ca12Dy8Si15Ag
_symmetry_space_group_name_H-M   'P 1'
_cell_length_a   7.50488013
_cell_length_b   7.79935835
_cell_length_c   15.24604878
_cell_angle_alpha   90.33041435
_cell_angle_beta   89.24912426
_cell_angle_gamma   90.33068441
_symmetry_Int_Tables_number   1
_chemical_formula_structural   Ca12Dy8Si15Ag
_chemical_formula_sum   'Ca12 Dy8 Si15 Ag1'
_cell_volume   892.29482892
_cell_formula_units_Z   1
loop_
 _symmetry_equiv_pos_site_id
 _symmetry_equiv_pos_as_xyz
  1  'x, y, z'
loop_
 _atom_site_type_symbol
 _atom_site_label
 _atom_site_symmetry_multiplicity
 _atom_site_fract_x
 _atom_site_fract_y
 _atom_site_fract_z
 _atom_site_occupancy
  Ca  Ca0  1  0.648575  0.982778  0.250482  1
  Ca  Ca1  1  0.151819  0.517089  0.249831  1
  Ca  Ca2  1  0.848343  0.485056  0.748102  1
  Ca  Ca3  1  0.348647  0.016963  0.747981  1
  Ca  Ca4  1  0.981545  0.820586  0.098501  1
  Ca  Ca5  1  0.472024  0.683216  0.403938  1
  Ca  Ca6  1  0.512435  0.319316  0.902393  1
  Ca  Ca7  1  0.027143  0.183039  0.595516  1
  Ca  Ca8  1  0.027674  0.177377  0.903658  1
  Ca  Ca9  1  0.527655  0.317322  0.595742  1
  Ca  Ca10  1  0.473541  0.680480  0.096222  1
  Ca  Ca11  1  0.972370  0.816520  0.403699  1
  Dy  Dy12  1  0.672075  0.827605  0.874219  1
  Dy  Dy13  1  0.182601  0.678125  0.620295  1
  Dy  Dy14  1  0.824498  0.320034  0.125432  1
  Dy  Dy15  1  0.317572  0.176645  0.379636  1
  Dy  Dy16  1  0.322265  0.179584  0.122660  1
  Dy  Dy17  1  0.816723  0.323006  0.379501  1
  Dy  Dy18  1  0.186895  0.675794  0.879929  1
  Dy  Dy19  1  0.683460  0.823249  0.620244  1
  Si  Si20  1  0.757200  0.605820  0.250030  1
  Si  Si21  1  0.256544  0.894800  0.251023  1
  Si  Si22  1  0.744188  0.107209  0.749205  1
  Si  Si23  1  0.240335  0.394313  0.748704  1
  Si  Si24  1  0.028144  0.114808  0.250382  1
  Si  Si25  1  0.529232  0.383823  0.253286  1
  Si  Si26  1  0.470150  0.615817  0.747123  1
  Si  Si27  1  0.972022  0.883130  0.750615  1
  Si  Si28  1  0.360109  0.965109  0.537846  1
  Si  Si29  1  0.646640  0.033971  0.035607  1
  Si  Si30  1  0.139819  0.465399  0.461336  1
  Si  Si31  1  0.152967  0.462770  0.039854  1
  Si  Si32  1  0.640562  0.034723  0.461753  1
  Si  Si33  1  0.358747  0.966077  0.963932  1
  Si  Si34  1  0.859903  0.534619  0.537809  1
  Ag  Ag35  1  0.845574  0.533823  0.963512  1
