# generated using pymatgen
data_Lu6TcOs
_symmetry_space_group_name_H-M   'P 1'
_cell_length_a   7.30581300
_cell_length_b   8.88771700
_cell_length_c   6.14030200
_cell_angle_alpha   90.00000000
_cell_angle_beta   90.00000000
_cell_angle_gamma   90.00000000
_symmetry_Int_Tables_number   1
_chemical_formula_structural   Lu6TcOs
_chemical_formula_sum   'Lu12 Tc2 Os2'
_cell_volume   398.70207963
_cell_formula_units_Z   2
loop_
 _symmetry_equiv_pos_site_id
 _symmetry_equiv_pos_as_xyz
  1  'x, y, z'
loop_
 _atom_site_type_symbol
 _atom_site_label
 _atom_site_symmetry_multiplicity
 _atom_site_fract_x
 _atom_site_fract_y
 _atom_site_fract_z
 _atom_site_occupancy
  Lu  Lu0  1  0.674906  0.061231  0.336799  1
  Lu  Lu1  1  0.174906  0.438769  0.163201  1
  Lu  Lu2  1  0.324877  0.562154  0.665092  1
  Lu  Lu3  1  0.824877  0.937846  0.834908  1
  Lu  Lu4  1  0.324877  0.937846  0.665092  1
  Lu  Lu5  1  0.824877  0.562154  0.834908  1
  Lu  Lu6  1  0.674906  0.438769  0.336799  1
  Lu  Lu7  1  0.174906  0.061231  0.163201  1
  Lu  Lu8  1  0.539340  0.250000  0.874561  1
  Lu  Lu9  1  0.039340  0.250000  0.625439  1
  Lu  Lu10  1  0.459860  0.750000  0.128768  1
  Lu  Lu11  1  0.959860  0.750000  0.371232  1
  Tc  Tc12  1  0.883672  0.250000  0.038725  1
  Tc  Tc13  1  0.383672  0.250000  0.461275  1
  Os  Os14  1  0.117560  0.750000  0.961242  1
  Os  Os15  1  0.617560  0.750000  0.538758  1
