# generated using pymatgen
data_Tb16Mg3AgPt4
_symmetry_space_group_name_H-M   'P 1'
_cell_length_a   9.73216353
_cell_length_b   9.73216226
_cell_length_c   9.73216231
_cell_angle_alpha   60.33314854
_cell_angle_beta   60.33315498
_cell_angle_gamma   60.33315382
_symmetry_Int_Tables_number   1
_chemical_formula_structural   Tb16Mg3AgPt4
_chemical_formula_sum   'Tb16 Mg3 Ag1 Pt4'
_cell_volume   656.71093393
_cell_formula_units_Z   1
loop_
 _symmetry_equiv_pos_site_id
 _symmetry_equiv_pos_as_xyz
  1  'x, y, z'
loop_
 _atom_site_type_symbol
 _atom_site_label
 _atom_site_symmetry_multiplicity
 _atom_site_fract_x
 _atom_site_fract_y
 _atom_site_fract_z
 _atom_site_occupancy
  Tb  Tb0  1  0.347663  0.347663  0.347663  1
  Tb  Tb1  1  0.352955  0.352955  0.944915  1
  Tb  Tb2  1  0.352955  0.944915  0.352955  1
  Tb  Tb3  1  0.944915  0.352955  0.352955  1
  Tb  Tb4  1  0.812188  0.190050  0.190050  1
  Tb  Tb5  1  0.188507  0.810838  0.810838  1
  Tb  Tb6  1  0.190050  0.812188  0.190050  1
  Tb  Tb7  1  0.810838  0.188507  0.810838  1
  Tb  Tb8  1  0.190050  0.190050  0.812188  1
  Tb  Tb9  1  0.810838  0.810838  0.188507  1
  Tb  Tb10  1  0.931459  0.564571  0.564571  1
  Tb  Tb11  1  0.563296  0.934921  0.934921  1
  Tb  Tb12  1  0.564571  0.931459  0.564571  1
  Tb  Tb13  1  0.934921  0.563296  0.934921  1
  Tb  Tb14  1  0.564571  0.564571  0.931459  1
  Tb  Tb15  1  0.934921  0.934921  0.563296  1
  Mg  Mg16  1  0.579897  0.579897  0.262958  1
  Mg  Mg17  1  0.579897  0.262958  0.579897  1
  Mg  Mg18  1  0.262958  0.579897  0.579897  1
  Ag  Ag19  1  0.583219  0.583219  0.583219  1
  Pt  Pt20  1  0.144812  0.144812  0.144812  1
  Pt  Pt21  1  0.141570  0.141570  0.571380  1
  Pt  Pt22  1  0.141570  0.571380  0.141570  1
  Pt  Pt23  1  0.571380  0.141570  0.141570  1
