# generated using pymatgen
data_Y6Ti2Fe(Co5P4)3
_symmetry_space_group_name_H-M   'P 1'
_cell_length_a   3.70224600
_cell_length_b   10.61594900
_cell_length_c   12.26008600
_cell_angle_alpha   90.00000000
_cell_angle_beta   90.00000000
_cell_angle_gamma   90.00000000
_symmetry_Int_Tables_number   1
_chemical_formula_structural   Y6Ti2Fe(Co5P4)3
_chemical_formula_sum   'Y6 Ti2 Fe1 Co15 P12'
_cell_volume   481.85637893
_cell_formula_units_Z   1
loop_
 _symmetry_equiv_pos_site_id
 _symmetry_equiv_pos_as_xyz
  1  'x, y, z'
loop_
 _atom_site_type_symbol
 _atom_site_label
 _atom_site_symmetry_multiplicity
 _atom_site_fract_x
 _atom_site_fract_y
 _atom_site_fract_z
 _atom_site_occupancy
  Y  Y0  1  0.000000  0.500000  0.525081  1
  Y  Y1  1  0.500000  0.000000  0.474697  1
  Y  Y2  1  0.500000  0.820079  0.204222  1
  Y  Y3  1  0.500000  0.179921  0.204222  1
  Y  Y4  1  0.000000  0.678713  0.796258  1
  Y  Y5  1  0.000000  0.321287  0.796258  1
  Ti  Ti6  1  0.500000  0.500000  0.152184  1
  Ti  Ti7  1  0.000000  0.000000  0.846135  1
  Fe  Fe8  1  0.000000  0.500000  0.988572  1
  Co  Co9  1  0.500000  0.500000  0.703223  1
  Co  Co10  1  0.000000  0.000000  0.297132  1
  Co  Co11  1  0.500000  0.000000  0.012107  1
  Co  Co12  1  0.500000  0.329457  0.995005  1
  Co  Co13  1  0.500000  0.670543  0.995005  1
  Co  Co14  1  0.000000  0.166622  0.005519  1
  Co  Co15  1  0.000000  0.833378  0.005519  1
  Co  Co16  1  0.500000  0.296005  0.432269  1
  Co  Co17  1  0.500000  0.703995  0.432269  1
  Co  Co18  1  0.000000  0.204163  0.568368  1
  Co  Co19  1  0.000000  0.795837  0.568368  1
  Co  Co20  1  0.500000  0.879057  0.705294  1
  Co  Co21  1  0.500000  0.120943  0.705294  1
  Co  Co22  1  0.000000  0.621493  0.294103  1
  Co  Co23  1  0.000000  0.378507  0.294103  1
  P  P24  1  0.500000  0.500000  0.886657  1
  P  P25  1  0.000000  0.000000  0.116193  1
  P  P26  1  0.500000  0.500000  0.352107  1
  P  P27  1  0.000000  0.000000  0.646985  1
  P  P28  1  0.500000  0.309841  0.616195  1
  P  P29  1  0.500000  0.690159  0.616195  1
  P  P30  1  0.000000  0.190402  0.384214  1
  P  P31  1  0.000000  0.809598  0.384214  1
  P  P32  1  0.500000  0.843300  0.891823  1
  P  P33  1  0.500000  0.156700  0.891823  1
  P  P34  1  0.000000  0.656677  0.106194  1
  P  P35  1  0.000000  0.343323  0.106194  1
