# generated using pymatgen
data_HoErGa4PdAu
_symmetry_space_group_name_H-M   'P 1'
_cell_length_a   5.54939660
_cell_length_b   5.54939657
_cell_length_c   6.66582800
_cell_angle_alpha   90.00000000
_cell_angle_beta   90.00000000
_cell_angle_gamma   132.48555584
_symmetry_Int_Tables_number   1
_chemical_formula_structural   HoErGa4PdAu
_chemical_formula_sum   'Ho1 Er1 Ga4 Pd1 Au1'
_cell_volume   151.38289704
_cell_formula_units_Z   1
loop_
 _symmetry_equiv_pos_site_id
 _symmetry_equiv_pos_as_xyz
  1  'x, y, z'
loop_
 _atom_site_type_symbol
 _atom_site_label
 _atom_site_symmetry_multiplicity
 _atom_site_fract_x
 _atom_site_fract_y
 _atom_site_fract_z
 _atom_site_occupancy
  Ho  Ho0  1  0.590549  0.409451  0.250000  1
  Er  Er1  1  0.412161  0.587839  0.750000  1
  Ga  Ga2  1  0.874270  0.125730  0.454073  1
  Ga  Ga3  1  0.124557  0.875443  0.556224  1
  Ga  Ga4  1  0.874270  0.125730  0.045927  1
  Ga  Ga5  1  0.124557  0.875443  0.943776  1
  Pd  Pd6  1  0.700038  0.299962  0.750000  1
  Au  Au7  1  0.299598  0.700402  0.250000  1
