# generated using pymatgen
data_Dy12Lu4MgCo4Ag3
_symmetry_space_group_name_H-M   'P 1'
_cell_length_a   9.36985992
_cell_length_b   9.38840941
_cell_length_c   9.35555900
_cell_angle_alpha   60.11568347
_cell_angle_beta   60.05047924
_cell_angle_gamma   60.02344325
_symmetry_Int_Tables_number   1
_chemical_formula_structural   Dy12Lu4MgCo4Ag3
_chemical_formula_sum   'Dy12 Lu4 Mg1 Co4 Ag3'
_cell_volume   582.77497696
_cell_formula_units_Z   1
loop_
 _symmetry_equiv_pos_site_id
 _symmetry_equiv_pos_as_xyz
  1  'x, y, z'
loop_
 _atom_site_type_symbol
 _atom_site_label
 _atom_site_symmetry_multiplicity
 _atom_site_fract_x
 _atom_site_fract_y
 _atom_site_fract_z
 _atom_site_occupancy
  Dy  Dy0  1  0.183180  0.184701  0.816060  1
  Dy  Dy1  1  0.811644  0.813854  0.187251  1
  Dy  Dy2  1  0.936255  0.561904  0.562511  1
  Dy  Dy3  1  0.561778  0.937651  0.937963  1
  Dy  Dy4  1  0.561778  0.937651  0.562609  1
  Dy  Dy5  1  0.936255  0.561904  0.939330  1
  Dy  Dy6  1  0.561279  0.562648  0.938036  1
  Dy  Dy7  1  0.936939  0.938176  0.562443  1
  Dy  Dy8  1  0.347378  0.346433  0.345069  1
  Dy  Dy9  1  0.347378  0.346433  0.961119  1
  Dy  Dy10  1  0.346068  0.961412  0.346259  1
  Dy  Dy11  1  0.948465  0.350100  0.350718  1
  Lu  Lu12  1  0.810650  0.187293  0.188323  1
  Lu  Lu13  1  0.184076  0.814783  0.815211  1
  Lu  Lu14  1  0.184076  0.814783  0.185931  1
  Lu  Lu15  1  0.810650  0.187293  0.813734  1
  Mg  Mg16  1  0.288882  0.571156  0.569981  1
  Co  Co17  1  0.138257  0.142209  0.141092  1
  Co  Co18  1  0.138257  0.142209  0.578441  1
  Co  Co19  1  0.139743  0.577905  0.141175  1
  Co  Co20  1  0.577401  0.142383  0.140108  1
  Ag  Ag21  1  0.583020  0.583146  0.583109  1
  Ag  Ag22  1  0.583020  0.583146  0.250724  1
  Ag  Ag23  1  0.583566  0.250827  0.582803  1
