# generated using pymatgen
data_Hf8Co2MoOs
_symmetry_space_group_name_H-M   'P 1'
_cell_length_a   8.63503105
_cell_length_b   8.63503015
_cell_length_c   8.61084400
_cell_angle_alpha   60.09261864
_cell_angle_beta   60.09262207
_cell_angle_gamma   60.02157013
_symmetry_Int_Tables_number   1
_chemical_formula_structural   Hf8Co2MoOs
_chemical_formula_sum   'Hf16 Co4 Mo2 Os2'
_cell_volume   454.71157196
_cell_formula_units_Z   2
loop_
 _symmetry_equiv_pos_site_id
 _symmetry_equiv_pos_as_xyz
  1  'x, y, z'
loop_
 _atom_site_type_symbol
 _atom_site_label
 _atom_site_symmetry_multiplicity
 _atom_site_fract_x
 _atom_site_fract_y
 _atom_site_fract_z
 _atom_site_occupancy
  Hf  Hf0  1  0.698114  0.100924  0.100480  1
  Hf  Hf1  1  0.100924  0.698114  0.100480  1
  Hf  Hf2  1  0.100371  0.100371  0.699407  1
  Hf  Hf3  1  0.100371  0.100371  0.099849  1
  Hf  Hf4  1  0.313785  0.313785  0.686215  1
  Hf  Hf5  1  0.684802  0.684802  0.315198  1
  Hf  Hf6  1  0.314047  0.684963  0.314511  1
  Hf  Hf7  1  0.684963  0.314047  0.686478  1
  Hf  Hf8  1  0.684963  0.314047  0.314511  1
  Hf  Hf9  1  0.314047  0.684963  0.686478  1
  Hf  Hf10  1  0.952819  0.952819  0.547181  1
  Hf  Hf11  1  0.545160  0.545160  0.954840  1
  Hf  Hf12  1  0.953181  0.546953  0.952053  1
  Hf  Hf13  1  0.546953  0.953181  0.547815  1
  Hf  Hf14  1  0.546953  0.953181  0.952053  1
  Hf  Hf15  1  0.953181  0.546953  0.547815  1
  Co  Co16  1  0.328901  0.889479  0.890810  1
  Co  Co17  1  0.889479  0.328901  0.890810  1
  Co  Co18  1  0.890306  0.890306  0.328924  1
  Co  Co19  1  0.890306  0.890306  0.890464  1
  Mo  Mo20  1  0.004768  0.332037  0.331596  1
  Mo  Mo21  1  0.332037  0.004768  0.331596  1
  Os  Os22  1  0.334780  0.334780  0.996601  1
  Os  Os23  1  0.334780  0.334780  0.333836  1
