# generated using pymatgen
data_Hg3Rh4PbO14
_symmetry_space_group_name_H-M   'P 1'
_cell_length_a   7.24576427
_cell_length_b   7.33551194
_cell_length_c   7.24576300
_cell_angle_alpha   60.40390270
_cell_angle_beta   60.00000121
_cell_angle_gamma   60.40391008
_symmetry_Int_Tables_number   1
_chemical_formula_structural   Hg3Rh4PbO14
_chemical_formula_sum   'Hg3 Rh4 Pb1 O14'
_cell_volume   273.97336376
_cell_formula_units_Z   1
loop_
 _symmetry_equiv_pos_site_id
 _symmetry_equiv_pos_as_xyz
  1  'x, y, z'
loop_
 _atom_site_type_symbol
 _atom_site_label
 _atom_site_symmetry_multiplicity
 _atom_site_fract_x
 _atom_site_fract_y
 _atom_site_fract_z
 _atom_site_occupancy
  Hg  Hg0  1  0.625000  0.125000  0.125000  1
  Hg  Hg1  1  0.125000  0.125000  0.625000  1
  Hg  Hg2  1  0.125000  0.125000  0.125000  1
  Rh  Rh3  1  0.125000  0.625000  0.625000  1
  Rh  Rh4  1  0.625000  0.125000  0.625000  1
  Rh  Rh5  1  0.625000  0.625000  0.125000  1
  Rh  Rh6  1  0.625000  0.625000  0.625000  1
  Pb  Pb7  1  0.125000  0.625000  0.125000  1
  O  O8  1  0.711816  0.692711  0.297737  1
  O  O9  1  0.301211  0.304591  0.697100  1
  O  O10  1  0.697100  0.304591  0.697100  1
  O  O11  1  0.297737  0.692711  0.297737  1
  O  O12  1  0.297737  0.692711  0.711816  1
  O  O13  1  0.697100  0.304591  0.301211  1
  O  O14  1  0.538184  0.557289  0.952263  1
  O  O15  1  0.948789  0.945409  0.552900  1
  O  O16  1  0.552900  0.945409  0.552900  1
  O  O17  1  0.952263  0.557289  0.952263  1
  O  O18  1  0.952263  0.557289  0.538184  1
  O  O19  1  0.552900  0.945409  0.948789  1
  O  O20  1  0.255929  0.232215  0.255929  1
  O  O21  1  0.994071  0.017785  0.994071  1
