# generated using pymatgen
data_Te12AsIrCl6
_symmetry_space_group_name_H-M   'P 1'
_cell_length_a   9.22366563
_cell_length_b   9.22366477
_cell_length_c   9.22366524
_cell_angle_alpha   108.12760548
_cell_angle_beta   108.12760654
_cell_angle_gamma   108.12760332
_symmetry_Int_Tables_number   1
_chemical_formula_structural   Te12AsIrCl6
_chemical_formula_sum   'Te12 As1 Ir1 Cl6'
_cell_volume   632.33798905
_cell_formula_units_Z   1
loop_
 _symmetry_equiv_pos_site_id
 _symmetry_equiv_pos_as_xyz
  1  'x, y, z'
loop_
 _atom_site_type_symbol
 _atom_site_label
 _atom_site_symmetry_multiplicity
 _atom_site_fract_x
 _atom_site_fract_y
 _atom_site_fract_z
 _atom_site_occupancy
  Te  Te0  1  0.899414  0.169352  0.190504  1
  Te  Te1  1  0.190504  0.899414  0.169352  1
  Te  Te2  1  0.169352  0.190504  0.899414  1
  Te  Te3  1  0.681623  0.672127  0.421091  1
  Te  Te4  1  0.421091  0.681623  0.672127  1
  Te  Te5  1  0.672127  0.421091  0.681623  1
  Te  Te6  1  0.078909  0.827873  0.818377  1
  Te  Te7  1  0.818377  0.078909  0.827873  1
  Te  Te8  1  0.827873  0.818377  0.078909  1
  Te  Te9  1  0.309496  0.330648  0.600586  1
  Te  Te10  1  0.600586  0.309496  0.330648  1
  Te  Te11  1  0.330648  0.600586  0.309496  1
  As  As12  1  0.250000  0.250000  0.250000  1
  Ir  Ir13  1  0.750000  0.750000  0.750000  1
  Cl  Cl14  1  0.984765  0.515235  0.250000  1
  Cl  Cl15  1  0.250000  0.984765  0.515235  1
  Cl  Cl16  1  0.515235  0.250000  0.984765  1
  Cl  Cl17  1  0.750000  0.014664  0.485336  1
  Cl  Cl18  1  0.485336  0.750000  0.014664  1
  Cl  Cl19  1  0.014664  0.485336  0.750000  1
