# generated using pymatgen
data_Ga6Cu6Pd7Pt5
_symmetry_space_group_name_H-M   'P 1'
_cell_length_a   4.04689000
_cell_length_b   6.95110624
_cell_length_c   12.15281940
_cell_angle_alpha   90.02974427
_cell_angle_beta   89.99983957
_cell_angle_gamma   90.00039606
_symmetry_Int_Tables_number   1
_chemical_formula_structural   Ga6Cu6Pd7Pt5
_chemical_formula_sum   'Ga6 Cu6 Pd7 Pt5'
_cell_volume   341.86316698
_cell_formula_units_Z   1
loop_
 _symmetry_equiv_pos_site_id
 _symmetry_equiv_pos_as_xyz
  1  'x, y, z'
loop_
 _atom_site_type_symbol
 _atom_site_label
 _atom_site_symmetry_multiplicity
 _atom_site_fract_x
 _atom_site_fract_y
 _atom_site_fract_z
 _atom_site_occupancy
  Ga  Ga0  1  0.999998  0.500054  0.999580  1
  Ga  Ga1  1  0.500109  0.000017  0.166709  1
  Ga  Ga2  1  0.000109  0.499903  0.333573  1
  Ga  Ga3  1  0.500000  0.000772  0.500111  1
  Ga  Ga4  1  0.999892  0.499385  0.666594  1
  Ga  Ga5  1  0.499891  0.999889  0.833435  1
  Cu  Cu6  1  0.999998  0.000086  0.000106  1
  Cu  Cu7  1  0.500115  0.499904  0.166719  1
  Cu  Cu8  1  0.000114  0.999959  0.333255  1
  Cu  Cu9  1  0.500000  0.499827  0.499744  1
  Cu  Cu10  1  0.999884  0.000330  0.666535  1
  Cu  Cu11  1  0.499866  0.499853  0.833665  1
  Pd  Pd12  1  0.499999  0.249944  0.000684  1
  Pd  Pd13  1  0.499997  0.749977  0.000678  1
  Pd  Pd14  1  0.000081  0.250063  0.166727  1
  Pd  Pd15  1  0.000079  0.749705  0.166568  1
  Pd  Pd16  1  0.500082  0.249928  0.333225  1
  Pd  Pd17  1  0.500079  0.750095  0.332696  1
  Pd  Pd18  1  0.999999  0.250193  0.499365  1
  Pt  Pt19  1  0.999997  0.750356  0.499190  1
  Pt  Pt20  1  0.499929  0.250011  0.665831  1
  Pt  Pt21  1  0.499927  0.750050  0.666842  1
  Pt  Pt22  1  0.999923  0.249889  0.834127  1
  Pt  Pt23  1  0.999926  0.749815  0.834043  1
