# generated using pymatgen
data_La5Pr(GePd)6
_symmetry_space_group_name_H-M   'P 1'
_cell_length_a   4.56354200
_cell_length_b   7.75750502
_cell_length_c   22.35909107
_cell_angle_alpha   90.00882172
_cell_angle_beta   90.00000000
_cell_angle_gamma   90.00000000
_symmetry_Int_Tables_number   1
_chemical_formula_structural   La5Pr(GePd)6
_chemical_formula_sum   'La10 Pr2 Ge12 Pd12'
_cell_volume   791.54982454
_cell_formula_units_Z   2
loop_
 _symmetry_equiv_pos_site_id
 _symmetry_equiv_pos_as_xyz
  1  'x, y, z'
loop_
 _atom_site_type_symbol
 _atom_site_label
 _atom_site_symmetry_multiplicity
 _atom_site_fract_x
 _atom_site_fract_y
 _atom_site_fract_z
 _atom_site_occupancy
  La  La0  1  0.250000  0.709543  0.333172  1
  La  La1  1  0.750000  0.290457  0.666828  1
  La  La2  1  0.750000  0.209649  0.166791  1
  La  La3  1  0.250000  0.790351  0.833209  1
  La  La4  1  0.250000  0.790355  0.166091  1
  La  La5  1  0.750000  0.209645  0.833909  1
  La  La6  1  0.750000  0.290440  0.333873  1
  La  La7  1  0.250000  0.709560  0.666127  1
  La  La8  1  0.250000  0.716593  0.001843  1
  La  La9  1  0.750000  0.283407  0.998157  1
  Pr  Pr10  1  0.750000  0.216857  0.498325  1
  Pr  Pr11  1  0.250000  0.783143  0.501675  1
  Ge  Ge12  1  0.250000  0.088441  0.070980  1
  Ge  Ge13  1  0.750000  0.911559  0.929020  1
  Ge  Ge14  1  0.750000  0.588726  0.429578  1
  Ge  Ge15  1  0.250000  0.411274  0.570422  1
  Ge  Ge16  1  0.250000  0.082955  0.270303  1
  Ge  Ge17  1  0.750000  0.917045  0.729697  1
  Ge  Ge18  1  0.750000  0.583104  0.229705  1
  Ge  Ge19  1  0.250000  0.416896  0.770295  1
  Ge  Ge20  1  0.250000  0.084678  0.397283  1
  Ge  Ge21  1  0.750000  0.915322  0.602717  1
  Ge  Ge22  1  0.750000  0.584538  0.103665  1
  Ge  Ge23  1  0.250000  0.415462  0.896335  1
  Pd  Pd24  1  0.250000  0.416661  0.237952  1
  Pd  Pd25  1  0.750000  0.583339  0.762048  1
  Pd  Pd26  1  0.750000  0.916884  0.262221  1
  Pd  Pd27  1  0.250000  0.083116  0.737779  1
  Pd  Pd28  1  0.250000  0.417338  0.434956  1
  Pd  Pd29  1  0.750000  0.582662  0.565044  1
  Pd  Pd30  1  0.750000  0.917037  0.065461  1
  Pd  Pd31  1  0.250000  0.082963  0.934539  1
  Pd  Pd32  1  0.250000  0.419997  0.093327  1
  Pd  Pd33  1  0.750000  0.580003  0.906673  1
  Pd  Pd34  1  0.750000  0.919971  0.407012  1
  Pd  Pd35  1  0.250000  0.080029  0.592988  1
