# generated using pymatgen
data_Eu2HoTh(Sn2O7)2
_symmetry_space_group_name_H-M   'P 1'
_cell_length_a   7.54020946
_cell_length_b   7.53210742
_cell_length_c   7.50149000
_cell_angle_alpha   60.13437564
_cell_angle_beta   60.16972167
_cell_angle_gamma   60.13063652
_symmetry_Int_Tables_number   1
_chemical_formula_structural   Eu2HoTh(Sn2O7)2
_chemical_formula_sum   'Eu2 Ho1 Th1 Sn4 O14'
_cell_volume   302.24251942
_cell_formula_units_Z   1
loop_
 _symmetry_equiv_pos_site_id
 _symmetry_equiv_pos_as_xyz
  1  'x, y, z'
loop_
 _atom_site_type_symbol
 _atom_site_label
 _atom_site_symmetry_multiplicity
 _atom_site_fract_x
 _atom_site_fract_y
 _atom_site_fract_z
 _atom_site_occupancy
  Eu  Eu0  1  0.125000  0.125000  0.125000  1
  Eu  Eu1  1  0.125000  0.125000  0.625000  1
  Ho  Ho2  1  0.625000  0.125000  0.125000  1
  Th  Th3  1  0.125000  0.625000  0.125000  1
  Sn  Sn4  1  0.625000  0.625000  0.625000  1
  Sn  Sn5  1  0.125000  0.625000  0.625000  1
  Sn  Sn6  1  0.625000  0.125000  0.625000  1
  Sn  Sn7  1  0.625000  0.625000  0.125000  1
  O  O8  1  0.959645  0.545668  0.961767  1
  O  O9  1  0.703878  0.291159  0.287568  1
  O  O10  1  0.290355  0.704332  0.717081  1
  O  O11  1  0.703878  0.291159  0.717397  1
  O  O12  1  0.290980  0.292538  0.708242  1
  O  O13  1  0.711438  0.711104  0.288729  1
  O  O14  1  0.959020  0.957462  0.541758  1
  O  O15  1  0.546122  0.958841  0.962432  1
  O  O16  1  0.959645  0.545668  0.532919  1
  O  O17  1  0.538562  0.538896  0.961271  1
  O  O18  1  0.290355  0.704332  0.288233  1
  O  O19  1  0.546122  0.958841  0.532603  1
  O  O20  1  0.986738  0.990607  0.011327  1
  O  O21  1  0.263262  0.259393  0.238673  1
