# generated using pymatgen
data_TbHo9ZnSiPb6
_symmetry_space_group_name_H-M   'P 1'
_cell_length_a   9.21043200
_cell_length_b   9.21043192
_cell_length_c   6.68844400
_cell_angle_alpha   90.00000000
_cell_angle_beta   90.00000000
_cell_angle_gamma   120.00000029
_symmetry_Int_Tables_number   1
_chemical_formula_structural   TbHo9ZnSiPb6
_chemical_formula_sum   'Tb1 Ho9 Zn1 Si1 Pb6'
_cell_volume   491.37801659
_cell_formula_units_Z   1
loop_
 _symmetry_equiv_pos_site_id
 _symmetry_equiv_pos_as_xyz
  1  'x, y, z'
loop_
 _atom_site_type_symbol
 _atom_site_label
 _atom_site_symmetry_multiplicity
 _atom_site_fract_x
 _atom_site_fract_y
 _atom_site_fract_z
 _atom_site_occupancy
  Tb  Tb0  1  0.333333  0.666667  0.500000  1
  Ho  Ho1  1  0.254217  0.999709  0.232932  1
  Ho  Ho2  1  0.745493  0.999709  0.767068  1
  Ho  Ho3  1  0.000291  0.254507  0.232932  1
  Ho  Ho4  1  0.000291  0.745783  0.767068  1
  Ho  Ho5  1  0.745493  0.745783  0.232932  1
  Ho  Ho6  1  0.254217  0.254507  0.767068  1
  Ho  Ho7  1  0.333333  0.666667  0.000000  1
  Ho  Ho8  1  0.666667  0.333333  0.000000  1
  Ho  Ho9  1  0.666667  0.333333  0.500000  1
  Zn  Zn10  1  0.000000  0.000000  0.500000  1
  Si  Si11  1  0.000000  0.000000  0.000000  1
  Pb  Pb12  1  0.608638  0.000926  0.248284  1
  Pb  Pb13  1  0.392288  0.000926  0.751716  1
  Pb  Pb14  1  0.999074  0.607712  0.248284  1
  Pb  Pb15  1  0.999074  0.391362  0.751716  1
  Pb  Pb16  1  0.392288  0.391362  0.248284  1
  Pb  Pb17  1  0.608638  0.607712  0.751716  1
