# generated using pymatgen
data_Dy3Y(Er2Os)4
_symmetry_space_group_name_H-M   'P 1'
_cell_length_a   6.28281352
_cell_length_b   7.37860424
_cell_length_c   8.98050300
_cell_angle_alpha   90.00000000
_cell_angle_beta   90.00000000
_cell_angle_gamma   90.09055667
_symmetry_Int_Tables_number   1
_chemical_formula_structural   Dy3Y(Er2Os)4
_chemical_formula_sum   'Dy3 Y1 Er8 Os4'
_cell_volume   416.32118044
_cell_formula_units_Z   1
loop_
 _symmetry_equiv_pos_site_id
 _symmetry_equiv_pos_as_xyz
  1  'x, y, z'
loop_
 _atom_site_type_symbol
 _atom_site_label
 _atom_site_symmetry_multiplicity
 _atom_site_fract_x
 _atom_site_fract_y
 _atom_site_fract_z
 _atom_site_occupancy
  Dy  Dy0  1  0.870217  0.539310  0.250000  1
  Dy  Dy1  1  0.629697  0.039454  0.250000  1
  Dy  Dy2  1  0.129901  0.460480  0.750000  1
  Y  Y3  1  0.370732  0.961293  0.750000  1
  Er  Er4  1  0.332783  0.674757  0.063184  1
  Er  Er5  1  0.167191  0.174604  0.436845  1
  Er  Er6  1  0.667082  0.325252  0.562908  1
  Er  Er7  1  0.832596  0.825159  0.936892  1
  Er  Er8  1  0.667082  0.325252  0.937092  1
  Er  Er9  1  0.832596  0.825159  0.563108  1
  Er  Er10  1  0.332783  0.674757  0.436816  1
  Er  Er11  1  0.167191  0.174604  0.063155  1
  Os  Os12  1  0.041749  0.882842  0.250000  1
  Os  Os13  1  0.458198  0.382863  0.250000  1
  Os  Os14  1  0.958620  0.117155  0.750000  1
  Os  Os15  1  0.541582  0.617062  0.750000  1
