# generated using pymatgen
data_Rb3Si4Au
_symmetry_space_group_name_H-M   'P 1'
_cell_length_a   5.98692700
_cell_length_b   6.99185000
_cell_length_c   12.61706100
_cell_angle_alpha   90.00000000
_cell_angle_beta   90.00000000
_cell_angle_gamma   90.00000000
_symmetry_Int_Tables_number   1
_chemical_formula_structural   Rb3Si4Au
_chemical_formula_sum   'Rb6 Si8 Au2'
_cell_volume   528.14633213
_cell_formula_units_Z   2
loop_
 _symmetry_equiv_pos_site_id
 _symmetry_equiv_pos_as_xyz
  1  'x, y, z'
loop_
 _atom_site_type_symbol
 _atom_site_label
 _atom_site_symmetry_multiplicity
 _atom_site_fract_x
 _atom_site_fract_y
 _atom_site_fract_z
 _atom_site_occupancy
  Rb  Rb0  1  0.841759  0.500000  0.267743  1
  Rb  Rb1  1  0.841759  0.500000  0.732257  1
  Rb  Rb2  1  0.425781  0.500000  0.500000  1
  Rb  Rb3  1  0.158241  0.000000  0.232257  1
  Rb  Rb4  1  0.158241  0.000000  0.767743  1
  Rb  Rb5  1  0.574219  0.000000  0.000000  1
  Si  Si6  1  0.069415  0.315621  0.000000  1
  Si  Si7  1  0.332571  0.500000  0.102546  1
  Si  Si8  1  0.667429  0.000000  0.602546  1
  Si  Si9  1  0.069415  0.684379  0.000000  1
  Si  Si10  1  0.930585  0.815621  0.500000  1
  Si  Si11  1  0.667429  0.000000  0.397454  1
  Si  Si12  1  0.332571  0.500000  0.897454  1
  Si  Si13  1  0.930585  0.184379  0.500000  1
  Au  Au14  1  0.699896  0.500000  0.000000  1
  Au  Au15  1  0.300104  0.000000  0.500000  1
