# generated using pymatgen
data_Y3HoAl18CuRh5
_symmetry_space_group_name_H-M   'P 1'
_cell_length_a   7.56441628
_cell_length_b   7.56393321
_cell_length_c   9.44906406
_cell_angle_alpha   90.08667427
_cell_angle_beta   90.06574494
_cell_angle_gamma   119.60994468
_symmetry_Int_Tables_number   1
_chemical_formula_structural   Y3HoAl18CuRh5
_chemical_formula_sum   'Y3 Ho1 Al18 Cu1 Rh5'
_cell_volume   470.03975854
_cell_formula_units_Z   1
loop_
 _symmetry_equiv_pos_site_id
 _symmetry_equiv_pos_as_xyz
  1  'x, y, z'
loop_
 _atom_site_type_symbol
 _atom_site_label
 _atom_site_symmetry_multiplicity
 _atom_site_fract_x
 _atom_site_fract_y
 _atom_site_fract_z
 _atom_site_occupancy
  Y  Y0  1  0.005051  0.328291  0.750395  1
  Y  Y1  1  0.671803  0.994928  0.249603  1
  Y  Y2  1  0.328177  0.005000  0.750401  1
  Ho  Ho3  1  0.995065  0.671723  0.249759  1
  Al  Al4  1  0.128711  0.128331  0.251477  1
  Al  Al5  1  0.871184  0.871153  0.748490  1
  Al  Al6  1  0.000814  0.338368  0.076777  1
  Al  Al7  1  0.999174  0.662119  0.923894  1
  Al  Al8  1  0.999977  0.665464  0.573394  1
  Al  Al9  1  0.334123  0.999591  0.425956  1
  Al  Al10  1  0.000011  0.334952  0.425944  1
  Al  Al11  1  0.665470  0.999989  0.573774  1
  Al  Al12  1  0.662059  0.999184  0.923506  1
  Al  Al13  1  0.337471  0.000392  0.076751  1
  Al  Al14  1  0.333263  0.333256  0.550949  1
  Al  Al15  1  0.667093  0.666731  0.448744  1
  Al  Al16  1  0.664357  0.663978  0.052732  1
  Al  Al17  1  0.336060  0.336057  0.947579  1
  Al  Al18  1  0.338479  0.549262  0.250443  1
  Al  Al19  1  0.661175  0.450818  0.749549  1
  Al  Al20  1  0.549713  0.339310  0.250448  1
  Al  Al21  1  0.450829  0.661151  0.749549  1
  Cu  Cu22  1  0.999995  0.999859  0.000099  1
  Rh  Rh23  1  0.671989  0.328376  0.000154  1
  Rh  Rh24  1  0.328000  0.671792  0.000162  1
  Rh  Rh25  1  0.328074  0.671773  0.499847  1
  Rh  Rh26  1  0.671929  0.328419  0.499822  1
  Rh  Rh27  1  0.999954  0.999732  0.499800  1
