# generated using pymatgen
data_Hf3Al2InPd3
_symmetry_space_group_name_H-M   'P 1'
_cell_length_a   7.33065708
_cell_length_b   7.28834713
_cell_length_c   7.04125731
_cell_angle_alpha   90.00000194
_cell_angle_beta   89.93183411
_cell_angle_gamma   119.80926783
_symmetry_Int_Tables_number   1
_chemical_formula_structural   Hf3Al2InPd3
_chemical_formula_sum   'Hf6 Al4 In2 Pd6'
_cell_volume   326.42534889
_cell_formula_units_Z   2
loop_
 _symmetry_equiv_pos_site_id
 _symmetry_equiv_pos_as_xyz
  1  'x, y, z'
loop_
 _atom_site_type_symbol
 _atom_site_label
 _atom_site_symmetry_multiplicity
 _atom_site_fract_x
 _atom_site_fract_y
 _atom_site_fract_z
 _atom_site_occupancy
  Hf  Hf0  1  0.613007  0.588955  0.247711  1
  Hf  Hf1  1  0.021039  0.415376  0.752259  1
  Hf  Hf2  1  0.406977  0.016178  0.243899  1
  Hf  Hf3  1  0.978961  0.394336  0.247741  1
  Hf  Hf4  1  0.386993  0.975947  0.752289  1
  Hf  Hf5  1  0.593023  0.609201  0.756101  1
  Al  Al6  1  0.000000  0.748108  0.500000  1
  Al  Al7  1  0.726594  0.002027  0.999541  1
  Al  Al8  1  0.273406  0.275433  0.000459  1
  Al  Al9  1  0.000000  0.720843  0.000000  1
  In  In10  1  0.258709  0.256914  0.500160  1
  In  In11  1  0.741291  0.998206  0.499840  1
  Pd  Pd12  1  0.322359  0.669650  0.465924  1
  Pd  Pd13  1  0.000225  0.991138  0.782222  1
  Pd  Pd14  1  0.999775  0.990912  0.217778  1
  Pd  Pd15  1  0.335541  0.667514  0.031144  1
  Pd  Pd16  1  0.677641  0.347290  0.534076  1
  Pd  Pd17  1  0.664459  0.331971  0.968856  1
