# generated using pymatgen
data_K3Rb5(USe5)2
_symmetry_space_group_name_H-M   'P 1'
_cell_length_a   8.19414521
_cell_length_b   12.07603284
_cell_length_c   8.20483345
_cell_angle_alpha   101.31145374
_cell_angle_beta   102.57058726
_cell_angle_gamma   108.64567991
_symmetry_Int_Tables_number   1
_chemical_formula_structural   K3Rb5(USe5)2
_chemical_formula_sum   'K3 Rb5 U2 Se10'
_cell_volume   719.17503774
_cell_formula_units_Z   1
loop_
 _symmetry_equiv_pos_site_id
 _symmetry_equiv_pos_as_xyz
  1  'x, y, z'
loop_
 _atom_site_type_symbol
 _atom_site_label
 _atom_site_symmetry_multiplicity
 _atom_site_fract_x
 _atom_site_fract_y
 _atom_site_fract_z
 _atom_site_occupancy
  K  K0  1  0.997603  0.499279  0.999147  1
  K  K1  1  0.000505  0.000735  0.500327  1
  K  K2  1  0.584413  0.094862  0.801125  1
  Rb  Rb3  1  0.427710  0.906042  0.212120  1
  Rb  Rb4  1  0.599972  0.597427  0.296548  1
  Rb  Rb5  1  0.797707  0.298635  0.421634  1
  Rb  Rb6  1  0.202118  0.701932  0.578325  1
  Rb  Rb7  1  0.398405  0.400983  0.702658  1
  U  U8  1  0.183579  0.192177  0.096283  1
  U  U9  1  0.815780  0.808262  0.901958  1
  Se  Se10  1  0.505479  0.300295  0.055917  1
  Se  Se11  1  0.849270  0.036546  0.110050  1
  Se  Se12  1  0.981006  0.762655  0.188749  1
  Se  Se13  1  0.176140  0.395819  0.293971  1
  Se  Se14  1  0.351370  0.152353  0.386929  1
  Se  Se15  1  0.646663  0.851954  0.615007  1
  Se  Se16  1  0.824744  0.605737  0.704074  1
  Se  Se17  1  0.012761  0.236460  0.809732  1
  Se  Se18  1  0.150073  0.963547  0.888635  1
  Se  Se19  1  0.494706  0.694299  0.936810  1
