# generated using pymatgen
data_Y4Al17NiPd6
_symmetry_space_group_name_H-M   'P 1'
_cell_length_a   7.60057805
_cell_length_b   7.60057666
_cell_length_c   9.40167500
_cell_angle_alpha   90.00000000
_cell_angle_beta   90.00000000
_cell_angle_gamma   118.59907906
_symmetry_Int_Tables_number   1
_chemical_formula_structural   Y4Al17NiPd6
_chemical_formula_sum   'Y4 Al17 Ni1 Pd6'
_cell_volume   476.85715273
_cell_formula_units_Z   1
loop_
 _symmetry_equiv_pos_site_id
 _symmetry_equiv_pos_as_xyz
  1  'x, y, z'
loop_
 _atom_site_type_symbol
 _atom_site_label
 _atom_site_symmetry_multiplicity
 _atom_site_fract_x
 _atom_site_fract_y
 _atom_site_fract_z
 _atom_site_occupancy
  Y  Y0  1  0.989170  0.676160  0.250000  1
  Y  Y1  1  0.007412  0.324025  0.750000  1
  Y  Y2  1  0.676160  0.989170  0.250000  1
  Y  Y3  1  0.324025  0.007412  0.750000  1
  Al  Al4  1  0.863196  0.863196  0.750000  1
  Al  Al5  1  0.005268  0.327054  0.089444  1
  Al  Al6  1  0.999484  0.660755  0.921317  1
  Al  Al7  1  0.999484  0.660755  0.578683  1
  Al  Al8  1  0.327054  0.005268  0.410556  1
  Al  Al9  1  0.005268  0.327054  0.410556  1
  Al  Al10  1  0.660755  0.999484  0.578683  1
  Al  Al11  1  0.660755  0.999484  0.921317  1
  Al  Al12  1  0.327054  0.005268  0.089444  1
  Al  Al13  1  0.329435  0.329435  0.534022  1
  Al  Al14  1  0.666787  0.666788  0.448115  1
  Al  Al15  1  0.666787  0.666788  0.051885  1
  Al  Al16  1  0.329435  0.329435  0.965978  1
  Al  Al17  1  0.340294  0.545517  0.250000  1
  Al  Al18  1  0.654261  0.446838  0.750000  1
  Al  Al19  1  0.545517  0.340294  0.250000  1
  Al  Al20  1  0.446838  0.654261  0.750000  1
  Ni  Ni21  1  0.175876  0.175876  0.250000  1
  Pd  Pd22  1  0.677886  0.327678  0.000483  1
  Pd  Pd23  1  0.327678  0.677886  0.000483  1
  Pd  Pd24  1  0.327678  0.677886  0.499517  1
  Pd  Pd25  1  0.677886  0.327678  0.499517  1
  Pd  Pd26  1  0.994277  0.994277  0.995009  1
  Pd  Pd27  1  0.994277  0.994277  0.504991  1
