# generated using pymatgen
data_Hf4Pd7Pt4Rh
_symmetry_space_group_name_H-M   'P 1'
_cell_length_a   5.65318340
_cell_length_b   5.67632916
_cell_length_c   9.30798163
_cell_angle_alpha   89.79048407
_cell_angle_beta   89.81579091
_cell_angle_gamma   119.84928384
_symmetry_Int_Tables_number   1
_chemical_formula_structural   Hf4Pd7Pt4Rh
_chemical_formula_sum   'Hf4 Pd7 Pt4 Rh1'
_cell_volume   259.05629043
_cell_formula_units_Z   1
loop_
 _symmetry_equiv_pos_site_id
 _symmetry_equiv_pos_as_xyz
  1  'x, y, z'
loop_
 _atom_site_type_symbol
 _atom_site_label
 _atom_site_symmetry_multiplicity
 _atom_site_fract_x
 _atom_site_fract_y
 _atom_site_fract_z
 _atom_site_occupancy
  Hf  Hf0  1  0.663899  0.326400  0.754212  1
  Hf  Hf1  1  0.336101  0.673600  0.245788  1
  Hf  Hf2  1  0.000000  0.000000  0.500000  1
  Hf  Hf3  1  0.000000  0.000000  0.000000  1
  Pd  Pd4  1  0.168419  0.335804  0.749488  1
  Pd  Pd5  1  0.831559  0.171192  0.250830  1
  Pd  Pd6  1  0.338658  0.171077  0.250602  1
  Pd  Pd7  1  0.661342  0.828923  0.749398  1
  Pd  Pd8  1  0.500000  0.500000  0.500000  1
  Pd  Pd9  1  0.831581  0.664196  0.250512  1
  Pd  Pd10  1  0.168441  0.828808  0.749170  1
  Pt  Pt11  1  0.000000  0.500000  0.500000  1
  Pt  Pt12  1  0.000000  0.500000  0.000000  1
  Pt  Pt13  1  0.500000  0.500000  0.000000  1
  Pt  Pt14  1  0.500000  0.000000  0.500000  1
  Rh  Rh15  1  0.500000  0.000000  0.000000  1
