# generated using pymatgen
data_AgNF34
_symmetry_space_group_name_H-M   'P 1'
_cell_length_a   8.75275505
_cell_length_b   8.04066524
_cell_length_c   9.98869218
_cell_angle_alpha   77.96116992
_cell_angle_beta   90.00006433
_cell_angle_gamma   67.64110994
_symmetry_Int_Tables_number   1
_chemical_formula_structural   AgNF34
_chemical_formula_sum   'Ag1 N1 F34'
_cell_volume   633.38306624
_cell_formula_units_Z   1
loop_
 _symmetry_equiv_pos_site_id
 _symmetry_equiv_pos_as_xyz
  1  'x, y, z'
loop_
 _atom_site_type_symbol
 _atom_site_label
 _atom_site_symmetry_multiplicity
 _atom_site_fract_x
 _atom_site_fract_y
 _atom_site_fract_z
 _atom_site_occupancy
  Ag  Ag0  1  0.894510  0.228771  0.759020  1
  N  N1  1  0.154218  0.775471  0.132932  1
  F  F2  1  0.608758  0.236527  0.481266  1
  F  F3  1  0.395087  0.745454  0.528921  1
  F  F4  1  0.774870  0.702479  0.741033  1
  F  F5  1  0.149860  0.317032  0.283960  1
  F  F6  1  0.084097  0.722505  0.816718  1
  F  F7  1  0.851906  0.284747  0.121124  1
  F  F8  1  0.544145  0.187331  0.368746  1
  F  F9  1  0.420477  0.865940  0.604631  1
  F  F10  1  0.665619  0.323171  0.684347  1
  F  F11  1  0.259202  0.751191  0.241153  1
  F  F12  1  0.958650  0.070465  0.630851  1
  F  F13  1  0.997429  0.889166  0.430319  1
  F  F14  1  0.932035  0.413420  0.622265  1
  F  F15  1  0.082828  0.700032  0.501179  1
  F  F16  1  0.751983  0.871454  0.644492  1
  F  F17  1  0.168816  0.154579  0.384296  1
  F  F18  1  0.832454  0.391996  0.887742  1
  F  F19  1  0.190346  0.611629  0.099734  1
  F  F20  1  0.254120  0.620885  0.799586  1
  F  F21  1  0.839000  0.247684  0.268968  1
  F  F22  1  0.998726  0.836122  0.168335  1
  F  F23  1  0.124355  0.135829  0.835678  1
  F  F24  1  0.858832  0.037852  0.896379  1
  F  F25  1  0.170413  0.899149  0.025276  1
  F  F26  1  0.519327  0.583796  0.011444  1
  F  F27  1  0.510079  0.409868  0.013190  1
  F  F28  1  0.457220  0.099695  0.870449  1
  F  F29  1  0.517512  0.909310  0.153365  1
  F  F30  1  0.293328  0.251430  0.585423  1
  F  F31  1  0.737709  0.731972  0.398394  1
  F  F32  1  0.276142  0.397255  0.652194  1
  F  F33  1  0.757841  0.592055  0.324274  1
  F  F34  1  0.552874  0.911670  0.868523  1
  F  F35  1  0.415231  0.092067  0.163796  1
