# generated using pymatgen
data_Tb2LuGaSi
_symmetry_space_group_name_H-M   'P 1'
_cell_length_a   7.48959100
_cell_length_b   7.50583900
_cell_length_c   4.29746400
_cell_angle_alpha   90.00000000
_cell_angle_beta   90.00000000
_cell_angle_gamma   90.00000000
_symmetry_Int_Tables_number   1
_chemical_formula_structural   Tb2LuGaSi
_chemical_formula_sum   'Tb4 Lu2 Ga2 Si2'
_cell_volume   241.58479323
_cell_formula_units_Z   2
loop_
 _symmetry_equiv_pos_site_id
 _symmetry_equiv_pos_as_xyz
  1  'x, y, z'
loop_
 _atom_site_type_symbol
 _atom_site_label
 _atom_site_symmetry_multiplicity
 _atom_site_fract_x
 _atom_site_fract_y
 _atom_site_fract_z
 _atom_site_occupancy
  Tb  Tb0  1  0.324883  0.177446  0.500000  1
  Tb  Tb1  1  0.824883  0.322553  0.500000  1
  Tb  Tb2  1  0.174802  0.672899  0.500000  1
  Tb  Tb3  1  0.674803  0.827101  0.500000  1
  Lu  Lu4  1  0.997411  0.002351  0.000000  1
  Lu  Lu5  1  0.497411  0.497649  0.000000  1
  Ga  Ga6  1  0.881235  0.619433  0.000000  1
  Ga  Ga7  1  0.381234  0.880567  0.000000  1
  Si  Si8  1  0.621667  0.121666  0.000000  1
  Si  Si9  1  0.121668  0.378334  0.000000  1
