# generated using pymatgen
data_Li3Tb8Hf8Si16Tc
_symmetry_space_group_name_H-M   'P 1'
_cell_length_a   7.28758830
_cell_length_b   7.28758863
_cell_length_c   13.01307909
_cell_angle_alpha   90.14919910
_cell_angle_beta   89.85079979
_cell_angle_gamma   90.13333173
_symmetry_Int_Tables_number   1
_chemical_formula_structural   Li3Tb8Hf8Si16Tc
_chemical_formula_sum   'Li3 Tb8 Hf8 Si16 Tc1'
_cell_volume   691.10436308
_cell_formula_units_Z   1
loop_
 _symmetry_equiv_pos_site_id
 _symmetry_equiv_pos_as_xyz
  1  'x, y, z'
loop_
 _atom_site_type_symbol
 _atom_site_label
 _atom_site_symmetry_multiplicity
 _atom_site_fract_x
 _atom_site_fract_y
 _atom_site_fract_z
 _atom_site_occupancy
  Li  Li0  1  0.821031  0.821031  0.500000  1
  Li  Li1  1  0.318872  0.676791  0.248259  1
  Li  Li2  1  0.676791  0.318872  0.751741  1
  Tb  Tb3  1  0.001605  0.349743  0.213654  1
  Tb  Tb4  1  0.000446  0.649264  0.715155  1
  Tb  Tb5  1  0.148547  0.500083  0.464253  1
  Tb  Tb6  1  0.501137  0.849418  0.036151  1
  Tb  Tb7  1  0.849418  0.501137  0.963849  1
  Tb  Tb8  1  0.500083  0.148547  0.535747  1
  Tb  Tb9  1  0.349743  0.001605  0.786346  1
  Tb  Tb10  1  0.649264  0.000446  0.284845  1
  Hf  Hf11  1  0.140161  0.993854  0.373233  1
  Hf  Hf12  1  0.861462  0.007939  0.876774  1
  Hf  Hf13  1  0.503598  0.638900  0.626615  1
  Hf  Hf14  1  0.359909  0.500632  0.871052  1
  Hf  Hf15  1  0.500632  0.359909  0.128948  1
  Hf  Hf16  1  0.638900  0.503598  0.373385  1
  Hf  Hf17  1  0.993854  0.140161  0.626767  1
  Hf  Hf18  1  0.007939  0.861462  0.123226  1
  Si  Si19  1  0.363128  0.280778  0.323424  1
  Si  Si20  1  0.638808  0.721094  0.821976  1
  Si  Si21  1  0.215947  0.862549  0.570988  1
  Si  Si22  1  0.140377  0.791565  0.928182  1
  Si  Si23  1  0.791565  0.140377  0.071818  1
  Si  Si24  1  0.862549  0.215947  0.429012  1
  Si  Si25  1  0.280778  0.363128  0.676576  1
  Si  Si26  1  0.721094  0.638808  0.178024  1
  Si  Si27  1  0.289482  0.068144  0.180664  1
  Si  Si28  1  0.710577  0.934194  0.685513  1
  Si  Si29  1  0.434380  0.789368  0.435962  1
  Si  Si30  1  0.209087  0.547333  0.060702  1
  Si  Si31  1  0.547333  0.209087  0.939298  1
  Si  Si32  1  0.789368  0.434380  0.564038  1
  Si  Si33  1  0.068144  0.289482  0.819336  1
  Si  Si34  1  0.934194  0.710577  0.314487  1
  Tc  Tc35  1  0.179797  0.179797  0.000000  1
