# generated using pymatgen
data_Ho3LuGa4(NiRu)2
_symmetry_space_group_name_H-M   'P 1'
_cell_length_a   4.16793800
_cell_length_b   6.79049095
_cell_length_c   7.71321775
_cell_angle_alpha   90.40301046
_cell_angle_beta   90.00000000
_cell_angle_gamma   90.00000000
_symmetry_Int_Tables_number   1
_chemical_formula_structural   Ho3LuGa4(NiRu)2
_chemical_formula_sum   'Ho3 Lu1 Ga4 Ni2 Ru2'
_cell_volume   218.29675173
_cell_formula_units_Z   1
loop_
 _symmetry_equiv_pos_site_id
 _symmetry_equiv_pos_as_xyz
  1  'x, y, z'
loop_
 _atom_site_type_symbol
 _atom_site_label
 _atom_site_symmetry_multiplicity
 _atom_site_fract_x
 _atom_site_fract_y
 _atom_site_fract_z
 _atom_site_occupancy
  Ho  Ho0  1  0.250000  0.025697  0.815666  1
  Ho  Ho1  1  0.250000  0.524378  0.683465  1
  Ho  Ho2  1  0.750000  0.978321  0.192630  1
  Lu  Lu3  1  0.750000  0.477704  0.308984  1
  Ga  Ga4  1  0.250000  0.160247  0.440451  1
  Ga  Ga5  1  0.250000  0.659147  0.059241  1
  Ga  Ga6  1  0.750000  0.842137  0.573942  1
  Ga  Ga7  1  0.750000  0.344932  0.926441  1
  Ni  Ni8  1  0.750000  0.223424  0.614352  1
  Ni  Ni9  1  0.750000  0.724285  0.882779  1
  Ru  Ru10  1  0.250000  0.766295  0.385629  1
  Ru  Ru11  1  0.250000  0.273430  0.116422  1
