# generated using pymatgen
data_Sc10CdIn7Co4
_symmetry_space_group_name_H-M   'P 1'
_cell_length_a   3.31037700
_cell_length_b   7.59300665
_cell_length_c   17.38235828
_cell_angle_alpha   89.81029049
_cell_angle_beta   90.00000000
_cell_angle_gamma   90.00000000
_symmetry_Int_Tables_number   1
_chemical_formula_structural   Sc10CdIn7Co4
_chemical_formula_sum   'Sc10 Cd1 In7 Co4'
_cell_volume   436.91560105
_cell_formula_units_Z   1
loop_
 _symmetry_equiv_pos_site_id
 _symmetry_equiv_pos_as_xyz
  1  'x, y, z'
loop_
 _atom_site_type_symbol
 _atom_site_label
 _atom_site_symmetry_multiplicity
 _atom_site_fract_x
 _atom_site_fract_y
 _atom_site_fract_z
 _atom_site_occupancy
  Sc  Sc0  1  0.500000  0.500596  0.500366  1
  Sc  Sc1  1  0.500000  0.999957  0.999823  1
  Sc  Sc2  1  0.500000  0.878307  0.408668  1
  Sc  Sc3  1  0.500000  0.126053  0.590986  1
  Sc  Sc4  1  0.500000  0.624939  0.909984  1
  Sc  Sc5  1  0.500000  0.374706  0.090079  1
  Sc  Sc6  1  0.500000  0.239996  0.278825  1
  Sc  Sc7  1  0.500000  0.758785  0.722088  1
  Sc  Sc8  1  0.500000  0.260574  0.778958  1
  Sc  Sc9  1  0.500000  0.739506  0.221013  1
  Cd  Cd10  1  0.000000  0.202134  0.432572  1
  In  In11  1  0.000000  0.800652  0.567691  1
  In  In12  1  0.000000  0.300439  0.932764  1
  In  In13  1  0.000000  0.698658  0.066953  1
  In  In14  1  0.000000  0.563791  0.349042  1
  In  In15  1  0.000000  0.436217  0.651404  1
  In  In16  1  0.000000  0.936140  0.848752  1
  In  In17  1  0.000000  0.063907  0.151137  1
  Co  Co18  1  0.000000  0.957052  0.303666  1
  Co  Co19  1  0.000000  0.038566  0.695309  1
  Co  Co20  1  0.000000  0.540449  0.804701  1
  Co  Co21  1  0.000000  0.458576  0.195217  1
