# generated using pymatgen
data_Dy10CoHg3
_symmetry_space_group_name_H-M   'P 1'
_cell_length_a   9.62149400
_cell_length_b   9.62149417
_cell_length_c   9.57752600
_cell_angle_alpha   90.00000000
_cell_angle_beta   90.00000000
_cell_angle_gamma   119.99999254
_symmetry_Int_Tables_number   1
_chemical_formula_structural   Dy10CoHg3
_chemical_formula_sum   'Dy20 Co2 Hg6'
_cell_volume   767.83700462
_cell_formula_units_Z   2
loop_
 _symmetry_equiv_pos_site_id
 _symmetry_equiv_pos_as_xyz
  1  'x, y, z'
loop_
 _atom_site_type_symbol
 _atom_site_label
 _atom_site_symmetry_multiplicity
 _atom_site_fract_x
 _atom_site_fract_y
 _atom_site_fract_z
 _atom_site_occupancy
  Dy  Dy0  1  0.000000  0.000000  0.500000  1
  Dy  Dy1  1  0.000000  0.000000  0.000000  1
  Dy  Dy2  1  0.542299  0.457701  0.250000  1
  Dy  Dy3  1  0.542299  0.084599  0.250000  1
  Dy  Dy4  1  0.915401  0.457701  0.250000  1
  Dy  Dy5  1  0.457701  0.542299  0.750000  1
  Dy  Dy6  1  0.457701  0.915401  0.750000  1
  Dy  Dy7  1  0.084599  0.542299  0.750000  1
  Dy  Dy8  1  0.211330  0.788670  0.435543  1
  Dy  Dy9  1  0.211330  0.422661  0.435543  1
  Dy  Dy10  1  0.577339  0.788670  0.435543  1
  Dy  Dy11  1  0.788670  0.211330  0.564457  1
  Dy  Dy12  1  0.788670  0.577339  0.564457  1
  Dy  Dy13  1  0.422661  0.211330  0.564457  1
  Dy  Dy14  1  0.788670  0.211330  0.935543  1
  Dy  Dy15  1  0.788670  0.577339  0.935543  1
  Dy  Dy16  1  0.422661  0.211330  0.935543  1
  Dy  Dy17  1  0.211330  0.788670  0.064457  1
  Dy  Dy18  1  0.211330  0.422661  0.064457  1
  Dy  Dy19  1  0.577339  0.788670  0.064457  1
  Co  Co20  1  0.333333  0.666667  0.250000  1
  Co  Co21  1  0.666667  0.333333  0.750000  1
  Hg  Hg22  1  0.880657  0.119343  0.250000  1
  Hg  Hg23  1  0.880657  0.761314  0.250000  1
  Hg  Hg24  1  0.238686  0.119343  0.250000  1
  Hg  Hg25  1  0.119343  0.880657  0.750000  1
  Hg  Hg26  1  0.119343  0.238686  0.750000  1
  Hg  Hg27  1  0.761314  0.880657  0.750000  1
