# generated using pymatgen
data_Nd2Y6CdNi2Ag
_symmetry_space_group_name_H-M   'P 1'
_cell_length_a   9.60000732
_cell_length_b   9.60000682
_cell_length_c   9.62966500
_cell_angle_alpha   59.89775446
_cell_angle_beta   59.89775621
_cell_angle_gamma   59.94657447
_symmetry_Int_Tables_number   1
_chemical_formula_structural   Nd2Y6CdNi2Ag
_chemical_formula_sum   'Nd4 Y12 Cd2 Ni4 Ag2'
_cell_volume   626.31277382
_cell_formula_units_Z   2
loop_
 _symmetry_equiv_pos_site_id
 _symmetry_equiv_pos_as_xyz
  1  'x, y, z'
loop_
 _atom_site_type_symbol
 _atom_site_label
 _atom_site_symmetry_multiplicity
 _atom_site_fract_x
 _atom_site_fract_y
 _atom_site_fract_z
 _atom_site_occupancy
  Nd  Nd0  1  0.600711  0.600711  0.599578  1
  Nd  Nd1  1  0.600711  0.600711  0.199000  1
  Nd  Nd2  1  0.602285  0.195449  0.601133  1
  Nd  Nd3  1  0.195449  0.602285  0.601133  1
  Y  Y4  1  0.062891  0.437227  0.438258  1
  Y  Y5  1  0.437227  0.062891  0.061624  1
  Y  Y6  1  0.437227  0.062891  0.438258  1
  Y  Y7  1  0.062891  0.437227  0.061624  1
  Y  Y8  1  0.438114  0.438114  0.061886  1
  Y  Y9  1  0.062207  0.062207  0.437793  1
  Y  Y10  1  0.182771  0.814676  0.815629  1
  Y  Y11  1  0.814676  0.182771  0.186924  1
  Y  Y12  1  0.814676  0.182771  0.815629  1
  Y  Y13  1  0.182771  0.814676  0.186924  1
  Y  Y14  1  0.814270  0.814270  0.185730  1
  Y  Y15  1  0.184899  0.184899  0.815101  1
  Cd  Cd16  1  0.831754  0.506992  0.830626  1
  Cd  Cd17  1  0.506992  0.831754  0.830626  1
  Ni  Ni18  1  0.391749  0.391749  0.392586  1
  Ni  Ni19  1  0.391749  0.391749  0.823918  1
  Ni  Ni20  1  0.390668  0.825287  0.392023  1
  Ni  Ni21  1  0.825287  0.390668  0.392023  1
  Ag  Ag22  1  0.834011  0.834011  0.833032  1
  Ag  Ag23  1  0.834011  0.834011  0.498945  1
