# generated using pymatgen
data_LaDy5(WO7)2
_symmetry_space_group_name_H-M   'P 1'
_cell_length_a   6.50768275
_cell_length_b   6.50768274
_cell_length_c   7.55844336
_cell_angle_alpha   89.92594063
_cell_angle_beta   90.07406037
_cell_angle_gamma   108.84378957
_symmetry_Int_Tables_number   1
_chemical_formula_structural   LaDy5(WO7)2
_chemical_formula_sum   'La1 Dy5 W2 O14'
_cell_volume   302.94272158
_cell_formula_units_Z   1
loop_
 _symmetry_equiv_pos_site_id
 _symmetry_equiv_pos_as_xyz
  1  'x, y, z'
loop_
 _atom_site_type_symbol
 _atom_site_label
 _atom_site_symmetry_multiplicity
 _atom_site_fract_x
 _atom_site_fract_y
 _atom_site_fract_z
 _atom_site_occupancy
  La  La0  1  0.503158  0.503158  0.250000  1
  Dy  Dy1  1  0.478086  0.478086  0.750000  1
  Dy  Dy2  1  0.997706  0.467445  0.501284  1
  Dy  Dy3  1  0.533930  0.000867  0.506118  1
  Dy  Dy4  1  0.000867  0.533930  0.993882  1
  Dy  Dy5  1  0.467445  0.997706  0.998716  1
  W  W6  1  0.000143  0.000143  0.250000  1
  W  W7  1  0.999446  0.999446  0.750000  1
  O  O8  1  0.068248  0.319513  0.217586  1
  O  O9  1  0.684253  0.935692  0.782169  1
  O  O10  1  0.935692  0.684253  0.717831  1
  O  O11  1  0.319513  0.068248  0.282414  1
  O  O12  1  0.678562  0.928845  0.221178  1
  O  O13  1  0.080098  0.323724  0.777899  1
  O  O14  1  0.323724  0.080098  0.722101  1
  O  O15  1  0.928845  0.678562  0.278822  1
  O  O16  1  0.364434  0.634869  0.511854  1
  O  O17  1  0.634869  0.364434  0.988146  1
  O  O18  1  0.360375  0.639602  0.989276  1
  O  O19  1  0.639602  0.360375  0.510724  1
  O  O20  1  0.926893  0.074113  0.499908  1
  O  O21  1  0.074113  0.926893  0.000092  1
