# generated using pymatgen
data_Tb2Pr2Nd(Sn5Rh2)2
_symmetry_space_group_name_H-M   'P 1'
_cell_length_a   14.20331600
_cell_length_b   14.20331600
_cell_length_c   4.59392900
_cell_angle_alpha   90.00000000
_cell_angle_beta   90.00000000
_cell_angle_gamma   90.00000000
_symmetry_Int_Tables_number   1
_chemical_formula_structural   Tb2Pr2Nd(Sn5Rh2)2
_chemical_formula_sum   'Tb4 Pr4 Nd2 Sn20 Rh8'
_cell_volume   926.75252458
_cell_formula_units_Z   2
loop_
 _symmetry_equiv_pos_site_id
 _symmetry_equiv_pos_as_xyz
  1  'x, y, z'
loop_
 _atom_site_type_symbol
 _atom_site_label
 _atom_site_symmetry_multiplicity
 _atom_site_fract_x
 _atom_site_fract_y
 _atom_site_fract_z
 _atom_site_occupancy
  Tb  Tb0  1  0.677267  0.177267  0.500000  1
  Tb  Tb1  1  0.322733  0.822733  0.500000  1
  Tb  Tb2  1  0.177267  0.322733  0.500000  1
  Tb  Tb3  1  0.822733  0.677267  0.500000  1
  Pr  Pr4  1  0.888424  0.388424  0.500000  1
  Pr  Pr5  1  0.111576  0.611576  0.500000  1
  Pr  Pr6  1  0.388424  0.111576  0.500000  1
  Pr  Pr7  1  0.611576  0.888424  0.500000  1
  Nd  Nd8  1  0.500000  0.500000  0.000000  1
  Nd  Nd9  1  0.000000  0.000000  0.000000  1
  Sn  Sn10  1  0.570054  0.070054  0.000000  1
  Sn  Sn11  1  0.429946  0.929946  0.000000  1
  Sn  Sn12  1  0.070054  0.429946  0.000000  1
  Sn  Sn13  1  0.929946  0.570054  0.000000  1
  Sn  Sn14  1  0.653691  0.698750  0.000000  1
  Sn  Sn15  1  0.346309  0.301250  0.000000  1
  Sn  Sn16  1  0.153691  0.801250  0.000000  1
  Sn  Sn17  1  0.846309  0.198750  0.000000  1
  Sn  Sn18  1  0.301250  0.653691  0.000000  1
  Sn  Sn19  1  0.698750  0.346309  0.000000  1
  Sn  Sn20  1  0.198750  0.153691  0.000000  1
  Sn  Sn21  1  0.801250  0.846309  0.000000  1
  Sn  Sn22  1  0.663923  0.506108  0.500000  1
  Sn  Sn23  1  0.336077  0.493892  0.500000  1
  Sn  Sn24  1  0.163923  0.993892  0.500000  1
  Sn  Sn25  1  0.836077  0.006108  0.500000  1
  Sn  Sn26  1  0.493892  0.663923  0.500000  1
  Sn  Sn27  1  0.506108  0.336077  0.500000  1
  Sn  Sn28  1  0.006108  0.163923  0.500000  1
  Sn  Sn29  1  0.993892  0.836077  0.500000  1
  Rh  Rh30  1  0.746885  0.530263  0.000000  1
  Rh  Rh31  1  0.253115  0.469737  0.000000  1
  Rh  Rh32  1  0.246885  0.969737  0.000000  1
  Rh  Rh33  1  0.753115  0.030263  0.000000  1
  Rh  Rh34  1  0.469737  0.746885  0.000000  1
  Rh  Rh35  1  0.530263  0.253115  0.000000  1
  Rh  Rh36  1  0.030263  0.246885  0.000000  1
  Rh  Rh37  1  0.969737  0.753115  0.000000  1
