# generated using pymatgen
data_Li2Sc6RuPt3
_symmetry_space_group_name_H-M   'P 1'
_cell_length_a   4.64149900
_cell_length_b   6.65164100
_cell_length_c   13.81089600
_cell_angle_alpha   90.00000000
_cell_angle_beta   90.00022726
_cell_angle_gamma   90.00000000
_symmetry_Int_Tables_number   1
_chemical_formula_structural   Li2Sc6RuPt3
_chemical_formula_sum   'Li4 Sc12 Ru2 Pt6'
_cell_volume   426.39187227
_cell_formula_units_Z   2
loop_
 _symmetry_equiv_pos_site_id
 _symmetry_equiv_pos_as_xyz
  1  'x, y, z'
loop_
 _atom_site_type_symbol
 _atom_site_label
 _atom_site_symmetry_multiplicity
 _atom_site_fract_x
 _atom_site_fract_y
 _atom_site_fract_z
 _atom_site_occupancy
  Li  Li0  1  0.000003  0.000000  0.999455  1
  Li  Li1  1  0.499978  0.500000  0.165953  1
  Li  Li2  1  0.999970  0.000000  0.333979  1
  Li  Li3  1  0.500002  0.500000  0.500527  1
  Sc  Sc4  1  0.500002  0.255422  0.994760  1
  Sc  Sc5  1  0.500002  0.744578  0.994760  1
  Sc  Sc6  1  0.999982  0.248962  0.166985  1
  Sc  Sc7  1  0.999982  0.751037  0.166985  1
  Sc  Sc8  1  0.499987  0.251013  0.332870  1
  Sc  Sc9  1  0.499987  0.748987  0.332870  1
  Sc  Sc10  1  0.000003  0.244572  0.505253  1
  Sc  Sc11  1  0.000003  0.755428  0.505253  1
  Sc  Sc12  1  0.500015  0.245639  0.670969  1
  Sc  Sc13  1  0.500015  0.754361  0.670969  1
  Sc  Sc14  1  0.000009  0.254287  0.829198  1
  Sc  Sc15  1  0.000009  0.745712  0.829198  1
  Ru  Ru16  1  0.000016  0.000000  0.667562  1
  Ru  Ru17  1  0.500026  0.500000  0.832493  1
  Pt  Pt18  1  0.000001  0.500000  0.002285  1
  Pt  Pt19  1  0.499986  0.000000  0.166943  1
  Pt  Pt20  1  0.999987  0.500000  0.332959  1
  Pt  Pt21  1  0.500008  0.000000  0.497682  1
  Pt  Pt22  1  0.000016  0.500000  0.662039  1
  Pt  Pt23  1  0.500013  0.000000  0.838052  1
