# generated using pymatgen
data_Tb3Yb5(Si4Mo3)4
_symmetry_space_group_name_H-M   'P 1'
_cell_length_a   6.74583980
_cell_length_b   6.96119101
_cell_length_c   13.02835926
_cell_angle_alpha   89.94362532
_cell_angle_beta   89.97064901
_cell_angle_gamma   89.96214731
_symmetry_Int_Tables_number   1
_chemical_formula_structural   Tb3Yb5(Si4Mo3)4
_chemical_formula_sum   'Tb3 Yb5 Si16 Mo12'
_cell_volume   611.79924664
_cell_formula_units_Z   1
loop_
 _symmetry_equiv_pos_site_id
 _symmetry_equiv_pos_as_xyz
  1  'x, y, z'
loop_
 _atom_site_type_symbol
 _atom_site_label
 _atom_site_symmetry_multiplicity
 _atom_site_fract_x
 _atom_site_fract_y
 _atom_site_fract_z
 _atom_site_occupancy
  Tb  Tb0  1  0.999953  0.830671  0.593944  1
  Tb  Tb1  1  0.499738  0.331883  0.406858  1
  Tb  Tb2  1  0.999682  0.168303  0.092617  1
  Yb  Yb3  1  0.497981  0.335133  0.090482  1
  Yb  Yb4  1  0.997830  0.166861  0.408006  1
  Yb  Yb5  1  0.501633  0.667335  0.592138  1
  Yb  Yb6  1  0.001767  0.832087  0.907636  1
  Yb  Yb7  1  0.501537  0.666398  0.909446  1
  Si  Si8  1  0.659017  0.042280  0.545335  1
  Si  Si9  1  0.158675  0.458101  0.954096  1
  Si  Si10  1  0.341653  0.957067  0.045683  1
  Si  Si11  1  0.841399  0.542411  0.454335  1
  Si  Si12  1  0.339959  0.956483  0.454440  1
  Si  Si13  1  0.841206  0.544429  0.045478  1
  Si  Si14  1  0.658906  0.041899  0.953988  1
  Si  Si15  1  0.159826  0.456138  0.545291  1
  Si  Si16  1  0.534156  0.371556  0.750066  1
  Si  Si17  1  0.034651  0.128459  0.749873  1
  Si  Si18  1  0.465214  0.631996  0.249177  1
  Si  Si19  1  0.965734  0.869766  0.250368  1
  Si  Si20  1  0.799716  0.628325  0.751285  1
  Si  Si21  1  0.303989  0.869925  0.751439  1
  Si  Si22  1  0.197798  0.371273  0.249843  1
  Si  Si23  1  0.697229  0.129217  0.249741  1
  Mo  Mo24  1  0.833068  0.333297  0.626106  1
  Mo  Mo25  1  0.333287  0.167974  0.873143  1
  Mo  Mo26  1  0.166516  0.666443  0.126419  1
  Mo  Mo27  1  0.667460  0.833349  0.374239  1
  Mo  Mo28  1  0.167258  0.666717  0.373271  1
  Mo  Mo29  1  0.667655  0.834148  0.127201  1
  Mo  Mo30  1  0.834534  0.331316  0.872573  1
  Mo  Mo31  1  0.333408  0.167202  0.626434  1
  Mo  Mo32  1  0.662355  0.007422  0.749605  1
  Mo  Mo33  1  0.161977  0.492507  0.749126  1
  Mo  Mo34  1  0.336413  0.995639  0.250656  1
  Mo  Mo35  1  0.836818  0.505993  0.249665  1
