# generated using pymatgen
data_Th10ZnSn3Sb4
_symmetry_space_group_name_H-M   'P 1'
_cell_length_a   9.59534300
_cell_length_b   9.59534343
_cell_length_c   6.55976100
_cell_angle_alpha   90.00000000
_cell_angle_beta   90.00000000
_cell_angle_gamma   120.00000198
_symmetry_Int_Tables_number   1
_chemical_formula_structural   Th10ZnSn3Sb4
_chemical_formula_sum   'Th10 Zn1 Sn3 Sb4'
_cell_volume   523.04573669
_cell_formula_units_Z   1
loop_
 _symmetry_equiv_pos_site_id
 _symmetry_equiv_pos_as_xyz
  1  'x, y, z'
loop_
 _atom_site_type_symbol
 _atom_site_label
 _atom_site_symmetry_multiplicity
 _atom_site_fract_x
 _atom_site_fract_y
 _atom_site_fract_z
 _atom_site_occupancy
  Th  Th0  1  0.000000  0.724446  0.757081  1
  Th  Th1  1  0.275554  0.275554  0.757081  1
  Th  Th2  1  0.333333  0.666667  0.498409  1
  Th  Th3  1  0.666667  0.333333  0.498409  1
  Th  Th4  1  0.723092  0.723092  0.242492  1
  Th  Th5  1  0.724446  0.000000  0.757081  1
  Th  Th6  1  0.000000  0.276908  0.242492  1
  Th  Th7  1  0.276908  0.000000  0.242492  1
  Th  Th8  1  0.333333  0.666667  0.001015  1
  Th  Th9  1  0.666667  0.333333  0.001015  1
  Zn  Zn10  1  0.000000  0.000000  0.002406  1
  Sn  Sn11  1  0.620694  0.000000  0.250945  1
  Sn  Sn12  1  0.379306  0.379306  0.250945  1
  Sn  Sn13  1  0.000000  0.620694  0.250945  1
  Sb  Sb14  1  0.619387  0.619387  0.749230  1
  Sb  Sb15  1  0.000000  0.380613  0.749230  1
  Sb  Sb16  1  0.380613  0.000000  0.749230  1
  Sb  Sb17  1  0.000000  0.000000  0.499499  1
