# generated using pymatgen
data_Ba6TmMn3NiO15
_symmetry_space_group_name_H-M   'P 1'
_cell_length_a   7.38581967
_cell_length_b   7.33635977
_cell_length_c   7.36536147
_cell_angle_alpha   88.29550694
_cell_angle_beta   87.96135966
_cell_angle_gamma   87.74149538
_symmetry_Int_Tables_number   1
_chemical_formula_structural   Ba6TmMn3NiO15
_chemical_formula_sum   'Ba6 Tm1 Mn3 Ni1 O15'
_cell_volume   398.36935877
_cell_formula_units_Z   1
loop_
 _symmetry_equiv_pos_site_id
 _symmetry_equiv_pos_as_xyz
  1  'x, y, z'
loop_
 _atom_site_type_symbol
 _atom_site_label
 _atom_site_symmetry_multiplicity
 _atom_site_fract_x
 _atom_site_fract_y
 _atom_site_fract_z
 _atom_site_occupancy
  Ba  Ba0  1  0.326704  0.672193  0.999389  1
  Ba  Ba1  1  0.998832  0.326291  0.673318  1
  Ba  Ba2  1  0.672587  0.998335  0.325095  1
  Ba  Ba3  1  0.139311  0.859757  0.504065  1
  Ba  Ba4  1  0.503244  0.138583  0.857595  1
  Ba  Ba5  1  0.858676  0.507270  0.141013  1
  Tm  Tm6  1  0.502310  0.499420  0.500500  1
  Mn  Mn7  1  0.288752  0.291502  0.290313  1
  Mn  Mn8  1  0.708999  0.714263  0.711805  1
  Mn  Mn9  1  0.095956  0.090260  0.094015  1
  Ni  Ni10  1  0.905566  0.904185  0.903105  1
  O  O11  1  0.157946  0.003147  0.857746  1
  O  O12  1  0.857583  0.140386  0.998349  1
  O  O13  1  0.007497  0.854844  0.155779  1
  O  O14  1  0.036534  0.199325  0.332070  1
  O  O15  1  0.331684  0.038442  0.198306  1
  O  O16  1  0.194068  0.332588  0.038443  1
  O  O17  1  0.795901  0.963725  0.658243  1
  O  O18  1  0.657189  0.798503  0.961666  1
  O  O19  1  0.960905  0.670772  0.803528  1
  O  O20  1  0.367151  0.231829  0.531798  1
  O  O21  1  0.531499  0.367806  0.229750  1
  O  O22  1  0.231707  0.533385  0.369942  1
  O  O23  1  0.769169  0.629650  0.467044  1
  O  O24  1  0.466264  0.767737  0.629924  1
  O  O25  1  0.633966  0.465808  0.767201  1
