# generated using pymatgen
data_Zr3Zn2AuC
_symmetry_space_group_name_H-M   'P 1'
_cell_length_a   8.74546177
_cell_length_b   8.74546121
_cell_length_c   8.74546300
_cell_angle_alpha   59.99999700
_cell_angle_beta   59.99999915
_cell_angle_gamma   59.99999947
_symmetry_Int_Tables_number   1
_chemical_formula_structural   Zr3Zn2AuC
_chemical_formula_sum   'Zr12 Zn8 Au4 C4'
_cell_volume   472.96963343
_cell_formula_units_Z   4
loop_
 _symmetry_equiv_pos_site_id
 _symmetry_equiv_pos_as_xyz
  1  'x, y, z'
loop_
 _atom_site_type_symbol
 _atom_site_label
 _atom_site_symmetry_multiplicity
 _atom_site_fract_x
 _atom_site_fract_y
 _atom_site_fract_z
 _atom_site_occupancy
  Zr  Zr0  1  0.437689  0.437689  0.062311  1
  Zr  Zr1  1  0.062311  0.437689  0.062311  1
  Zr  Zr2  1  0.437689  0.062311  0.062311  1
  Zr  Zr3  1  0.062311  0.062311  0.437689  1
  Zr  Zr4  1  0.437689  0.062311  0.437689  1
  Zr  Zr5  1  0.062311  0.437689  0.437689  1
  Zr  Zr6  1  0.812311  0.812311  0.187689  1
  Zr  Zr7  1  0.187689  0.812311  0.187689  1
  Zr  Zr8  1  0.812311  0.187689  0.187689  1
  Zr  Zr9  1  0.187689  0.187689  0.812311  1
  Zr  Zr10  1  0.812311  0.187689  0.812311  1
  Zr  Zr11  1  0.187689  0.812311  0.812311  1
  Zn  Zn12  1  0.833530  0.833530  0.499410  1
  Zn  Zn13  1  0.833530  0.499410  0.833530  1
  Zn  Zn14  1  0.499410  0.833530  0.833530  1
  Zn  Zn15  1  0.833530  0.833530  0.833530  1
  Zn  Zn16  1  0.416470  0.416470  0.750590  1
  Zn  Zn17  1  0.416470  0.750590  0.416470  1
  Zn  Zn18  1  0.750590  0.416470  0.416470  1
  Zn  Zn19  1  0.416470  0.416470  0.416470  1
  Au  Au20  1  0.625000  0.625000  0.125000  1
  Au  Au21  1  0.625000  0.125000  0.625000  1
  Au  Au22  1  0.125000  0.625000  0.625000  1
  Au  Au23  1  0.625000  0.625000  0.625000  1
  C  C24  1  0.125000  0.125000  0.625000  1
  C  C25  1  0.125000  0.625000  0.125000  1
  C  C26  1  0.625000  0.125000  0.125000  1
  C  C27  1  0.125000  0.125000  0.125000  1
