# generated using pymatgen
data_KFe3Sb12Au
_symmetry_space_group_name_H-M   'P 1'
_cell_length_a   8.09909737
_cell_length_b   8.09909649
_cell_length_c   8.09909715
_cell_angle_alpha   109.63596785
_cell_angle_beta   109.63596494
_cell_angle_gamma   109.63598099
_symmetry_Int_Tables_number   1
_chemical_formula_structural   KFe3Sb12Au
_chemical_formula_sum   'K1 Fe3 Sb12 Au1'
_cell_volume   406.45294448
_cell_formula_units_Z   1
loop_
 _symmetry_equiv_pos_site_id
 _symmetry_equiv_pos_as_xyz
  1  'x, y, z'
loop_
 _atom_site_type_symbol
 _atom_site_label
 _atom_site_symmetry_multiplicity
 _atom_site_fract_x
 _atom_site_fract_y
 _atom_site_fract_z
 _atom_site_occupancy
  K  K0  1  0.000000  0.000000  0.000000  1
  Fe  Fe1  1  0.500000  0.000000  0.000000  1
  Fe  Fe2  1  0.000000  0.500000  0.000000  1
  Fe  Fe3  1  0.000000  0.000000  0.500000  1
  Sb  Sb4  1  0.860959  0.669407  0.498712  1
  Sb  Sb5  1  0.139041  0.330593  0.501288  1
  Sb  Sb6  1  0.163769  0.667817  0.829830  1
  Sb  Sb7  1  0.836231  0.332183  0.170170  1
  Sb  Sb8  1  0.669407  0.498712  0.860959  1
  Sb  Sb9  1  0.330593  0.501288  0.139041  1
  Sb  Sb10  1  0.667817  0.829830  0.163769  1
  Sb  Sb11  1  0.332183  0.170170  0.836231  1
  Sb  Sb12  1  0.498712  0.860959  0.669407  1
  Sb  Sb13  1  0.501288  0.139041  0.330593  1
  Sb  Sb14  1  0.170170  0.836231  0.332183  1
  Sb  Sb15  1  0.829830  0.163769  0.667817  1
  Au  Au16  1  0.500000  0.500000  0.500000  1
