# generated using pymatgen
data_CeSmPu2(TcB6)2
_symmetry_space_group_name_H-M   'P 1'
_cell_length_a   3.72740700
_cell_length_b   9.28847857
_cell_length_c   11.43539170
_cell_angle_alpha   90.03999969
_cell_angle_beta   90.00000000
_cell_angle_gamma   90.00000000
_symmetry_Int_Tables_number   1
_chemical_formula_structural   CeSmPu2(TcB6)2
_chemical_formula_sum   'Ce2 Sm2 Pu4 Tc4 B24'
_cell_volume   395.91534901
_cell_formula_units_Z   2
loop_
 _symmetry_equiv_pos_site_id
 _symmetry_equiv_pos_as_xyz
  1  'x, y, z'
loop_
 _atom_site_type_symbol
 _atom_site_label
 _atom_site_symmetry_multiplicity
 _atom_site_fract_x
 _atom_site_fract_y
 _atom_site_fract_z
 _atom_site_occupancy
  Ce  Ce0  1  0.000000  0.834224  0.091335  1
  Ce  Ce1  1  0.000000  0.165776  0.908665  1
  Sm  Sm2  1  0.000000  0.335383  0.409219  1
  Sm  Sm3  1  0.000000  0.664617  0.590781  1
  Pu  Pu4  1  0.000000  0.953608  0.387769  1
  Pu  Pu5  1  0.000000  0.046392  0.612231  1
  Pu  Pu6  1  0.000000  0.454029  0.112252  1
  Pu  Pu7  1  0.000000  0.545971  0.887748  1
  Tc  Tc8  1  0.000000  0.647015  0.317005  1
  Tc  Tc9  1  0.000000  0.352985  0.682995  1
  Tc  Tc10  1  0.000000  0.144340  0.179860  1
  Tc  Tc11  1  0.000000  0.855660  0.820140  1
  B  B12  1  0.500000  0.555482  0.430155  1
  B  B13  1  0.500000  0.444518  0.569845  1
  B  B14  1  0.500000  0.054802  0.069605  1
  B  B15  1  0.500000  0.945198  0.930395  1
  B  B16  1  0.500000  0.747379  0.420398  1
  B  B17  1  0.500000  0.252621  0.579602  1
  B  B18  1  0.500000  0.246318  0.079349  1
  B  B19  1  0.500000  0.753682  0.920651  1
  B  B20  1  0.500000  0.801692  0.271037  1
  B  B21  1  0.500000  0.198308  0.728963  1
  B  B22  1  0.500000  0.301020  0.228468  1
  B  B23  1  0.500000  0.698980  0.771532  1
  B  B24  1  0.500000  0.641540  0.187093  1
  B  B25  1  0.500000  0.358460  0.812907  1
  B  B26  1  0.500000  0.140517  0.312880  1
  B  B27  1  0.500000  0.859483  0.687120  1
  B  B28  1  0.500000  0.989007  0.218184  1
  B  B29  1  0.500000  0.010993  0.781816  1
  B  B30  1  0.500000  0.489604  0.281580  1
  B  B31  1  0.500000  0.510396  0.718420  1
  B  B32  1  0.500000  0.633316  0.035976  1
  B  B33  1  0.500000  0.366684  0.964024  1
  B  B34  1  0.500000  0.129952  0.464594  1
  B  B35  1  0.500000  0.870048  0.535406  1
