# generated using pymatgen
data_Ca9LuSi6F
_symmetry_space_group_name_H-M   'P 1'
_cell_length_a   9.03238890
_cell_length_b   9.01408987
_cell_length_c   9.03312174
_cell_angle_alpha   130.14858439
_cell_angle_beta   130.20141556
_cell_angle_gamma   73.04310651
_symmetry_Int_Tables_number   1
_chemical_formula_structural   Ca9LuSi6F
_chemical_formula_sum   'Ca9 Lu1 Si6 F1'
_cell_volume   419.49318069
_cell_formula_units_Z   1
loop_
 _symmetry_equiv_pos_site_id
 _symmetry_equiv_pos_as_xyz
  1  'x, y, z'
loop_
 _atom_site_type_symbol
 _atom_site_label
 _atom_site_symmetry_multiplicity
 _atom_site_fract_x
 _atom_site_fract_y
 _atom_site_fract_z
 _atom_site_occupancy
  Ca  Ca0  1  0.432755  0.774417  0.000002  1
  Ca  Ca1  1  0.929847  0.932016  0.644349  1
  Ca  Ca2  1  0.285499  0.287667  0.355652  1
  Ca  Ca3  1  0.711593  0.066356  0.999998  1
  Ca  Ca4  1  0.067147  0.713225  0.000001  1
  Ca  Ca5  1  0.566237  0.565335  0.337869  1
  Ca  Ca6  1  0.228371  0.227469  0.662142  1
  Ca  Ca7  1  0.250929  0.750445  0.503207  1
  Ca  Ca8  1  0.747715  0.247236  0.496790  1
  Lu  Lu9  1  0.774343  0.437049  0.999995  1
  Si  Si10  1  0.992992  0.496036  0.481088  1
  Si  Si11  1  0.511908  0.014948  0.518915  1
  Si  Si12  1  0.126893  0.366190  0.999998  1
  Si  Si13  1  0.356304  0.136036  0.000003  1
  Si  Si14  1  0.865733  0.856894  0.226386  1
  Si  Si15  1  0.639345  0.630506  0.773609  1
  F  F16  1  0.512388  0.498174  0.999995  1
