# generated using pymatgen
data_Hf4GeAsRh10
_symmetry_space_group_name_H-M   'P 1'
_cell_length_a   4.05616000
_cell_length_b   5.60314482
_cell_length_c   10.92170149
_cell_angle_alpha   90.15071686
_cell_angle_beta   90.00000000
_cell_angle_gamma   90.00000000
_symmetry_Int_Tables_number   1
_chemical_formula_structural   Hf4GeAsRh10
_chemical_formula_sum   'Hf4 Ge1 As1 Rh10'
_cell_volume   248.21940227
_cell_formula_units_Z   1
loop_
 _symmetry_equiv_pos_site_id
 _symmetry_equiv_pos_as_xyz
  1  'x, y, z'
loop_
 _atom_site_type_symbol
 _atom_site_label
 _atom_site_symmetry_multiplicity
 _atom_site_fract_x
 _atom_site_fract_y
 _atom_site_fract_z
 _atom_site_occupancy
  Hf  Hf0  1  0.500000  0.174119  0.643378  1
  Hf  Hf1  1  0.500000  0.825881  0.356622  1
  Hf  Hf2  1  0.500000  0.677121  0.859573  1
  Hf  Hf3  1  0.500000  0.322879  0.140427  1
  Ge  Ge4  1  0.000000  0.000000  0.000000  1
  As  As5  1  0.000000  0.500000  0.500000  1
  Rh  Rh6  1  0.500000  0.187234  0.892901  1
  Rh  Rh7  1  0.500000  0.812766  0.107099  1
  Rh  Rh8  1  0.500000  0.686760  0.606198  1
  Rh  Rh9  1  0.500000  0.313240  0.393802  1
  Rh  Rh10  1  0.000000  0.430262  0.742923  1
  Rh  Rh11  1  0.000000  0.569738  0.257077  1
  Rh  Rh12  1  0.000000  0.000000  0.500000  1
  Rh  Rh13  1  0.000000  0.500000  0.000000  1
  Rh  Rh14  1  0.000000  0.069399  0.243855  1
  Rh  Rh15  1  0.000000  0.930601  0.756145  1
