# generated using pymatgen
data_DyHo4Ta2BiO14
_symmetry_space_group_name_H-M   'P 1'
_cell_length_a   6.51479184
_cell_length_b   6.51479099
_cell_length_c   7.49888106
_cell_angle_alpha   90.11488906
_cell_angle_beta   89.88511256
_cell_angle_gamma   108.13935711
_symmetry_Int_Tables_number   1
_chemical_formula_structural   DyHo4Ta2BiO14
_chemical_formula_sum   'Dy1 Ho4 Ta2 Bi1 O14'
_cell_volume   302.45297000
_cell_formula_units_Z   1
loop_
 _symmetry_equiv_pos_site_id
 _symmetry_equiv_pos_as_xyz
  1  'x, y, z'
loop_
 _atom_site_type_symbol
 _atom_site_label
 _atom_site_symmetry_multiplicity
 _atom_site_fract_x
 _atom_site_fract_y
 _atom_site_fract_z
 _atom_site_occupancy
  Dy  Dy0  1  0.457864  0.457864  0.000000  1
  Ho  Ho1  1  0.999643  0.535969  0.238127  1
  Ho  Ho2  1  0.999813  0.465085  0.743919  1
  Ho  Ho3  1  0.535969  0.999643  0.761873  1
  Ho  Ho4  1  0.465085  0.999813  0.256081  1
  Ta  Ta5  1  0.006151  0.006151  0.500000  1
  Ta  Ta6  1  0.997512  0.997512  0.000000  1
  Bi  Bi7  1  0.537997  0.537997  0.500000  1
  O  O8  1  0.932247  0.068580  0.749774  1
  O  O9  1  0.068580  0.932247  0.250226  1
  O  O10  1  0.356721  0.644676  0.238830  1
  O  O11  1  0.644676  0.356721  0.761170  1
  O  O12  1  0.367507  0.634939  0.761897  1
  O  O13  1  0.634939  0.367507  0.238103  1
  O  O14  1  0.327471  0.081075  0.976040  1
  O  O15  1  0.671471  0.919081  0.475219  1
  O  O16  1  0.304949  0.041159  0.546927  1
  O  O17  1  0.695045  0.955045  0.045550  1
  O  O18  1  0.041159  0.304949  0.453073  1
  O  O19  1  0.955045  0.695045  0.954450  1
  O  O20  1  0.919081  0.671471  0.524781  1
  O  O21  1  0.081075  0.327471  0.023960  1
