# generated using pymatgen
data_Ti11V8Si16W
_symmetry_space_group_name_H-M   'P 1'
_cell_length_a   6.53534919
_cell_length_b   6.53534919
_cell_length_c   12.05389668
_cell_angle_alpha   90.04279766
_cell_angle_beta   89.95720234
_cell_angle_gamma   89.94588020
_symmetry_Int_Tables_number   1
_chemical_formula_structural   Ti11V8Si16W
_chemical_formula_sum   'Ti11 V8 Si16 W1'
_cell_volume   514.83092028
_cell_formula_units_Z   1
loop_
 _symmetry_equiv_pos_site_id
 _symmetry_equiv_pos_as_xyz
  1  'x, y, z'
loop_
 _atom_site_type_symbol
 _atom_site_label
 _atom_site_symmetry_multiplicity
 _atom_site_fract_x
 _atom_site_fract_y
 _atom_site_fract_z
 _atom_site_occupancy
  Ti  Ti0  1  0.006386  0.339191  0.220188  1
  Ti  Ti1  1  0.160459  0.504260  0.470248  1
  Ti  Ti2  1  0.838905  0.495260  0.970538  1
  Ti  Ti3  1  0.504260  0.160459  0.529752  1
  Ti  Ti4  1  0.495260  0.838905  0.029462  1
  Ti  Ti5  1  0.995870  0.661193  0.720319  1
  Ti  Ti6  1  0.339191  0.006386  0.779812  1
  Ti  Ti7  1  0.661193  0.995870  0.279681  1
  Ti  Ti8  1  0.334068  0.665083  0.249950  1
  Ti  Ti9  1  0.665083  0.334068  0.750050  1
  Ti  Ti10  1  0.834342  0.834342  0.500000  1
  V  V11  1  0.994441  0.155612  0.621846  1
  V  V12  1  0.344309  0.494029  0.871661  1
  V  V13  1  0.655587  0.506165  0.371840  1
  V  V14  1  0.494029  0.344309  0.128339  1
  V  V15  1  0.506165  0.655587  0.628160  1
  V  V16  1  0.006163  0.842996  0.121365  1
  V  V17  1  0.155612  0.994441  0.378154  1
  V  V18  1  0.842996  0.006163  0.878635  1
  Si  Si19  1  0.040428  0.298830  0.811895  1
  Si  Si20  1  0.203081  0.541946  0.062674  1
  Si  Si21  1  0.798337  0.458509  0.562624  1
  Si  Si22  1  0.541946  0.203081  0.937326  1
  Si  Si23  1  0.458509  0.798337  0.437376  1
  Si  Si24  1  0.958758  0.701703  0.312881  1
  Si  Si25  1  0.298830  0.040428  0.188105  1
  Si  Si26  1  0.701703  0.958758  0.687119  1
  Si  Si27  1  0.290905  0.368018  0.671847  1
  Si  Si28  1  0.131089  0.790056  0.921103  1
  Si  Si29  1  0.868136  0.209161  0.422570  1
  Si  Si30  1  0.790056  0.131089  0.078897  1
  Si  Si31  1  0.209161  0.868136  0.577430  1
  Si  Si32  1  0.709317  0.631394  0.172907  1
  Si  Si33  1  0.368018  0.290905  0.328153  1
  Si  Si34  1  0.631394  0.709317  0.827093  1
  W  W35  1  0.166012  0.166012  0.000000  1
