# generated using pymatgen
data_Y8SiPdPt23
_symmetry_space_group_name_H-M   'P 1'
_cell_length_a   8.34428800
_cell_length_b   8.34428800
_cell_length_c   8.35234100
_cell_angle_alpha   90.00000000
_cell_angle_beta   90.00000000
_cell_angle_gamma   90.00000000
_symmetry_Int_Tables_number   1
_chemical_formula_structural   Y8SiPdPt23
_chemical_formula_sum   'Y8 Si1 Pd1 Pt23'
_cell_volume   581.54963473
_cell_formula_units_Z   1
loop_
 _symmetry_equiv_pos_site_id
 _symmetry_equiv_pos_as_xyz
  1  'x, y, z'
loop_
 _atom_site_type_symbol
 _atom_site_label
 _atom_site_symmetry_multiplicity
 _atom_site_fract_x
 _atom_site_fract_y
 _atom_site_fract_z
 _atom_site_occupancy
  Y  Y0  1  0.252370  0.252370  0.252394  1
  Y  Y1  1  0.747224  0.747224  0.746953  1
  Y  Y2  1  0.747630  0.747630  0.252394  1
  Y  Y3  1  0.747224  0.252776  0.746953  1
  Y  Y4  1  0.252776  0.252776  0.746953  1
  Y  Y5  1  0.252370  0.747630  0.252394  1
  Y  Y6  1  0.252776  0.747224  0.746953  1
  Y  Y7  1  0.747630  0.252370  0.252394  1
  Si  Si8  1  0.000000  0.000000  0.005141  1
  Pd  Pd9  1  0.000000  0.000000  0.720123  1
  Pt  Pt10  1  0.258239  0.500000  0.999928  1
  Pt  Pt11  1  0.741761  0.500000  0.999928  1
  Pt  Pt12  1  0.000000  0.258214  0.500112  1
  Pt  Pt13  1  0.500000  0.258239  0.999928  1
  Pt  Pt14  1  0.000000  0.741786  0.500112  1
  Pt  Pt15  1  0.500000  0.741761  0.999928  1
  Pt  Pt16  1  0.500000  0.000000  0.257472  1
  Pt  Pt17  1  0.258214  0.000000  0.500112  1
  Pt  Pt18  1  0.500000  0.000000  0.740928  1
  Pt  Pt19  1  0.741786  0.000000  0.500112  1
  Pt  Pt20  1  0.000000  0.500000  0.257472  1
  Pt  Pt21  1  0.000000  0.500000  0.740928  1
  Pt  Pt22  1  0.252352  0.500000  0.499693  1
  Pt  Pt23  1  0.747648  0.500000  0.499693  1
  Pt  Pt24  1  0.500000  0.252352  0.499693  1
  Pt  Pt25  1  0.500000  0.747648  0.499693  1
  Pt  Pt26  1  0.500000  0.500000  0.252407  1
  Pt  Pt27  1  0.500000  0.500000  0.747549  1
  Pt  Pt28  1  0.282224  0.000000  0.998713  1
  Pt  Pt29  1  0.717776  0.000000  0.998713  1
  Pt  Pt30  1  0.000000  0.282224  0.998713  1
  Pt  Pt31  1  0.000000  0.717776  0.998713  1
  Pt  Pt32  1  0.000000  0.000000  0.286806  1
