# generated using pymatgen
data_Dy15HoCd4Ru3Rh
_symmetry_space_group_name_H-M   'P 1'
_cell_length_a   9.62498369
_cell_length_b   9.62498297
_cell_length_c   9.62198881
_cell_angle_alpha   59.87393412
_cell_angle_beta   59.87394001
_cell_angle_gamma   59.87839459
_symmetry_Int_Tables_number   1
_chemical_formula_structural   Dy15HoCd4Ru3Rh
_chemical_formula_sum   'Dy15 Ho1 Cd4 Ru3 Rh1'
_cell_volume   628.52198022
_cell_formula_units_Z   1
loop_
 _symmetry_equiv_pos_site_id
 _symmetry_equiv_pos_as_xyz
  1  'x, y, z'
loop_
 _atom_site_type_symbol
 _atom_site_label
 _atom_site_symmetry_multiplicity
 _atom_site_fract_x
 _atom_site_fract_y
 _atom_site_fract_z
 _atom_site_occupancy
  Dy  Dy0  1  0.938188  0.938188  0.561274  1
  Dy  Dy1  1  0.562013  0.562013  0.935866  1
  Dy  Dy2  1  0.688988  0.688988  0.311892  1
  Dy  Dy3  1  0.151616  0.543303  0.151687  1
  Dy  Dy4  1  0.688758  0.311862  0.689015  1
  Dy  Dy5  1  0.152159  0.152159  0.151917  1
  Dy  Dy6  1  0.543303  0.151616  0.151687  1
  Dy  Dy7  1  0.691210  0.311123  0.311305  1
  Dy  Dy8  1  0.151711  0.151711  0.543335  1
  Dy  Dy9  1  0.311123  0.691210  0.311305  1
  Dy  Dy10  1  0.311862  0.688758  0.689015  1
  Dy  Dy11  1  0.936035  0.561913  0.562054  1
  Dy  Dy12  1  0.938338  0.561215  0.938080  1
  Dy  Dy13  1  0.561913  0.936035  0.562054  1
  Dy  Dy14  1  0.561215  0.938338  0.938080  1
  Ho  Ho15  1  0.311180  0.311180  0.691157  1
  Cd  Cd16  1  0.919778  0.919778  0.241488  1
  Cd  Cd17  1  0.241472  0.919878  0.919741  1
  Cd  Cd18  1  0.919516  0.919516  0.919547  1
  Cd  Cd19  1  0.919878  0.241472  0.919741  1
  Ru  Ru20  1  0.359172  0.359172  0.921518  1
  Ru  Ru21  1  0.359177  0.921632  0.359126  1
  Ru  Ru22  1  0.921632  0.359177  0.359126  1
  Rh  Rh23  1  0.359758  0.359758  0.359985  1
