# generated using pymatgen
data_Ba4TbNp3O12
_symmetry_space_group_name_H-M   'P 1'
_cell_length_a   6.13944323
_cell_length_b   6.28242334
_cell_length_c   8.75745600
_cell_angle_alpha   89.95058777
_cell_angle_beta   90.11893227
_cell_angle_gamma   90.00054033
_symmetry_Int_Tables_number   1
_chemical_formula_structural   Ba4TbNp3O12
_chemical_formula_sum   'Ba4 Tb1 Np3 O12'
_cell_volume   337.77931618
_cell_formula_units_Z   1
loop_
 _symmetry_equiv_pos_site_id
 _symmetry_equiv_pos_as_xyz
  1  'x, y, z'
loop_
 _atom_site_type_symbol
 _atom_site_label
 _atom_site_symmetry_multiplicity
 _atom_site_fract_x
 _atom_site_fract_y
 _atom_site_fract_z
 _atom_site_occupancy
  Ba  Ba0  1  0.995247  0.023596  0.254386  1
  Ba  Ba1  1  0.491902  0.477602  0.745901  1
  Ba  Ba2  1  0.508098  0.522398  0.254099  1
  Ba  Ba3  1  0.004753  0.976404  0.745614  1
  Tb  Tb4  1  0.500000  0.000000  0.500000  1
  Np  Np5  1  0.500000  0.000000  0.000000  1
  Np  Np6  1  0.000000  0.500000  0.000000  1
  Np  Np7  1  0.000000  0.500000  0.500000  1
  O  O8  1  0.216846  0.231015  0.534051  1
  O  O9  1  0.731334  0.283323  0.466622  1
  O  O10  1  0.274224  0.717060  0.962913  1
  O  O11  1  0.776899  0.781117  0.036059  1
  O  O12  1  0.783154  0.768985  0.465949  1
  O  O13  1  0.268666  0.716677  0.533378  1
  O  O14  1  0.725776  0.282940  0.037087  1
  O  O15  1  0.223101  0.218883  0.963941  1
  O  O16  1  0.066470  0.486647  0.244546  1
  O  O17  1  0.563912  0.014858  0.757664  1
  O  O18  1  0.436088  0.985142  0.242336  1
  O  O19  1  0.933530  0.513353  0.755454  1
