# generated using pymatgen
data_Nd5Sm2FeBr12
_symmetry_space_group_name_H-M   'P 1'
_cell_length_a   9.55073030
_cell_length_b   9.38079085
_cell_length_c   9.56132098
_cell_angle_alpha   106.82905855
_cell_angle_beta   106.87159375
_cell_angle_gamma   106.69854941
_symmetry_Int_Tables_number   1
_chemical_formula_structural   Nd5Sm2FeBr12
_chemical_formula_sum   'Nd5 Sm2 Fe1 Br12'
_cell_volume   717.27105658
_cell_formula_units_Z   1
loop_
 _symmetry_equiv_pos_site_id
 _symmetry_equiv_pos_as_xyz
  1  'x, y, z'
loop_
 _atom_site_type_symbol
 _atom_site_label
 _atom_site_symmetry_multiplicity
 _atom_site_fract_x
 _atom_site_fract_y
 _atom_site_fract_z
 _atom_site_occupancy
  Nd  Nd0  1  0.520642  0.601778  0.809787  1
  Nd  Nd1  1  0.189307  0.480042  0.398738  1
  Nd  Nd2  1  0.478409  0.398914  0.190380  1
  Nd  Nd3  1  0.596849  0.796806  0.522882  1
  Nd  Nd4  1  0.404598  0.204073  0.477821  1
  Sm  Sm5  1  0.806133  0.520370  0.600054  1
  Sm  Sm6  1  0.001084  0.998952  0.000050  1
  Fe  Fe7  1  0.500076  0.500480  0.499958  1
  Br  Br8  1  0.723833  0.185475  0.572310  1
  Br  Br9  1  0.960367  0.881155  0.669991  1
  Br  Br10  1  0.574285  0.724926  0.185732  1
  Br  Br11  1  0.115948  0.332346  0.038052  1
  Br  Br12  1  0.672810  0.964841  0.885509  1
  Br  Br13  1  0.882953  0.664246  0.957630  1
  Br  Br14  1  0.039960  0.114464  0.329464  1
  Br  Br15  1  0.817540  0.427826  0.281788  1
  Br  Br16  1  0.329682  0.035497  0.115095  1
  Br  Br17  1  0.279264  0.819609  0.428575  1
  Br  Br18  1  0.179524  0.572246  0.721398  1
  Br  Br19  1  0.426736  0.275951  0.814786  1
