# generated using pymatgen
data_PaSiHRu
_symmetry_space_group_name_H-M   'P 1'
_cell_length_a   4.12305300
_cell_length_b   4.12305300
_cell_length_c   6.82854300
_cell_angle_alpha   90.00000000
_cell_angle_beta   90.00000000
_cell_angle_gamma   90.00000000
_symmetry_Int_Tables_number   1
_chemical_formula_structural   PaSiHRu
_chemical_formula_sum   'Pa2 Si2 H2 Ru2'
_cell_volume   116.08226769
_cell_formula_units_Z   2
loop_
 _symmetry_equiv_pos_site_id
 _symmetry_equiv_pos_as_xyz
  1  'x, y, z'
loop_
 _atom_site_type_symbol
 _atom_site_label
 _atom_site_symmetry_multiplicity
 _atom_site_fract_x
 _atom_site_fract_y
 _atom_site_fract_z
 _atom_site_occupancy
  Pa  Pa0  1  0.500000  0.000000  0.674296  1
  Pa  Pa1  1  0.000000  0.500000  0.325704  1
  Si  Si2  1  0.500000  0.000000  0.191541  1
  Si  Si3  1  0.000000  0.500000  0.808459  1
  H  H4  1  0.000000  0.000000  0.500000  1
  H  H5  1  0.500000  0.500000  0.500000  1
  Ru  Ru6  1  0.000000  0.000000  0.000000  1
  Ru  Ru7  1  0.500000  0.500000  0.000000  1
