# generated using pymatgen
data_LaEuHo2(MoO4)6
_symmetry_space_group_name_H-M   'P 1'
_cell_length_a   7.54862626
_cell_length_b   7.54633701
_cell_length_c   10.82585467
_cell_angle_alpha   89.68871196
_cell_angle_beta   89.79731577
_cell_angle_gamma   89.90492596
_symmetry_Int_Tables_number   1
_chemical_formula_structural   LaEuHo2(MoO4)6
_chemical_formula_sum   'La1 Eu1 Ho2 Mo6 O24'
_cell_volume   616.67536820
_cell_formula_units_Z   1
loop_
 _symmetry_equiv_pos_site_id
 _symmetry_equiv_pos_as_xyz
  1  'x, y, z'
loop_
 _atom_site_type_symbol
 _atom_site_label
 _atom_site_symmetry_multiplicity
 _atom_site_fract_x
 _atom_site_fract_y
 _atom_site_fract_z
 _atom_site_occupancy
  La  La0  1  0.184632  0.684470  0.741946  1
  Eu  Eu1  1  0.687576  0.812875  0.263273  1
  Ho  Ho2  1  0.807453  0.307304  0.734806  1
  Ho  Ho3  1  0.311388  0.189512  0.263371  1
  Mo  Mo4  1  0.208203  0.706078  0.349181  1
  Mo  Mo5  1  0.793059  0.290689  0.358691  1
  Mo  Mo6  1  0.709709  0.793836  0.644994  1
  Mo  Mo7  1  0.293848  0.209608  0.640229  1
  Mo  Mo8  1  0.996554  0.010439  0.003050  1
  Mo  Mo9  1  0.506608  0.490829  0.002964  1
  O  O10  1  0.005637  0.224530  0.301185  1
  O  O11  1  0.997934  0.771310  0.290755  1
  O  O12  1  0.234506  0.999828  0.701847  1
  O  O13  1  0.499263  0.733813  0.704894  1
  O  O14  1  0.782512  0.003763  0.701509  1
  O  O15  1  0.503198  0.281544  0.698613  1
  O  O16  1  0.276009  0.494310  0.291958  1
  O  O17  1  0.729456  0.501987  0.300329  1
  O  O18  1  0.183147  0.061706  0.099044  1
  O  O19  1  0.806794  0.970611  0.098096  1
  O  O20  1  0.040861  0.815712  0.914100  1
  O  O21  1  0.313286  0.535239  0.912726  1
  O  O22  1  0.949202  0.189102  0.898501  1
  O  O23  1  0.686574  0.443258  0.899598  1
  O  O24  1  0.463162  0.306159  0.103501  1
  O  O25  1  0.555032  0.682355  0.093068  1
  O  O26  1  0.622955  0.131837  0.312226  1
  O  O27  1  0.367988  0.877540  0.302878  1
  O  O28  1  0.119182  0.363389  0.688314  1
  O  O29  1  0.864038  0.618027  0.690984  1
  O  O30  1  0.196198  0.694661  0.513254  1
  O  O31  1  0.802639  0.301042  0.523294  1
  O  O32  1  0.696321  0.805947  0.481061  1
  O  O33  1  0.305075  0.196693  0.475758  1
