# generated using pymatgen
data_La9CeAl(CuRu2)3
_symmetry_space_group_name_H-M   'P 1'
_cell_length_a   8.46562502
_cell_length_b   8.46562510
_cell_length_c   8.46562500
_cell_angle_alpha   109.11784077
_cell_angle_beta   109.11784823
_cell_angle_gamma   109.11784628
_symmetry_Int_Tables_number   1
_chemical_formula_structural   La9CeAl(CuRu2)3
_chemical_formula_sum   'La9 Ce1 Al1 Cu3 Ru6'
_cell_volume   473.05300251
_cell_formula_units_Z   1
loop_
 _symmetry_equiv_pos_site_id
 _symmetry_equiv_pos_as_xyz
  1  'x, y, z'
loop_
 _atom_site_type_symbol
 _atom_site_label
 _atom_site_symmetry_multiplicity
 _atom_site_fract_x
 _atom_site_fract_y
 _atom_site_fract_z
 _atom_site_occupancy
  La  La0  1  0.466343  0.157768  0.211215  1
  La  La1  1  0.157768  0.211215  0.466343  1
  La  La2  1  0.211215  0.466343  0.157768  1
  La  La3  1  0.412771  0.679431  0.908622  1
  La  La4  1  0.679431  0.908622  0.412771  1
  La  La5  1  0.908622  0.412771  0.679431  1
  La  La6  1  0.654624  0.101577  0.849191  1
  La  La7  1  0.101577  0.849191  0.654624  1
  La  La8  1  0.849191  0.654624  0.101577  1
  Ce  Ce9  1  0.606771  0.606771  0.606771  1
  Al  Al10  1  0.982202  0.982202  0.982202  1
  Cu  Cu11  1  0.408124  0.323290  0.915236  1
  Cu  Cu12  1  0.323290  0.915236  0.408124  1
  Cu  Cu13  1  0.915236  0.408124  0.323290  1
  Ru  Ru14  1  0.026175  0.155595  0.787202  1
  Ru  Ru15  1  0.155595  0.787202  0.026175  1
  Ru  Ru16  1  0.787202  0.026175  0.155595  1
  Ru  Ru17  1  0.659777  0.536409  0.307680  1
  Ru  Ru18  1  0.536409  0.307680  0.659777  1
  Ru  Ru19  1  0.307680  0.659777  0.536409  1
