# generated using pymatgen
data_Er5Th3MgCdRu2
_symmetry_space_group_name_H-M   'P 1'
_cell_length_a   9.67869187
_cell_length_b   9.77701934
_cell_length_c   9.79193700
_cell_angle_alpha   59.28592503
_cell_angle_beta   60.28029424
_cell_angle_gamma   60.31852395
_symmetry_Int_Tables_number   1
_chemical_formula_structural   Er5Th3MgCdRu2
_chemical_formula_sum   'Er10 Th6 Mg2 Cd2 Ru4'
_cell_volume   654.49752615
_cell_formula_units_Z   2
loop_
 _symmetry_equiv_pos_site_id
 _symmetry_equiv_pos_as_xyz
  1  'x, y, z'
loop_
 _atom_site_type_symbol
 _atom_site_label
 _atom_site_symmetry_multiplicity
 _atom_site_fract_x
 _atom_site_fract_y
 _atom_site_fract_z
 _atom_site_occupancy
  Er  Er0  1  0.189466  0.809844  0.190398  1
  Er  Er1  1  0.809844  0.189466  0.810292  1
  Er  Er2  1  0.189257  0.189257  0.810743  1
  Er  Er3  1  0.808702  0.808702  0.191298  1
  Er  Er4  1  0.931925  0.567016  0.568296  1
  Er  Er5  1  0.567016  0.931925  0.932763  1
  Er  Er6  1  0.561920  0.936705  0.563578  1
  Er  Er7  1  0.936705  0.561920  0.937797  1
  Er  Er8  1  0.562436  0.562436  0.937564  1
  Er  Er9  1  0.936783  0.936783  0.563217  1
  Th  Th10  1  0.341394  0.350872  0.349549  1
  Th  Th11  1  0.350872  0.341394  0.958184  1
  Th  Th12  1  0.351936  0.955499  0.342385  1
  Th  Th13  1  0.955499  0.351936  0.350181  1
  Th  Th14  1  0.816084  0.183566  0.185200  1
  Th  Th15  1  0.183566  0.816084  0.815150  1
  Mg  Mg16  1  0.578283  0.263951  0.580465  1
  Mg  Mg17  1  0.263951  0.578283  0.577302  1
  Cd  Cd18  1  0.584186  0.580675  0.583233  1
  Cd  Cd19  1  0.580675  0.584186  0.251906  1
  Ru  Ru20  1  0.128522  0.147895  0.148556  1
  Ru  Ru21  1  0.147895  0.128522  0.575025  1
  Ru  Ru22  1  0.148187  0.574894  0.127696  1
  Ru  Ru23  1  0.574894  0.148187  0.149222  1
