# generated using pymatgen
data_Ca3Pr17Si15Pt
_symmetry_space_group_name_H-M   'P 1'
_cell_length_a   7.95844105
_cell_length_b   7.90994291
_cell_length_c   15.17068600
_cell_angle_alpha   90.05319637
_cell_angle_beta   89.69868329
_cell_angle_gamma   90.18361811
_symmetry_Int_Tables_number   1
_chemical_formula_structural   Ca3Pr17Si15Pt
_chemical_formula_sum   'Ca3 Pr17 Si15 Pt1'
_cell_volume   954.98853075
_cell_formula_units_Z   1
loop_
 _symmetry_equiv_pos_site_id
 _symmetry_equiv_pos_as_xyz
  1  'x, y, z'
loop_
 _atom_site_type_symbol
 _atom_site_label
 _atom_site_symmetry_multiplicity
 _atom_site_fract_x
 _atom_site_fract_y
 _atom_site_fract_z
 _atom_site_occupancy
  Ca  Ca0  1  0.309921  0.309168  0.999553  1
  Ca  Ca1  1  0.190138  0.809351  0.250198  1
  Ca  Ca2  1  0.813654  0.190987  0.748636  1
  Pr  Pr3  1  0.692475  0.687182  0.499803  1
  Pr  Pr4  1  0.375486  0.008609  0.447733  1
  Pr  Pr5  1  0.492711  0.874883  0.700724  1
  Pr  Pr6  1  0.509162  0.123895  0.197800  1
  Pr  Pr7  1  0.873956  0.489207  0.298086  1
  Pr  Pr8  1  0.122389  0.509324  0.801344  1
  Pr  Pr9  1  0.626174  0.991322  0.949142  1
  Pr  Pr10  1  0.001730  0.373956  0.551725  1
  Pr  Pr11  1  0.990861  0.625042  0.050525  1
  Pr  Pr12  1  0.131242  0.990692  0.874018  1
  Pr  Pr13  1  0.513642  0.629032  0.125132  1
  Pr  Pr14  1  0.476487  0.364589  0.629221  1
  Pr  Pr15  1  0.628562  0.512241  0.875070  1
  Pr  Pr16  1  0.373172  0.483304  0.374088  1
  Pr  Pr17  1  0.874465  0.017540  0.375641  1
  Pr  Pr18  1  0.986393  0.124847  0.124090  1
  Pr  Pr19  1  0.022428  0.879094  0.624990  1
  Si  Si20  1  0.333790  0.699140  0.948026  1
  Si  Si21  1  0.663001  0.300235  0.450461  1
  Si  Si22  1  0.703059  0.335287  0.053156  1
  Si  Si23  1  0.304263  0.668879  0.548959  1
  Si  Si24  1  0.799018  0.835342  0.199190  1
  Si  Si25  1  0.165159  0.202018  0.298796  1
  Si  Si26  1  0.836289  0.799424  0.801561  1
  Si  Si27  1  0.287347  0.918761  0.058018  1
  Si  Si28  1  0.581339  0.786107  0.309129  1
  Si  Si29  1  0.429561  0.205981  0.814045  1
  Si  Si30  1  0.785393  0.582792  0.690514  1
  Si  Si31  1  0.212600  0.421088  0.189525  1
  Si  Si32  1  0.703791  0.073327  0.558537  1
  Si  Si33  1  0.919091  0.287704  0.942412  1
  Si  Si34  1  0.080103  0.713890  0.441165  1
  Pt  Pt35  1  0.191149  0.175758  0.698989  1
