# generated using pymatgen
data_Er4Al22Si2Ir2Pt7
_symmetry_space_group_name_H-M   'P 1'
_cell_length_a   7.49939455
_cell_length_b   7.50254185
_cell_length_c   13.04749301
_cell_angle_alpha   84.53549932
_cell_angle_beta   100.90574036
_cell_angle_gamma   119.97684007
_symmetry_Int_Tables_number   1
_chemical_formula_structural   Er4Al22Si2Ir2Pt7
_chemical_formula_sum   'Er4 Al22 Si2 Ir2 Pt7'
_cell_volume   624.42220756
_cell_formula_units_Z   1
loop_
 _symmetry_equiv_pos_site_id
 _symmetry_equiv_pos_as_xyz
  1  'x, y, z'
loop_
 _atom_site_type_symbol
 _atom_site_label
 _atom_site_symmetry_multiplicity
 _atom_site_fract_x
 _atom_site_fract_y
 _atom_site_fract_z
 _atom_site_occupancy
  Er  Er0  1  0.735968  0.998273  0.190224  1
  Er  Er1  1  0.263825  0.001983  0.809696  1
  Er  Er2  1  0.060737  0.672635  0.190410  1
  Er  Er3  1  0.938632  0.327379  0.809714  1
  Al  Al4  1  0.985379  0.668008  0.945790  1
  Al  Al5  1  0.020264  0.335351  0.054227  1
  Al  Al6  1  0.398311  0.667589  0.818654  1
  Al  Al7  1  0.599423  0.331535  0.183003  1
  Al  Al8  1  0.883601  0.663539  0.672912  1
  Al  Al9  1  0.116552  0.336193  0.326193  1
  Al  Al10  1  0.607371  0.460142  0.816758  1
  Al  Al11  1  0.393025  0.542714  0.181533  1
  Al  Al12  1  0.232707  0.341677  0.671269  1
  Al  Al13  1  0.767563  0.658119  0.328646  1
  Al  Al14  1  0.853749  0.332943  0.559686  1
  Al  Al15  1  0.185940  0.999163  0.558034  1
  Al  Al16  1  0.814935  0.000670  0.441991  1
  Al  Al17  1  0.349960  0.996246  0.054519  1
  Al  Al18  1  0.646838  0.998250  0.945559  1
  Al  Al19  1  0.556076  0.993489  0.673854  1
  Al  Al20  1  0.444429  0.005959  0.326969  1
  Al  Al21  1  0.520861  0.667875  0.561610  1
  Al  Al22  1  0.478961  0.332306  0.438071  1
  Al  Al23  1  0.680902  0.669025  0.045799  1
  Al  Al24  1  0.315811  0.334434  0.954295  1
  Al  Al25  1  0.146431  0.666246  0.440581  1
  Si  Si26  1  0.809035  0.868105  0.819808  1
  Si  Si27  1  0.191801  0.130951  0.180189  1
  Ir  Ir28  1  0.328951  0.671452  0.999941  1
  Ir  Ir29  1  0.999677  0.000307  0.000020  1
  Pt  Pt30  1  0.546659  0.324829  0.637719  1
  Pt  Pt31  1  0.453556  0.674749  0.361708  1
  Pt  Pt32  1  0.888229  0.006116  0.643036  1
  Pt  Pt33  1  0.112240  0.993617  0.356982  1
  Pt  Pt34  1  0.671097  0.328617  0.000053  1
  Pt  Pt35  1  0.205339  0.667807  0.639627  1
  Pt  Pt36  1  0.795161  0.331708  0.360918  1
