# generated using pymatgen
data_Rb3La(IO3)6
_symmetry_space_group_name_H-M   'P 1'
_cell_length_a   7.34267911
_cell_length_b   7.34368714
_cell_length_c   11.23069563
_cell_angle_alpha   87.17342246
_cell_angle_beta   107.03698296
_cell_angle_gamma   108.11420358
_symmetry_Int_Tables_number   1
_chemical_formula_structural   Rb3La(IO3)6
_chemical_formula_sum   'Rb3 La1 I6 O18'
_cell_volume   549.73131836
_cell_formula_units_Z   1
loop_
 _symmetry_equiv_pos_site_id
 _symmetry_equiv_pos_as_xyz
  1  'x, y, z'
loop_
 _atom_site_type_symbol
 _atom_site_label
 _atom_site_symmetry_multiplicity
 _atom_site_fract_x
 _atom_site_fract_y
 _atom_site_fract_z
 _atom_site_occupancy
  Rb  Rb0  1  0.000000  0.000000  0.000000  1
  Rb  Rb1  1  0.831672  0.032985  0.602039  1
  Rb  Rb2  1  0.168328  0.967015  0.397961  1
  La  La3  1  0.500000  0.500000  0.000000  1
  I  I4  1  0.039167  0.477655  0.194896  1
  I  I5  1  0.960833  0.522345  0.805104  1
  I  I6  1  0.565635  0.968209  0.197813  1
  I  I7  1  0.434365  0.031791  0.802187  1
  I  I8  1  0.416273  0.555459  0.629251  1
  I  I9  1  0.583727  0.444541  0.370749  1
  O  O10  1  0.854638  0.545095  0.060357  1
  O  O11  1  0.145362  0.454905  0.939643  1
  O  O12  1  0.960007  0.548887  0.319665  1
  O  O13  1  0.039993  0.451113  0.680335  1
  O  O14  1  0.929914  0.215990  0.185066  1
  O  O15  1  0.070086  0.784010  0.814934  1
  O  O16  1  0.580146  0.832666  0.066493  1
  O  O17  1  0.419854  0.167334  0.933507  1
  O  O18  1  0.301492  0.858381  0.190176  1
  O  O19  1  0.698508  0.141619  0.809824  1
  O  O20  1  0.691629  0.849227  0.327670  1
  O  O21  1  0.308371  0.150773  0.672330  1
  O  O22  1  0.520374  0.599758  0.800952  1
  O  O23  1  0.479626  0.400242  0.199048  1
  O  O24  1  0.661518  0.574191  0.606815  1
  O  O25  1  0.338482  0.425809  0.393185  1
  O  O26  1  0.407765  0.797623  0.593048  1
  O  O27  1  0.592235  0.202377  0.406952  1
