# generated using pymatgen
data_Hf6SnPtPb
_symmetry_space_group_name_H-M   'P 1'
_cell_length_a   8.01221100
_cell_length_b   8.01221015
_cell_length_c   3.53560700
_cell_angle_alpha   90.00000000
_cell_angle_beta   90.00000000
_cell_angle_gamma   120.00000762
_symmetry_Int_Tables_number   1
_chemical_formula_structural   Hf6SnPtPb
_chemical_formula_sum   'Hf6 Sn1 Pt1 Pb1'
_cell_volume   196.56187814
_cell_formula_units_Z   1
loop_
 _symmetry_equiv_pos_site_id
 _symmetry_equiv_pos_as_xyz
  1  'x, y, z'
loop_
 _atom_site_type_symbol
 _atom_site_label
 _atom_site_symmetry_multiplicity
 _atom_site_fract_x
 _atom_site_fract_y
 _atom_site_fract_z
 _atom_site_occupancy
  Hf  Hf0  1  0.997903  0.745951  0.500000  1
  Hf  Hf1  1  0.254049  0.251953  0.500000  1
  Hf  Hf2  1  0.748047  0.002097  0.500000  1
  Hf  Hf3  1  0.994482  0.391557  0.000000  1
  Hf  Hf4  1  0.608443  0.602925  0.000000  1
  Hf  Hf5  1  0.397075  0.005518  0.000000  1
  Sn  Sn6  1  0.666667  0.333333  0.500000  1
  Pt  Pt7  1  0.000000  0.000000  0.000000  1
  Pb  Pb8  1  0.333333  0.666667  0.500000  1
