# generated using pymatgen
data_Tb7ErHf11Si16Tc
_symmetry_space_group_name_H-M   'P 1'
_cell_length_a   7.26415392
_cell_length_b   7.26345763
_cell_length_c   13.30389345
_cell_angle_alpha   89.96770798
_cell_angle_beta   90.07247442
_cell_angle_gamma   90.03597838
_symmetry_Int_Tables_number   1
_chemical_formula_structural   Tb7ErHf11Si16Tc
_chemical_formula_sum   'Tb7 Er1 Hf11 Si16 Tc1'
_cell_volume   701.95084570
_cell_formula_units_Z   1
loop_
 _symmetry_equiv_pos_site_id
 _symmetry_equiv_pos_as_xyz
  1  'x, y, z'
loop_
 _atom_site_type_symbol
 _atom_site_label
 _atom_site_symmetry_multiplicity
 _atom_site_fract_x
 _atom_site_fract_y
 _atom_site_fract_z
 _atom_site_occupancy
  Tb  Tb0  1  0.004616  0.655821  0.717153  1
  Tb  Tb1  1  0.156175  0.494974  0.465190  1
  Tb  Tb2  1  0.501311  0.845756  0.033699  1
  Tb  Tb3  1  0.845744  0.501076  0.966588  1
  Tb  Tb4  1  0.495040  0.156452  0.534523  1
  Tb  Tb5  1  0.342857  0.998918  0.787994  1
  Tb  Tb6  1  0.656074  0.004799  0.282805  1
  Er  Er7  1  0.999784  0.343311  0.211862  1
  Hf  Hf8  1  0.825227  0.825006  0.499850  1
  Hf  Hf9  1  0.323744  0.674517  0.248511  1
  Hf  Hf10  1  0.674926  0.324216  0.751478  1
  Hf  Hf11  1  0.147794  0.997297  0.372651  1
  Hf  Hf12  1  0.853484  0.004926  0.877915  1
  Hf  Hf13  1  0.503537  0.647952  0.625082  1
  Hf  Hf14  1  0.350194  0.494030  0.877381  1
  Hf  Hf15  1  0.494115  0.350241  0.122846  1
  Hf  Hf16  1  0.648104  0.503147  0.374642  1
  Hf  Hf17  1  0.997214  0.148338  0.626993  1
  Hf  Hf18  1  0.004749  0.853790  0.122335  1
  Si  Si19  1  0.360953  0.295441  0.315521  1
  Si  Si20  1  0.637235  0.705135  0.818184  1
  Si  Si21  1  0.205154  0.862256  0.567197  1
  Si  Si22  1  0.136619  0.795108  0.932408  1
  Si  Si23  1  0.796083  0.137615  0.068220  1
  Si  Si24  1  0.862231  0.205306  0.432561  1
  Si  Si25  1  0.295151  0.361903  0.684228  1
  Si  Si26  1  0.705753  0.636644  0.181780  1
  Si  Si27  1  0.292986  0.053420  0.181701  1
  Si  Si28  1  0.704301  0.951290  0.685970  1
  Si  Si29  1  0.450015  0.795924  0.434910  1
  Si  Si30  1  0.204682  0.547421  0.064781  1
  Si  Si31  1  0.548419  0.205387  0.935615  1
  Si  Si32  1  0.795941  0.450013  0.564979  1
  Si  Si33  1  0.052810  0.293524  0.818297  1
  Si  Si34  1  0.951552  0.703281  0.313721  1
  Tc  Tc35  1  0.175429  0.175767  0.000430  1
