# generated using pymatgen
data_LiY6Si6Ni
_symmetry_space_group_name_H-M   'P 1'
_cell_length_a   5.68167348
_cell_length_b   5.68167349
_cell_length_c   13.67088429
_cell_angle_alpha   108.89598153
_cell_angle_beta   108.89598235
_cell_angle_gamma   43.78178241
_symmetry_Int_Tables_number   1
_chemical_formula_structural   LiY6Si6Ni
_chemical_formula_sum   'Li1 Y6 Si6 Ni1'
_cell_volume   286.15058070
_cell_formula_units_Z   1
loop_
 _symmetry_equiv_pos_site_id
 _symmetry_equiv_pos_as_xyz
  1  'x, y, z'
loop_
 _atom_site_type_symbol
 _atom_site_label
 _atom_site_symmetry_multiplicity
 _atom_site_fract_x
 _atom_site_fract_y
 _atom_site_fract_z
 _atom_site_occupancy
  Li  Li0  1  0.246579  0.246579  0.407353  1
  Y  Y1  1  0.394330  0.394330  0.076947  1
  Y  Y2  1  0.743572  0.743572  0.222470  1
  Y  Y3  1  0.534950  0.534950  0.384031  1
  Y  Y4  1  0.472394  0.472394  0.622383  1
  Y  Y5  1  0.253603  0.253603  0.773160  1
  Y  Y6  1  0.601682  0.601682  0.921971  1
  Si  Si7  1  0.109275  0.109275  0.074676  1
  Si  Si8  1  0.035568  0.035568  0.228161  1
  Si  Si9  1  0.879794  0.879794  0.459617  1
  Si  Si10  1  0.134171  0.134171  0.551006  1
  Si  Si11  1  0.951802  0.951802  0.763839  1
  Si  Si12  1  0.886593  0.886593  0.922454  1
  Ni  Ni13  1  0.755689  0.755689  0.591932  1
