# generated using pymatgen
data_Pu3Np(ReB6)2
_symmetry_space_group_name_H-M   'P 1'
_cell_length_a   3.61817400
_cell_length_b   9.29918550
_cell_length_c   11.35260976
_cell_angle_alpha   90.06442976
_cell_angle_beta   90.00000000
_cell_angle_gamma   90.00000000
_symmetry_Int_Tables_number   1
_chemical_formula_structural   Pu3Np(ReB6)2
_chemical_formula_sum   'Pu6 Np2 Re4 B24'
_cell_volume   381.97047469
_cell_formula_units_Z   2
loop_
 _symmetry_equiv_pos_site_id
 _symmetry_equiv_pos_as_xyz
  1  'x, y, z'
loop_
 _atom_site_type_symbol
 _atom_site_label
 _atom_site_symmetry_multiplicity
 _atom_site_fract_x
 _atom_site_fract_y
 _atom_site_fract_z
 _atom_site_occupancy
  Pu  Pu0  1  0.000000  0.337400  0.407288  1
  Pu  Pu1  1  0.000000  0.662600  0.592712  1
  Pu  Pu2  1  0.000000  0.837162  0.093004  1
  Pu  Pu3  1  0.000000  0.162838  0.906996  1
  Pu  Pu4  1  0.000000  0.958777  0.400592  1
  Pu  Pu5  1  0.000000  0.041223  0.599408  1
  Np  Np6  1  0.000000  0.459018  0.099454  1
  Np  Np7  1  0.000000  0.540982  0.900546  1
  Re  Re8  1  0.000000  0.646035  0.318499  1
  Re  Re9  1  0.000000  0.353965  0.681501  1
  Re  Re10  1  0.000000  0.147690  0.180818  1
  Re  Re11  1  0.000000  0.852310  0.819182  1
  B  B12  1  0.500000  0.552628  0.431319  1
  B  B13  1  0.500000  0.447372  0.568681  1
  B  B14  1  0.500000  0.052327  0.068674  1
  B  B15  1  0.500000  0.947673  0.931326  1
  B  B16  1  0.500000  0.744215  0.423357  1
  B  B17  1  0.500000  0.255785  0.576643  1
  B  B18  1  0.500000  0.244200  0.076668  1
  B  B19  1  0.500000  0.755800  0.923332  1
  B  B20  1  0.500000  0.804945  0.274075  1
  B  B21  1  0.500000  0.195055  0.725925  1
  B  B22  1  0.500000  0.305053  0.225595  1
  B  B23  1  0.500000  0.694947  0.774405  1
  B  B24  1  0.500000  0.645400  0.187973  1
  B  B25  1  0.500000  0.354600  0.812027  1
  B  B26  1  0.500000  0.145494  0.312074  1
  B  B27  1  0.500000  0.854506  0.687926  1
  B  B28  1  0.500000  0.988882  0.220027  1
  B  B29  1  0.500000  0.011118  0.779973  1
  B  B30  1  0.500000  0.488801  0.279496  1
  B  B31  1  0.500000  0.511199  0.720504  1
  B  B32  1  0.500000  0.640646  0.038955  1
  B  B33  1  0.500000  0.359354  0.961045  1
  B  B34  1  0.500000  0.142101  0.460620  1
  B  B35  1  0.500000  0.857899  0.539380  1
