# generated using pymatgen
data_La7PrCd2PdRu
_symmetry_space_group_name_H-M   'P 1'
_cell_length_a   10.12594271
_cell_length_b   10.12594308
_cell_length_c   10.21680400
_cell_angle_alpha   59.70272626
_cell_angle_beta   59.70272501
_cell_angle_gamma   59.68710107
_symmetry_Int_Tables_number   1
_chemical_formula_structural   La7PrCd2PdRu
_chemical_formula_sum   'La14 Pr2 Cd4 Pd2 Ru2'
_cell_volume   735.65919797
_cell_formula_units_Z   2
loop_
 _symmetry_equiv_pos_site_id
 _symmetry_equiv_pos_as_xyz
  1  'x, y, z'
loop_
 _atom_site_type_symbol
 _atom_site_label
 _atom_site_symmetry_multiplicity
 _atom_site_fract_x
 _atom_site_fract_y
 _atom_site_fract_z
 _atom_site_occupancy
  La  La0  1  0.346795  0.346795  0.356622  1
  La  La1  1  0.346795  0.346795  0.949789  1
  La  La2  1  0.342596  0.956908  0.350248  1
  La  La3  1  0.956908  0.342596  0.350248  1
  La  La4  1  0.817434  0.190038  0.190845  1
  La  La5  1  0.190038  0.817434  0.801683  1
  La  La6  1  0.190038  0.817434  0.190845  1
  La  La7  1  0.817434  0.190038  0.801683  1
  La  La8  1  0.188750  0.188750  0.811250  1
  La  La9  1  0.805869  0.805869  0.194131  1
  La  La10  1  0.936662  0.559076  0.565555  1
  La  La11  1  0.559076  0.936662  0.938708  1
  La  La12  1  0.559076  0.936662  0.565555  1
  La  La13  1  0.936662  0.559076  0.938708  1
  Pr  Pr14  1  0.562509  0.562509  0.937491  1
  Pr  Pr15  1  0.938084  0.938084  0.561916  1
  Cd  Cd16  1  0.579542  0.579542  0.579875  1
  Cd  Cd17  1  0.579542  0.579542  0.261041  1
  Cd  Cd18  1  0.580920  0.259376  0.579852  1
  Cd  Cd19  1  0.259376  0.580920  0.579852  1
  Pd  Pd20  1  0.146465  0.573802  0.139866  1
  Pd  Pd21  1  0.573802  0.146465  0.139866  1
  Ru  Ru22  1  0.142815  0.142815  0.137187  1
  Ru  Ru23  1  0.142815  0.142815  0.577185  1
