# generated using pymatgen
data_La20InSi10Ge
_symmetry_space_group_name_H-M   'P 1'
_cell_length_a   7.90621200
_cell_length_b   7.90621200
_cell_length_c   14.53922200
_cell_angle_alpha   90.00000000
_cell_angle_beta   90.00000000
_cell_angle_gamma   90.00000000
_symmetry_Int_Tables_number   1
_chemical_formula_structural   La20InSi10Ge
_chemical_formula_sum   'La20 In1 Si10 Ge1'
_cell_volume   908.82042490
_cell_formula_units_Z   1
loop_
 _symmetry_equiv_pos_site_id
 _symmetry_equiv_pos_as_xyz
  1  'x, y, z'
loop_
 _atom_site_type_symbol
 _atom_site_label
 _atom_site_symmetry_multiplicity
 _atom_site_fract_x
 _atom_site_fract_y
 _atom_site_fract_z
 _atom_site_occupancy
  La  La0  1  0.500000  0.000000  0.778026  1
  La  La1  1  0.330176  0.313135  0.105054  1
  La  La2  1  0.827351  0.816137  0.894778  1
  La  La3  1  0.000000  0.500000  0.227624  1
  La  La4  1  0.823452  0.177674  0.391683  1
  La  La5  1  0.172649  0.183863  0.894778  1
  La  La6  1  0.669824  0.686865  0.105054  1
  La  La7  1  0.000000  0.500000  0.725307  1
  La  La8  1  0.809650  0.836281  0.608181  1
  La  La9  1  0.322326  0.323452  0.391683  1
  La  La10  1  0.186865  0.830176  0.105054  1
  La  La11  1  0.190350  0.163719  0.608181  1
  La  La12  1  0.813135  0.169824  0.105054  1
  La  La13  1  0.336281  0.690350  0.608181  1
  La  La14  1  0.500000  0.000000  0.275240  1
  La  La15  1  0.683863  0.327351  0.894778  1
  La  La16  1  0.663719  0.309650  0.608181  1
  La  La17  1  0.316137  0.672649  0.894778  1
  La  La18  1  0.176548  0.822326  0.391683  1
  La  La19  1  0.677674  0.676548  0.391683  1
  In  In20  1  0.000000  0.500000  0.500462  1
  Si  Si21  1  0.613911  0.387878  0.248560  1
  Si  Si22  1  0.887836  0.114187  0.751870  1
  Si  Si23  1  0.500000  0.000000  0.493320  1
  Si  Si24  1  0.887878  0.886089  0.248560  1
  Si  Si25  1  0.112164  0.885813  0.751870  1
  Si  Si26  1  0.385813  0.387836  0.751870  1
  Si  Si27  1  0.112122  0.113911  0.248560  1
  Si  Si28  1  0.386089  0.612122  0.248560  1
  Si  Si29  1  0.614187  0.612164  0.751870  1
  Si  Si30  1  0.500000  0.000000  0.994490  1
  Ge  Ge31  1  0.000000  0.500000  0.005022  1
