# generated using pymatgen
data_Th8Al3Si8Ge
_symmetry_space_group_name_H-M   'P 1'
_cell_length_a   5.77594387
_cell_length_b   5.77594502
_cell_length_c   20.33334034
_cell_angle_alpha   82.70380180
_cell_angle_beta   82.70379978
_cell_angle_gamma   42.20708891
_symmetry_Int_Tables_number   1
_chemical_formula_structural   Th8Al3Si8Ge
_chemical_formula_sum   'Th8 Al3 Si8 Ge1'
_cell_volume   451.48251909
_cell_formula_units_Z   1
loop_
 _symmetry_equiv_pos_site_id
 _symmetry_equiv_pos_as_xyz
  1  'x, y, z'
loop_
 _atom_site_type_symbol
 _atom_site_label
 _atom_site_symmetry_multiplicity
 _atom_site_fract_x
 _atom_site_fract_y
 _atom_site_fract_z
 _atom_site_occupancy
  Th  Th0  1  0.452025  0.452025  0.677377  1
  Th  Th1  1  0.690480  0.690480  0.928698  1
  Th  Th2  1  0.983956  0.983956  0.182782  1
  Th  Th3  1  0.218638  0.218638  0.429481  1
  Th  Th4  1  0.781362  0.781362  0.570519  1
  Th  Th5  1  0.016044  0.016044  0.817218  1
  Th  Th6  1  0.309520  0.309520  0.071302  1
  Th  Th7  1  0.547975  0.547975  0.322623  1
  Al  Al8  1  0.264456  0.264456  0.250743  1
  Al  Al9  1  0.500000  0.500000  0.500000  1
  Al  Al10  1  0.735544  0.735544  0.749257  1
  Si  Si11  1  0.166718  0.166718  0.675714  1
  Si  Si12  1  0.404835  0.404835  0.921337  1
  Si  Si13  1  0.697402  0.697402  0.179447  1
  Si  Si14  1  0.931212  0.931212  0.428030  1
  Si  Si15  1  0.068788  0.068788  0.571970  1
  Si  Si16  1  0.302598  0.302598  0.820553  1
  Si  Si17  1  0.595165  0.595165  0.078663  1
  Si  Si18  1  0.833282  0.833282  0.324286  1
  Ge  Ge19  1  0.000000  0.000000  0.000000  1
