# generated using pymatgen
data_Cs4Ba2TiSb4
_symmetry_space_group_name_H-M   'P 1'
_cell_length_a   11.69219760
_cell_length_b   11.69219768
_cell_length_c   8.70821783
_cell_angle_alpha   87.68355693
_cell_angle_beta   87.68355884
_cell_angle_gamma   119.03367365
_symmetry_Int_Tables_number   1
_chemical_formula_structural   Cs4Ba2TiSb4
_chemical_formula_sum   'Cs8 Ba4 Ti2 Sb8'
_cell_volume   1037.56747645
_cell_formula_units_Z   2
loop_
 _symmetry_equiv_pos_site_id
 _symmetry_equiv_pos_as_xyz
  1  'x, y, z'
loop_
 _atom_site_type_symbol
 _atom_site_label
 _atom_site_symmetry_multiplicity
 _atom_site_fract_x
 _atom_site_fract_y
 _atom_site_fract_z
 _atom_site_occupancy
  Cs  Cs0  1  0.477948  0.948871  0.390296  1
  Cs  Cs1  1  0.948871  0.477948  0.890296  1
  Cs  Cs2  1  0.865674  0.720873  0.156463  1
  Cs  Cs3  1  0.261777  0.123634  0.234491  1
  Cs  Cs4  1  0.854700  0.144499  0.185456  1
  Cs  Cs5  1  0.123634  0.261777  0.734491  1
  Cs  Cs6  1  0.720873  0.865674  0.656463  1
  Cs  Cs7  1  0.144499  0.854700  0.685456  1
  Ba  Ba8  1  0.065392  0.530322  0.397808  1
  Ba  Ba9  1  0.477698  0.525032  0.379922  1
  Ba  Ba10  1  0.530322  0.065392  0.897808  1
  Ba  Ba11  1  0.525032  0.477698  0.879922  1
  Ti  Ti12  1  0.664096  0.337686  0.493355  1
  Ti  Ti13  1  0.337686  0.664096  0.993355  1
  Sb  Sb14  1  0.638938  0.331897  0.180111  1
  Sb  Sb15  1  0.331897  0.638938  0.680111  1
  Sb  Sb16  1  0.218191  0.416188  0.131005  1
  Sb  Sb17  1  0.590532  0.790830  0.071472  1
  Sb  Sb18  1  0.218046  0.797289  0.093653  1
  Sb  Sb19  1  0.790830  0.590532  0.571472  1
  Sb  Sb20  1  0.416188  0.218191  0.631005  1
  Sb  Sb21  1  0.797289  0.218046  0.593653  1
