# generated using pymatgen
data_Nd5EuMoO12
_symmetry_space_group_name_H-M   'P 1'
_cell_length_a   6.68690358
_cell_length_b   6.73407589
_cell_length_c   6.74109722
_cell_angle_alpha   98.75114062
_cell_angle_beta   98.51564690
_cell_angle_gamma   98.12000573
_symmetry_Int_Tables_number   1
_chemical_formula_structural   Nd5EuMoO12
_chemical_formula_sum   'Nd5 Eu1 Mo1 O12'
_cell_volume   292.51645982
_cell_formula_units_Z   1
loop_
 _symmetry_equiv_pos_site_id
 _symmetry_equiv_pos_as_xyz
  1  'x, y, z'
loop_
 _atom_site_type_symbol
 _atom_site_label
 _atom_site_symmetry_multiplicity
 _atom_site_fract_x
 _atom_site_fract_y
 _atom_site_fract_z
 _atom_site_occupancy
  Nd  Nd0  1  0.386407  0.856397  0.691465  1
  Nd  Nd1  1  0.692668  0.390106  0.857566  1
  Nd  Nd2  1  0.306678  0.612604  0.141323  1
  Nd  Nd3  1  0.613593  0.143167  0.306788  1
  Nd  Nd4  1  0.855783  0.691768  0.387271  1
  Eu  Eu5  1  0.146057  0.311624  0.600617  1
  Mo  Mo6  1  0.000350  0.001504  0.999595  1
  O  O7  1  0.069883  0.285239  0.974415  1
  O  O8  1  0.028637  0.924844  0.714179  1
  O  O9  1  0.408368  0.561731  0.821477  1
  O  O10  1  0.178385  0.592285  0.438186  1
  O  O11  1  0.708977  0.033128  0.931127  1
  O  O12  1  0.436153  0.182106  0.592792  1
  O  O13  1  0.558477  0.825259  0.408284  1
  O  O14  1  0.289600  0.967403  0.069716  1
  O  O15  1  0.830412  0.405492  0.562482  1
  O  O16  1  0.593009  0.439546  0.178746  1
  O  O17  1  0.965328  0.065859  0.289887  1
  O  O18  1  0.931234  0.709938  0.034084  1
