# generated using pymatgen
data_Zr4Al18Co5Os
_symmetry_space_group_name_H-M   'P 1'
_cell_length_a   7.33091546
_cell_length_b   7.33091713
_cell_length_c   9.15379166
_cell_angle_alpha   89.84243330
_cell_angle_beta   89.84243146
_cell_angle_gamma   119.27183170
_symmetry_Int_Tables_number   1
_chemical_formula_structural   Zr4Al18Co5Os
_chemical_formula_sum   'Zr4 Al18 Co5 Os1'
_cell_volume   429.12305755
_cell_formula_units_Z   1
loop_
 _symmetry_equiv_pos_site_id
 _symmetry_equiv_pos_as_xyz
  1  'x, y, z'
loop_
 _atom_site_type_symbol
 _atom_site_label
 _atom_site_symmetry_multiplicity
 _atom_site_fract_x
 _atom_site_fract_y
 _atom_site_fract_z
 _atom_site_occupancy
  Zr  Zr0  1  0.992192  0.674620  0.250440  1
  Zr  Zr1  1  0.007808  0.325380  0.749560  1
  Zr  Zr2  1  0.674620  0.992192  0.250440  1
  Zr  Zr3  1  0.325380  0.007808  0.749560  1
  Al  Al4  1  0.995228  0.338850  0.073699  1
  Al  Al5  1  0.004772  0.661150  0.926301  1
  Al  Al6  1  0.005754  0.663589  0.572605  1
  Al  Al7  1  0.336411  0.994246  0.427395  1
  Al  Al8  1  0.994246  0.336411  0.427395  1
  Al  Al9  1  0.663589  0.005754  0.572605  1
  Al  Al10  1  0.661150  0.004772  0.926301  1
  Al  Al11  1  0.338850  0.995228  0.073699  1
  Al  Al12  1  0.339334  0.562663  0.250683  1
  Al  Al13  1  0.660666  0.437337  0.749317  1
  Al  Al14  1  0.562663  0.339334  0.250683  1
  Al  Al15  1  0.437337  0.660666  0.749317  1
  Al  Al16  1  0.330881  0.330881  0.547878  1
  Al  Al17  1  0.669119  0.669119  0.452122  1
  Al  Al18  1  0.664023  0.664023  0.049840  1
  Al  Al19  1  0.335977  0.335977  0.950160  1
  Al  Al20  1  0.125182  0.125182  0.255511  1
  Al  Al21  1  0.874818  0.874818  0.744489  1
  Co  Co22  1  0.671468  0.328532  0.000000  1
  Co  Co23  1  0.328532  0.671468  0.000000  1
  Co  Co24  1  0.328266  0.671734  0.500000  1
  Co  Co25  1  0.671734  0.328266  0.500000  1
  Co  Co26  1  0.000000  0.000000  0.500000  1
  Os  Os27  1  0.000000  0.000000  0.000000  1
