# generated using pymatgen
data_Eu2ThZrSb5
_symmetry_space_group_name_H-M   'P 1'
_cell_length_a   9.57699700
_cell_length_b   9.49851445
_cell_length_c   6.29992600
_cell_angle_alpha   90.00000000
_cell_angle_beta   90.00000000
_cell_angle_gamma   120.27370003
_symmetry_Int_Tables_number   1
_chemical_formula_structural   Eu2ThZrSb5
_chemical_formula_sum   'Eu4 Th2 Zr2 Sb10'
_cell_volume   494.93335500
_cell_formula_units_Z   2
loop_
 _symmetry_equiv_pos_site_id
 _symmetry_equiv_pos_as_xyz
  1  'x, y, z'
loop_
 _atom_site_type_symbol
 _atom_site_label
 _atom_site_symmetry_multiplicity
 _atom_site_fract_x
 _atom_site_fract_y
 _atom_site_fract_z
 _atom_site_occupancy
  Eu  Eu0  1  0.993614  0.612322  0.750000  1
  Eu  Eu1  1  0.006386  0.387678  0.250000  1
  Eu  Eu2  1  0.381291  0.387678  0.750000  1
  Eu  Eu3  1  0.618709  0.612322  0.250000  1
  Th  Th4  1  0.624624  0.000000  0.750000  1
  Th  Th5  1  0.375376  0.000000  0.250000  1
  Zr  Zr6  1  0.000000  0.000000  0.500000  1
  Zr  Zr7  1  0.000000  0.000000  0.000000  1
  Sb  Sb8  1  0.264774  0.000000  0.750000  1
  Sb  Sb9  1  0.735226  0.000000  0.250000  1
  Sb  Sb10  1  0.001090  0.263175  0.750000  1
  Sb  Sb11  1  0.998910  0.736825  0.250000  1
  Sb  Sb12  1  0.737915  0.736825  0.750000  1
  Sb  Sb13  1  0.262085  0.263175  0.250000  1
  Sb  Sb14  1  0.338713  0.677426  0.500000  1
  Sb  Sb15  1  0.661287  0.322574  0.500000  1
  Sb  Sb16  1  0.661287  0.322574  0.000000  1
  Sb  Sb17  1  0.338713  0.677426  0.000000  1
