# generated using pymatgen
data_TbZrPa(Co3P2)3
_symmetry_space_group_name_H-M   'P 1'
_cell_length_a   3.70845500
_cell_length_b   10.46578100
_cell_length_c   12.10790500
_cell_angle_alpha   90.00000000
_cell_angle_beta   90.00000000
_cell_angle_gamma   90.00000000
_symmetry_Int_Tables_number   1
_chemical_formula_structural   TbZrPa(Co3P2)3
_chemical_formula_sum   'Tb2 Zr2 Pa2 Co18 P12'
_cell_volume   469.93053022
_cell_formula_units_Z   2
loop_
 _symmetry_equiv_pos_site_id
 _symmetry_equiv_pos_as_xyz
  1  'x, y, z'
loop_
 _atom_site_type_symbol
 _atom_site_label
 _atom_site_symmetry_multiplicity
 _atom_site_fract_x
 _atom_site_fract_y
 _atom_site_fract_z
 _atom_site_occupancy
  Tb  Tb0  1  0.000000  0.685598  0.795095  1
  Tb  Tb1  1  0.000000  0.314402  0.795095  1
  Zr  Zr2  1  0.500000  0.817952  0.206071  1
  Zr  Zr3  1  0.500000  0.182048  0.206071  1
  Pa  Pa4  1  0.000000  0.500000  0.528431  1
  Pa  Pa5  1  0.500000  0.000000  0.468753  1
  Co  Co6  1  0.500000  0.500000  0.159707  1
  Co  Co7  1  0.000000  0.000000  0.841651  1
  Co  Co8  1  0.500000  0.500000  0.696410  1
  Co  Co9  1  0.000000  0.000000  0.300306  1
  Co  Co10  1  0.000000  0.500000  0.987970  1
  Co  Co11  1  0.500000  0.000000  0.019279  1
  Co  Co12  1  0.500000  0.332059  0.997145  1
  Co  Co13  1  0.500000  0.667941  0.997145  1
  Co  Co14  1  0.000000  0.164561  0.009917  1
  Co  Co15  1  0.000000  0.835439  0.009917  1
  Co  Co16  1  0.500000  0.300627  0.427860  1
  Co  Co17  1  0.500000  0.699373  0.427860  1
  Co  Co18  1  0.000000  0.197588  0.565684  1
  Co  Co19  1  0.000000  0.802412  0.565684  1
  Co  Co20  1  0.500000  0.880858  0.710527  1
  Co  Co21  1  0.500000  0.119142  0.710527  1
  Co  Co22  1  0.000000  0.622428  0.287074  1
  Co  Co23  1  0.000000  0.377572  0.287074  1
  P  P24  1  0.500000  0.500000  0.881616  1
  P  P25  1  0.000000  0.000000  0.124163  1
  P  P26  1  0.500000  0.500000  0.343272  1
  P  P27  1  0.000000  0.000000  0.655879  1
  P  P28  1  0.500000  0.305697  0.615012  1
  P  P29  1  0.500000  0.694303  0.615012  1
  P  P30  1  0.000000  0.190241  0.378621  1
  P  P31  1  0.000000  0.809759  0.378621  1
  P  P32  1  0.500000  0.849628  0.895796  1
  P  P33  1  0.500000  0.150372  0.895796  1
  P  P34  1  0.000000  0.656374  0.107479  1
  P  P35  1  0.000000  0.343626  0.107479  1
