# generated using pymatgen
data_Cs3InPbI6
_symmetry_space_group_name_H-M   'P 1'
_cell_length_a   10.46642205
_cell_length_b   10.46642255
_cell_length_c   10.46642224
_cell_angle_alpha   91.76947240
_cell_angle_beta   91.76946980
_cell_angle_gamma   91.76947447
_symmetry_Int_Tables_number   1
_chemical_formula_structural   Cs3InPbI6
_chemical_formula_sum   'Cs6 In2 Pb2 I12'
_cell_volume   1144.87987066
_cell_formula_units_Z   2
loop_
 _symmetry_equiv_pos_site_id
 _symmetry_equiv_pos_as_xyz
  1  'x, y, z'
loop_
 _atom_site_type_symbol
 _atom_site_label
 _atom_site_symmetry_multiplicity
 _atom_site_fract_x
 _atom_site_fract_y
 _atom_site_fract_z
 _atom_site_occupancy
  Cs  Cs0  1  0.250000  0.627788  0.872212  1
  Cs  Cs1  1  0.872212  0.250000  0.627788  1
  Cs  Cs2  1  0.627788  0.872212  0.250000  1
  Cs  Cs3  1  0.750000  0.372212  0.127788  1
  Cs  Cs4  1  0.127788  0.750000  0.372212  1
  Cs  Cs5  1  0.372212  0.127788  0.750000  1
  In  In6  1  0.250000  0.250000  0.250000  1
  In  In7  1  0.750000  0.750000  0.750000  1
  Pb  Pb8  1  0.000000  0.000000  0.000000  1
  Pb  Pb9  1  0.500000  0.500000  0.500000  1
  I  I10  1  0.548611  0.203182  0.418824  1
  I  I11  1  0.418824  0.548611  0.203182  1
  I  I12  1  0.203182  0.418824  0.548611  1
  I  I13  1  0.951389  0.081176  0.296818  1
  I  I14  1  0.296818  0.951389  0.081176  1
  I  I15  1  0.081176  0.296818  0.951389  1
  I  I16  1  0.451389  0.796818  0.581176  1
  I  I17  1  0.581176  0.451389  0.796818  1
  I  I18  1  0.796818  0.581176  0.451389  1
  I  I19  1  0.048611  0.918824  0.703182  1
  I  I20  1  0.918824  0.703182  0.048611  1
  I  I21  1  0.703182  0.048611  0.918824  1
