# generated using pymatgen
data_DyErZn5Sn
_symmetry_space_group_name_H-M   'P 1'
_cell_length_a   8.32894904
_cell_length_b   8.32894954
_cell_length_c   8.97847400
_cell_angle_alpha   90.00000000
_cell_angle_beta   90.00000000
_cell_angle_gamma   149.77161519
_symmetry_Int_Tables_number   1
_chemical_formula_structural   DyErZn5Sn
_chemical_formula_sum   'Dy2 Er2 Zn10 Sn2'
_cell_volume   313.57225682
_cell_formula_units_Z   2
loop_
 _symmetry_equiv_pos_site_id
 _symmetry_equiv_pos_as_xyz
  1  'x, y, z'
loop_
 _atom_site_type_symbol
 _atom_site_label
 _atom_site_symmetry_multiplicity
 _atom_site_fract_x
 _atom_site_fract_y
 _atom_site_fract_z
 _atom_site_occupancy
  Dy  Dy0  1  0.000000  0.000000  0.500000  1
  Dy  Dy1  1  0.000000  0.000000  0.000000  1
  Er  Er2  1  0.203032  0.796968  0.250000  1
  Er  Er3  1  0.796968  0.203032  0.750000  1
  Zn  Zn4  1  0.813326  0.186674  0.390819  1
  Zn  Zn5  1  0.186674  0.813326  0.609181  1
  Zn  Zn6  1  0.813326  0.186674  0.109181  1
  Zn  Zn7  1  0.186674  0.813326  0.890819  1
  Zn  Zn8  1  0.656484  0.343516  0.481264  1
  Zn  Zn9  1  0.343516  0.656484  0.518736  1
  Zn  Zn10  1  0.656484  0.343516  0.018736  1
  Zn  Zn11  1  0.343516  0.656484  0.981264  1
  Zn  Zn12  1  0.392112  0.607888  0.250000  1
  Zn  Zn13  1  0.607888  0.392112  0.750000  1
  Sn  Sn14  1  0.554113  0.445887  0.250000  1
  Sn  Sn15  1  0.445887  0.554113  0.750000  1
