# generated using pymatgen
data_Pr3NdMn6(PtO10)2
_symmetry_space_group_name_H-M   'P 1'
_cell_length_a   5.94355511
_cell_length_b   7.64411740
_cell_length_c   8.82536062
_cell_angle_alpha   89.96294916
_cell_angle_beta   90.02177978
_cell_angle_gamma   89.99522926
_symmetry_Int_Tables_number   1
_chemical_formula_structural   Pr3NdMn6(PtO10)2
_chemical_formula_sum   'Pr3 Nd1 Mn6 Pt2 O20'
_cell_volume   400.96455199
_cell_formula_units_Z   1
loop_
 _symmetry_equiv_pos_site_id
 _symmetry_equiv_pos_as_xyz
  1  'x, y, z'
loop_
 _atom_site_type_symbol
 _atom_site_label
 _atom_site_symmetry_multiplicity
 _atom_site_fract_x
 _atom_site_fract_y
 _atom_site_fract_z
 _atom_site_occupancy
  Pr  Pr0  1  0.003162  0.360260  0.671501  1
  Pr  Pr1  1  0.003201  0.639555  0.328472  1
  Pr  Pr2  1  0.996798  0.860745  0.828983  1
  Nd  Nd3  1  0.996918  0.139875  0.171459  1
  Mn  Mn4  1  0.494993  0.086983  0.851296  1
  Mn  Mn5  1  0.495326  0.913845  0.148589  1
  Mn  Mn6  1  0.504570  0.586653  0.648663  1
  Mn  Mn7  1  0.504608  0.412881  0.351263  1
  Mn  Mn8  1  0.740523  0.499272  0.000242  1
  Mn  Mn9  1  0.259367  0.000190  0.499567  1
  Pt  Pt10  1  0.254440  0.499628  0.000214  1
  Pt  Pt11  1  0.745669  0.000207  0.499783  1
  O  O12  1  0.246920  0.902035  0.292396  1
  O  O13  1  0.247536  0.098925  0.707105  1
  O  O14  1  0.752916  0.399386  0.207203  1
  O  O15  1  0.752546  0.598700  0.792918  1
  O  O16  1  0.752514  0.101488  0.713779  1
  O  O17  1  0.753744  0.899816  0.285828  1
  O  O18  1  0.247339  0.601573  0.786366  1
  O  O19  1  0.246795  0.396725  0.213645  1
  O  O20  1  0.510807  0.344042  0.934677  1
  O  O21  1  0.510982  0.655644  0.065605  1
  O  O22  1  0.489195  0.844251  0.565042  1
  O  O23  1  0.489091  0.155966  0.434833  1
  O  O24  1  0.273246  0.001245  0.000671  1
  O  O25  1  0.725933  0.500111  0.499848  1
  O  O26  1  0.716452  0.001126  0.000650  1
  O  O27  1  0.284333  0.500038  0.499804  1
  O  O28  1  0.012397  0.161521  0.444435  1
  O  O29  1  0.012676  0.838734  0.554278  1
  O  O30  1  0.987427  0.660887  0.054460  1
  O  O31  1  0.987579  0.337695  0.946428  1
