# generated using pymatgen
data_Ta3Ti(ZnRu3)2
_symmetry_space_group_name_H-M   'P 1'
_cell_length_a   4.38896501
_cell_length_b   6.26089000
_cell_length_c   13.14942502
_cell_angle_alpha   90.00000000
_cell_angle_beta   89.99358163
_cell_angle_gamma   90.00000000
_symmetry_Int_Tables_number   1
_chemical_formula_structural   Ta3Ti(ZnRu3)2
_chemical_formula_sum   'Ta6 Ti2 Zn4 Ru12'
_cell_volume   361.33077463
_cell_formula_units_Z   2
loop_
 _symmetry_equiv_pos_site_id
 _symmetry_equiv_pos_as_xyz
  1  'x, y, z'
loop_
 _atom_site_type_symbol
 _atom_site_label
 _atom_site_symmetry_multiplicity
 _atom_site_fract_x
 _atom_site_fract_y
 _atom_site_fract_z
 _atom_site_occupancy
  Ta  Ta0  1  0.999966  0.500000  0.993393  1
  Ta  Ta1  1  0.499840  0.000000  0.173267  1
  Ta  Ta2  1  0.999785  0.500000  0.342255  1
  Ta  Ta3  1  0.500022  0.000000  0.501543  1
  Ta  Ta4  1  0.000202  0.500000  0.665113  1
  Ta  Ta5  1  0.500185  0.000000  0.824420  1
  Ti  Ti6  1  0.999997  0.000000  0.997937  1
  Ti  Ti7  1  0.499816  0.500000  0.168750  1
  Zn  Zn8  1  0.999769  0.000000  0.334139  1
  Zn  Zn9  1  0.499998  0.500000  0.500222  1
  Zn  Zn10  1  0.000234  0.000000  0.666448  1
  Zn  Zn11  1  0.500216  0.500000  0.832518  1
  Ru  Ru12  1  0.499970  0.246196  0.002714  1
  Ru  Ru13  1  0.499970  0.753803  0.002714  1
  Ru  Ru14  1  0.999847  0.253827  0.163974  1
  Ru  Ru15  1  0.999847  0.746172  0.163974  1
  Ru  Ru16  1  0.499764  0.254612  0.329393  1
  Ru  Ru17  1  0.499764  0.745389  0.329393  1
  Ru  Ru18  1  0.000022  0.249269  0.500438  1
  Ru  Ru19  1  0.000022  0.750732  0.500438  1
  Ru  Ru20  1  0.500196  0.250709  0.666190  1
  Ru  Ru21  1  0.500196  0.749292  0.666190  1
  Ru  Ru22  1  0.000183  0.245387  0.837289  1
  Ru  Ru23  1  0.000183  0.754612  0.837289  1
