# generated using pymatgen
data_ErTh3(Tc3Ge4)2
_symmetry_space_group_name_H-M   'P 1'
_cell_length_a   8.39090508
_cell_length_b   5.81831504
_cell_length_c   7.05771989
_cell_angle_alpha   76.32691158
_cell_angle_beta   90.20121397
_cell_angle_gamma   90.06328036
_symmetry_Int_Tables_number   1
_chemical_formula_structural   ErTh3(Tc3Ge4)2
_chemical_formula_sum   'Er1 Th3 Tc6 Ge8'
_cell_volume   334.79749727
_cell_formula_units_Z   1
loop_
 _symmetry_equiv_pos_site_id
 _symmetry_equiv_pos_as_xyz
  1  'x, y, z'
loop_
 _atom_site_type_symbol
 _atom_site_label
 _atom_site_symmetry_multiplicity
 _atom_site_fract_x
 _atom_site_fract_y
 _atom_site_fract_z
 _atom_site_occupancy
  Er  Er0  1  0.943038  0.576079  0.243641  1
  Th  Th1  1  0.554423  0.075725  0.248739  1
  Th  Th2  1  0.054743  0.424318  0.753246  1
  Th  Th3  1  0.443408  0.923483  0.751648  1
  Tc  Tc4  1  0.208579  0.116355  0.112712  1
  Tc  Tc5  1  0.707977  0.384070  0.890540  1
  Tc  Tc6  1  0.793282  0.887539  0.886765  1
  Tc  Tc7  1  0.297790  0.616019  0.108621  1
  Tc  Tc8  1  0.000287  0.999089  0.499451  1
  Tc  Tc9  1  0.498787  0.500751  0.500670  1
  Ge  Ge10  1  0.904642  0.115348  0.131504  1
  Ge  Ge11  1  0.404505  0.382480  0.872746  1
  Ge  Ge12  1  0.093778  0.876937  0.881650  1
  Ge  Ge13  1  0.601975  0.617914  0.127759  1
  Ge  Ge14  1  0.750126  0.225873  0.581583  1
  Ge  Ge15  1  0.244002  0.284052  0.413293  1
  Ge  Ge16  1  0.245955  0.772596  0.413621  1
  Ge  Ge17  1  0.752703  0.721373  0.581810  1
