# generated using pymatgen
data_Tb4HoLuGa10
_symmetry_space_group_name_H-M   'P 1'
_cell_length_a   6.11088200
_cell_length_b   9.64666700
_cell_length_c   11.51281800
_cell_angle_alpha   90.00000000
_cell_angle_beta   90.00000000
_cell_angle_gamma   90.00000000
_symmetry_Int_Tables_number   1
_chemical_formula_structural   Tb4HoLuGa10
_chemical_formula_sum   'Tb8 Ho2 Lu2 Ga20'
_cell_volume   678.67651943
_cell_formula_units_Z   2
loop_
 _symmetry_equiv_pos_site_id
 _symmetry_equiv_pos_as_xyz
  1  'x, y, z'
loop_
 _atom_site_type_symbol
 _atom_site_label
 _atom_site_symmetry_multiplicity
 _atom_site_fract_x
 _atom_site_fract_y
 _atom_site_fract_z
 _atom_site_occupancy
  Tb  Tb0  1  0.890002  0.510224  0.351765  1
  Tb  Tb1  1  0.609998  0.989776  0.851765  1
  Tb  Tb2  1  0.109495  0.009665  0.648409  1
  Tb  Tb3  1  0.390505  0.490335  0.148409  1
  Tb  Tb4  1  0.109495  0.490335  0.648409  1
  Tb  Tb5  1  0.390505  0.009665  0.148409  1
  Tb  Tb6  1  0.890002  0.989776  0.351765  1
  Tb  Tb7  1  0.609998  0.510224  0.851765  1
  Ho  Ho8  1  0.150803  0.250000  0.925796  1
  Ho  Ho9  1  0.349197  0.250000  0.425796  1
  Lu  Lu10  1  0.848800  0.750000  0.074459  1
  Lu  Lu11  1  0.651200  0.750000  0.574459  1
  Ga  Ga12  1  0.874978  0.052534  0.090082  1
  Ga  Ga13  1  0.625022  0.447466  0.590082  1
  Ga  Ga14  1  0.124983  0.553298  0.909887  1
  Ga  Ga15  1  0.375017  0.946702  0.409887  1
  Ga  Ga16  1  0.124983  0.946702  0.909887  1
  Ga  Ga17  1  0.375017  0.553298  0.409887  1
  Ga  Ga18  1  0.874978  0.447466  0.090082  1
  Ga  Ga19  1  0.625022  0.052534  0.590082  1
  Ga  Ga20  1  0.172795  0.750000  0.251550  1
  Ga  Ga21  1  0.327205  0.750000  0.751550  1
  Ga  Ga22  1  0.826070  0.250000  0.748112  1
  Ga  Ga23  1  0.673930  0.250000  0.248112  1
  Ga  Ga24  1  0.372301  0.750000  0.004596  1
  Ga  Ga25  1  0.127699  0.750000  0.504596  1
  Ga  Ga26  1  0.628782  0.250000  0.995508  1
  Ga  Ga27  1  0.871218  0.250000  0.495508  1
  Ga  Ga28  1  0.601844  0.750000  0.299049  1
  Ga  Ga29  1  0.898156  0.750000  0.799049  1
  Ga  Ga30  1  0.398577  0.250000  0.700644  1
  Ga  Ga31  1  0.101423  0.250000  0.200644  1
