# generated using pymatgen
data_AcSc(CuSn)2
_symmetry_space_group_name_H-M   'P 1'
_cell_length_a   4.52812700
_cell_length_b   4.52812724
_cell_length_c   7.76312600
_cell_angle_alpha   90.00000000
_cell_angle_beta   90.00000000
_cell_angle_gamma   120.00000556
_symmetry_Int_Tables_number   1
_chemical_formula_structural   AcSc(CuSn)2
_chemical_formula_sum   'Ac1 Sc1 Cu2 Sn2'
_cell_volume   137.84926766
_cell_formula_units_Z   1
loop_
 _symmetry_equiv_pos_site_id
 _symmetry_equiv_pos_as_xyz
  1  'x, y, z'
loop_
 _atom_site_type_symbol
 _atom_site_label
 _atom_site_symmetry_multiplicity
 _atom_site_fract_x
 _atom_site_fract_y
 _atom_site_fract_z
 _atom_site_occupancy
  Ac  Ac0  1  0.000000  0.000000  0.016179  1
  Sc  Sc1  1  0.000000  0.000000  0.514848  1
  Cu  Cu2  1  0.333333  0.666667  0.704011  1
  Cu  Cu3  1  0.666667  0.333333  0.358707  1
  Sn  Sn4  1  0.333333  0.666667  0.296577  1
  Sn  Sn5  1  0.666667  0.333333  0.720899  1
