# generated using pymatgen
data_K2RbSb(AsSe2)6
_symmetry_space_group_name_H-M   'P 1'
_cell_length_a   9.90953200
_cell_length_b   9.90953161
_cell_length_c   8.09581800
_cell_angle_alpha   90.00000000
_cell_angle_beta   90.00000000
_cell_angle_gamma   120.00000131
_symmetry_Int_Tables_number   1
_chemical_formula_structural   K2RbSb(AsSe2)6
_chemical_formula_sum   'K2 Rb1 Sb1 As6 Se12'
_cell_volume   688.48999578
_cell_formula_units_Z   1
loop_
 _symmetry_equiv_pos_site_id
 _symmetry_equiv_pos_as_xyz
  1  'x, y, z'
loop_
 _atom_site_type_symbol
 _atom_site_label
 _atom_site_symmetry_multiplicity
 _atom_site_fract_x
 _atom_site_fract_y
 _atom_site_fract_z
 _atom_site_occupancy
  K  K0  1  0.000000  0.000000  0.999638  1
  K  K1  1  0.333333  0.666667  0.842733  1
  Rb  Rb2  1  0.666667  0.333333  0.158635  1
  Sb  Sb3  1  0.000000  0.000000  0.500692  1
  As  As4  1  0.291063  0.839563  0.377550  1
  As  As5  1  0.160437  0.451500  0.377550  1
  As  As6  1  0.548500  0.708937  0.377550  1
  As  As7  1  0.708952  0.159986  0.622873  1
  As  As8  1  0.840014  0.548966  0.622873  1
  As  As9  1  0.451034  0.291048  0.622873  1
  Se  Se10  1  0.264755  0.056051  0.293409  1
  Se  Se11  1  0.943949  0.208705  0.293409  1
  Se  Se12  1  0.791295  0.735245  0.293409  1
  Se  Se13  1  0.731876  0.941945  0.707637  1
  Se  Se14  1  0.058055  0.789930  0.707637  1
  Se  Se15  1  0.210070  0.268124  0.707637  1
  Se  Se16  1  0.527587  0.906284  0.210903  1
  Se  Se17  1  0.093716  0.621302  0.210903  1
  Se  Se18  1  0.378698  0.472413  0.210903  1
  Se  Se19  1  0.471000  0.091280  0.787062  1
  Se  Se20  1  0.908720  0.379721  0.787062  1
  Se  Se21  1  0.620279  0.529000  0.787062  1
