# generated using pymatgen
data_CePaCl6
_symmetry_space_group_name_H-M   'P 1'
_cell_length_a   7.51268800
_cell_length_b   7.51590678
_cell_length_c   4.24315900
_cell_angle_alpha   90.00000000
_cell_angle_beta   90.00000000
_cell_angle_gamma   119.99657243
_symmetry_Int_Tables_number   1
_chemical_formula_structural   CePaCl6
_chemical_formula_sum   'Ce1 Pa1 Cl6'
_cell_volume   207.49692943
_cell_formula_units_Z   1
loop_
 _symmetry_equiv_pos_site_id
 _symmetry_equiv_pos_as_xyz
  1  'x, y, z'
loop_
 _atom_site_type_symbol
 _atom_site_label
 _atom_site_symmetry_multiplicity
 _atom_site_fract_x
 _atom_site_fract_y
 _atom_site_fract_z
 _atom_site_occupancy
  Ce  Ce0  1  0.667074  0.333298  0.750001  1
  Pa  Pa1  1  0.333281  0.666818  0.250000  1
  Cl  Cl2  1  0.693464  0.078589  0.250000  1
  Cl  Cl3  1  0.385846  0.306849  0.250000  1
  Cl  Cl4  1  0.920561  0.613879  0.250000  1
  Cl  Cl5  1  0.092093  0.388786  0.750001  1
  Cl  Cl6  1  0.611790  0.704086  0.750001  1
  Cl  Cl7  1  0.295888  0.907694  0.750001  1
