# generated using pymatgen
data_TbHo(BeB14)2
_symmetry_space_group_name_H-M   'P 1'
_cell_length_a   7.20477272
_cell_length_b   7.20477136
_cell_length_c   7.20477279
_cell_angle_alpha   132.75532023
_cell_angle_beta   110.32090503
_cell_angle_gamma   88.50173161
_symmetry_Int_Tables_number   1
_chemical_formula_structural   TbHo(BeB14)2
_chemical_formula_sum   'Tb1 Ho1 Be2 B28'
_cell_volume   245.29339631
_cell_formula_units_Z   1
loop_
 _symmetry_equiv_pos_site_id
 _symmetry_equiv_pos_as_xyz
  1  'x, y, z'
loop_
 _atom_site_type_symbol
 _atom_site_label
 _atom_site_symmetry_multiplicity
 _atom_site_fract_x
 _atom_site_fract_y
 _atom_site_fract_z
 _atom_site_occupancy
  Tb  Tb0  1  0.392664  0.750000  0.642664  1
  Ho  Ho1  1  0.607842  0.250000  0.357842  1
  Be  Be2  1  0.000019  0.500041  0.000060  1
  Be  Be3  1  0.000019  0.999959  0.499978  1
  B  B4  1  0.978490  0.343984  0.634506  1
  B  B5  1  0.629372  0.327981  0.794934  1
  B  B6  1  0.799281  0.833721  0.965559  1
  B  B7  1  0.631838  0.666279  0.965559  1
  B  B8  1  0.201040  0.166314  0.034727  1
  B  B9  1  0.780534  0.777850  0.676313  1
  B  B10  1  0.966953  0.665562  0.794934  1
  B  B11  1  0.020721  0.655840  0.364881  1
  B  B12  1  0.966953  0.172019  0.301392  1
  B  B13  1  0.032809  0.828041  0.698587  1
  B  B14  1  0.368413  0.333686  0.034727  1
  B  B15  1  0.075080  0.907669  0.167411  1
  B  B16  1  0.629372  0.834438  0.301392  1
  B  B17  1  0.398463  0.722150  0.002684  1
  B  B18  1  0.240042  0.407631  0.832412  1
  B  B19  1  0.219725  0.221652  0.323481  1
  B  B20  1  0.209040  0.844160  0.364881  1
  B  B21  1  0.924782  0.092369  0.832412  1
  B  B22  1  0.398463  0.395778  0.676313  1
  B  B23  1  0.219725  0.896244  0.998073  1
  B  B24  1  0.780534  0.104222  0.002684  1
  B  B25  1  0.601829  0.278348  0.998073  1
  B  B26  1  0.601829  0.603756  0.323481  1
  B  B27  1  0.032809  0.334221  0.204768  1
  B  B28  1  0.759743  0.592331  0.167411  1
  B  B29  1  0.790524  0.156016  0.634506  1
  B  B30  1  0.370546  0.165779  0.698587  1
  B  B31  1  0.370546  0.671959  0.204768  1
