# generated using pymatgen
data_AlCd3P7N12
_symmetry_space_group_name_H-M   'P 1'
_cell_length_a   7.27400297
_cell_length_b   7.32170525
_cell_length_c   7.32170541
_cell_angle_alpha   109.60281239
_cell_angle_beta   109.33929328
_cell_angle_gamma   109.33930807
_symmetry_Int_Tables_number   1
_chemical_formula_structural   AlCd3P7N12
_chemical_formula_sum   'Al1 Cd3 P7 N12'
_cell_volume   300.66340906
_cell_formula_units_Z   1
loop_
 _symmetry_equiv_pos_site_id
 _symmetry_equiv_pos_as_xyz
  1  'x, y, z'
loop_
 _atom_site_type_symbol
 _atom_site_label
 _atom_site_symmetry_multiplicity
 _atom_site_fract_x
 _atom_site_fract_y
 _atom_site_fract_z
 _atom_site_occupancy
  Al  Al0  1  0.621806  0.000000  0.000000  1
  Cd  Cd1  1  0.002182  0.000000  0.690891  1
  Cd  Cd2  1  0.002182  0.690891  0.000000  1
  Cd  Cd3  1  0.311291  0.309109  0.309109  1
  P  P4  1  0.256892  0.748368  0.502453  1
  P  P5  1  0.754439  0.245915  0.497547  1
  P  P6  1  0.754439  0.497547  0.245915  1
  P  P7  1  0.256892  0.502453  0.748368  1
  P  P8  1  0.508524  0.754085  0.251632  1
  P  P9  1  0.508524  0.251632  0.754085  1
  P  P10  1  0.943827  0.000000  0.000000  1
  N  N11  1  0.702335  0.264239  0.264239  1
  N  N12  1  0.292739  0.723837  0.288500  1
  N  N13  1  0.307389  0.576725  0.576725  1
  N  N14  1  0.568902  0.564663  0.276163  1
  N  N15  1  0.438097  0.735761  0.000000  1
  N  N16  1  0.004239  0.711500  0.435337  1
  N  N17  1  0.568902  0.276163  0.564663  1
  N  N18  1  0.730663  0.000000  0.423275  1
  N  N19  1  0.438097  0.000000  0.735761  1
  N  N20  1  0.730663  0.423275  0.000000  1
  N  N21  1  0.292739  0.288500  0.723837  1
  N  N22  1  0.004239  0.435337  0.711500  1
