# generated using pymatgen
data_Ac8TmPd6
_symmetry_space_group_name_H-M   'P 1'
_cell_length_a   8.09900259
_cell_length_b   8.09900292
_cell_length_c   8.09900148
_cell_angle_alpha   72.43934582
_cell_angle_beta   72.43935008
_cell_angle_gamma   72.43935078
_symmetry_Int_Tables_number   1
_chemical_formula_structural   Ac8TmPd6
_chemical_formula_sum   'Ac8 Tm1 Pd6'
_cell_volume   469.73423980
_cell_formula_units_Z   1
loop_
 _symmetry_equiv_pos_site_id
 _symmetry_equiv_pos_as_xyz
  1  'x, y, z'
loop_
 _atom_site_type_symbol
 _atom_site_label
 _atom_site_symmetry_multiplicity
 _atom_site_fract_x
 _atom_site_fract_y
 _atom_site_fract_z
 _atom_site_occupancy
  Ac  Ac0  1  0.702244  0.702244  0.702244  1
  Ac  Ac1  1  0.297756  0.297756  0.297756  1
  Ac  Ac2  1  0.878146  0.175148  0.666853  1
  Ac  Ac3  1  0.666853  0.878146  0.175148  1
  Ac  Ac4  1  0.175148  0.666853  0.878146  1
  Ac  Ac5  1  0.121854  0.824852  0.333147  1
  Ac  Ac6  1  0.333147  0.121854  0.824852  1
  Ac  Ac7  1  0.824852  0.333147  0.121854  1
  Tm  Tm8  1  0.500000  0.500000  0.500000  1
  Pd  Pd9  1  0.895161  0.536682  0.356400  1
  Pd  Pd10  1  0.356400  0.895161  0.536682  1
  Pd  Pd11  1  0.536682  0.356400  0.895161  1
  Pd  Pd12  1  0.104839  0.463318  0.643600  1
  Pd  Pd13  1  0.643600  0.104839  0.463318  1
  Pd  Pd14  1  0.463318  0.643600  0.104839  1
