# generated using pymatgen
data_CeTm3Ga12Ir
_symmetry_space_group_name_H-M   'P 1'
_cell_length_a   7.41699694
_cell_length_b   7.41181074
_cell_length_c   7.41699800
_cell_angle_alpha   109.45705639
_cell_angle_beta   109.48539348
_cell_angle_gamma   109.45704753
_symmetry_Int_Tables_number   1
_chemical_formula_structural   CeTm3Ga12Ir
_chemical_formula_sum   'Ce1 Tm3 Ga12 Ir1'
_cell_volume   313.93125821
_cell_formula_units_Z   1
loop_
 _symmetry_equiv_pos_site_id
 _symmetry_equiv_pos_as_xyz
  1  'x, y, z'
loop_
 _atom_site_type_symbol
 _atom_site_label
 _atom_site_symmetry_multiplicity
 _atom_site_fract_x
 _atom_site_fract_y
 _atom_site_fract_z
 _atom_site_occupancy
  Ce  Ce0  1  0.000000  0.500000  0.000000  1
  Tm  Tm1  1  0.000000  0.000000  0.500000  1
  Tm  Tm2  1  0.500000  0.000000  0.000000  1
  Tm  Tm3  1  0.500000  0.500000  0.500000  1
  Ga  Ga4  1  0.748820  0.248820  0.497639  1
  Ga  Ga5  1  0.748820  0.500000  0.251180  1
  Ga  Ga6  1  0.497639  0.248820  0.748820  1
  Ga  Ga7  1  0.251180  0.500000  0.748820  1
  Ga  Ga8  1  0.251180  0.751180  0.502361  1
  Ga  Ga9  1  0.502361  0.751180  0.251180  1
  Ga  Ga10  1  0.705608  0.707022  0.000000  1
  Ga  Ga11  1  0.294392  0.001414  0.294392  1
  Ga  Ga12  1  0.000000  0.292978  0.294392  1
  Ga  Ga13  1  0.294392  0.292978  0.000000  1
  Ga  Ga14  1  0.705608  0.998586  0.705608  1
  Ga  Ga15  1  0.000000  0.707022  0.705608  1
  Ir  Ir16  1  0.000000  0.000000  0.000000  1
