# generated using pymatgen
data_Ho3ErRe2(B8Rh)2
_symmetry_space_group_name_H-M   'P 1'
_cell_length_a   3.58061600
_cell_length_b   5.95438541
_cell_length_c   11.53539201
_cell_angle_alpha   90.30331116
_cell_angle_beta   90.00000000
_cell_angle_gamma   90.00000000
_symmetry_Int_Tables_number   1
_chemical_formula_structural   Ho3ErRe2(B8Rh)2
_chemical_formula_sum   'Ho3 Er1 Re2 B16 Rh2'
_cell_volume   245.93535285
_cell_formula_units_Z   1
loop_
 _symmetry_equiv_pos_site_id
 _symmetry_equiv_pos_as_xyz
  1  'x, y, z'
loop_
 _atom_site_type_symbol
 _atom_site_label
 _atom_site_symmetry_multiplicity
 _atom_site_fract_x
 _atom_site_fract_y
 _atom_site_fract_z
 _atom_site_occupancy
  Ho  Ho0  1  0.000000  0.371373  0.849937  1
  Ho  Ho1  1  0.000000  0.127534  0.351938  1
  Ho  Ho2  1  0.000000  0.872469  0.648062  1
  Er  Er3  1  0.000000  0.628671  0.150040  1
  Re  Re4  1  0.000000  0.134293  0.088750  1
  Re  Re5  1  0.000000  0.865707  0.911369  1
  B  B6  1  0.500000  0.975349  0.192617  1
  B  B7  1  0.500000  0.024492  0.807382  1
  B  B8  1  0.500000  0.476508  0.307160  1
  B  B9  1  0.500000  0.523556  0.692725  1
  B  B10  1  0.500000  0.789428  0.314112  1
  B  B11  1  0.500000  0.210541  0.685801  1
  B  B12  1  0.500000  0.288782  0.186146  1
  B  B13  1  0.500000  0.711427  0.813853  1
  B  B14  1  0.500000  0.864135  0.468939  1
  B  B15  1  0.500000  0.135858  0.531057  1
  B  B16  1  0.500000  0.364951  0.030788  1
  B  B17  1  0.500000  0.635162  0.969347  1
  B  B18  1  0.500000  0.886552  0.046995  1
  B  B19  1  0.500000  0.113220  0.953107  1
  B  B20  1  0.500000  0.386781  0.452445  1
  B  B21  1  0.500000  0.613227  0.547554  1
  Rh  Rh22  1  0.000000  0.640650  0.405535  1
  Rh  Rh23  1  0.000000  0.359334  0.594343  1
