# generated using pymatgen
data_BaCeCuSe3
_symmetry_space_group_name_H-M   'P 1'
_cell_length_a   7.40581325
_cell_length_b   7.40581277
_cell_length_c   11.08333900
_cell_angle_alpha   90.00000000
_cell_angle_beta   90.00000000
_cell_angle_gamma   146.29252922
_symmetry_Int_Tables_number   1
_chemical_formula_structural   BaCeCuSe3
_chemical_formula_sum   'Ba2 Ce2 Cu2 Se6'
_cell_volume   337.34340775
_cell_formula_units_Z   2
loop_
 _symmetry_equiv_pos_site_id
 _symmetry_equiv_pos_as_xyz
  1  'x, y, z'
loop_
 _atom_site_type_symbol
 _atom_site_label
 _atom_site_symmetry_multiplicity
 _atom_site_fract_x
 _atom_site_fract_y
 _atom_site_fract_z
 _atom_site_occupancy
  Ba  Ba0  1  0.253836  0.746164  0.250000  1
  Ba  Ba1  1  0.746164  0.253836  0.750000  1
  Ce  Ce2  1  0.000000  0.000000  0.500000  1
  Ce  Ce3  1  0.000000  0.000000  0.000000  1
  Cu  Cu4  1  0.532316  0.467684  0.250000  1
  Cu  Cu5  1  0.467684  0.532316  0.750000  1
  Se  Se6  1  0.635770  0.364230  0.429710  1
  Se  Se7  1  0.364230  0.635770  0.570290  1
  Se  Se8  1  0.635770  0.364230  0.070290  1
  Se  Se9  1  0.364230  0.635770  0.929710  1
  Se  Se10  1  0.931419  0.068581  0.250000  1
  Se  Se11  1  0.068581  0.931419  0.750000  1
