# generated using pymatgen
data_Nd5DyAl24(Ir3Ru)2
_symmetry_space_group_name_H-M   'P 1'
_cell_length_a   8.87001600
_cell_length_b   8.90416040
_cell_length_c   9.62475000
_cell_angle_alpha   90.00000000
_cell_angle_beta   90.00000000
_cell_angle_gamma   119.87323887
_symmetry_Int_Tables_number   1
_chemical_formula_structural   Nd5DyAl24(Ir3Ru)2
_chemical_formula_sum   'Nd5 Dy1 Al24 Ir6 Ru2'
_cell_volume   659.15991374
_cell_formula_units_Z   1
loop_
 _symmetry_equiv_pos_site_id
 _symmetry_equiv_pos_as_xyz
  1  'x, y, z'
loop_
 _atom_site_type_symbol
 _atom_site_label
 _atom_site_symmetry_multiplicity
 _atom_site_fract_x
 _atom_site_fract_y
 _atom_site_fract_z
 _atom_site_occupancy
  Nd  Nd0  1  0.808913  0.617828  0.750000  1
  Nd  Nd1  1  0.619341  0.809613  0.250000  1
  Nd  Nd2  1  0.380939  0.189967  0.750000  1
  Nd  Nd3  1  0.190273  0.809613  0.250000  1
  Nd  Nd4  1  0.809028  0.189967  0.750000  1
  Dy  Dy5  1  0.193679  0.387357  0.250000  1
  Al  Al6  1  0.333158  0.666317  0.026747  1
  Al  Al7  1  0.666173  0.332346  0.976385  1
  Al  Al8  1  0.666173  0.332346  0.523615  1
  Al  Al9  1  0.333158  0.666317  0.473253  1
  Al  Al10  1  0.163445  0.326889  0.572811  1
  Al  Al11  1  0.836336  0.672672  0.424284  1
  Al  Al12  1  0.672405  0.835652  0.575634  1
  Al  Al13  1  0.836336  0.672672  0.075716  1
  Al  Al14  1  0.326185  0.164810  0.422568  1
  Al  Al15  1  0.163445  0.326889  0.927189  1
  Al  Al16  1  0.163247  0.835652  0.575634  1
  Al  Al17  1  0.326185  0.164810  0.077432  1
  Al  Al18  1  0.838625  0.164810  0.422568  1
  Al  Al19  1  0.672405  0.835652  0.924366  1
  Al  Al20  1  0.838625  0.164810  0.077432  1
  Al  Al21  1  0.163247  0.835652  0.924366  1
  Al  Al22  1  0.563387  0.126773  0.250000  1
  Al  Al23  1  0.436289  0.872577  0.750000  1
  Al  Al24  1  0.875025  0.436959  0.250000  1
  Al  Al25  1  0.126404  0.561962  0.750000  1
  Al  Al26  1  0.561934  0.436959  0.250000  1
  Al  Al27  1  0.435558  0.561962  0.750000  1
  Al  Al28  1  0.003127  0.006254  0.250000  1
  Al  Al29  1  0.999483  0.998966  0.750000  1
  Ir  Ir30  1  0.499711  0.999423  0.000405  1
  Ir  Ir31  1  0.000717  0.499137  0.001240  1
  Ir  Ir32  1  0.499711  0.999423  0.499595  1
  Ir  Ir33  1  0.498420  0.499137  0.001240  1
  Ir  Ir34  1  0.000717  0.499137  0.498760  1
  Ir  Ir35  1  0.498420  0.499137  0.498760  1
  Ru  Ru36  1  0.999887  0.999775  0.000317  1
  Ru  Ru37  1  0.999887  0.999775  0.499683  1
