# generated using pymatgen
data_La5Nd3(CdPt)2
_symmetry_space_group_name_H-M   'P 1'
_cell_length_a   10.15695743
_cell_length_b   10.15695755
_cell_length_c   10.15695700
_cell_angle_alpha   59.99999852
_cell_angle_beta   59.99999816
_cell_angle_gamma   59.99999913
_symmetry_Int_Tables_number   1
_chemical_formula_structural   La5Nd3(CdPt)2
_chemical_formula_sum   'La10 Nd6 Cd4 Pt4'
_cell_volume   740.92776898
_cell_formula_units_Z   2
loop_
 _symmetry_equiv_pos_site_id
 _symmetry_equiv_pos_as_xyz
  1  'x, y, z'
loop_
 _atom_site_type_symbol
 _atom_site_label
 _atom_site_symmetry_multiplicity
 _atom_site_fract_x
 _atom_site_fract_y
 _atom_site_fract_z
 _atom_site_occupancy
  La  La0  1  0.349881  0.349881  0.349881  1
  La  La1  1  0.349881  0.349881  0.950357  1
  La  La2  1  0.349881  0.950357  0.349881  1
  La  La3  1  0.950357  0.349881  0.349881  1
  La  La4  1  0.806320  0.193680  0.193680  1
  La  La5  1  0.193680  0.806320  0.806320  1
  La  La6  1  0.193680  0.806320  0.193680  1
  La  La7  1  0.806320  0.193680  0.806320  1
  La  La8  1  0.193680  0.193680  0.806320  1
  La  La9  1  0.806320  0.806320  0.193680  1
  Nd  Nd10  1  0.933791  0.566209  0.566209  1
  Nd  Nd11  1  0.566209  0.933791  0.933791  1
  Nd  Nd12  1  0.566209  0.933791  0.566209  1
  Nd  Nd13  1  0.933791  0.566209  0.933791  1
  Nd  Nd14  1  0.566209  0.566209  0.933791  1
  Nd  Nd15  1  0.933791  0.933791  0.566209  1
  Cd  Cd16  1  0.580943  0.580943  0.580943  1
  Cd  Cd17  1  0.580943  0.580943  0.257171  1
  Cd  Cd18  1  0.580943  0.257171  0.580943  1
  Cd  Cd19  1  0.257171  0.580943  0.580943  1
  Pt  Pt20  1  0.142480  0.142480  0.142480  1
  Pt  Pt21  1  0.142480  0.142480  0.572559  1
  Pt  Pt22  1  0.142480  0.572559  0.142480  1
  Pt  Pt23  1  0.572559  0.142480  0.142480  1
