# generated using pymatgen
data_Ho4Sc4Mn(B8Ir)3
_symmetry_space_group_name_H-M   'P 1'
_cell_length_a   3.52906100
_cell_length_b   8.96984002
_cell_length_c   11.34757502
_cell_angle_alpha   89.99293592
_cell_angle_beta   90.00000000
_cell_angle_gamma   90.00000000
_symmetry_Int_Tables_number   1
_chemical_formula_structural   Ho4Sc4Mn(B8Ir)3
_chemical_formula_sum   'Ho4 Sc4 Mn1 B24 Ir3'
_cell_volume   359.20876209
_cell_formula_units_Z   1
loop_
 _symmetry_equiv_pos_site_id
 _symmetry_equiv_pos_as_xyz
  1  'x, y, z'
loop_
 _atom_site_type_symbol
 _atom_site_label
 _atom_site_symmetry_multiplicity
 _atom_site_fract_x
 _atom_site_fract_y
 _atom_site_fract_z
 _atom_site_occupancy
  Ho  Ho0  1  0.500000  0.316037  0.409644  1
  Ho  Ho1  1  0.500000  0.680564  0.585625  1
  Ho  Ho2  1  0.500000  0.179607  0.918814  1
  Ho  Ho3  1  0.500000  0.824589  0.087766  1
  Sc  Sc4  1  0.500000  0.438980  0.124875  1
  Sc  Sc5  1  0.500000  0.555118  0.876646  1
  Sc  Sc6  1  0.500000  0.055113  0.624003  1
  Sc  Sc7  1  0.500000  0.949646  0.371916  1
  Mn  Mn8  1  0.500000  0.140623  0.181463  1
  B  B9  1  0.000000  0.100441  0.472573  1
  B  B10  1  0.000000  0.899972  0.526786  1
  B  B11  1  0.000000  0.398948  0.973144  1
  B  B12  1  0.000000  0.600707  0.027412  1
  B  B13  1  0.000000  0.129959  0.314964  1
  B  B14  1  0.000000  0.870018  0.681061  1
  B  B15  1  0.000000  0.370267  0.819359  1
  B  B16  1  0.000000  0.629573  0.181754  1
  B  B17  1  0.000000  0.055924  0.068968  1
  B  B18  1  0.000000  0.945980  0.934742  1
  B  B19  1  0.000000  0.444765  0.565540  1
  B  B20  1  0.000000  0.554082  0.433301  1
  B  B21  1  0.000000  0.480560  0.284911  1
  B  B22  1  0.000000  0.518634  0.715309  1
  B  B23  1  0.000000  0.018991  0.785578  1
  B  B24  1  0.000000  0.984766  0.213672  1
  B  B25  1  0.000000  0.251170  0.083096  1
  B  B26  1  0.000000  0.746287  0.920710  1
  B  B27  1  0.000000  0.245562  0.579481  1
  B  B28  1  0.000000  0.755085  0.419084  1
  B  B29  1  0.000000  0.292466  0.233661  1
  B  B30  1  0.000000  0.704819  0.764444  1
  B  B31  1  0.000000  0.205095  0.735797  1
  B  B32  1  0.000000  0.796074  0.264908  1
  Ir  Ir33  1  0.500000  0.859767  0.819113  1
  Ir  Ir34  1  0.500000  0.359093  0.681020  1
  Ir  Ir35  1  0.500000  0.640716  0.318860  1
