# generated using pymatgen
data_Sr3YbIrO6
_symmetry_space_group_name_H-M   'P 1'
_cell_length_a   6.83648001
_cell_length_b   6.83647886
_cell_length_c   6.83647925
_cell_angle_alpha   91.82566383
_cell_angle_beta   91.82565686
_cell_angle_gamma   91.82566949
_symmetry_Int_Tables_number   1
_chemical_formula_structural   Sr3YbIrO6
_chemical_formula_sum   'Sr6 Yb2 Ir2 O12'
_cell_volume   319.02244620
_cell_formula_units_Z   2
loop_
 _symmetry_equiv_pos_site_id
 _symmetry_equiv_pos_as_xyz
  1  'x, y, z'
loop_
 _atom_site_type_symbol
 _atom_site_label
 _atom_site_symmetry_multiplicity
 _atom_site_fract_x
 _atom_site_fract_y
 _atom_site_fract_z
 _atom_site_occupancy
  Sr  Sr0  1  0.388005  0.111995  0.750000  1
  Sr  Sr1  1  0.111995  0.750000  0.388005  1
  Sr  Sr2  1  0.250000  0.611995  0.888005  1
  Sr  Sr3  1  0.888005  0.250000  0.611995  1
  Sr  Sr4  1  0.611995  0.888005  0.250000  1
  Sr  Sr5  1  0.750000  0.388005  0.111995  1
  Yb  Yb6  1  0.750000  0.750000  0.750000  1
  Yb  Yb7  1  0.250000  0.250000  0.250000  1
  Ir  Ir8  1  0.500000  0.500000  0.500000  1
  Ir  Ir9  1  0.000000  0.000000  0.000000  1
  O  O10  1  0.286023  0.950798  0.084173  1
  O  O11  1  0.415827  0.549202  0.213977  1
  O  O12  1  0.213977  0.415827  0.549202  1
  O  O13  1  0.549202  0.213977  0.415827  1
  O  O14  1  0.084173  0.286023  0.950798  1
  O  O15  1  0.950798  0.084173  0.286023  1
  O  O16  1  0.915827  0.713977  0.049202  1
  O  O17  1  0.049202  0.915827  0.713977  1
  O  O18  1  0.450798  0.786023  0.584173  1
  O  O19  1  0.786023  0.584173  0.450798  1
  O  O20  1  0.584173  0.450798  0.786023  1
  O  O21  1  0.713977  0.049202  0.915827  1
