# generated using pymatgen
data_NdDy4Zr3(Co4As3)4
_symmetry_space_group_name_H-M   'P 1'
_cell_length_a   12.76088100
_cell_length_b   12.76087891
_cell_length_c   3.84619100
_cell_angle_alpha   90.00000000
_cell_angle_beta   90.00000000
_cell_angle_gamma   120.00000282
_symmetry_Int_Tables_number   1
_chemical_formula_structural   NdDy4Zr3(Co4As3)4
_chemical_formula_sum   'Nd1 Dy4 Zr3 Co16 As12'
_cell_volume   542.40378706
_cell_formula_units_Z   1
loop_
 _symmetry_equiv_pos_site_id
 _symmetry_equiv_pos_as_xyz
  1  'x, y, z'
loop_
 _atom_site_type_symbol
 _atom_site_label
 _atom_site_symmetry_multiplicity
 _atom_site_fract_x
 _atom_site_fract_y
 _atom_site_fract_z
 _atom_site_occupancy
  Nd  Nd0  1  0.666667  0.333333  0.000000  1
  Dy  Dy1  1  0.182916  0.182541  0.500000  1
  Dy  Dy2  1  0.817459  0.000375  0.500000  1
  Dy  Dy3  1  0.999625  0.817084  0.500000  1
  Dy  Dy4  1  0.333333  0.666667  0.000000  1
  Zr  Zr5  1  0.560430  0.561694  0.000000  1
  Zr  Zr6  1  0.438306  0.998736  0.000000  1
  Zr  Zr7  1  0.001264  0.439570  0.000000  1
  Co  Co8  1  0.720008  0.721672  0.500000  1
  Co  Co9  1  0.278328  0.998336  0.500000  1
  Co  Co10  1  0.001664  0.279992  0.500000  1
  Co  Co11  1  0.178149  0.373815  0.000000  1
  Co  Co12  1  0.626185  0.804334  0.000000  1
  Co  Co13  1  0.195666  0.821851  0.000000  1
  Co  Co14  1  0.804849  0.628621  0.000000  1
  Co  Co15  1  0.823772  0.195151  0.000000  1
  Co  Co16  1  0.371379  0.176228  0.000000  1
  Co  Co17  1  0.357377  0.480598  0.500000  1
  Co  Co18  1  0.519402  0.876781  0.500000  1
  Co  Co19  1  0.123219  0.642623  0.500000  1
  Co  Co20  1  0.879903  0.523198  0.500000  1
  Co  Co21  1  0.643296  0.120097  0.500000  1
  Co  Co22  1  0.476802  0.356704  0.500000  1
  Co  Co23  1  0.000000  0.000000  0.000000  1
  As  As24  1  0.822676  0.823648  0.000000  1
  As  As25  1  0.176352  0.999028  0.000000  1
  As  As26  1  0.000972  0.177324  0.000000  1
  As  As27  1  0.173933  0.481708  0.500000  1
  As  As28  1  0.518292  0.692226  0.500000  1
  As  As29  1  0.307774  0.826067  0.500000  1
  As  As30  1  0.693132  0.522599  0.500000  1
  As  As31  1  0.829467  0.306868  0.500000  1
  As  As32  1  0.477401  0.170533  0.500000  1
  As  As33  1  0.351932  0.352005  0.000000  1
  As  As34  1  0.647995  0.999928  0.000000  1
  As  As35  1  0.000072  0.648068  0.000000  1
