# generated using pymatgen
data_BaSmPt10
_symmetry_space_group_name_H-M   'P 1'
_cell_length_a   4.40802200
_cell_length_b   5.52562100
_cell_length_c   9.55682000
_cell_angle_alpha   89.99998963
_cell_angle_beta   90.00000000
_cell_angle_gamma   90.00000000
_symmetry_Int_Tables_number   1
_chemical_formula_structural   BaSmPt10
_chemical_formula_sum   'Ba1 Sm1 Pt10'
_cell_volume   232.77602794
_cell_formula_units_Z   1
loop_
 _symmetry_equiv_pos_site_id
 _symmetry_equiv_pos_as_xyz
  1  'x, y, z'
loop_
 _atom_site_type_symbol
 _atom_site_label
 _atom_site_symmetry_multiplicity
 _atom_site_fract_x
 _atom_site_fract_y
 _atom_site_fract_z
 _atom_site_occupancy
  Ba  Ba0  1  0.000000  0.499978  0.500000  1
  Sm  Sm1  1  0.000000  0.999980  0.000000  1
  Pt  Pt2  1  0.000000  0.999985  0.322631  1
  Pt  Pt3  1  0.000000  0.499986  0.841110  1
  Pt  Pt4  1  0.000000  0.499986  0.158890  1
  Pt  Pt5  1  0.000000  0.999985  0.677369  1
  Pt  Pt6  1  0.500000  0.999977  0.500000  1
  Pt  Pt7  1  0.500000  0.499990  0.000000  1
  Pt  Pt8  1  0.500000  0.244847  0.240277  1
  Pt  Pt9  1  0.500000  0.755119  0.759722  1
  Pt  Pt10  1  0.500000  0.755119  0.240278  1
  Pt  Pt11  1  0.500000  0.244847  0.759723  1
