# generated using pymatgen
data_CeThMn4O12
_symmetry_space_group_name_H-M   'P 1'
_cell_length_a   5.00775961
_cell_length_b   7.06413073
_cell_length_c   7.06413028
_cell_angle_alpha   75.87218233
_cell_angle_beta   69.22304172
_cell_angle_gamma   69.22304147
_symmetry_Int_Tables_number   1
_chemical_formula_structural   CeThMn4O12
_chemical_formula_sum   'Ce1 Th1 Mn4 O12'
_cell_volume   216.44342019
_cell_formula_units_Z   1
loop_
 _symmetry_equiv_pos_site_id
 _symmetry_equiv_pos_as_xyz
  1  'x, y, z'
loop_
 _atom_site_type_symbol
 _atom_site_label
 _atom_site_symmetry_multiplicity
 _atom_site_fract_x
 _atom_site_fract_y
 _atom_site_fract_z
 _atom_site_occupancy
  Ce  Ce0  1  0.750000  0.249423  0.750577  1
  Th  Th1  1  0.250000  0.750887  0.249113  1
  Mn  Mn2  1  0.998706  0.332767  0.166042  1
  Mn  Mn3  1  0.501294  0.833958  0.667233  1
  Mn  Mn4  1  0.001070  0.665618  0.832303  1
  Mn  Mn5  1  0.498930  0.167697  0.334382  1
  O  O6  1  0.475341  0.893391  0.393617  1
  O  O7  1  0.024659  0.606383  0.106609  1
  O  O8  1  0.532271  0.108246  0.608088  1
  O  O9  1  0.967729  0.391912  0.891754  1
  O  O10  1  0.072161  0.288817  0.426599  1
  O  O11  1  0.427839  0.573401  0.711183  1
  O  O12  1  0.925522  0.710941  0.575520  1
  O  O13  1  0.574478  0.424480  0.289059  1
  O  O14  1  0.922713  0.076429  0.210389  1
  O  O15  1  0.577287  0.789611  0.923571  1
  O  O16  1  0.074822  0.925677  0.789638  1
  O  O17  1  0.425178  0.210362  0.074323  1
