# generated using pymatgen
data_Ho3Al3GePdPt
_symmetry_space_group_name_H-M   'P 1'
_cell_length_a   7.04824400
_cell_length_b   7.04824406
_cell_length_c   4.15987600
_cell_angle_alpha   90.00000000
_cell_angle_beta   90.00000000
_cell_angle_gamma   119.99999034
_symmetry_Int_Tables_number   1
_chemical_formula_structural   Ho3Al3GePdPt
_chemical_formula_sum   'Ho3 Al3 Ge1 Pd1 Pt1'
_cell_volume   178.96698562
_cell_formula_units_Z   1
loop_
 _symmetry_equiv_pos_site_id
 _symmetry_equiv_pos_as_xyz
  1  'x, y, z'
loop_
 _atom_site_type_symbol
 _atom_site_label
 _atom_site_symmetry_multiplicity
 _atom_site_fract_x
 _atom_site_fract_y
 _atom_site_fract_z
 _atom_site_occupancy
  Ho  Ho0  1  0.420968  0.005129  0.500000  1
  Ho  Ho1  1  0.994871  0.415839  0.500000  1
  Ho  Ho2  1  0.584161  0.579032  0.500000  1
  Al  Al3  1  0.769501  0.015686  0.000000  1
  Al  Al4  1  0.984314  0.753816  0.000000  1
  Al  Al5  1  0.246184  0.230499  0.000000  1
  Ge  Ge6  1  0.333333  0.666667  0.000000  1
  Pd  Pd7  1  0.000000  0.000000  0.500000  1
  Pt  Pt8  1  0.666667  0.333333  0.000000  1
