# generated using pymatgen
data_Cs3NaLiTiAs3
_symmetry_space_group_name_H-M   'P 1'
_cell_length_a   10.79858668
_cell_length_b   10.79858408
_cell_length_c   16.84110400
_cell_angle_alpha   90.00000000
_cell_angle_beta   90.00000000
_cell_angle_gamma   143.68875948
_symmetry_Int_Tables_number   1
_chemical_formula_structural   Cs3NaLiTiAs3
_chemical_formula_sum   'Cs12 Na4 Li4 Ti4 As12'
_cell_volume   1162.92479282
_cell_formula_units_Z   4
loop_
 _symmetry_equiv_pos_site_id
 _symmetry_equiv_pos_as_xyz
  1  'x, y, z'
loop_
 _atom_site_type_symbol
 _atom_site_label
 _atom_site_symmetry_multiplicity
 _atom_site_fract_x
 _atom_site_fract_y
 _atom_site_fract_z
 _atom_site_occupancy
  Cs  Cs0  1  0.944612  0.609157  0.827350  1
  Cs  Cs1  1  0.555388  0.890843  0.327350  1
  Cs  Cs2  1  0.390843  0.055388  0.172650  1
  Cs  Cs3  1  0.055388  0.390843  0.172650  1
  Cs  Cs4  1  0.890843  0.555388  0.327350  1
  Cs  Cs5  1  0.444612  0.109157  0.672650  1
  Cs  Cs6  1  0.609157  0.944612  0.827350  1
  Cs  Cs7  1  0.285136  0.285136  0.318347  1
  Cs  Cs8  1  0.785136  0.785136  0.181653  1
  Cs  Cs9  1  0.214864  0.214864  0.818347  1
  Cs  Cs10  1  0.714864  0.714864  0.681653  1
  Cs  Cs11  1  0.109157  0.444612  0.672650  1
  Na  Na12  1  0.754814  0.245186  0.000000  1
  Na  Na13  1  0.745186  0.254814  0.500000  1
  Na  Na14  1  0.245186  0.754814  0.000000  1
  Na  Na15  1  0.254814  0.745186  0.500000  1
  Li  Li16  1  0.922299  0.077701  0.000000  1
  Li  Li17  1  0.577701  0.422299  0.500000  1
  Li  Li18  1  0.077701  0.922299  0.000000  1
  Li  Li19  1  0.422299  0.577701  0.500000  1
  Ti  Ti20  1  0.582839  0.417161  0.000000  1
  Ti  Ti21  1  0.917161  0.082839  0.500000  1
  Ti  Ti22  1  0.417161  0.582839  0.000000  1
  Ti  Ti23  1  0.082839  0.917161  0.500000  1
  As  As24  1  0.873269  0.572426  0.084467  1
  As  As25  1  0.427574  0.126731  0.915533  1
  As  As26  1  0.626731  0.927574  0.584467  1
  As  As27  1  0.927574  0.626731  0.584467  1
  As  As28  1  0.126731  0.427574  0.915533  1
  As  As29  1  0.572426  0.873269  0.084467  1
  As  As30  1  0.373269  0.072426  0.415533  1
  As  As31  1  0.215130  0.215130  0.573929  1
  As  As32  1  0.715130  0.715130  0.926071  1
  As  As33  1  0.284870  0.284870  0.073929  1
  As  As34  1  0.072426  0.373269  0.415533  1
  As  As35  1  0.784870  0.784870  0.426071  1
