# generated using pymatgen
data_ScBe9W2
_symmetry_space_group_name_H-M   'P 1'
_cell_length_a   7.57355602
_cell_length_b   7.57355571
_cell_length_c   7.57355543
_cell_angle_alpha   34.43283287
_cell_angle_beta   34.43283715
_cell_angle_gamma   34.43282989
_symmetry_Int_Tables_number   1
_chemical_formula_structural   ScBe9W2
_chemical_formula_sum   'Sc1 Be9 W2'
_cell_volume   123.89329067
_cell_formula_units_Z   1
loop_
 _symmetry_equiv_pos_site_id
 _symmetry_equiv_pos_as_xyz
  1  'x, y, z'
loop_
 _atom_site_type_symbol
 _atom_site_label
 _atom_site_symmetry_multiplicity
 _atom_site_fract_x
 _atom_site_fract_y
 _atom_site_fract_z
 _atom_site_occupancy
  Sc  Sc0  1  0.000000  0.000000  0.000000  1
  Be  Be1  1  0.413415  0.921168  0.413415  1
  Be  Be2  1  0.413415  0.413415  0.921168  1
  Be  Be3  1  0.921168  0.413415  0.413415  1
  Be  Be4  1  0.586585  0.078832  0.586585  1
  Be  Be5  1  0.586585  0.586585  0.078832  1
  Be  Be6  1  0.078832  0.586585  0.586585  1
  Be  Be7  1  0.664992  0.664992  0.664992  1
  Be  Be8  1  0.335008  0.335008  0.335008  1
  Be  Be9  1  0.500000  0.500000  0.500000  1
  W  W10  1  0.853910  0.853910  0.853910  1
  W  W11  1  0.146090  0.146090  0.146090  1
