# generated using pymatgen
data_CaYSi5Rh3
_symmetry_space_group_name_H-M   'P 1'
_cell_length_a   8.16940753
_cell_length_b   8.15579900
_cell_length_c   5.68763454
_cell_angle_alpha   71.21632716
_cell_angle_beta   71.08414789
_cell_angle_gamma   93.82414493
_symmetry_Int_Tables_number   1
_chemical_formula_structural   CaYSi5Rh3
_chemical_formula_sum   'Ca2 Y2 Si10 Rh6'
_cell_volume   333.14835462
_cell_formula_units_Z   2
loop_
 _symmetry_equiv_pos_site_id
 _symmetry_equiv_pos_as_xyz
  1  'x, y, z'
loop_
 _atom_site_type_symbol
 _atom_site_label
 _atom_site_symmetry_multiplicity
 _atom_site_fract_x
 _atom_site_fract_y
 _atom_site_fract_z
 _atom_site_occupancy
  Ca  Ca0  1  0.867285  0.598746  0.758856  1
  Ca  Ca1  1  0.132715  0.401254  0.241144  1
  Y  Y2  1  0.401007  0.133946  0.740042  1
  Y  Y3  1  0.598993  0.866054  0.259958  1
  Si  Si4  1  0.776211  0.222441  0.749353  1
  Si  Si5  1  0.223789  0.777559  0.250647  1
  Si  Si6  1  0.511317  0.490157  0.748829  1
  Si  Si7  1  0.488683  0.509843  0.251171  1
  Si  Si8  1  0.211701  0.791168  0.746511  1
  Si  Si9  1  0.788299  0.208832  0.253489  1
  Si  Si10  1  0.266290  0.057682  0.338433  1
  Si  Si11  1  0.733710  0.942318  0.661567  1
  Si  Si12  1  0.940722  0.734356  0.162956  1
  Si  Si13  1  0.059278  0.265644  0.837044  1
  Rh  Rh14  1  0.540729  0.259376  0.125654  1
  Rh  Rh15  1  0.738559  0.459931  0.374179  1
  Rh  Rh16  1  0.459271  0.740624  0.874346  1
  Rh  Rh17  1  0.261441  0.540069  0.625821  1
  Rh  Rh18  1  0.998416  0.004000  0.247847  1
  Rh  Rh19  1  0.001584  0.996000  0.752153  1
