# generated using pymatgen
data_Ca2Ho4Si24Os5Ru3
_symmetry_space_group_name_H-M   'P 1'
_cell_length_a   10.14666090
_cell_length_b   10.14666037
_cell_length_c   8.13717398
_cell_angle_alpha   89.97498210
_cell_angle_beta   89.97497730
_cell_angle_gamma   132.59293733
_symmetry_Int_Tables_number   1
_chemical_formula_structural   Ca2Ho4Si24Os5Ru3
_chemical_formula_sum   'Ca2 Ho4 Si24 Os5 Ru3'
_cell_volume   616.74258414
_cell_formula_units_Z   1
loop_
 _symmetry_equiv_pos_site_id
 _symmetry_equiv_pos_as_xyz
  1  'x, y, z'
loop_
 _atom_site_type_symbol
 _atom_site_label
 _atom_site_symmetry_multiplicity
 _atom_site_fract_x
 _atom_site_fract_y
 _atom_site_fract_z
 _atom_site_occupancy
  Ca  Ca0  1  0.499618  0.499618  0.499945  1
  Ca  Ca1  1  0.999892  0.999892  0.999613  1
  Ho  Ho2  1  0.500862  0.000909  0.750101  1
  Ho  Ho3  1  0.998940  0.499304  0.249951  1
  Ho  Ho4  1  0.499304  0.998940  0.249951  1
  Ho  Ho5  1  0.000909  0.500862  0.750101  1
  Si  Si6  1  0.797067  0.202993  0.500157  1
  Si  Si7  1  0.297006  0.702998  0.000127  1
  Si  Si8  1  0.202993  0.797067  0.500157  1
  Si  Si9  1  0.702998  0.297006  0.000127  1
  Si  Si10  1  0.333207  0.333207  0.832972  1
  Si  Si11  1  0.666941  0.666941  0.167209  1
  Si  Si12  1  0.166054  0.166054  0.330902  1
  Si  Si13  1  0.831320  0.831320  0.666537  1
  Si  Si14  1  0.123139  0.890477  0.730286  1
  Si  Si15  1  0.109987  0.877957  0.269981  1
  Si  Si16  1  0.609243  0.377177  0.229875  1
  Si  Si17  1  0.623543  0.390961  0.770255  1
  Si  Si18  1  0.877957  0.109987  0.269981  1
  Si  Si19  1  0.890477  0.123139  0.730286  1
  Si  Si20  1  0.390961  0.623543  0.770255  1
  Si  Si21  1  0.377177  0.609243  0.229875  1
  Si  Si22  1  0.347164  0.114515  0.506903  1
  Si  Si23  1  0.885415  0.653309  0.493829  1
  Si  Si24  1  0.385967  0.153536  0.007141  1
  Si  Si25  1  0.846597  0.614483  0.993185  1
  Si  Si26  1  0.653309  0.885415  0.493829  1
  Si  Si27  1  0.114515  0.347164  0.506903  1
  Si  Si28  1  0.614483  0.846597  0.993185  1
  Si  Si29  1  0.153536  0.385967  0.007141  1
  Os  Os30  1  0.671928  0.328155  0.499851  1
  Os  Os31  1  0.171941  0.828132  0.000051  1
  Os  Os32  1  0.328155  0.671928  0.499851  1
  Os  Os33  1  0.828132  0.171941  0.000051  1
  Os  Os34  1  0.126087  0.126087  0.626088  1
  Ru  Ru35  1  0.873420  0.873420  0.373571  1
  Ru  Ru36  1  0.373821  0.373821  0.125989  1
  Ru  Ru37  1  0.625932  0.625932  0.873784  1
