# generated using pymatgen
data_Tb5Dy7(TcOs)2
_symmetry_space_group_name_H-M   'P 1'
_cell_length_a   6.30616503
_cell_length_b   7.44887801
_cell_length_c   9.12467402
_cell_angle_alpha   89.99743427
_cell_angle_beta   90.00793898
_cell_angle_gamma   90.00647287
_symmetry_Int_Tables_number   1
_chemical_formula_structural   Tb5Dy7(TcOs)2
_chemical_formula_sum   'Tb5 Dy7 Tc2 Os2'
_cell_volume   428.62109820
_cell_formula_units_Z   1
loop_
 _symmetry_equiv_pos_site_id
 _symmetry_equiv_pos_as_xyz
  1  'x, y, z'
loop_
 _atom_site_type_symbol
 _atom_site_label
 _atom_site_symmetry_multiplicity
 _atom_site_fract_x
 _atom_site_fract_y
 _atom_site_fract_z
 _atom_site_occupancy
  Tb  Tb0  1  0.337720  0.675006  0.062787  1
  Tb  Tb1  1  0.876405  0.540513  0.250036  1
  Tb  Tb2  1  0.623536  0.040650  0.250024  1
  Tb  Tb3  1  0.131184  0.458450  0.749967  1
  Tb  Tb4  1  0.368785  0.958514  0.749975  1
  Dy  Dy5  1  0.162289  0.175019  0.437213  1
  Dy  Dy6  1  0.665246  0.324597  0.563218  1
  Dy  Dy7  1  0.834738  0.824606  0.936742  1
  Dy  Dy8  1  0.665301  0.324544  0.936761  1
  Dy  Dy9  1  0.834742  0.824589  0.563231  1
  Dy  Dy10  1  0.337730  0.674972  0.437265  1
  Dy  Dy11  1  0.162254  0.175013  0.062792  1
  Tc  Tc12  1  0.038142  0.884788  0.250046  1
  Tc  Tc13  1  0.461867  0.384681  0.250023  1
  Os  Os14  1  0.958962  0.117044  0.750002  1
  Os  Os15  1  0.541100  0.617016  0.749918  1
