# generated using pymatgen
data_Si4Tc3Ni4Ru
_symmetry_space_group_name_H-M   'P 1'
_cell_length_a   3.73873500
_cell_length_b   5.65256716
_cell_length_c   6.99634947
_cell_angle_alpha   89.97428404
_cell_angle_beta   90.00000000
_cell_angle_gamma   90.00000000
_symmetry_Int_Tables_number   1
_chemical_formula_structural   Si4Tc3Ni4Ru
_chemical_formula_sum   'Si4 Tc3 Ni4 Ru1'
_cell_volume   147.85699150
_cell_formula_units_Z   1
loop_
 _symmetry_equiv_pos_site_id
 _symmetry_equiv_pos_as_xyz
  1  'x, y, z'
loop_
 _atom_site_type_symbol
 _atom_site_label
 _atom_site_symmetry_multiplicity
 _atom_site_fract_x
 _atom_site_fract_y
 _atom_site_fract_z
 _atom_site_occupancy
  Si  Si0  1  0.250000  0.254757  0.621969  1
  Si  Si1  1  0.250000  0.747571  0.877187  1
  Si  Si2  1  0.750000  0.747459  0.379873  1
  Si  Si3  1  0.750000  0.248050  0.119622  1
  Tc  Tc4  1  0.250000  0.028094  0.316785  1
  Tc  Tc5  1  0.250000  0.526163  0.184610  1
  Tc  Tc6  1  0.750000  0.976639  0.682905  1
  Ni  Ni7  1  0.250000  0.144915  0.938800  1
  Ni  Ni8  1  0.250000  0.649172  0.560774  1
  Ni  Ni9  1  0.750000  0.851962  0.060185  1
  Ni  Ni10  1  0.750000  0.349737  0.438037  1
  Ru  Ru11  1  0.750000  0.475485  0.819253  1
