# generated using pymatgen
data_Tm4MnPt11
_symmetry_space_group_name_H-M   'P 1'
_cell_length_a   4.16111200
_cell_length_b   5.76775097
_cell_length_c   11.52347003
_cell_angle_alpha   87.96853314
_cell_angle_beta   90.00000000
_cell_angle_gamma   90.00000000
_symmetry_Int_Tables_number   1
_chemical_formula_structural   Tm4MnPt11
_chemical_formula_sum   'Tm4 Mn1 Pt11'
_cell_volume   276.39243187
_cell_formula_units_Z   1
loop_
 _symmetry_equiv_pos_site_id
 _symmetry_equiv_pos_as_xyz
  1  'x, y, z'
loop_
 _atom_site_type_symbol
 _atom_site_label
 _atom_site_symmetry_multiplicity
 _atom_site_fract_x
 _atom_site_fract_y
 _atom_site_fract_z
 _atom_site_occupancy
  Tm  Tm0  1  0.500000  0.755335  0.373116  1
  Tm  Tm1  1  0.500000  0.722632  0.866598  1
  Tm  Tm2  1  0.500000  0.277368  0.133402  1
  Tm  Tm3  1  0.500000  0.244665  0.626884  1
  Mn  Mn4  1  0.000000  0.000000  0.000000  1
  Pt  Pt5  1  0.000000  0.013185  0.244192  1
  Pt  Pt6  1  0.000000  0.986815  0.755808  1
  Pt  Pt7  1  0.000000  0.500000  0.000000  1
  Pt  Pt8  1  0.000000  0.500000  0.500000  1
  Pt  Pt9  1  0.000000  0.514320  0.248961  1
  Pt  Pt10  1  0.000000  0.485680  0.751039  1
  Pt  Pt11  1  0.500000  0.252179  0.377278  1
  Pt  Pt12  1  0.500000  0.224461  0.885297  1
  Pt  Pt13  1  0.500000  0.775539  0.114703  1
  Pt  Pt14  1  0.500000  0.747821  0.622722  1
  Pt  Pt15  1  0.000000  0.000000  0.500000  1
