# generated using pymatgen
data_K4Ca(GeO3)3
_symmetry_space_group_name_H-M   'P 1'
_cell_length_a   7.34272958
_cell_length_b   7.34272993
_cell_length_c   11.38930696
_cell_angle_alpha   89.85404435
_cell_angle_beta   89.85404425
_cell_angle_gamma   112.30841896
_symmetry_Int_Tables_number   1
_chemical_formula_structural   K4Ca(GeO3)3
_chemical_formula_sum   'K8 Ca2 Ge6 O18'
_cell_volume   568.09615785
_cell_formula_units_Z   2
loop_
 _symmetry_equiv_pos_site_id
 _symmetry_equiv_pos_as_xyz
  1  'x, y, z'
loop_
 _atom_site_type_symbol
 _atom_site_label
 _atom_site_symmetry_multiplicity
 _atom_site_fract_x
 _atom_site_fract_y
 _atom_site_fract_z
 _atom_site_occupancy
  K  K0  1  0.287878  0.142556  0.749496  1
  K  K1  1  0.017841  0.982159  0.000000  1
  K  K2  1  0.857444  0.712122  0.250504  1
  K  K3  1  0.592013  0.407987  0.000000  1
  K  K4  1  0.595031  0.404969  0.500000  1
  K  K5  1  0.304335  0.577181  0.250208  1
  K  K6  1  0.998619  0.001381  0.500000  1
  K  K7  1  0.422819  0.695665  0.749792  1
  Ca  Ca8  1  0.831031  0.204886  0.245158  1
  Ca  Ca9  1  0.795114  0.168969  0.754842  1
  Ge  Ge10  1  0.893164  0.667357  0.748807  1
  Ge  Ge11  1  0.332643  0.106836  0.251193  1
  Ge  Ge12  1  0.487748  0.907328  0.471292  1
  Ge  Ge13  1  0.097908  0.508571  0.969127  1
  Ge  Ge14  1  0.092672  0.512252  0.528708  1
  Ge  Ge15  1  0.491429  0.902092  0.030873  1
  O  O16  1  0.359002  0.640998  0.500000  1
  O  O17  1  0.118163  0.154067  0.245009  1
  O  O18  1  0.845933  0.881837  0.754991  1
  O  O19  1  0.034848  0.695949  0.613184  1
  O  O20  1  0.363452  0.636548  0.000000  1
  O  O21  1  0.524970  0.042785  0.902952  1
  O  O22  1  0.308782  0.937955  0.129658  1
  O  O23  1  0.304051  0.965152  0.386816  1
  O  O24  1  0.062045  0.691218  0.870342  1
  O  O25  1  0.697668  0.926621  0.113296  1
  O  O26  1  0.556283  0.309561  0.247570  1
  O  O27  1  0.070876  0.316644  0.621381  1
  O  O28  1  0.683356  0.929124  0.378619  1
  O  O29  1  0.536815  0.039667  0.602524  1
  O  O30  1  0.957215  0.475030  0.097048  1
  O  O31  1  0.073379  0.302332  0.886704  1
  O  O32  1  0.960333  0.463185  0.397476  1
  O  O33  1  0.690439  0.443717  0.752430  1
