# generated using pymatgen
data_Ba2DyHoEr2(Si3O10)2
_symmetry_space_group_name_H-M   'P 1'
_cell_length_a   5.44671057
_cell_length_b   12.32114885
_cell_length_c   6.89941001
_cell_angle_alpha   89.95677002
_cell_angle_beta   106.50164468
_cell_angle_gamma   90.04009790
_symmetry_Int_Tables_number   1
_chemical_formula_structural   Ba2DyHoEr2(Si3O10)2
_chemical_formula_sum   'Ba2 Dy1 Ho1 Er2 Si6 O20'
_cell_volume   443.94641090
_cell_formula_units_Z   1
loop_
 _symmetry_equiv_pos_site_id
 _symmetry_equiv_pos_as_xyz
  1  'x, y, z'
loop_
 _atom_site_type_symbol
 _atom_site_label
 _atom_site_symmetry_multiplicity
 _atom_site_fract_x
 _atom_site_fract_y
 _atom_site_fract_z
 _atom_site_occupancy
  Ba  Ba0  1  0.762071  0.249571  0.016181  1
  Ba  Ba1  1  0.237956  0.750692  0.983899  1
  Dy  Dy2  1  0.843995  0.599031  0.316887  1
  Ho  Ho3  1  0.843534  0.901141  0.317353  1
  Er  Er4  1  0.157030  0.099622  0.682934  1
  Er  Er5  1  0.156997  0.399715  0.683498  1
  Si  Si6  1  0.304683  0.060396  0.213504  1
  Si  Si7  1  0.304640  0.438957  0.213588  1
  Si  Si8  1  0.580650  0.250011  0.488087  1
  Si  Si9  1  0.420024  0.750621  0.511999  1
  Si  Si10  1  0.694193  0.560059  0.785449  1
  Si  Si11  1  0.695493  0.940146  0.786818  1
  O  O12  1  0.161969  0.120179  0.000487  1
  O  O13  1  0.162531  0.378556  0.001142  1
  O  O14  1  0.435499  0.555068  0.192967  1
  O  O15  1  0.439306  0.945451  0.193399  1
  O  O16  1  0.545983  0.143494  0.337146  1
  O  O17  1  0.548017  0.356919  0.337631  1
  O  O18  1  0.103864  0.048930  0.353263  1
  O  O19  1  0.103770  0.449196  0.353532  1
  O  O20  1  0.125114  0.751400  0.365586  1
  O  O21  1  0.631427  0.750866  0.385638  1
  O  O22  1  0.369120  0.249931  0.614878  1
  O  O23  1  0.876046  0.249643  0.634402  1
  O  O24  1  0.897666  0.547063  0.648399  1
  O  O25  1  0.896828  0.952046  0.647670  1
  O  O26  1  0.453087  0.642800  0.659979  1
  O  O27  1  0.454503  0.856630  0.664072  1
  O  O28  1  0.559797  0.055029  0.806356  1
  O  O29  1  0.559231  0.445194  0.807342  1
  O  O30  1  0.836489  0.621429  0.996694  1
  O  O31  1  0.838487  0.880214  0.999231  1
