# generated using pymatgen
data_Na2NbNi9As7Ru2
_symmetry_space_group_name_H-M   'P 1'
_cell_length_a   9.56037517
_cell_length_b   9.54813502
_cell_length_c   3.81132600
_cell_angle_alpha   90.00000000
_cell_angle_beta   90.00000000
_cell_angle_gamma   120.10240305
_symmetry_Int_Tables_number   1
_chemical_formula_structural   Na2NbNi9As7Ru2
_chemical_formula_sum   'Na2 Nb1 Ni9 As7 Ru2'
_cell_volume   300.98936472
_cell_formula_units_Z   1
loop_
 _symmetry_equiv_pos_site_id
 _symmetry_equiv_pos_as_xyz
  1  'x, y, z'
loop_
 _atom_site_type_symbol
 _atom_site_label
 _atom_site_symmetry_multiplicity
 _atom_site_fract_x
 _atom_site_fract_y
 _atom_site_fract_z
 _atom_site_occupancy
  Na  Na0  1  0.333055  0.669399  0.000000  1
  Na  Na1  1  0.668246  0.333955  0.500000  1
  Nb  Nb2  1  0.218333  0.118608  0.500000  1
  Ni  Ni3  1  0.123740  0.285882  0.000000  1
  Ni  Ni4  1  0.711620  0.835899  0.000000  1
  Ni  Ni5  1  0.157897  0.875625  0.000000  1
  Ni  Ni6  1  0.429658  0.374731  0.000000  1
  Ni  Ni7  1  0.628912  0.056802  0.000000  1
  Ni  Ni8  1  0.943598  0.568474  0.000000  1
  Ni  Ni9  1  0.048487  0.435052  0.500000  1
  Ni  Ni10  1  0.567401  0.616241  0.500000  1
  Ni  Ni11  1  0.381820  0.943129  0.500000  1
  As  As12  1  0.292699  0.418695  0.500000  1
  As  As13  1  0.590530  0.881492  0.500000  1
  As  As14  1  0.116626  0.707652  0.500000  1
  As  As15  1  0.418757  0.117158  0.000000  1
  As  As16  1  0.881262  0.293313  0.000000  1
  As  As17  1  0.707499  0.587691  0.000000  1
  As  As18  1  0.991562  0.997669  0.000000  1
  Ru  Ru19  1  0.882980  0.096824  0.500000  1
  Ru  Ru20  1  0.905316  0.785711  0.500000  1
