# generated using pymatgen
data_Tb3ErPa2CrCo17P12
_symmetry_space_group_name_H-M   'P 1'
_cell_length_a   3.71762400
_cell_length_b   10.52407706
_cell_length_c   12.15793600
_cell_angle_alpha   90.00631534
_cell_angle_beta   90.00000000
_cell_angle_gamma   90.00000000
_symmetry_Int_Tables_number   1
_chemical_formula_structural   Tb3ErPa2CrCo17P12
_chemical_formula_sum   'Tb3 Er1 Pa2 Cr1 Co17 P12'
_cell_volume   475.67391150
_cell_formula_units_Z   1
loop_
 _symmetry_equiv_pos_site_id
 _symmetry_equiv_pos_as_xyz
  1  'x, y, z'
loop_
 _atom_site_type_symbol
 _atom_site_label
 _atom_site_symmetry_multiplicity
 _atom_site_fract_x
 _atom_site_fract_y
 _atom_site_fract_z
 _atom_site_occupancy
  Tb  Tb0  1  0.500000  0.184826  0.205414  1
  Tb  Tb1  1  0.000000  0.685015  0.795315  1
  Tb  Tb2  1  0.000000  0.315120  0.795792  1
  Er  Er3  1  0.500000  0.815114  0.205281  1
  Pa  Pa4  1  0.000000  0.499743  0.528378  1
  Pa  Pa5  1  0.500000  0.999528  0.471115  1
  Cr  Cr6  1  0.500000  0.500426  0.155427  1
  Co  Co7  1  0.000000  0.999548  0.841753  1
  Co  Co8  1  0.500000  0.500112  0.695413  1
  Co  Co9  1  0.000000  0.999324  0.303735  1
  Co  Co10  1  0.000000  0.500596  0.986003  1
  Co  Co11  1  0.500000  0.999419  0.016602  1
  Co  Co12  1  0.500000  0.334010  0.993627  1
  Co  Co13  1  0.500000  0.666726  0.993951  1
  Co  Co14  1  0.000000  0.165847  0.007039  1
  Co  Co15  1  0.000000  0.833680  0.007446  1
  Co  Co16  1  0.500000  0.301179  0.431725  1
  Co  Co17  1  0.500000  0.698769  0.430711  1
  Co  Co18  1  0.000000  0.198595  0.567701  1
  Co  Co19  1  0.000000  0.801203  0.566844  1
  Co  Co20  1  0.500000  0.880469  0.710138  1
  Co  Co21  1  0.500000  0.119452  0.710684  1
  Co  Co22  1  0.000000  0.620235  0.288987  1
  Co  Co23  1  0.000000  0.381002  0.290081  1
  P  P24  1  0.500000  0.500349  0.878979  1
  P  P25  1  0.000000  0.999053  0.121532  1
  P  P26  1  0.500000  0.499910  0.343728  1
  P  P27  1  0.000000  0.000020  0.656836  1
  P  P28  1  0.500000  0.306734  0.616862  1
  P  P29  1  0.500000  0.693105  0.616209  1
  P  P30  1  0.000000  0.192950  0.383410  1
  P  P31  1  0.000000  0.806849  0.381835  1
  P  P32  1  0.500000  0.848541  0.894606  1
  P  P33  1  0.500000  0.151338  0.895122  1
  P  P34  1  0.000000  0.653386  0.106101  1
  P  P35  1  0.000000  0.347828  0.105618  1
