# generated using pymatgen
data_Nb2CrFe2B3W
_symmetry_space_group_name_H-M   'P 1'
_cell_length_a   6.03630422
_cell_length_b   6.03630377
_cell_length_c   3.12677700
_cell_angle_alpha   90.00000000
_cell_angle_beta   90.00000000
_cell_angle_gamma   119.31209357
_symmetry_Int_Tables_number   1
_chemical_formula_structural   Nb2CrFe2B3W
_chemical_formula_sum   'Nb2 Cr1 Fe2 B3 W1'
_cell_volume   99.34331447
_cell_formula_units_Z   1
loop_
 _symmetry_equiv_pos_site_id
 _symmetry_equiv_pos_as_xyz
  1  'x, y, z'
loop_
 _atom_site_type_symbol
 _atom_site_label
 _atom_site_symmetry_multiplicity
 _atom_site_fract_x
 _atom_site_fract_y
 _atom_site_fract_z
 _atom_site_occupancy
  Nb  Nb0  1  0.586572  0.994766  0.500000  1
  Nb  Nb1  1  0.994766  0.586572  0.500000  1
  Cr  Cr2  1  0.757693  0.757693  0.000000  1
  Fe  Fe3  1  0.244012  0.003050  0.000000  1
  Fe  Fe4  1  0.003050  0.244012  0.000000  1
  B  B5  1  0.658384  0.333283  0.000000  1
  B  B6  1  0.333283  0.658384  0.000000  1
  B  B7  1  0.010676  0.010676  0.500000  1
  W  W8  1  0.411566  0.411566  0.500000  1
