# generated using pymatgen
data_Y3HoTh2(Co3P2)6
_symmetry_space_group_name_H-M   'P 1'
_cell_length_a   3.74234900
_cell_length_b   10.57012700
_cell_length_c   12.24248800
_cell_angle_alpha   90.00158233
_cell_angle_beta   90.00000000
_cell_angle_gamma   90.00000000
_symmetry_Int_Tables_number   1
_chemical_formula_structural   Y3HoTh2(Co3P2)6
_chemical_formula_sum   'Y3 Ho1 Th2 Co18 P12'
_cell_volume   484.27737349
_cell_formula_units_Z   1
loop_
 _symmetry_equiv_pos_site_id
 _symmetry_equiv_pos_as_xyz
  1  'x, y, z'
loop_
 _atom_site_type_symbol
 _atom_site_label
 _atom_site_symmetry_multiplicity
 _atom_site_fract_x
 _atom_site_fract_y
 _atom_site_fract_z
 _atom_site_occupancy
  Y  Y0  1  0.500000  0.184380  0.204125  1
  Y  Y1  1  0.000000  0.684390  0.795879  1
  Y  Y2  1  0.000000  0.315608  0.795879  1
  Ho  Ho3  1  0.500000  0.815566  0.204118  1
  Th  Th4  1  0.000000  0.500004  0.524618  1
  Th  Th5  1  0.500000  0.999966  0.475340  1
  Co  Co6  1  0.500000  0.500040  0.155760  1
  Co  Co7  1  0.000000  0.999994  0.844305  1
  Co  Co8  1  0.500000  0.500001  0.702701  1
  Co  Co9  1  0.000000  0.999676  0.297135  1
  Co  Co10  1  0.000000  0.500039  0.985634  1
  Co  Co11  1  0.500000  0.999880  0.014501  1
  Co  Co12  1  0.500000  0.333655  0.994619  1
  Co  Co13  1  0.500000  0.666448  0.994751  1
  Co  Co14  1  0.000000  0.166351  0.005418  1
  Co  Co15  1  0.000000  0.833613  0.005574  1
  Co  Co16  1  0.500000  0.299150  0.429404  1
  Co  Co17  1  0.500000  0.700914  0.429262  1
  Co  Co18  1  0.000000  0.200846  0.570590  1
  Co  Co19  1  0.000000  0.799148  0.570578  1
  Co  Co20  1  0.500000  0.880446  0.713258  1
  Co  Co21  1  0.500000  0.119557  0.713262  1
  Co  Co22  1  0.000000  0.619809  0.286579  1
  Co  Co23  1  0.000000  0.380475  0.286714  1
  P  P24  1  0.500000  0.500002  0.882112  1
  P  P25  1  0.000000  0.999681  0.118049  1
  P  P26  1  0.500000  0.499996  0.338223  1
  P  P27  1  0.000000  0.000001  0.661744  1
  P  P28  1  0.500000  0.305638  0.618227  1
  P  P29  1  0.500000  0.694363  0.618222  1
  P  P30  1  0.000000  0.194356  0.381783  1
  P  P31  1  0.000000  0.805671  0.381452  1
  P  P32  1  0.500000  0.847071  0.895431  1
  P  P33  1  0.500000  0.152929  0.895446  1
  P  P34  1  0.000000  0.653242  0.104757  1
  P  P35  1  0.000000  0.347093  0.104550  1
