# generated using pymatgen
data_Pr16CdHg3Rh4
_symmetry_space_group_name_H-M   'P 1'
_cell_length_a   10.00541004
_cell_length_b   10.01668169
_cell_length_c   10.01668200
_cell_angle_alpha   59.99999896
_cell_angle_beta   59.96272581
_cell_angle_gamma   59.96272733
_symmetry_Int_Tables_number   1
_chemical_formula_structural   Pr16CdHg3Rh4
_chemical_formula_sum   'Pr16 Cd1 Hg3 Rh4'
_cell_volume   709.45155245
_cell_formula_units_Z   1
loop_
 _symmetry_equiv_pos_site_id
 _symmetry_equiv_pos_as_xyz
  1  'x, y, z'
loop_
 _atom_site_type_symbol
 _atom_site_label
 _atom_site_symmetry_multiplicity
 _atom_site_fract_x
 _atom_site_fract_y
 _atom_site_fract_z
 _atom_site_occupancy
  Pr  Pr0  1  0.599038  0.598730  0.598730  1
  Pr  Pr1  1  0.599038  0.598730  0.203502  1
  Pr  Pr2  1  0.599038  0.203502  0.598730  1
  Pr  Pr3  1  0.199641  0.600120  0.600120  1
  Pr  Pr4  1  0.058409  0.440889  0.440889  1
  Pr  Pr5  1  0.438518  0.060652  0.060652  1
  Pr  Pr6  1  0.438518  0.060652  0.440179  1
  Pr  Pr7  1  0.058409  0.440889  0.059813  1
  Pr  Pr8  1  0.438518  0.440179  0.060652  1
  Pr  Pr9  1  0.058409  0.059813  0.440889  1
  Pr  Pr10  1  0.188817  0.812431  0.812431  1
  Pr  Pr11  1  0.811496  0.187751  0.187751  1
  Pr  Pr12  1  0.811496  0.187751  0.813003  1
  Pr  Pr13  1  0.188817  0.812431  0.186321  1
  Pr  Pr14  1  0.811496  0.813003  0.187751  1
  Pr  Pr15  1  0.188817  0.186321  0.812431  1
  Cd  Cd16  1  0.516967  0.827678  0.827678  1
  Hg  Hg17  1  0.832955  0.834678  0.834678  1
  Hg  Hg18  1  0.832955  0.834678  0.497690  1
  Hg  Hg19  1  0.832955  0.497690  0.834678  1
  Rh  Rh20  1  0.391158  0.392660  0.392660  1
  Rh  Rh21  1  0.391158  0.392660  0.823521  1
  Rh  Rh22  1  0.391158  0.823521  0.392660  1
  Rh  Rh23  1  0.822220  0.392593  0.392593  1
