# generated using pymatgen
data_CsTl3O5
_symmetry_space_group_name_H-M   'P 1'
_cell_length_a   3.56593400
_cell_length_b   10.45498200
_cell_length_c   17.54317600
_cell_angle_alpha   90.00000000
_cell_angle_beta   90.00000000
_cell_angle_gamma   90.00000000
_symmetry_Int_Tables_number   1
_chemical_formula_structural   CsTl3O5
_chemical_formula_sum   'Cs4 Tl12 O20'
_cell_volume   654.04075416
_cell_formula_units_Z   4
loop_
 _symmetry_equiv_pos_site_id
 _symmetry_equiv_pos_as_xyz
  1  'x, y, z'
loop_
 _atom_site_type_symbol
 _atom_site_label
 _atom_site_symmetry_multiplicity
 _atom_site_fract_x
 _atom_site_fract_y
 _atom_site_fract_z
 _atom_site_occupancy
  Cs  Cs0  1  0.750000  0.533467  0.127009  1
  Cs  Cs1  1  0.250000  0.966533  0.627009  1
  Cs  Cs2  1  0.750000  0.033467  0.372991  1
  Cs  Cs3  1  0.250000  0.466533  0.872991  1
  Tl  Tl4  1  0.750000  0.182383  0.179501  1
  Tl  Tl5  1  0.750000  0.682383  0.320499  1
  Tl  Tl6  1  0.250000  0.648074  0.489645  1
  Tl  Tl7  1  0.250000  0.148074  0.010355  1
  Tl  Tl8  1  0.250000  0.889821  0.162090  1
  Tl  Tl9  1  0.750000  0.351926  0.510355  1
  Tl  Tl10  1  0.250000  0.317617  0.679501  1
  Tl  Tl11  1  0.250000  0.817617  0.820499  1
  Tl  Tl12  1  0.750000  0.610179  0.662090  1
  Tl  Tl13  1  0.750000  0.110179  0.837910  1
  Tl  Tl14  1  0.750000  0.851926  0.989645  1
  Tl  Tl15  1  0.250000  0.389821  0.337910  1
  O  O16  1  0.250000  0.698807  0.715597  1
  O  O17  1  0.250000  0.275260  0.112605  1
  O  O18  1  0.250000  0.769792  0.057406  1
  O  O19  1  0.750000  0.224740  0.612605  1
  O  O20  1  0.250000  0.975306  0.925325  1
  O  O21  1  0.750000  0.230208  0.942594  1
  O  O22  1  0.750000  0.301193  0.284403  1
  O  O23  1  0.250000  0.565818  0.271092  1
  O  O24  1  0.750000  0.801193  0.215597  1
  O  O25  1  0.750000  0.434182  0.728908  1
  O  O26  1  0.250000  0.775260  0.387395  1
  O  O27  1  0.750000  0.934182  0.771092  1
  O  O28  1  0.250000  0.475306  0.574675  1
  O  O29  1  0.250000  0.198807  0.784403  1
  O  O30  1  0.750000  0.724740  0.887395  1
  O  O31  1  0.750000  0.024694  0.074675  1
  O  O32  1  0.250000  0.269792  0.442594  1
  O  O33  1  0.750000  0.524694  0.425325  1
  O  O34  1  0.750000  0.730208  0.557406  1
  O  O35  1  0.250000  0.065818  0.228908  1
