# generated using pymatgen
data_Tb6Si2Pt9Au
_symmetry_space_group_name_H-M   'P 1'
_cell_length_a   8.24061554
_cell_length_b   8.25520533
_cell_length_c   8.23675600
_cell_angle_alpha   126.91734073
_cell_angle_beta   126.08159875
_cell_angle_gamma   79.15049358
_symmetry_Int_Tables_number   1
_chemical_formula_structural   Tb6Si2Pt9Au
_chemical_formula_sum   'Tb6 Si2 Pt9 Au1'
_cell_volume   349.97129372
_cell_formula_units_Z   1
loop_
 _symmetry_equiv_pos_site_id
 _symmetry_equiv_pos_as_xyz
  1  'x, y, z'
loop_
 _atom_site_type_symbol
 _atom_site_label
 _atom_site_symmetry_multiplicity
 _atom_site_fract_x
 _atom_site_fract_y
 _atom_site_fract_z
 _atom_site_occupancy
  Tb  Tb0  1  0.824099  0.543430  0.269434  1
  Tb  Tb1  1  0.611719  0.250788  0.360386  1
  Tb  Tb2  1  0.171134  0.447075  0.719359  1
  Tb  Tb3  1  0.395216  0.744527  0.634553  1
  Tb  Tb4  1  0.229764  0.950461  0.287378  1
  Tb  Tb5  1  0.769097  0.052929  0.719619  1
  Si  Si6  1  0.214274  0.260712  0.969185  1
  Si  Si7  1  0.787242  0.753924  0.041572  1
  Pt  Pt8  1  0.829935  0.098782  0.141080  1
  Pt  Pt9  1  0.455488  0.185760  0.858412  1
  Pt  Pt10  1  0.542396  0.402166  0.729834  1
  Pt  Pt11  1  0.825249  0.688265  0.730989  1
  Pt  Pt12  1  0.459559  0.602240  0.269603  1
  Pt  Pt13  1  0.545197  0.811909  0.142705  1
  Pt  Pt14  1  0.169615  0.308017  0.264471  1
  Pt  Pt15  1  0.004027  0.001261  0.505193  1
  Pt  Pt16  1  0.998231  0.503522  0.999589  1
  Au  Au17  1  0.167758  0.894227  0.856637  1
