# generated using pymatgen
data_Mg3Pa(B6Os)2
_symmetry_space_group_name_H-M   'P 1'
_cell_length_a   3.55714800
_cell_length_b   8.91361641
_cell_length_c   11.18636477
_cell_angle_alpha   89.98571570
_cell_angle_beta   90.00000000
_cell_angle_gamma   90.00000000
_symmetry_Int_Tables_number   1
_chemical_formula_structural   Mg3Pa(B6Os)2
_chemical_formula_sum   'Mg6 Pa2 B24 Os4'
_cell_volume   354.68664704
_cell_formula_units_Z   2
loop_
 _symmetry_equiv_pos_site_id
 _symmetry_equiv_pos_as_xyz
  1  'x, y, z'
loop_
 _atom_site_type_symbol
 _atom_site_label
 _atom_site_symmetry_multiplicity
 _atom_site_fract_x
 _atom_site_fract_y
 _atom_site_fract_z
 _atom_site_occupancy
  Mg  Mg0  1  0.000000  0.830275  0.084692  1
  Mg  Mg1  1  0.000000  0.169725  0.915308  1
  Mg  Mg2  1  0.000000  0.948291  0.376721  1
  Mg  Mg3  1  0.000000  0.051709  0.623279  1
  Mg  Mg4  1  0.000000  0.443032  0.123066  1
  Mg  Mg5  1  0.000000  0.556968  0.876934  1
  Pa  Pa6  1  0.000000  0.317682  0.411717  1
  Pa  Pa7  1  0.000000  0.682318  0.588283  1
  B  B8  1  0.500000  0.554869  0.431812  1
  B  B9  1  0.500000  0.445131  0.568188  1
  B  B10  1  0.500000  0.054763  0.064738  1
  B  B11  1  0.500000  0.945237  0.935262  1
  B  B12  1  0.500000  0.755972  0.416844  1
  B  B13  1  0.500000  0.244028  0.583156  1
  B  B14  1  0.500000  0.253321  0.076099  1
  B  B15  1  0.500000  0.746679  0.923901  1
  B  B16  1  0.500000  0.795519  0.260865  1
  B  B17  1  0.500000  0.204481  0.739135  1
  B  B18  1  0.500000  0.293245  0.232963  1
  B  B19  1  0.500000  0.706755  0.767037  1
  B  B20  1  0.500000  0.630178  0.179243  1
  B  B21  1  0.500000  0.369822  0.820757  1
  B  B22  1  0.500000  0.128053  0.315780  1
  B  B23  1  0.500000  0.871947  0.684220  1
  B  B24  1  0.500000  0.979940  0.209889  1
  B  B25  1  0.500000  0.020060  0.790111  1
  B  B26  1  0.500000  0.481863  0.284480  1
  B  B27  1  0.500000  0.518137  0.715520  1
  B  B28  1  0.500000  0.592853  0.025672  1
  B  B29  1  0.500000  0.407147  0.974328  1
  B  B30  1  0.500000  0.099025  0.473086  1
  B  B31  1  0.500000  0.900975  0.526914  1
  Os  Os32  1  0.000000  0.639603  0.317262  1
  Os  Os33  1  0.000000  0.360397  0.682738  1
  Os  Os34  1  0.000000  0.143223  0.180379  1
  Os  Os35  1  0.000000  0.856777  0.819621  1
