# generated using pymatgen
data_YEr2Tm13(In3Os)2
_symmetry_space_group_name_H-M   'P 1'
_cell_length_a   10.26129600
_cell_length_b   10.26994753
_cell_length_c   7.04635122
_cell_angle_alpha   89.99554050
_cell_angle_beta   90.00000000
_cell_angle_gamma   119.97213069
_symmetry_Int_Tables_number   1
_chemical_formula_structural   YEr2Tm13(In3Os)2
_chemical_formula_sum   'Y1 Er2 Tm13 In6 Os2'
_cell_volume   643.26104355
_cell_formula_units_Z   1
loop_
 _symmetry_equiv_pos_site_id
 _symmetry_equiv_pos_as_xyz
  1  'x, y, z'
loop_
 _atom_site_type_symbol
 _atom_site_label
 _atom_site_symmetry_multiplicity
 _atom_site_fract_x
 _atom_site_fract_y
 _atom_site_fract_z
 _atom_site_occupancy
  Y  Y0  1  0.532425  0.064850  0.793036  1
  Er  Er1  1  0.000167  0.000333  0.777658  1
  Er  Er2  1  0.999845  0.999690  0.277867  1
  Tm  Tm3  1  0.932799  0.466328  0.793529  1
  Tm  Tm4  1  0.533532  0.466328  0.793529  1
  Tm  Tm5  1  0.465790  0.931578  0.293526  1
  Tm  Tm6  1  0.067503  0.534092  0.294281  1
  Tm  Tm7  1  0.466590  0.534092  0.294281  1
  Tm  Tm8  1  0.822863  0.645725  0.497373  1
  Tm  Tm9  1  0.355043  0.178233  0.495882  1
  Tm  Tm10  1  0.823191  0.178233  0.495882  1
  Tm  Tm11  1  0.177712  0.355423  0.998226  1
  Tm  Tm12  1  0.645340  0.821675  0.998407  1
  Tm  Tm13  1  0.176335  0.821675  0.998407  1
  Tm  Tm14  1  0.667031  0.334060  0.173570  1
  Tm  Tm15  1  0.332745  0.665491  0.673879  1
  In  In16  1  0.836251  0.672503  0.041103  1
  In  In17  1  0.326270  0.163210  0.041257  1
  In  In18  1  0.836939  0.163210  0.041257  1
  In  In19  1  0.163552  0.327105  0.541992  1
  In  In20  1  0.673109  0.837052  0.542146  1
  In  In21  1  0.163944  0.837052  0.542146  1
  Os  Os22  1  0.667704  0.335405  0.567308  1
  Os  Os23  1  0.333325  0.666652  0.069358  1
