# generated using pymatgen
data_Tb3Er(ScPt)4
_symmetry_space_group_name_H-M   'P 1'
_cell_length_a   4.64189300
_cell_length_b   6.99244734
_cell_length_c   8.40178614
_cell_angle_alpha   90.07254099
_cell_angle_beta   90.00000000
_cell_angle_gamma   90.00000000
_symmetry_Int_Tables_number   1
_chemical_formula_structural   Tb3Er(ScPt)4
_chemical_formula_sum   'Tb3 Er1 Sc4 Pt4'
_cell_volume   272.70657224
_cell_formula_units_Z   1
loop_
 _symmetry_equiv_pos_site_id
 _symmetry_equiv_pos_as_xyz
  1  'x, y, z'
loop_
 _atom_site_type_symbol
 _atom_site_label
 _atom_site_symmetry_multiplicity
 _atom_site_fract_x
 _atom_site_fract_y
 _atom_site_fract_z
 _atom_site_occupancy
  Tb  Tb0  1  0.250000  0.017008  0.323969  1
  Tb  Tb1  1  0.250000  0.517170  0.175712  1
  Tb  Tb2  1  0.750000  0.982757  0.677049  1
  Er  Er3  1  0.750000  0.482290  0.823925  1
  Sc  Sc4  1  0.250000  0.640260  0.574648  1
  Sc  Sc5  1  0.250000  0.141492  0.926816  1
  Sc  Sc6  1  0.750000  0.359461  0.427884  1
  Sc  Sc7  1  0.750000  0.859395  0.072299  1
  Pt  Pt8  1  0.250000  0.257616  0.597831  1
  Pt  Pt9  1  0.250000  0.755802  0.902029  1
  Pt  Pt10  1  0.750000  0.742878  0.402876  1
  Pt  Pt11  1  0.750000  0.243873  0.094962  1
