# generated using pymatgen
data_Ti6Si5GeMoRh4W
_symmetry_space_group_name_H-M   'P 1'
_cell_length_a   7.45893533
_cell_length_b   7.45464905
_cell_length_c   7.44959200
_cell_angle_alpha   126.21805125
_cell_angle_beta   124.75288893
_cell_angle_gamma   80.69145117
_symmetry_Int_Tables_number   1
_chemical_formula_structural   Ti6Si5GeMoRh4W
_chemical_formula_sum   'Ti6 Si5 Ge1 Mo1 Rh4 W1'
_cell_volume   264.82480516
_cell_formula_units_Z   1
loop_
 _symmetry_equiv_pos_site_id
 _symmetry_equiv_pos_as_xyz
  1  'x, y, z'
loop_
 _atom_site_type_symbol
 _atom_site_label
 _atom_site_symmetry_multiplicity
 _atom_site_fract_x
 _atom_site_fract_y
 _atom_site_fract_z
 _atom_site_occupancy
  Ti  Ti0  1  0.962455  0.726619  0.269165  1
  Ti  Ti1  1  0.041155  0.312514  0.776174  1
  Ti  Ti2  1  0.249603  0.166793  0.421991  1
  Ti  Ti3  1  0.754332  0.174442  0.916968  1
  Ti  Ti4  1  0.560049  0.348909  0.286190  1
  Ti  Ti5  1  0.436319  0.723384  0.784268  1
  Si  Si6  1  0.780609  0.802424  0.520868  1
  Si  Si7  1  0.219142  0.740507  0.019867  1
  Si  Si8  1  0.337267  0.068964  0.745982  1
  Si  Si9  1  0.662530  0.409922  0.731725  1
  Si  Si10  1  0.178200  0.407267  0.246673  1
  Ge  Ge11  1  0.824014  0.067051  0.231552  1
  Mo  Mo12  1  0.001254  0.500118  0.496912  1
  Rh  Rh13  1  0.163865  0.004065  0.910662  1
  Rh  Rh14  1  0.835037  0.739057  0.830441  1
  Rh  Rh15  1  0.407273  0.746296  0.410912  1
  Rh  Rh16  1  0.587212  0.004814  0.342892  1
  W  W17  1  0.499683  0.497261  0.997157  1
