# generated using pymatgen
data_Er12Tm4In3HgRh4
_symmetry_space_group_name_H-M   'P 1'
_cell_length_a   9.54336681
_cell_length_b   9.54336722
_cell_length_c   9.54764079
_cell_angle_alpha   60.03496877
_cell_angle_beta   60.03496871
_cell_angle_gamma   60.04238088
_symmetry_Int_Tables_number   1
_chemical_formula_structural   Er12Tm4In3HgRh4
_chemical_formula_sum   'Er12 Tm4 In3 Hg1 Rh4'
_cell_volume   615.39324670
_cell_formula_units_Z   1
loop_
 _symmetry_equiv_pos_site_id
 _symmetry_equiv_pos_as_xyz
  1  'x, y, z'
loop_
 _atom_site_type_symbol
 _atom_site_label
 _atom_site_symmetry_multiplicity
 _atom_site_fract_x
 _atom_site_fract_y
 _atom_site_fract_z
 _atom_site_occupancy
  Er  Er0  1  0.061575  0.061575  0.438807  1
  Er  Er1  1  0.436625  0.065211  0.436906  1
  Er  Er2  1  0.061649  0.438676  0.061479  1
  Er  Er3  1  0.052327  0.647995  0.648130  1
  Er  Er4  1  0.436938  0.436938  0.064869  1
  Er  Er5  1  0.647995  0.052327  0.648130  1
  Er  Er6  1  0.189134  0.813048  0.188843  1
  Er  Er7  1  0.188704  0.188704  0.813229  1
  Er  Er8  1  0.810317  0.810317  0.190413  1
  Er  Er9  1  0.438676  0.061649  0.061479  1
  Er  Er10  1  0.813048  0.189134  0.188843  1
  Er  Er11  1  0.065211  0.436625  0.436906  1
  Tm  Tm12  1  0.810475  0.190592  0.810225  1
  Tm  Tm13  1  0.190592  0.810475  0.810225  1
  Tm  Tm14  1  0.648151  0.648151  0.051826  1
  Tm  Tm15  1  0.651704  0.651704  0.651959  1
  In  In16  1  0.747763  0.417948  0.417594  1
  In  In17  1  0.417948  0.747763  0.417594  1
  In  In18  1  0.417801  0.417801  0.747749  1
  Hg  Hg19  1  0.413801  0.413801  0.413595  1
  Rh  Rh20  1  0.858077  0.858077  0.427485  1
  Rh  Rh21  1  0.856644  0.856644  0.856709  1
  Rh  Rh22  1  0.427534  0.857307  0.858501  1
  Rh  Rh23  1  0.857307  0.427534  0.858501  1
