# generated using pymatgen
data_Hf18Re8OsAu
_symmetry_space_group_name_H-M   'P 1'
_cell_length_a   8.65319900
_cell_length_b   8.65332594
_cell_length_c   8.58737900
_cell_angle_alpha   90.00000000
_cell_angle_beta   90.00000000
_cell_angle_gamma   119.99713405
_symmetry_Int_Tables_number   1
_chemical_formula_structural   Hf18Re8OsAu
_chemical_formula_sum   'Hf18 Re8 Os1 Au1'
_cell_volume   556.88248379
_cell_formula_units_Z   1
loop_
 _symmetry_equiv_pos_site_id
 _symmetry_equiv_pos_as_xyz
  1  'x, y, z'
loop_
 _atom_site_type_symbol
 _atom_site_label
 _atom_site_symmetry_multiplicity
 _atom_site_fract_x
 _atom_site_fract_y
 _atom_site_fract_z
 _atom_site_occupancy
  Hf  Hf0  1  0.197499  0.802528  0.446844  1
  Hf  Hf1  1  0.197442  0.394884  0.446888  1
  Hf  Hf2  1  0.605066  0.802545  0.446859  1
  Hf  Hf3  1  0.808167  0.191806  0.548761  1
  Hf  Hf4  1  0.808232  0.616467  0.548774  1
  Hf  Hf5  1  0.383591  0.191762  0.548781  1
  Hf  Hf6  1  0.808167  0.191806  0.951239  1
  Hf  Hf7  1  0.808232  0.616467  0.951226  1
  Hf  Hf8  1  0.383591  0.191762  0.951219  1
  Hf  Hf9  1  0.197499  0.802528  0.053156  1
  Hf  Hf10  1  0.197442  0.394884  0.053112  1
  Hf  Hf11  1  0.605066  0.802545  0.053141  1
  Hf  Hf12  1  0.540645  0.459342  0.250000  1
  Hf  Hf13  1  0.540644  0.081280  0.250000  1
  Hf  Hf14  1  0.918727  0.459367  0.250000  1
  Hf  Hf15  1  0.458676  0.541324  0.750000  1
  Hf  Hf16  1  0.458650  0.917319  0.750000  1
  Hf  Hf17  1  0.082669  0.541346  0.750000  1
  Re  Re18  1  0.890268  0.109731  0.250000  1
  Re  Re19  1  0.890278  0.780591  0.250000  1
  Re  Re20  1  0.219413  0.109694  0.250000  1
  Re  Re21  1  0.110201  0.889850  0.750000  1
  Re  Re22  1  0.110157  0.220360  0.750000  1
  Re  Re23  1  0.779643  0.889849  0.750000  1
  Re  Re24  1  0.999992  0.000000  0.499365  1
  Re  Re25  1  0.999992  0.000000  0.000635  1
  Os  Os26  1  0.333350  0.666578  0.250000  1
  Au  Au27  1  0.666699  0.333386  0.750000  1
