# generated using pymatgen
data_NdHo3Tm(In2Pt)2
_symmetry_space_group_name_H-M   'P 1'
_cell_length_a   3.62389100
_cell_length_b   8.18847500
_cell_length_c   18.33844600
_cell_angle_alpha   90.00266355
_cell_angle_beta   90.00000000
_cell_angle_gamma   90.00000000
_symmetry_Int_Tables_number   1
_chemical_formula_structural   NdHo3Tm(In2Pt)2
_chemical_formula_sum   'Nd2 Ho6 Tm2 In8 Pt4'
_cell_volume   544.17762939
_cell_formula_units_Z   2
loop_
 _symmetry_equiv_pos_site_id
 _symmetry_equiv_pos_as_xyz
  1  'x, y, z'
loop_
 _atom_site_type_symbol
 _atom_site_label
 _atom_site_symmetry_multiplicity
 _atom_site_fract_x
 _atom_site_fract_y
 _atom_site_fract_z
 _atom_site_occupancy
  Nd  Nd0  1  0.000000  0.000000  0.000000  1
  Nd  Nd1  1  0.000000  0.500000  0.500000  1
  Ho  Ho2  1  0.000000  0.381133  0.913990  1
  Ho  Ho3  1  0.000000  0.618867  0.086010  1
  Ho  Ho4  1  0.000000  0.242172  0.219977  1
  Ho  Ho5  1  0.000000  0.757828  0.780023  1
  Ho  Ho6  1  0.000000  0.257706  0.719878  1
  Ho  Ho7  1  0.000000  0.742294  0.280122  1
  Tm  Tm8  1  0.000000  0.118542  0.413572  1
  Tm  Tm9  1  0.000000  0.881458  0.586428  1
  In  In10  1  0.500000  0.421414  0.348459  1
  In  In11  1  0.500000  0.578586  0.651541  1
  In  In12  1  0.500000  0.078065  0.848332  1
  In  In13  1  0.500000  0.921935  0.151668  1
  In  In14  1  0.500000  0.298796  0.067732  1
  In  In15  1  0.500000  0.701204  0.932268  1
  In  In16  1  0.500000  0.200582  0.567537  1
  In  In17  1  0.500000  0.799418  0.432463  1
  Pt  Pt18  1  0.500000  0.024789  0.304017  1
  Pt  Pt19  1  0.500000  0.975211  0.695983  1
  Pt  Pt20  1  0.500000  0.475556  0.803515  1
  Pt  Pt21  1  0.500000  0.524444  0.196485  1
