# generated using pymatgen
data_Tb2Si14Ir5Ru
_symmetry_space_group_name_H-M   'P 1'
_cell_length_a   8.02097684
_cell_length_b   8.02097725
_cell_length_c   8.05016467
_cell_angle_alpha   56.77971060
_cell_angle_beta   56.77970538
_cell_angle_gamma   56.84193801
_symmetry_Int_Tables_number   1
_chemical_formula_structural   Tb2Si14Ir5Ru
_chemical_formula_sum   'Tb2 Si14 Ir5 Ru1'
_cell_volume   339.17740514
_cell_formula_units_Z   1
loop_
 _symmetry_equiv_pos_site_id
 _symmetry_equiv_pos_as_xyz
  1  'x, y, z'
loop_
 _atom_site_type_symbol
 _atom_site_label
 _atom_site_symmetry_multiplicity
 _atom_site_fract_x
 _atom_site_fract_y
 _atom_site_fract_z
 _atom_site_occupancy
  Tb  Tb0  1  0.000827  0.001663  0.998119  1
  Tb  Tb1  1  0.498337  0.499173  0.501881  1
  Si  Si2  1  0.753775  0.746225  0.750000  1
  Si  Si3  1  0.249459  0.250541  0.250000  1
  Si  Si4  1  0.850476  0.065199  0.671941  1
  Si  Si5  1  0.671441  0.852004  0.064288  1
  Si  Si6  1  0.064145  0.669592  0.850652  1
  Si  Si7  1  0.647996  0.828559  0.435712  1
  Si  Si8  1  0.434801  0.649524  0.828059  1
  Si  Si9  1  0.830408  0.435855  0.649348  1
  Si  Si10  1  0.171187  0.563182  0.355231  1
  Si  Si11  1  0.565838  0.351203  0.171245  1
  Si  Si12  1  0.349271  0.174397  0.565953  1
  Si  Si13  1  0.936818  0.328813  0.144769  1
  Si  Si14  1  0.325603  0.150729  0.934047  1
  Si  Si15  1  0.148797  0.934162  0.328755  1
  Ir  Ir16  1  0.250207  0.929167  0.570651  1
  Ir  Ir17  1  0.570833  0.249793  0.929349  1
  Ir  Ir18  1  0.927622  0.572378  0.250000  1
  Ir  Ir19  1  0.429086  0.750130  0.070911  1
  Ir  Ir20  1  0.749870  0.070914  0.429089  1
  Ru  Ru21  1  0.073203  0.426797  0.750000  1
