# generated using pymatgen
data_Zr16Fe5Pt3
_symmetry_space_group_name_H-M   'P 1'
_cell_length_a   8.69415571
_cell_length_b   8.69695534
_cell_length_c   8.69695500
_cell_angle_alpha   59.99999747
_cell_angle_beta   59.98934482
_cell_angle_gamma   59.98935523
_symmetry_Int_Tables_number   1
_chemical_formula_structural   Zr16Fe5Pt3
_chemical_formula_sum   'Zr16 Fe5 Pt3'
_cell_volume   464.91862163
_cell_formula_units_Z   1
loop_
 _symmetry_equiv_pos_site_id
 _symmetry_equiv_pos_as_xyz
  1  'x, y, z'
loop_
 _atom_site_type_symbol
 _atom_site_label
 _atom_site_symmetry_multiplicity
 _atom_site_fract_x
 _atom_site_fract_y
 _atom_site_fract_z
 _atom_site_occupancy
  Zr  Zr0  1  0.184800  0.605067  0.605067  1
  Zr  Zr1  1  0.602215  0.191739  0.603023  1
  Zr  Zr2  1  0.602215  0.603023  0.191739  1
  Zr  Zr3  1  0.602215  0.603023  0.603023  1
  Zr  Zr4  1  0.811933  0.810887  0.188589  1
  Zr  Zr5  1  0.197324  0.179576  0.811550  1
  Zr  Zr6  1  0.811933  0.188589  0.810887  1
  Zr  Zr7  1  0.197324  0.811550  0.179576  1
  Zr  Zr8  1  0.197324  0.811550  0.811550  1
  Zr  Zr9  1  0.811933  0.188589  0.188589  1
  Zr  Zr10  1  0.442733  0.446275  0.055496  1
  Zr  Zr11  1  0.055616  0.055656  0.444364  1
  Zr  Zr12  1  0.442733  0.055496  0.446275  1
  Zr  Zr13  1  0.055616  0.444364  0.055656  1
  Zr  Zr14  1  0.055616  0.444364  0.444364  1
  Zr  Zr15  1  0.442733  0.055496  0.055496  1
  Fe  Fe16  1  0.827716  0.390762  0.390762  1
  Fe  Fe17  1  0.389984  0.826478  0.391770  1
  Fe  Fe18  1  0.389984  0.391770  0.826478  1
  Fe  Fe19  1  0.389984  0.391770  0.391770  1
  Fe  Fe20  1  0.501744  0.832752  0.832752  1
  Pt  Pt21  1  0.828774  0.498189  0.836518  1
  Pt  Pt22  1  0.828774  0.836518  0.498189  1
  Pt  Pt23  1  0.828774  0.836518  0.836518  1
