# generated using pymatgen
data_Nb12Al9Ru3N4
_symmetry_space_group_name_H-M   'P 1'
_cell_length_a   8.32231755
_cell_length_b   8.32231740
_cell_length_c   8.31650708
_cell_angle_alpha   59.97688468
_cell_angle_beta   59.97688231
_cell_angle_gamma   59.99999695
_symmetry_Int_Tables_number   1
_chemical_formula_structural   Nb12Al9Ru3N4
_chemical_formula_sum   'Nb12 Al9 Ru3 N4'
_cell_volume   407.15772467
_cell_formula_units_Z   1
loop_
 _symmetry_equiv_pos_site_id
 _symmetry_equiv_pos_as_xyz
  1  'x, y, z'
loop_
 _atom_site_type_symbol
 _atom_site_label
 _atom_site_symmetry_multiplicity
 _atom_site_fract_x
 _atom_site_fract_y
 _atom_site_fract_z
 _atom_site_occupancy
  Nb  Nb0  1  0.808904  0.808904  0.187669  1
  Nb  Nb1  1  0.186254  0.186254  0.814824  1
  Nb  Nb2  1  0.812669  0.186254  0.814824  1
  Nb  Nb3  1  0.194524  0.808904  0.187669  1
  Nb  Nb4  1  0.186254  0.812669  0.814824  1
  Nb  Nb5  1  0.808904  0.194524  0.187669  1
  Nb  Nb6  1  0.441096  0.441096  0.062331  1
  Nb  Nb7  1  0.063746  0.063746  0.435176  1
  Nb  Nb8  1  0.437331  0.063746  0.435176  1
  Nb  Nb9  1  0.055476  0.441096  0.062331  1
  Nb  Nb10  1  0.063746  0.437331  0.435176  1
  Nb  Nb11  1  0.441096  0.055476  0.062331  1
  Al  Al12  1  0.625000  0.625000  0.125000  1
  Al  Al13  1  0.752045  0.411011  0.425936  1
  Al  Al14  1  0.411011  0.752045  0.425936  1
  Al  Al15  1  0.415119  0.415119  0.754644  1
  Al  Al16  1  0.411011  0.411011  0.425936  1
  Al  Al17  1  0.497955  0.838989  0.824064  1
  Al  Al18  1  0.838989  0.497955  0.824064  1
  Al  Al19  1  0.834881  0.834881  0.495356  1
  Al  Al20  1  0.838989  0.838989  0.824064  1
  Ru  Ru21  1  0.125000  0.625000  0.625000  1
  Ru  Ru22  1  0.625000  0.125000  0.625000  1
  Ru  Ru23  1  0.625000  0.625000  0.625000  1
  N  N24  1  0.625000  0.125000  0.125000  1
  N  N25  1  0.125000  0.625000  0.125000  1
  N  N26  1  0.125000  0.125000  0.625000  1
  N  N27  1  0.125000  0.125000  0.125000  1
