# generated using pymatgen
data_LiY3Tl3Pd2
_symmetry_space_group_name_H-M   'P 1'
_cell_length_a   7.95223917
_cell_length_b   7.94808156
_cell_length_c   3.71618000
_cell_angle_alpha   90.00000000
_cell_angle_beta   90.00000000
_cell_angle_gamma   119.98270965
_symmetry_Int_Tables_number   1
_chemical_formula_structural   LiY3Tl3Pd2
_chemical_formula_sum   'Li1 Y3 Tl3 Pd2'
_cell_volume   203.44862633
_cell_formula_units_Z   1
loop_
 _symmetry_equiv_pos_site_id
 _symmetry_equiv_pos_as_xyz
  1  'x, y, z'
loop_
 _atom_site_type_symbol
 _atom_site_label
 _atom_site_symmetry_multiplicity
 _atom_site_fract_x
 _atom_site_fract_y
 _atom_site_fract_z
 _atom_site_occupancy
  Li  Li0  1  0.000000  0.000221  0.500000  1
  Y  Y1  1  0.414116  0.413972  0.500000  1
  Y  Y2  1  0.585884  0.999856  0.500000  1
  Y  Y3  1  0.000000  0.586822  0.500000  1
  Tl  Tl4  1  0.740121  0.740704  0.000000  1
  Tl  Tl5  1  0.259879  0.000583  0.000000  1
  Tl  Tl6  1  0.000000  0.259021  0.000000  1
  Pd  Pd7  1  0.667784  0.333301  0.000000  1
  Pd  Pd8  1  0.332216  0.665519  0.000000  1
