# generated using pymatgen
data_Nd8Sc12Si13Ge3
_symmetry_space_group_name_H-M   'P 1'
_cell_length_a   7.24746072
_cell_length_b   7.51641008
_cell_length_c   14.24475749
_cell_angle_alpha   90.00139115
_cell_angle_beta   89.50204999
_cell_angle_gamma   90.04024675
_symmetry_Int_Tables_number   1
_chemical_formula_structural   Nd8Sc12Si13Ge3
_chemical_formula_sum   'Nd8 Sc12 Si13 Ge3'
_cell_volume   775.95205511
_cell_formula_units_Z   1
loop_
 _symmetry_equiv_pos_site_id
 _symmetry_equiv_pos_as_xyz
  1  'x, y, z'
loop_
 _atom_site_type_symbol
 _atom_site_label
 _atom_site_symmetry_multiplicity
 _atom_site_fract_x
 _atom_site_fract_y
 _atom_site_fract_z
 _atom_site_occupancy
  Nd  Nd0  1  0.010897  0.172672  0.097256  1
  Nd  Nd1  1  0.988859  0.827434  0.902788  1
  Nd  Nd2  1  0.489172  0.672773  0.902728  1
  Nd  Nd3  1  0.991442  0.826532  0.598911  1
  Nd  Nd4  1  0.510559  0.327519  0.097321  1
  Nd  Nd5  1  0.005852  0.173844  0.401468  1
  Nd  Nd6  1  0.507061  0.324726  0.400918  1
  Nd  Nd7  1  0.494023  0.675497  0.599240  1
  Sc  Sc8  1  0.163621  0.498757  0.751198  1
  Sc  Sc9  1  0.836211  0.501238  0.248772  1
  Sc  Sc10  1  0.336334  0.998751  0.248752  1
  Sc  Sc11  1  0.663892  0.001283  0.749744  1
  Sc  Sc12  1  0.338920  0.172754  0.627261  1
  Sc  Sc13  1  0.663460  0.828376  0.373143  1
  Sc  Sc14  1  0.163476  0.672560  0.373103  1
  Sc  Sc15  1  0.667976  0.823951  0.125100  1
  Sc  Sc16  1  0.835606  0.325322  0.626298  1
  Sc  Sc17  1  0.332405  0.176307  0.874999  1
  Sc  Sc18  1  0.832331  0.323406  0.875113  1
  Sc  Sc19  1  0.167851  0.676005  0.125164  1
  Si  Si20  1  0.038475  0.123423  0.751006  1
  Si  Si21  1  0.962306  0.876699  0.249123  1
  Si  Si22  1  0.462055  0.623620  0.249186  1
  Si  Si23  1  0.538379  0.377183  0.751065  1
  Si  Si24  1  0.290279  0.880743  0.751127  1
  Si  Si25  1  0.709308  0.119536  0.248798  1
  Si  Si26  1  0.208918  0.380410  0.249109  1
  Si  Si27  1  0.790965  0.618697  0.750939  1
  Si  Si28  1  0.847278  0.536582  0.039661  1
  Si  Si29  1  0.662911  0.040539  0.540753  1
  Si  Si30  1  0.152868  0.463487  0.960430  1
  Si  Si31  1  0.652630  0.036654  0.960391  1
  Si  Si32  1  0.347291  0.963262  0.039572  1
  Ge  Ge33  1  0.167374  0.458517  0.541391  1
  Ge  Ge34  1  0.832645  0.541780  0.458633  1
  Ge  Ge35  1  0.336371  0.959159  0.459540  1
