# generated using pymatgen
data_Dy2Er10Os3Pd
_symmetry_space_group_name_H-M   'P 1'
_cell_length_a   6.36508600
_cell_length_b   7.31174809
_cell_length_c   8.99948600
_cell_angle_alpha   90.00000000
_cell_angle_beta   90.00000000
_cell_angle_gamma   90.33914168
_symmetry_Int_Tables_number   1
_chemical_formula_structural   Dy2Er10Os3Pd
_chemical_formula_sum   'Dy2 Er10 Os3 Pd1'
_cell_volume   418.82788980
_cell_formula_units_Z   1
loop_
 _symmetry_equiv_pos_site_id
 _symmetry_equiv_pos_as_xyz
  1  'x, y, z'
loop_
 _atom_site_type_symbol
 _atom_site_label
 _atom_site_symmetry_multiplicity
 _atom_site_fract_x
 _atom_site_fract_y
 _atom_site_fract_z
 _atom_site_occupancy
  Dy  Dy0  1  0.872980  0.532445  0.250000  1
  Dy  Dy1  1  0.620781  0.038598  0.250000  1
  Er  Er2  1  0.338244  0.669693  0.057551  1
  Er  Er3  1  0.171124  0.184076  0.442249  1
  Er  Er4  1  0.670837  0.322987  0.562561  1
  Er  Er5  1  0.822956  0.823246  0.932063  1
  Er  Er6  1  0.670837  0.322987  0.937439  1
  Er  Er7  1  0.822956  0.823246  0.567937  1
  Er  Er8  1  0.338244  0.669693  0.442449  1
  Er  Er9  1  0.171124  0.184076  0.057751  1
  Er  Er10  1  0.122111  0.463509  0.750000  1
  Er  Er11  1  0.369775  0.962547  0.750000  1
  Os  Os12  1  0.461985  0.384310  0.250000  1
  Os  Os13  1  0.963561  0.114847  0.750000  1
  Os  Os14  1  0.532955  0.614537  0.750000  1
  Pd  Pd15  1  0.049530  0.889200  0.250000  1
