# generated using pymatgen
data_CsAcZnSe3
_symmetry_space_group_name_H-M   'P 1'
_cell_length_a   8.45109535
_cell_length_b   8.45109535
_cell_length_c   11.92675700
_cell_angle_alpha   90.00000000
_cell_angle_beta   90.00000000
_cell_angle_gamma   149.02961520
_symmetry_Int_Tables_number   1
_chemical_formula_structural   CsAcZnSe3
_chemical_formula_sum   'Cs2 Ac2 Zn2 Se6'
_cell_volume   438.34281786
_cell_formula_units_Z   2
loop_
 _symmetry_equiv_pos_site_id
 _symmetry_equiv_pos_as_xyz
  1  'x, y, z'
loop_
 _atom_site_type_symbol
 _atom_site_label
 _atom_site_symmetry_multiplicity
 _atom_site_fract_x
 _atom_site_fract_y
 _atom_site_fract_z
 _atom_site_occupancy
  Cs  Cs0  1  0.252803  0.747195  0.250000  1
  Cs  Cs1  1  0.747195  0.252803  0.750000  1
  Ac  Ac2  1  0.000000  0.000000  0.000000  1
  Ac  Ac3  1  0.000000  0.000000  0.500000  1
  Zn  Zn4  1  0.535235  0.464763  0.250000  1
  Zn  Zn5  1  0.464763  0.535235  0.750000  1
  Se  Se6  1  0.617575  0.382423  0.077347  1
  Se  Se7  1  0.617575  0.382423  0.422652  1
  Se  Se8  1  0.382423  0.617575  0.577347  1
  Se  Se9  1  0.382423  0.617575  0.922652  1
  Se  Se10  1  0.943890  0.056108  0.250000  1
  Se  Se11  1  0.056108  0.943890  0.750000  1
