# generated using pymatgen
data_CsRb13Nb2(In3As5)2
_symmetry_space_group_name_H-M   'P 1'
_cell_length_a   8.74249394
_cell_length_b   9.63556055
_cell_length_c   14.65933009
_cell_angle_alpha   85.31518469
_cell_angle_beta   83.59790504
_cell_angle_gamma   86.77113803
_symmetry_Int_Tables_number   1
_chemical_formula_structural   CsRb13Nb2(In3As5)2
_chemical_formula_sum   'Cs1 Rb13 Nb2 In6 As10'
_cell_volume   1221.69329227
_cell_formula_units_Z   1
loop_
 _symmetry_equiv_pos_site_id
 _symmetry_equiv_pos_as_xyz
  1  'x, y, z'
loop_
 _atom_site_type_symbol
 _atom_site_label
 _atom_site_symmetry_multiplicity
 _atom_site_fract_x
 _atom_site_fract_y
 _atom_site_fract_z
 _atom_site_occupancy
  Cs  Cs0  1  0.832580  0.363258  0.642681  1
  Rb  Rb1  1  0.817232  0.812819  0.131338  1
  Rb  Rb2  1  0.242962  0.007373  0.467541  1
  Rb  Rb3  1  0.272611  0.256603  0.252159  1
  Rb  Rb4  1  0.741435  0.499460  0.974486  1
  Rb  Rb5  1  0.258281  0.501231  0.026441  1
  Rb  Rb6  1  0.684959  0.080114  0.885309  1
  Rb  Rb7  1  0.758169  0.991020  0.531038  1
  Rb  Rb8  1  0.728260  0.744070  0.747674  1
  Rb  Rb9  1  0.329633  0.339026  0.604893  1
  Rb  Rb10  1  0.163880  0.637042  0.353538  1
  Rb  Rb11  1  0.182512  0.186842  0.868864  1
  Rb  Rb12  1  0.313896  0.919492  0.115758  1
  Rb  Rb13  1  0.670724  0.662071  0.394458  1
  Nb  Nb14  1  0.352239  0.604576  0.775228  1
  Nb  Nb15  1  0.646611  0.396279  0.226080  1
  In  In16  1  0.053767  0.815321  0.870645  1
  In  In17  1  0.946510  0.185259  0.129456  1
  In  In18  1  0.365903  0.953046  0.700785  1
  In  In19  1  0.094366  0.720541  0.622489  1
  In  In20  1  0.908991  0.279031  0.375410  1
  In  In21  1  0.635230  0.046697  0.298909  1
  As  As22  1  0.926518  0.455216  0.207338  1
  As  As23  1  0.622551  0.196996  0.123516  1
  As  As24  1  0.072236  0.546947  0.792414  1
  As  As25  1  0.582049  0.298092  0.392197  1
  As  As26  1  0.422021  0.700100  0.608986  1
  As  As27  1  0.029539  0.997019  0.699885  1
  As  As28  1  0.510054  0.398021  0.815461  1
  As  As29  1  0.484303  0.601806  0.189137  1
  As  As30  1  0.377636  0.804337  0.876974  1
  As  As31  1  0.972343  0.000296  0.298914  1
