# generated using pymatgen
data_Tm2GaCoRu
_symmetry_space_group_name_H-M   'P 1'
_cell_length_a   4.03054647
_cell_length_b   5.55959836
_cell_length_c   5.39706765
_cell_angle_alpha   121.00127869
_cell_angle_beta   111.92555558
_cell_angle_gamma   89.99999444
_symmetry_Int_Tables_number   1
_chemical_formula_structural   Tm2GaCoRu
_chemical_formula_sum   'Tm2 Ga1 Co1 Ru1'
_cell_volume   93.31007642
_cell_formula_units_Z   1
loop_
 _symmetry_equiv_pos_site_id
 _symmetry_equiv_pos_as_xyz
  1  'x, y, z'
loop_
 _atom_site_type_symbol
 _atom_site_label
 _atom_site_symmetry_multiplicity
 _atom_site_fract_x
 _atom_site_fract_y
 _atom_site_fract_z
 _atom_site_occupancy
  Tm  Tm0  1  0.792439  0.287558  0.584878  1
  Tm  Tm1  1  0.207561  0.702680  0.415122  1
  Ga  Ga2  1  0.000000  0.989761  0.000000  1
  Co  Co3  1  0.500000  0.728962  0.000000  1
  Ru  Ru4  1  0.500000  0.291038  0.000000  1
