# generated using pymatgen
data_YbPr2Sn6Ru
_symmetry_space_group_name_H-M   'P 1'
_cell_length_a   8.56034141
_cell_length_b   8.56034090
_cell_length_c   13.51968400
_cell_angle_alpha   90.00000000
_cell_angle_beta   90.00000000
_cell_angle_gamma   147.61853547
_symmetry_Int_Tables_number   1
_chemical_formula_structural   YbPr2Sn6Ru
_chemical_formula_sum   'Yb2 Pr4 Sn12 Ru2'
_cell_volume   530.58094417
_cell_formula_units_Z   2
loop_
 _symmetry_equiv_pos_site_id
 _symmetry_equiv_pos_as_xyz
  1  'x, y, z'
loop_
 _atom_site_type_symbol
 _atom_site_label
 _atom_site_symmetry_multiplicity
 _atom_site_fract_x
 _atom_site_fract_y
 _atom_site_fract_z
 _atom_site_occupancy
  Yb  Yb0  1  0.600847  0.399153  0.250000  1
  Yb  Yb1  1  0.399153  0.600847  0.750000  1
  Pr  Pr2  1  0.402013  0.597987  0.403906  1
  Pr  Pr3  1  0.597987  0.402013  0.596094  1
  Pr  Pr4  1  0.402013  0.597987  0.096094  1
  Pr  Pr5  1  0.597987  0.402013  0.903906  1
  Sn  Sn6  1  0.928870  0.071130  0.924096  1
  Sn  Sn7  1  0.071130  0.928870  0.075904  1
  Sn  Sn8  1  0.928870  0.071130  0.575904  1
  Sn  Sn9  1  0.071130  0.928870  0.424096  1
  Sn  Sn10  1  0.957917  0.042083  0.250000  1
  Sn  Sn11  1  0.042083  0.957917  0.750000  1
  Sn  Sn12  1  0.745385  0.254616  0.433882  1
  Sn  Sn13  1  0.254616  0.745384  0.566118  1
  Sn  Sn14  1  0.745385  0.254616  0.066118  1
  Sn  Sn15  1  0.254616  0.745384  0.933882  1
  Sn  Sn16  1  0.230692  0.769308  0.250000  1
  Sn  Sn17  1  0.769308  0.230692  0.750000  1
  Ru  Ru18  1  0.795442  0.204558  0.250000  1
  Ru  Ru19  1  0.204558  0.795442  0.750000  1
