# generated using pymatgen
data_NdTm19(SiSb5)2
_symmetry_space_group_name_H-M   'P 1'
_cell_length_a   7.88885447
_cell_length_b   9.11795700
_cell_length_c   11.80405800
_cell_angle_alpha   90.00000000
_cell_angle_beta   90.14842432
_cell_angle_gamma   90.00000000
_symmetry_Int_Tables_number   1
_chemical_formula_structural   NdTm19(SiSb5)2
_chemical_formula_sum   'Nd1 Tm19 Si2 Sb10'
_cell_volume   849.06582683
_cell_formula_units_Z   1
loop_
 _symmetry_equiv_pos_site_id
 _symmetry_equiv_pos_as_xyz
  1  'x, y, z'
loop_
 _atom_site_type_symbol
 _atom_site_label
 _atom_site_symmetry_multiplicity
 _atom_site_fract_x
 _atom_site_fract_y
 _atom_site_fract_z
 _atom_site_occupancy
  Nd  Nd0  1  0.579088  0.500000  0.774566  1
  Tm  Tm1  1  0.439598  0.184553  0.565196  1
  Tm  Tm2  1  0.559640  0.815352  0.064735  1
  Tm  Tm3  1  0.064411  0.707933  0.432562  1
  Tm  Tm4  1  0.933798  0.293714  0.933693  1
  Tm  Tm5  1  0.064411  0.292067  0.432562  1
  Tm  Tm6  1  0.933798  0.706286  0.933693  1
  Tm  Tm7  1  0.439598  0.815447  0.565196  1
  Tm  Tm8  1  0.559640  0.184648  0.064735  1
  Tm  Tm9  1  0.422450  0.500000  0.272889  1
  Tm  Tm10  1  0.912036  0.000000  0.215833  1
  Tm  Tm11  1  0.089482  0.000000  0.713330  1
  Tm  Tm12  1  0.269765  0.500000  0.996448  1
  Tm  Tm13  1  0.730683  0.500000  0.495757  1
  Tm  Tm14  1  0.205988  0.000000  0.002932  1
  Tm  Tm15  1  0.791726  0.000000  0.499830  1
  Tm  Tm16  1  0.093000  0.500000  0.713045  1
  Tm  Tm17  1  0.908326  0.500000  0.216088  1
  Tm  Tm18  1  0.392726  0.000000  0.295098  1
  Tm  Tm19  1  0.608786  0.000000  0.794891  1
  Si  Si20  1  0.168692  0.000000  0.480032  1
  Si  Si21  1  0.831088  0.000000  0.982030  1
  Sb  Sb22  1  0.824214  0.745487  0.670016  1
  Sb  Sb23  1  0.181635  0.258391  0.172921  1
  Sb  Sb24  1  0.681975  0.239685  0.327021  1
  Sb  Sb25  1  0.313305  0.763107  0.828486  1
  Sb  Sb26  1  0.681975  0.760315  0.327021  1
  Sb  Sb27  1  0.313305  0.236893  0.828486  1
  Sb  Sb28  1  0.824214  0.254513  0.670016  1
  Sb  Sb29  1  0.181635  0.741609  0.172921  1
  Sb  Sb30  1  0.342970  0.500000  0.524749  1
  Sb  Sb31  1  0.656043  0.500000  0.033225  1
