# generated using pymatgen
data_Tb8Sc12Sn9Bi7
_symmetry_space_group_name_H-M   'P 1'
_cell_length_a   7.90289746
_cell_length_b   7.88562445
_cell_length_c   14.94359800
_cell_angle_alpha   90.06254447
_cell_angle_beta   89.84896842
_cell_angle_gamma   90.02514478
_symmetry_Int_Tables_number   1
_chemical_formula_structural   Tb8Sc12Sn9Bi7
_chemical_formula_sum   'Tb8 Sc12 Sn9 Bi7'
_cell_volume   931.27040993
_cell_formula_units_Z   1
loop_
 _symmetry_equiv_pos_site_id
 _symmetry_equiv_pos_as_xyz
  1  'x, y, z'
loop_
 _atom_site_type_symbol
 _atom_site_label
 _atom_site_symmetry_multiplicity
 _atom_site_fract_x
 _atom_site_fract_y
 _atom_site_fract_z
 _atom_site_occupancy
  Tb  Tb0  1  0.979504  0.173571  0.098534  1
  Tb  Tb1  1  0.031651  0.824657  0.901611  1
  Tb  Tb2  1  0.524513  0.681495  0.900971  1
  Tb  Tb3  1  0.028125  0.821064  0.601143  1
  Tb  Tb4  1  0.470969  0.317469  0.100336  1
  Tb  Tb5  1  0.971455  0.178489  0.398503  1
  Tb  Tb6  1  0.471261  0.321097  0.398119  1
  Tb  Tb7  1  0.528765  0.678188  0.601695  1
  Sc  Sc8  1  0.188916  0.497203  0.750558  1
  Sc  Sc9  1  0.810938  0.503441  0.249044  1
  Sc  Sc10  1  0.310747  0.996042  0.246121  1
  Sc  Sc11  1  0.688959  0.003963  0.750310  1
  Sc  Sc12  1  0.361913  0.155919  0.629257  1
  Sc  Sc13  1  0.638078  0.844302  0.370468  1
  Sc  Sc14  1  0.137442  0.655574  0.370512  1
  Sc  Sc15  1  0.634594  0.843739  0.128977  1
  Sc  Sc16  1  0.861543  0.345096  0.630186  1
  Sc  Sc17  1  0.359128  0.153498  0.872694  1
  Sc  Sc18  1  0.860838  0.344113  0.871008  1
  Sc  Sc19  1  0.141977  0.661099  0.127845  1
  Sn  Sn20  1  0.054154  0.127305  0.750025  1
  Sn  Sn21  1  0.944878  0.872377  0.249968  1
  Sn  Sn22  1  0.445369  0.626293  0.250572  1
  Sn  Sn23  1  0.553297  0.372822  0.751141  1
  Sn  Sn24  1  0.331425  0.850612  0.750092  1
  Sn  Sn25  1  0.670404  0.149450  0.249324  1
  Sn  Sn26  1  0.167884  0.351349  0.249190  1
  Sn  Sn27  1  0.831814  0.651268  0.751748  1
  Sn  Sn28  1  0.297171  0.956340  0.042845  1
  Bi  Bi29  1  0.206969  0.456774  0.543030  1
  Bi  Bi30  1  0.792449  0.542890  0.456988  1
  Bi  Bi31  1  0.292707  0.957040  0.456218  1
  Bi  Bi32  1  0.793096  0.542131  0.043292  1
  Bi  Bi33  1  0.707317  0.043409  0.543131  1
  Bi  Bi34  1  0.205898  0.456394  0.956925  1
  Bi  Bi35  1  0.703851  0.043524  0.957618  1
