# generated using pymatgen
data_La2NdGaGeRh2
_symmetry_space_group_name_H-M   'P 1'
_cell_length_a   5.76396400
_cell_length_b   8.26843600
_cell_length_c   13.68742800
_cell_angle_alpha   90.00000000
_cell_angle_beta   90.00000000
_cell_angle_gamma   90.00000000
_symmetry_Int_Tables_number   1
_chemical_formula_structural   La2NdGaGeRh2
_chemical_formula_sum   'La8 Nd4 Ga4 Ge4 Rh8'
_cell_volume   652.32868539
_cell_formula_units_Z   4
loop_
 _symmetry_equiv_pos_site_id
 _symmetry_equiv_pos_as_xyz
  1  'x, y, z'
loop_
 _atom_site_type_symbol
 _atom_site_label
 _atom_site_symmetry_multiplicity
 _atom_site_fract_x
 _atom_site_fract_y
 _atom_site_fract_z
 _atom_site_occupancy
  La  La0  1  0.155626  0.398806  0.098753  1
  La  La1  1  0.844374  0.601194  0.901247  1
  La  La2  1  0.844374  0.601194  0.598753  1
  La  La3  1  0.844374  0.898806  0.401247  1
  La  La4  1  0.155626  0.398806  0.401247  1
  La  La5  1  0.155626  0.101194  0.598753  1
  La  La6  1  0.155626  0.101194  0.901247  1
  La  La7  1  0.844374  0.898806  0.098753  1
  Nd  Nd8  1  0.644405  0.253132  0.250000  1
  Nd  Nd9  1  0.355595  0.746868  0.750000  1
  Nd  Nd10  1  0.355595  0.753132  0.250000  1
  Nd  Nd11  1  0.644405  0.246868  0.750000  1
  Ga  Ga12  1  0.638434  0.250000  0.000000  1
  Ga  Ga13  1  0.361566  0.750000  0.000000  1
  Ga  Ga14  1  0.361566  0.750000  0.500000  1
  Ga  Ga15  1  0.638434  0.250000  0.500000  1
  Ge  Ge16  1  0.145123  0.106683  0.250000  1
  Ge  Ge17  1  0.854877  0.893317  0.750000  1
  Ge  Ge18  1  0.854877  0.606683  0.250000  1
  Ge  Ge19  1  0.145123  0.393317  0.750000  1
  Rh  Rh20  1  0.376262  0.029634  0.093179  1
  Rh  Rh21  1  0.623738  0.970366  0.906821  1
  Rh  Rh22  1  0.623738  0.970366  0.593179  1
  Rh  Rh23  1  0.623738  0.529634  0.406821  1
  Rh  Rh24  1  0.376262  0.029634  0.406821  1
  Rh  Rh25  1  0.376262  0.470366  0.593179  1
  Rh  Rh26  1  0.376262  0.470366  0.906821  1
  Rh  Rh27  1  0.623738  0.529634  0.093179  1
