# generated using pymatgen
data_Yb5(Pr2Ni3)2
_symmetry_space_group_name_H-M   'P 1'
_cell_length_a   7.36740539
_cell_length_b   7.34059889
_cell_length_c   7.32536508
_cell_angle_alpha   73.05456257
_cell_angle_beta   72.64944259
_cell_angle_gamma   72.66734592
_symmetry_Int_Tables_number   1
_chemical_formula_structural   Yb5(Pr2Ni3)2
_chemical_formula_sum   'Yb5 Pr4 Ni6'
_cell_volume   351.92921787
_cell_formula_units_Z   1
loop_
 _symmetry_equiv_pos_site_id
 _symmetry_equiv_pos_as_xyz
  1  'x, y, z'
loop_
 _atom_site_type_symbol
 _atom_site_label
 _atom_site_symmetry_multiplicity
 _atom_site_fract_x
 _atom_site_fract_y
 _atom_site_fract_z
 _atom_site_occupancy
  Yb  Yb0  1  0.997063  0.004641  0.999176  1
  Yb  Yb1  1  0.796835  0.795285  0.792803  1
  Yb  Yb2  1  0.203519  0.203695  0.203061  1
  Yb  Yb3  1  0.164301  0.380764  0.671747  1
  Yb  Yb4  1  0.673036  0.165759  0.381538  1
  Pr  Pr5  1  0.384382  0.668003  0.164880  1
  Pr  Pr6  1  0.838657  0.612627  0.334521  1
  Pr  Pr7  1  0.334234  0.836619  0.613938  1
  Pr  Pr8  1  0.612596  0.330223  0.833231  1
  Ni  Ni9  1  0.958178  0.141978  0.580226  1
  Ni  Ni10  1  0.581971  0.959631  0.146114  1
  Ni  Ni11  1  0.141018  0.578548  0.961816  1
  Ni  Ni12  1  0.036909  0.869214  0.414401  1
  Ni  Ni13  1  0.413908  0.031206  0.871199  1
  Ni  Ni14  1  0.863393  0.421806  0.031350  1
