# generated using pymatgen
data_Tb9Ho(IrRu)3
_symmetry_space_group_name_H-M   'P 1'
_cell_length_a   10.87638483
_cell_length_b   10.87220400
_cell_length_c   6.41811103
_cell_angle_alpha   90.00000000
_cell_angle_beta   89.95132778
_cell_angle_gamma   90.00000000
_symmetry_Int_Tables_number   1
_chemical_formula_structural   Tb9Ho(IrRu)3
_chemical_formula_sum   'Tb18 Ho2 Ir6 Ru6'
_cell_volume   758.94311765
_cell_formula_units_Z   2
loop_
 _symmetry_equiv_pos_site_id
 _symmetry_equiv_pos_as_xyz
  1  'x, y, z'
loop_
 _atom_site_type_symbol
 _atom_site_label
 _atom_site_symmetry_multiplicity
 _atom_site_fract_x
 _atom_site_fract_y
 _atom_site_fract_z
 _atom_site_occupancy
  Tb  Tb0  1  0.292935  0.086349  0.378583  1
  Tb  Tb1  1  0.292935  0.913651  0.878583  1
  Tb  Tb2  1  0.707865  0.086495  0.877633  1
  Tb  Tb3  1  0.707865  0.913505  0.377633  1
  Tb  Tb4  1  0.587438  0.793114  0.878746  1
  Tb  Tb5  1  0.587438  0.206886  0.378746  1
  Tb  Tb6  1  0.413589  0.793233  0.377813  1
  Tb  Tb7  1  0.413589  0.206767  0.877813  1
  Tb  Tb8  1  0.206695  0.413580  0.621442  1
  Tb  Tb9  1  0.206695  0.586420  0.121442  1
  Tb  Tb10  1  0.793029  0.412643  0.121905  1
  Tb  Tb11  1  0.793029  0.587357  0.621905  1
  Tb  Tb12  1  0.913348  0.707267  0.121430  1
  Tb  Tb13  1  0.913348  0.292733  0.621430  1
  Tb  Tb14  1  0.086118  0.707842  0.622470  1
  Tb  Tb15  1  0.086118  0.292158  0.122470  1
  Tb  Tb16  1  0.998471  0.000731  0.499794  1
  Tb  Tb17  1  0.998471  0.999269  0.999794  1
  Ho  Ho18  1  0.499927  0.500324  0.000166  1
  Ho  Ho19  1  0.499927  0.499676  0.500166  1
  Ir  Ir20  1  0.153818  0.153559  0.750252  1
  Ir  Ir21  1  0.153818  0.846441  0.250252  1
  Ir  Ir22  1  0.651776  0.348644  0.749677  1
  Ir  Ir23  1  0.651776  0.651356  0.249677  1
  Ir  Ir24  1  0.347997  0.347465  0.250406  1
  Ir  Ir25  1  0.347997  0.652535  0.750406  1
  Ru  Ru26  1  0.847252  0.152790  0.249699  1
  Ru  Ru27  1  0.847252  0.847210  0.749699  1
  Ru  Ru28  1  0.500149  0.000178  0.122538  1
  Ru  Ru29  1  0.500149  0.999822  0.622538  1
  Ru  Ru30  1  0.999594  0.500310  0.877446  1
  Ru  Ru31  1  0.999594  0.499690  0.377446  1
