# generated using pymatgen
data_Tb6TiAl23Os8
_symmetry_space_group_name_H-M   'P 1'
_cell_length_a   8.86690500
_cell_length_b   8.86690563
_cell_length_c   9.57720300
_cell_angle_alpha   90.00000000
_cell_angle_beta   90.00000000
_cell_angle_gamma   119.99999392
_symmetry_Int_Tables_number   1
_chemical_formula_structural   Tb6TiAl23Os8
_chemical_formula_sum   'Tb6 Ti1 Al23 Os8'
_cell_volume   652.09893817
_cell_formula_units_Z   1
loop_
 _symmetry_equiv_pos_site_id
 _symmetry_equiv_pos_as_xyz
  1  'x, y, z'
loop_
 _atom_site_type_symbol
 _atom_site_label
 _atom_site_symmetry_multiplicity
 _atom_site_fract_x
 _atom_site_fract_y
 _atom_site_fract_z
 _atom_site_occupancy
  Tb  Tb0  1  0.193597  0.387193  0.250319  1
  Tb  Tb1  1  0.807056  0.614111  0.748178  1
  Tb  Tb2  1  0.612807  0.806403  0.250319  1
  Tb  Tb3  1  0.385889  0.192944  0.748178  1
  Tb  Tb4  1  0.193597  0.806403  0.250319  1
  Tb  Tb5  1  0.807056  0.192944  0.748178  1
  Ti  Ti6  1  0.333333  0.666667  0.991395  1
  Al  Al7  1  0.666667  0.333333  0.982427  1
  Al  Al8  1  0.666667  0.333333  0.515696  1
  Al  Al9  1  0.333333  0.666667  0.482656  1
  Al  Al10  1  0.162484  0.324966  0.575089  1
  Al  Al11  1  0.837236  0.674474  0.424584  1
  Al  Al12  1  0.675034  0.837516  0.575089  1
  Al  Al13  1  0.836879  0.673759  0.076388  1
  Al  Al14  1  0.325526  0.162764  0.424584  1
  Al  Al15  1  0.159704  0.319406  0.926424  1
  Al  Al16  1  0.162484  0.837516  0.575089  1
  Al  Al17  1  0.326241  0.163121  0.076388  1
  Al  Al18  1  0.837236  0.162764  0.424584  1
  Al  Al19  1  0.680594  0.840296  0.926424  1
  Al  Al20  1  0.836879  0.163121  0.076388  1
  Al  Al21  1  0.159704  0.840296  0.926424  1
  Al  Al22  1  0.561651  0.123303  0.253023  1
  Al  Al23  1  0.440939  0.881878  0.749965  1
  Al  Al24  1  0.876697  0.438349  0.253023  1
  Al  Al25  1  0.118122  0.559061  0.749965  1
  Al  Al26  1  0.561651  0.438349  0.253023  1
  Al  Al27  1  0.440939  0.559061  0.749965  1
  Al  Al28  1  0.000000  0.000000  0.249893  1
  Al  Al29  1  0.000000  0.000000  0.749479  1
  Os  Os30  1  0.499021  0.998043  0.002753  1
  Os  Os31  1  0.001957  0.500979  0.002753  1
  Os  Os32  1  0.499509  0.999017  0.502841  1
  Os  Os33  1  0.499021  0.500979  0.002753  1
  Os  Os34  1  0.000983  0.500491  0.502841  1
  Os  Os35  1  0.499509  0.500491  0.502841  1
  Os  Os36  1  0.000000  0.000000  0.999949  1
  Os  Os37  1  0.000000  0.000000  0.499814  1
