# generated using pymatgen
data_Na2PrNd(SiSe4)2
_symmetry_space_group_name_H-M   'P 1'
_cell_length_a   6.82417454
_cell_length_b   7.07417619
_cell_length_c   8.40310005
_cell_angle_alpha   90.00522073
_cell_angle_beta   106.33880578
_cell_angle_gamma   90.02370406
_symmetry_Int_Tables_number   1
_chemical_formula_structural   Na2PrNd(SiSe4)2
_chemical_formula_sum   'Na2 Pr1 Nd1 Si2 Se8'
_cell_volume   389.28036976
_cell_formula_units_Z   1
loop_
 _symmetry_equiv_pos_site_id
 _symmetry_equiv_pos_as_xyz
  1  'x, y, z'
loop_
 _atom_site_type_symbol
 _atom_site_label
 _atom_site_symmetry_multiplicity
 _atom_site_fract_x
 _atom_site_fract_y
 _atom_site_fract_z
 _atom_site_occupancy
  Na  Na0  1  0.246450  0.977102  0.060131  1
  Na  Na1  1  0.753503  0.477061  0.939818  1
  Pr  Pr2  1  0.775277  0.506504  0.447184  1
  Nd  Nd3  1  0.225394  0.006078  0.553077  1
  Si  Si4  1  0.229577  0.543391  0.310140  1
  Si  Si5  1  0.770361  0.043333  0.689768  1
  Se  Se6  1  0.431910  0.568091  0.139421  1
  Se  Se7  1  0.979273  0.771932  0.250676  1
  Se  Se8  1  0.035821  0.271343  0.268647  1
  Se  Se9  1  0.586286  0.094272  0.419495  1
  Se  Se10  1  0.411484  0.595808  0.580930  1
  Se  Se11  1  0.966066  0.772923  0.732035  1
  Se  Se12  1  0.022351  0.270302  0.749571  1
  Se  Se13  1  0.566245  0.067863  0.859107  1
