# generated using pymatgen
data_Y4Er8Co5Sn
_symmetry_space_group_name_H-M   'P 1'
_cell_length_a   8.22145343
_cell_length_b   8.22145310
_cell_length_c   8.22145362
_cell_angle_alpha   110.89784069
_cell_angle_beta   110.57673146
_cell_angle_gamma   106.96789306
_symmetry_Int_Tables_number   1
_chemical_formula_structural   Y4Er8Co5Sn
_chemical_formula_sum   'Y4 Er8 Co5 Sn1'
_cell_volume   427.17075185
_cell_formula_units_Z   1
loop_
 _symmetry_equiv_pos_site_id
 _symmetry_equiv_pos_as_xyz
  1  'x, y, z'
loop_
 _atom_site_type_symbol
 _atom_site_label
 _atom_site_symmetry_multiplicity
 _atom_site_fract_x
 _atom_site_fract_y
 _atom_site_fract_z
 _atom_site_occupancy
  Y  Y0  1  0.289378  0.187565  0.476943  1
  Y  Y1  1  0.710622  0.812435  0.523057  1
  Y  Y2  1  0.289378  0.812435  0.101813  1
  Y  Y3  1  0.710622  0.187565  0.898187  1
  Er  Er4  1  0.620433  0.313280  0.307152  1
  Er  Er5  1  0.379567  0.686720  0.692848  1
  Er  Er6  1  0.006128  0.313280  0.692848  1
  Er  Er7  1  0.993872  0.686720  0.307152  1
  Er  Er8  1  0.210255  0.402574  0.192318  1
  Er  Er9  1  0.789745  0.597426  0.807682  1
  Er  Er10  1  0.210255  0.017937  0.807682  1
  Er  Er11  1  0.789745  0.982063  0.192318  1
  Co  Co12  1  0.000000  0.376780  0.376780  1
  Co  Co13  1  0.000000  0.623220  0.623220  1
  Co  Co14  1  0.387348  0.887348  0.500000  1
  Co  Co15  1  0.612652  0.112652  0.500000  1
  Co  Co16  1  0.000000  0.000000  0.000000  1
  Sn  Sn17  1  0.500000  0.500000  0.000000  1
