# generated using pymatgen
data_Tm8Ta11Si16Tc
_symmetry_space_group_name_H-M   'P 1'
_cell_length_a   6.78016588
_cell_length_b   7.00634941
_cell_length_c   13.27344600
_cell_angle_alpha   90.00000000
_cell_angle_beta   90.00000000
_cell_angle_gamma   89.98149794
_symmetry_Int_Tables_number   1
_chemical_formula_structural   Tm8Ta11Si16Tc
_chemical_formula_sum   'Tm8 Ta11 Si16 Tc1'
_cell_volume   630.54454993
_cell_formula_units_Z   1
loop_
 _symmetry_equiv_pos_site_id
 _symmetry_equiv_pos_as_xyz
  1  'x, y, z'
loop_
 _atom_site_type_symbol
 _atom_site_label
 _atom_site_symmetry_multiplicity
 _atom_site_fract_x
 _atom_site_fract_y
 _atom_site_fract_z
 _atom_site_occupancy
  Tm  Tm0  1  0.002331  0.172228  0.095221  1
  Tm  Tm1  1  0.998673  0.828058  0.905299  1
  Tm  Tm2  1  0.499209  0.672399  0.905390  1
  Tm  Tm3  1  0.998673  0.828058  0.594701  1
  Tm  Tm4  1  0.502781  0.327918  0.094975  1
  Tm  Tm5  1  0.002331  0.172228  0.404779  1
  Tm  Tm6  1  0.502781  0.327918  0.405025  1
  Tm  Tm7  1  0.499209  0.672399  0.594610  1
  Ta  Ta8  1  0.838673  0.508708  0.250000  1
  Ta  Ta9  1  0.338383  0.992000  0.250000  1
  Ta  Ta10  1  0.661631  0.008735  0.750000  1
  Ta  Ta11  1  0.334599  0.171684  0.626030  1
  Ta  Ta12  1  0.664130  0.826151  0.374997  1
  Ta  Ta13  1  0.164333  0.673481  0.375745  1
  Ta  Ta14  1  0.664130  0.826151  0.125003  1
  Ta  Ta15  1  0.834307  0.328245  0.626401  1
  Ta  Ta16  1  0.334599  0.171684  0.873970  1
  Ta  Ta17  1  0.834307  0.328245  0.873599  1
  Ta  Ta18  1  0.164333  0.673481  0.124255  1
  Si  Si19  1  0.039675  0.120934  0.750000  1
  Si  Si20  1  0.962111  0.881133  0.250000  1
  Si  Si21  1  0.461086  0.619613  0.250000  1
  Si  Si22  1  0.531862  0.382591  0.750000  1
  Si  Si23  1  0.295381  0.864740  0.750000  1
  Si  Si24  1  0.705630  0.131209  0.250000  1
  Si  Si25  1  0.205658  0.369049  0.250000  1
  Si  Si26  1  0.800184  0.630453  0.750000  1
  Si  Si27  1  0.164938  0.462030  0.542305  1
  Si  Si28  1  0.834389  0.536600  0.459689  1
  Si  Si29  1  0.334618  0.963851  0.459159  1
  Si  Si30  1  0.834389  0.536600  0.040311  1
  Si  Si31  1  0.665534  0.036301  0.541185  1
  Si  Si32  1  0.164938  0.462030  0.957695  1
  Si  Si33  1  0.665534  0.036301  0.958815  1
  Si  Si34  1  0.334618  0.963851  0.040841  1
  Tc  Tc35  1  0.160038  0.492943  0.750000  1
