# generated using pymatgen
data_CdHg4(PBr2)2
_symmetry_space_group_name_H-M   'P 1'
_cell_length_a   12.72322600
_cell_length_b   7.83497179
_cell_length_c   7.91063796
_cell_angle_alpha   62.75151299
_cell_angle_beta   90.00000000
_cell_angle_gamma   90.00000000
_symmetry_Int_Tables_number   1
_chemical_formula_structural   CdHg4(PBr2)2
_chemical_formula_sum   'Cd2 Hg8 P4 Br8'
_cell_volume   701.07136480
_cell_formula_units_Z   2
loop_
 _symmetry_equiv_pos_site_id
 _symmetry_equiv_pos_as_xyz
  1  'x, y, z'
loop_
 _atom_site_type_symbol
 _atom_site_label
 _atom_site_symmetry_multiplicity
 _atom_site_fract_x
 _atom_site_fract_y
 _atom_site_fract_z
 _atom_site_occupancy
  Cd  Cd0  1  0.834605  0.000363  0.002102  1
  Cd  Cd1  1  0.334605  0.999637  0.997898  1
  Hg  Hg2  1  0.791066  0.673586  0.667883  1
  Hg  Hg3  1  0.549784  0.026792  0.572164  1
  Hg  Hg4  1  0.049784  0.973208  0.427836  1
  Hg  Hg5  1  0.555252  0.513753  0.054620  1
  Hg  Hg6  1  0.291066  0.326414  0.332117  1
  Hg  Hg7  1  0.021963  0.472759  0.448909  1
  Hg  Hg8  1  0.521963  0.527241  0.551091  1
  Hg  Hg9  1  0.055252  0.486247  0.945380  1
  P  P10  1  0.480156  0.348892  0.374371  1
  P  P11  1  0.602707  0.689722  0.718508  1
  P  P12  1  0.980156  0.651108  0.625629  1
  P  P13  1  0.102707  0.310278  0.281492  1
  Br  Br14  1  0.243939  0.318618  0.749577  1
  Br  Br15  1  0.313297  0.714447  0.912680  1
  Br  Br16  1  0.037350  0.888966  0.063489  1
  Br  Br17  1  0.743939  0.681382  0.250423  1
  Br  Br18  1  0.537350  0.111034  0.936511  1
  Br  Br19  1  0.813297  0.285553  0.087320  1
  Br  Br20  1  0.808610  0.116703  0.636544  1
  Br  Br21  1  0.308610  0.883297  0.363456  1
