# generated using pymatgen
data_Zr2ScAl3Zn2Ni
_symmetry_space_group_name_H-M   'P 1'
_cell_length_a   6.65495423
_cell_length_b   6.71182530
_cell_length_c   4.00443500
_cell_angle_alpha   90.00000000
_cell_angle_beta   90.00000000
_cell_angle_gamma   120.28308281
_symmetry_Int_Tables_number   1
_chemical_formula_structural   Zr2ScAl3Zn2Ni
_chemical_formula_sum   'Zr2 Sc1 Al3 Zn2 Ni1'
_cell_volume   154.45845189
_cell_formula_units_Z   1
loop_
 _symmetry_equiv_pos_site_id
 _symmetry_equiv_pos_as_xyz
  1  'x, y, z'
loop_
 _atom_site_type_symbol
 _atom_site_label
 _atom_site_symmetry_multiplicity
 _atom_site_fract_x
 _atom_site_fract_y
 _atom_site_fract_z
 _atom_site_occupancy
  Zr  Zr0  1  0.593431  0.593534  0.500000  1
  Zr  Zr1  1  0.406569  0.000102  0.500000  1
  Sc  Sc2  1  0.000000  0.404584  0.500000  1
  Al  Al3  1  0.000000  0.764900  0.000000  1
  Al  Al4  1  0.240853  0.238075  0.000000  1
  Al  Al5  1  0.759147  0.997222  0.000000  1
  Zn  Zn6  1  0.331482  0.665732  0.000000  1
  Zn  Zn7  1  0.668518  0.334249  0.000000  1
  Ni  Ni8  1  0.000000  0.001603  0.500000  1
