# generated using pymatgen
data_Cs7Ba5(Ta2Se11)4
_symmetry_space_group_name_H-M   'P 1'
_cell_length_a   14.31265969
_cell_length_b   8.02135649
_cell_length_c   17.30946900
_cell_angle_alpha   83.77806634
_cell_angle_beta   90.04636854
_cell_angle_gamma   90.01242546
_symmetry_Int_Tables_number   1
_chemical_formula_structural   Cs7Ba5(Ta2Se11)4
_chemical_formula_sum   'Cs7 Ba5 Ta8 Se44'
_cell_volume   1975.54081699
_cell_formula_units_Z   1
loop_
 _symmetry_equiv_pos_site_id
 _symmetry_equiv_pos_as_xyz
  1  'x, y, z'
loop_
 _atom_site_type_symbol
 _atom_site_label
 _atom_site_symmetry_multiplicity
 _atom_site_fract_x
 _atom_site_fract_y
 _atom_site_fract_z
 _atom_site_occupancy
  Cs  Cs0  1  0.458819  0.710488  0.087719  1
  Cs  Cs1  1  0.954955  0.276186  0.415806  1
  Cs  Cs2  1  0.884082  0.309814  0.733992  1
  Cs  Cs3  1  0.038200  0.725060  0.584799  1
  Cs  Cs4  1  0.389136  0.697599  0.763166  1
  Cs  Cs5  1  0.617600  0.301098  0.231219  1
  Cs  Cs6  1  0.115303  0.698477  0.267200  1
  Ba  Ba7  1  0.533935  0.197851  0.921889  1
  Ba  Ba8  1  0.878706  0.249486  0.033039  1
  Ba  Ba9  1  0.622214  0.240699  0.537573  1
  Ba  Ba10  1  0.380796  0.750812  0.467002  1
  Ba  Ba11  1  0.121317  0.752742  0.968651  1
  Ta  Ta12  1  0.327303  0.141066  0.196774  1
  Ta  Ta13  1  0.175392  0.139995  0.696578  1
  Ta  Ta14  1  0.708441  0.728621  0.606452  1
  Ta  Ta15  1  0.669455  0.873139  0.800579  1
  Ta  Ta16  1  0.218143  0.278242  0.895287  1
  Ta  Ta17  1  0.785750  0.724904  0.102850  1
  Ta  Ta18  1  0.824646  0.860909  0.302012  1
  Ta  Ta19  1  0.286405  0.275709  0.394458  1
  Se  Se20  1  0.167316  0.148577  0.300770  1
  Se  Se21  1  0.125945  0.164693  0.023958  1
  Se  Se22  1  0.281503  0.962381  0.610464  1
  Se  Se23  1  0.875793  0.845521  0.974092  1
  Se  Se24  1  0.198890  0.492039  0.446457  1
  Se  Se25  1  0.825956  0.562373  0.247654  1
  Se  Se26  1  0.447375  0.198380  0.101841  1
  Se  Se27  1  0.543126  0.587964  0.596589  1
  Se  Se28  1  0.775832  0.049453  0.888663  1
  Se  Se29  1  0.220890  0.962762  0.110799  1
  Se  Se30  1  0.295230  0.373183  0.655365  1
  Se  Se31  1  0.574515  0.929327  0.671115  1
  Se  Se32  1  0.809951  0.988406  0.565640  1
  Se  Se33  1  0.455777  0.395679  0.394528  1
  Se  Se34  1  0.049817  0.401445  0.896663  1
  Se  Se35  1  0.706683  0.624764  0.343483  1
  Se  Se36  1  0.621606  0.832251  0.473784  1
  Se  Se37  1  0.643848  0.181932  0.754132  1
  Se  Se38  1  0.665054  0.848266  0.197129  1
  Se  Se39  1  0.055243  0.197549  0.604779  1
  Se  Se40  1  0.830291  0.856454  0.699200  1
  Se  Se41  1  0.210401  0.378479  0.154134  1
  Se  Se42  1  0.308751  0.492248  0.945999  1
  Se  Se43  1  0.142184  0.839779  0.766966  1
  Se  Se44  1  0.860159  0.160886  0.232296  1
  Se  Se45  1  0.424897  0.076967  0.325843  1
  Se  Se46  1  0.944134  0.803199  0.395163  1
  Se  Se47  1  0.360842  0.840762  0.264716  1
  Se  Se48  1  0.338478  0.149138  0.802382  1
  Se  Se49  1  0.954385  0.598970  0.104810  1
  Se  Se50  1  0.328824  0.438244  0.250951  1
  Se  Se51  1  0.176898  0.437898  0.750845  1
  Se  Se52  1  0.923014  0.923750  0.172232  1
  Se  Se53  1  0.549939  0.806980  0.897141  1
  Se  Se54  1  0.786324  0.634415  0.845019  1
  Se  Se55  1  0.667318  0.572537  0.750698  1
  Se  Se56  1  0.190310  0.009181  0.432114  1
  Se  Se57  1  0.716787  0.037539  0.387148  1
  Se  Se58  1  0.688594  0.993364  0.066163  1
  Se  Se59  1  0.798294  0.509217  0.556546  1
  Se  Se60  1  0.079563  0.076531  0.827122  1
  Se  Se61  1  0.314416  0.010227  0.934962  1
  Se  Se62  1  0.697336  0.510493  0.048879  1
  Se  Se63  1  0.376911  0.162899  0.523720  1
