# generated using pymatgen
data_Zr2Ni2Au
_symmetry_space_group_name_H-M   'P 1'
_cell_length_a   7.05793800
_cell_length_b   7.05793800
_cell_length_c   3.34971200
_cell_angle_alpha   90.00000000
_cell_angle_beta   90.00000000
_cell_angle_gamma   90.00000000
_symmetry_Int_Tables_number   1
_chemical_formula_structural   Zr2Ni2Au
_chemical_formula_sum   'Zr4 Ni4 Au2'
_cell_volume   166.86419095
_cell_formula_units_Z   2
loop_
 _symmetry_equiv_pos_site_id
 _symmetry_equiv_pos_as_xyz
  1  'x, y, z'
loop_
 _atom_site_type_symbol
 _atom_site_label
 _atom_site_symmetry_multiplicity
 _atom_site_fract_x
 _atom_site_fract_y
 _atom_site_fract_z
 _atom_site_occupancy
  Zr  Zr0  1  0.827268  0.672732  0.500000  1
  Zr  Zr1  1  0.327268  0.827268  0.500000  1
  Zr  Zr2  1  0.672732  0.172732  0.500000  1
  Zr  Zr3  1  0.172732  0.327268  0.500000  1
  Ni  Ni4  1  0.124396  0.624396  0.000000  1
  Ni  Ni5  1  0.624396  0.875604  0.000000  1
  Ni  Ni6  1  0.875604  0.375604  0.000000  1
  Ni  Ni7  1  0.375604  0.124396  0.000000  1
  Au  Au8  1  0.500000  0.500000  0.000000  1
  Au  Au9  1  0.000000  0.000000  0.000000  1
