# generated using pymatgen
data_Ca(PrSn)2
_symmetry_space_group_name_H-M   'P 1'
_cell_length_a   8.24612800
_cell_length_b   8.24612800
_cell_length_c   4.65133800
_cell_angle_alpha   90.00000000
_cell_angle_beta   90.00000000
_cell_angle_gamma   90.00000000
_symmetry_Int_Tables_number   1
_chemical_formula_structural   Ca(PrSn)2
_chemical_formula_sum   'Ca2 Pr4 Sn4'
_cell_volume   316.28459768
_cell_formula_units_Z   2
loop_
 _symmetry_equiv_pos_site_id
 _symmetry_equiv_pos_as_xyz
  1  'x, y, z'
loop_
 _atom_site_type_symbol
 _atom_site_label
 _atom_site_symmetry_multiplicity
 _atom_site_fract_x
 _atom_site_fract_y
 _atom_site_fract_z
 _atom_site_occupancy
  Ca  Ca0  1  0.000000  0.000000  0.000000  1
  Ca  Ca1  1  0.500001  0.500001  0.000000  1
  Pr  Pr2  1  0.325068  0.174933  0.499999  1
  Pr  Pr3  1  0.825067  0.325068  0.499999  1
  Pr  Pr4  1  0.174933  0.674932  0.499999  1
  Pr  Pr5  1  0.674932  0.825067  0.499999  1
  Sn  Sn6  1  0.624061  0.124060  0.000000  1
  Sn  Sn7  1  0.124060  0.375939  0.000000  1
  Sn  Sn8  1  0.875940  0.624061  0.000000  1
  Sn  Sn9  1  0.375939  0.875940  0.000000  1
