# generated using pymatgen
data_Tb5EuNbO12
_symmetry_space_group_name_H-M   'P 1'
_cell_length_a   6.50132136
_cell_length_b   6.54934475
_cell_length_c   6.55376028
_cell_angle_alpha   98.93580443
_cell_angle_beta   98.99167770
_cell_angle_gamma   98.40647256
_symmetry_Int_Tables_number   1
_chemical_formula_structural   Tb5EuNbO12
_chemical_formula_sum   'Tb5 Eu1 Nb1 O12'
_cell_volume   268.09276293
_cell_formula_units_Z   1
loop_
 _symmetry_equiv_pos_site_id
 _symmetry_equiv_pos_as_xyz
  1  'x, y, z'
loop_
 _atom_site_type_symbol
 _atom_site_label
 _atom_site_symmetry_multiplicity
 _atom_site_fract_x
 _atom_site_fract_y
 _atom_site_fract_z
 _atom_site_occupancy
  Tb  Tb0  1  0.143114  0.302838  0.615508  1
  Tb  Tb1  1  0.388331  0.861697  0.700389  1
  Tb  Tb2  1  0.695569  0.388107  0.859531  1
  Tb  Tb3  1  0.301547  0.610117  0.134476  1
  Tb  Tb4  1  0.609696  0.140433  0.305844  1
  Eu  Eu5  1  0.858744  0.693837  0.401661  1
  Nb  Nb6  1  0.997349  0.000519  0.006385  1
  O  O7  1  0.072306  0.303875  0.957879  1
  O  O8  1  0.047788  0.935592  0.694238  1
  O  O9  1  0.411040  0.563060  0.820044  1
  O  O10  1  0.173765  0.589291  0.434119  1
  O  O11  1  0.696103  0.042322  0.926794  1
  O  O12  1  0.437709  0.174271  0.585157  1
  O  O13  1  0.564099  0.817810  0.411390  1
  O  O14  1  0.305167  0.957160  0.071012  1
  O  O15  1  0.821769  0.408056  0.563998  1
  O  O16  1  0.587703  0.435069  0.177633  1
  O  O17  1  0.960261  0.077124  0.301904  1
  O  O18  1  0.927940  0.698821  0.032040  1
