# generated using pymatgen
data_Zr10Sn2BiPb5
_symmetry_space_group_name_H-M   'P 1'
_cell_length_a   8.98399626
_cell_length_b   8.98399664
_cell_length_c   6.02651300
_cell_angle_alpha   90.00000000
_cell_angle_beta   90.00000000
_cell_angle_gamma   119.89218577
_symmetry_Int_Tables_number   1
_chemical_formula_structural   Zr10Sn2BiPb5
_chemical_formula_sum   'Zr10 Sn2 Bi1 Pb5'
_cell_volume   421.70297907
_cell_formula_units_Z   1
loop_
 _symmetry_equiv_pos_site_id
 _symmetry_equiv_pos_as_xyz
  1  'x, y, z'
loop_
 _atom_site_type_symbol
 _atom_site_label
 _atom_site_symmetry_multiplicity
 _atom_site_fract_x
 _atom_site_fract_y
 _atom_site_fract_z
 _atom_site_occupancy
  Zr  Zr0  1  0.666788  0.333272  0.000729  1
  Zr  Zr1  1  0.333272  0.666788  0.000729  1
  Zr  Zr2  1  0.333272  0.666788  0.499271  1
  Zr  Zr3  1  0.666788  0.333272  0.499271  1
  Zr  Zr4  1  0.720529  0.720529  0.750000  1
  Zr  Zr5  1  0.279433  0.999682  0.750000  1
  Zr  Zr6  1  0.999682  0.279433  0.750000  1
  Zr  Zr7  1  0.280320  0.280320  0.250000  1
  Zr  Zr8  1  0.719053  0.999480  0.250000  1
  Zr  Zr9  1  0.999480  0.719053  0.250000  1
  Sn  Sn10  1  0.999673  0.999673  0.000730  1
  Sn  Sn11  1  0.999673  0.999673  0.499270  1
  Bi  Bi12  1  0.386445  0.386445  0.750000  1
  Pb  Pb13  1  0.615109  0.999786  0.750000  1
  Pb  Pb14  1  0.999786  0.615109  0.750000  1
  Pb  Pb15  1  0.616602  0.616602  0.250000  1
  Pb  Pb16  1  0.384302  0.999789  0.250000  1
  Pb  Pb17  1  0.999789  0.384302  0.250000  1
