# generated using pymatgen
data_LiSm3In3Pd2
_symmetry_space_group_name_H-M   'P 1'
_cell_length_a   7.78438600
_cell_length_b   7.78438598
_cell_length_c   3.95971600
_cell_angle_alpha   90.00000000
_cell_angle_beta   90.00000000
_cell_angle_gamma   120.00000011
_symmetry_Int_Tables_number   1
_chemical_formula_structural   LiSm3In3Pd2
_chemical_formula_sum   'Li1 Sm3 In3 Pd2'
_cell_volume   207.79897170
_cell_formula_units_Z   1
loop_
 _symmetry_equiv_pos_site_id
 _symmetry_equiv_pos_as_xyz
  1  'x, y, z'
loop_
 _atom_site_type_symbol
 _atom_site_label
 _atom_site_symmetry_multiplicity
 _atom_site_fract_x
 _atom_site_fract_y
 _atom_site_fract_z
 _atom_site_occupancy
  Li  Li0  1  0.000000  0.000000  0.500000  1
  Sm  Sm1  1  0.583090  0.000000  0.500000  1
  Sm  Sm2  1  0.000000  0.583090  0.500000  1
  Sm  Sm3  1  0.416910  0.416910  0.500000  1
  In  In4  1  0.248363  0.000000  0.000000  1
  In  In5  1  0.000000  0.248363  0.000000  1
  In  In6  1  0.751637  0.751637  0.000000  1
  Pd  Pd7  1  0.333333  0.666667  0.000000  1
  Pd  Pd8  1  0.666667  0.333333  0.000000  1
