# generated using pymatgen
data_Tb4TcRuC4
_symmetry_space_group_name_H-M   'P 1'
_cell_length_a   5.13866500
_cell_length_b   6.53684700
_cell_length_c   9.88037300
_cell_angle_alpha   90.00000000
_cell_angle_beta   90.00000000
_cell_angle_gamma   90.00000000
_symmetry_Int_Tables_number   1
_chemical_formula_structural   Tb4TcRuC4
_chemical_formula_sum   'Tb8 Tc2 Ru2 C8'
_cell_volume   331.88831818
_cell_formula_units_Z   2
loop_
 _symmetry_equiv_pos_site_id
 _symmetry_equiv_pos_as_xyz
  1  'x, y, z'
loop_
 _atom_site_type_symbol
 _atom_site_label
 _atom_site_symmetry_multiplicity
 _atom_site_fract_x
 _atom_site_fract_y
 _atom_site_fract_z
 _atom_site_occupancy
  Tb  Tb0  1  0.750000  0.819035  0.055713  1
  Tb  Tb1  1  0.250000  0.680965  0.555713  1
  Tb  Tb2  1  0.750000  0.321683  0.445073  1
  Tb  Tb3  1  0.250000  0.178317  0.945073  1
  Tb  Tb4  1  0.750000  0.471126  0.783988  1
  Tb  Tb5  1  0.250000  0.028874  0.283988  1
  Tb  Tb6  1  0.750000  0.969313  0.715516  1
  Tb  Tb7  1  0.250000  0.530687  0.215516  1
  Tc  Tc8  1  0.750000  0.278593  0.136090  1
  Tc  Tc9  1  0.250000  0.221407  0.636090  1
  Ru  Ru10  1  0.750000  0.778561  0.364540  1
  Ru  Ru11  1  0.250000  0.721439  0.864540  1
  C  C12  1  0.750000  0.178608  0.951495  1
  C  C13  1  0.250000  0.822427  0.048797  1
  C  C14  1  0.750000  0.677573  0.548797  1
  C  C15  1  0.250000  0.321392  0.451495  1
  C  C16  1  0.750000  0.044363  0.257312  1
  C  C17  1  0.250000  0.455637  0.757312  1
  C  C18  1  0.750000  0.544051  0.241477  1
  C  C19  1  0.250000  0.955949  0.741477  1
