# generated using pymatgen
data_ErPa3Ge6MoRh6
_symmetry_space_group_name_H-M   'P 1'
_cell_length_a   7.32248462
_cell_length_b   7.32248449
_cell_length_c   7.32248481
_cell_angle_alpha   109.59694386
_cell_angle_beta   109.59694293
_cell_angle_gamma   109.59694701
_symmetry_Int_Tables_number   1
_chemical_formula_structural   ErPa3Ge6MoRh6
_chemical_formula_sum   'Er1 Pa3 Ge6 Mo1 Rh6'
_cell_volume   300.82599966
_cell_formula_units_Z   1
loop_
 _symmetry_equiv_pos_site_id
 _symmetry_equiv_pos_as_xyz
  1  'x, y, z'
loop_
 _atom_site_type_symbol
 _atom_site_label
 _atom_site_symmetry_multiplicity
 _atom_site_fract_x
 _atom_site_fract_y
 _atom_site_fract_z
 _atom_site_occupancy
  Er  Er0  1  0.500000  0.500000  0.500000  1
  Pa  Pa1  1  0.000000  0.000000  0.500000  1
  Pa  Pa2  1  0.000000  0.500000  0.000000  1
  Pa  Pa3  1  0.500000  0.000000  0.000000  1
  Ge  Ge4  1  0.681249  0.681249  0.994295  1
  Ge  Ge5  1  0.318751  0.005705  0.318751  1
  Ge  Ge6  1  0.005705  0.318751  0.318751  1
  Ge  Ge7  1  0.318751  0.318751  0.005705  1
  Ge  Ge8  1  0.681249  0.994295  0.681249  1
  Ge  Ge9  1  0.994295  0.681249  0.681249  1
  Mo  Mo10  1  0.000000  0.000000  0.000000  1
  Rh  Rh11  1  0.752358  0.247642  0.500000  1
  Rh  Rh12  1  0.752358  0.500000  0.247642  1
  Rh  Rh13  1  0.500000  0.247642  0.752358  1
  Rh  Rh14  1  0.247642  0.500000  0.752358  1
  Rh  Rh15  1  0.247642  0.752358  0.500000  1
  Rh  Rh16  1  0.500000  0.752358  0.247642  1
