# generated using pymatgen
data_SrTbPr2(Ir2O7)2
_symmetry_space_group_name_H-M   'P 1'
_cell_length_a   7.42262318
_cell_length_b   7.38314575
_cell_length_c   7.40010248
_cell_angle_alpha   59.86929571
_cell_angle_beta   59.89927346
_cell_angle_gamma   59.82296319
_symmetry_Int_Tables_number   1
_chemical_formula_structural   SrTbPr2(Ir2O7)2
_chemical_formula_sum   'Sr1 Tb1 Pr2 Ir4 O14'
_cell_volume   285.87574791
_cell_formula_units_Z   1
loop_
 _symmetry_equiv_pos_site_id
 _symmetry_equiv_pos_as_xyz
  1  'x, y, z'
loop_
 _atom_site_type_symbol
 _atom_site_label
 _atom_site_symmetry_multiplicity
 _atom_site_fract_x
 _atom_site_fract_y
 _atom_site_fract_z
 _atom_site_occupancy
  Sr  Sr0  1  0.125000  0.625000  0.125000  1
  Tb  Tb1  1  0.125000  0.125000  0.625000  1
  Pr  Pr2  1  0.125000  0.125000  0.125000  1
  Pr  Pr3  1  0.625000  0.125000  0.125000  1
  Ir  Ir4  1  0.625000  0.625000  0.625000  1
  Ir  Ir5  1  0.125000  0.625000  0.625000  1
  Ir  Ir6  1  0.625000  0.125000  0.625000  1
  Ir  Ir7  1  0.625000  0.625000  0.125000  1
  O  O8  1  0.952894  0.533613  0.560601  1
  O  O9  1  0.295130  0.293261  0.698939  1
  O  O10  1  0.952182  0.542612  0.950935  1
  O  O11  1  0.705216  0.293333  0.296235  1
  O  O12  1  0.554272  0.542612  0.950935  1
  O  O13  1  0.537330  0.956739  0.551061  1
  O  O14  1  0.544784  0.956667  0.953765  1
  O  O15  1  0.249303  0.236038  0.265357  1
  O  O16  1  0.297106  0.716387  0.689399  1
  O  O17  1  0.712670  0.293261  0.698939  1
  O  O18  1  0.000697  0.013962  0.984643  1
  O  O19  1  0.954870  0.956739  0.551061  1
  O  O20  1  0.297818  0.707388  0.299065  1
  O  O21  1  0.695728  0.707388  0.299065  1
