# generated using pymatgen
data_Sc2Tc2B4Rh3
_symmetry_space_group_name_H-M   'P 1'
_cell_length_a   3.14750300
_cell_length_b   8.48291000
_cell_length_c   9.83435101
_cell_angle_alpha   90.00131818
_cell_angle_beta   90.00000000
_cell_angle_gamma   90.00000000
_symmetry_Int_Tables_number   1
_chemical_formula_structural   Sc2Tc2B4Rh3
_chemical_formula_sum   'Sc4 Tc4 B8 Rh6'
_cell_volume   262.57702106
_cell_formula_units_Z   2
loop_
 _symmetry_equiv_pos_site_id
 _symmetry_equiv_pos_as_xyz
  1  'x, y, z'
loop_
 _atom_site_type_symbol
 _atom_site_label
 _atom_site_symmetry_multiplicity
 _atom_site_fract_x
 _atom_site_fract_y
 _atom_site_fract_z
 _atom_site_occupancy
  Sc  Sc0  1  0.500000  0.840069  0.181751  1
  Sc  Sc1  1  0.500000  0.159931  0.818249  1
  Sc  Sc2  1  0.500000  0.659962  0.681721  1
  Sc  Sc3  1  0.500000  0.340038  0.318279  1
  Tc  Tc4  1  0.000000  0.661270  0.952648  1
  Tc  Tc5  1  0.000000  0.338730  0.047352  1
  Tc  Tc6  1  0.000000  0.838735  0.452601  1
  Tc  Tc7  1  0.000000  0.161265  0.547399  1
  B  B8  1  0.500000  0.965166  0.588263  1
  B  B9  1  0.500000  0.034834  0.411737  1
  B  B10  1  0.500000  0.848764  0.900564  1
  B  B11  1  0.500000  0.151236  0.099436  1
  B  B12  1  0.500000  0.651197  0.400504  1
  B  B13  1  0.500000  0.348803  0.599496  1
  B  B14  1  0.500000  0.465280  0.911697  1
  B  B15  1  0.500000  0.534720  0.088303  1
  Rh  Rh16  1  0.000000  0.000000  0.000000  1
  Rh  Rh17  1  0.000000  0.405673  0.760268  1
  Rh  Rh18  1  0.000000  0.594327  0.239732  1
  Rh  Rh19  1  0.000000  0.500000  0.500000  1
  Rh  Rh20  1  0.000000  0.905636  0.739739  1
  Rh  Rh21  1  0.000000  0.094364  0.260261  1
