# generated using pymatgen
data_TbSc2Fe7Co2
_symmetry_space_group_name_H-M   'P 1'
_cell_length_a   8.47222922
_cell_length_b   8.47222938
_cell_length_c   8.47223056
_cell_angle_alpha   34.21186151
_cell_angle_beta   34.21186261
_cell_angle_gamma   34.21186109
_symmetry_Int_Tables_number   1
_chemical_formula_structural   TbSc2Fe7Co2
_chemical_formula_sum   'Tb1 Sc2 Fe7 Co2'
_cell_volume   171.42484182
_cell_formula_units_Z   1
loop_
 _symmetry_equiv_pos_site_id
 _symmetry_equiv_pos_as_xyz
  1  'x, y, z'
loop_
 _atom_site_type_symbol
 _atom_site_label
 _atom_site_symmetry_multiplicity
 _atom_site_fract_x
 _atom_site_fract_y
 _atom_site_fract_z
 _atom_site_occupancy
  Tb  Tb0  1  0.999934  0.999934  0.999934  1
  Sc  Sc1  1  0.143629  0.143629  0.143629  1
  Sc  Sc2  1  0.856648  0.856648  0.856648  1
  Fe  Fe3  1  0.667220  0.667220  0.667220  1
  Fe  Fe4  1  0.082195  0.585477  0.585477  1
  Fe  Fe5  1  0.585477  0.585477  0.082195  1
  Fe  Fe6  1  0.585477  0.082195  0.585477  1
  Fe  Fe7  1  0.414947  0.917106  0.414947  1
  Fe  Fe8  1  0.917106  0.414947  0.414947  1
  Fe  Fe9  1  0.414947  0.414947  0.917106  1
  Co  Co10  1  0.499815  0.499815  0.499815  1
  Co  Co11  1  0.332606  0.332606  0.332606  1
