# generated using pymatgen
data_ScH7Os
_symmetry_space_group_name_H-M   'P 1'
_cell_length_a   4.72402940
_cell_length_b   4.71173566
_cell_length_c   4.69213687
_cell_angle_alpha   60.24632515
_cell_angle_beta   60.04857882
_cell_angle_gamma   90.60805984
_symmetry_Int_Tables_number   1
_chemical_formula_structural   ScH7Os
_chemical_formula_sum   'Sc1 H7 Os1'
_cell_volume   73.78152773
_cell_formula_units_Z   1
loop_
 _symmetry_equiv_pos_site_id
 _symmetry_equiv_pos_as_xyz
  1  'x, y, z'
loop_
 _atom_site_type_symbol
 _atom_site_label
 _atom_site_symmetry_multiplicity
 _atom_site_fract_x
 _atom_site_fract_y
 _atom_site_fract_z
 _atom_site_occupancy
  Sc  Sc0  1  0.215268  0.127304  0.918114  1
  H  H1  1  0.188551  0.631500  0.432540  1
  H  H2  1  0.224219  0.116710  0.426500  1
  H  H3  1  0.694752  0.166253  0.914107  1
  H  H4  1  0.674526  0.630434  0.607375  1
  H  H5  1  0.197092  0.642323  0.922587  1
  H  H6  1  0.703808  0.689698  0.186242  1
  H  H7  1  0.715791  0.143535  0.411184  1
  Os  Os8  1  0.480617  0.864204  0.415464  1
