# generated using pymatgen
data_AlGa2Fe(AgI4)4
_symmetry_space_group_name_H-M   'P 1'
_cell_length_a   9.03781442
_cell_length_b   7.78382445
_cell_length_c   16.44626122
_cell_angle_alpha   91.05976484
_cell_angle_beta   89.91154860
_cell_angle_gamma   90.27346656
_symmetry_Int_Tables_number   1
_chemical_formula_structural   AlGa2Fe(AgI4)4
_chemical_formula_sum   'Al1 Ga2 Fe1 Ag4 I16'
_cell_volume   1156.76179218
_cell_formula_units_Z   1
loop_
 _symmetry_equiv_pos_site_id
 _symmetry_equiv_pos_as_xyz
  1  'x, y, z'
loop_
 _atom_site_type_symbol
 _atom_site_label
 _atom_site_symmetry_multiplicity
 _atom_site_fract_x
 _atom_site_fract_y
 _atom_site_fract_z
 _atom_site_occupancy
  Al  Al0  1  0.679650  0.301608  0.895405  1
  Ga  Ga1  1  0.180532  0.702366  0.605584  1
  Ga  Ga2  1  0.819312  0.299005  0.393799  1
  Fe  Fe3  1  0.319739  0.697364  0.105666  1
  Ag  Ag4  1  0.419315  0.804753  0.861345  1
  Ag  Ag5  1  0.582270  0.190856  0.138810  1
  Ag  Ag6  1  0.922670  0.195385  0.637098  1
  Ag  Ag7  1  0.076265  0.807294  0.361205  1
  I  I8  1  0.175756  0.403399  0.674538  1
  I  I9  1  0.824864  0.596281  0.323366  1
  I  I10  1  0.672920  0.597052  0.826891  1
  I  I11  1  0.331560  0.401618  0.172379  1
  I  I12  1  0.348578  0.904553  0.692639  1
  I  I13  1  0.651965  0.094730  0.307417  1
  I  I14  1  0.844839  0.102463  0.808916  1
  I  I15  1  0.151536  0.889718  0.192212  1
  I  I16  1  0.200855  0.666484  0.963402  1
  I  I17  1  0.801747  0.336309  0.037261  1
  I  I18  1  0.696998  0.330789  0.537729  1
  I  I19  1  0.301599  0.673596  0.461155  1
  I  I20  1  0.916797  0.830461  0.593783  1
  I  I21  1  0.082924  0.171806  0.406604  1
  I  I22  1  0.418372  0.172888  0.909026  1
  I  I23  1  0.578936  0.829223  0.093773  1
