# generated using pymatgen
data_Th6FeIrAu6
_symmetry_space_group_name_H-M   'P 1'
_cell_length_a   8.27510861
_cell_length_b   8.27510860
_cell_length_c   8.27510878
_cell_angle_alpha   114.29054123
_cell_angle_beta   114.29054530
_cell_angle_gamma   114.29051501
_symmetry_Int_Tables_number   1
_chemical_formula_structural   Th6FeIrAu6
_chemical_formula_sum   'Th6 Fe1 Ir1 Au6'
_cell_volume   336.72914345
_cell_formula_units_Z   1
loop_
 _symmetry_equiv_pos_site_id
 _symmetry_equiv_pos_as_xyz
  1  'x, y, z'
loop_
 _atom_site_type_symbol
 _atom_site_label
 _atom_site_symmetry_multiplicity
 _atom_site_fract_x
 _atom_site_fract_y
 _atom_site_fract_z
 _atom_site_occupancy
  Th  Th0  1  0.040313  0.381683  0.276578  1
  Th  Th1  1  0.381683  0.276578  0.040313  1
  Th  Th2  1  0.723422  0.959687  0.618317  1
  Th  Th3  1  0.276578  0.040313  0.381683  1
  Th  Th4  1  0.618317  0.723422  0.959687  1
  Th  Th5  1  0.959687  0.618317  0.723422  1
  Fe  Fe6  1  0.000000  0.000000  0.000000  1
  Ir  Ir7  1  0.500000  0.500000  0.500000  1
  Au  Au8  1  0.428274  0.936389  0.770491  1
  Au  Au9  1  0.936389  0.770491  0.428274  1
  Au  Au10  1  0.229509  0.571726  0.063611  1
  Au  Au11  1  0.770491  0.428274  0.936389  1
  Au  Au12  1  0.063611  0.229509  0.571726  1
  Au  Au13  1  0.571726  0.063611  0.229509  1
