# generated using pymatgen
data_Lu12MgNi4Sn
_symmetry_space_group_name_H-M   'P 1'
_cell_length_a   8.21286332
_cell_length_b   8.21286392
_cell_length_c   8.21286405
_cell_angle_alpha   112.07390718
_cell_angle_beta   110.05660176
_cell_angle_gamma   106.33478842
_symmetry_Int_Tables_number   1
_chemical_formula_structural   Lu12MgNi4Sn
_chemical_formula_sum   'Lu12 Mg1 Ni4 Sn1'
_cell_volume   425.35233591
_cell_formula_units_Z   1
loop_
 _symmetry_equiv_pos_site_id
 _symmetry_equiv_pos_as_xyz
  1  'x, y, z'
loop_
 _atom_site_type_symbol
 _atom_site_label
 _atom_site_symmetry_multiplicity
 _atom_site_fract_x
 _atom_site_fract_y
 _atom_site_fract_z
 _atom_site_occupancy
  Lu  Lu0  1  0.677864  0.873906  0.196042  1
  Lu  Lu1  1  0.322136  0.518177  0.196042  1
  Lu  Lu2  1  0.816765  0.790466  0.607230  1
  Lu  Lu3  1  0.183235  0.790466  0.973700  1
  Lu  Lu4  1  0.816765  0.209534  0.026300  1
  Lu  Lu5  1  0.183235  0.209534  0.392770  1
  Lu  Lu6  1  0.677864  0.481823  0.803958  1
  Lu  Lu7  1  0.322136  0.126094  0.803958  1
  Lu  Lu8  1  0.561437  0.267140  0.294296  1
  Lu  Lu9  1  0.438563  0.732860  0.705704  1
  Lu  Lu10  1  0.027157  0.732860  0.294296  1
  Lu  Lu11  1  0.972843  0.267140  0.705704  1
  Mg  Mg12  1  0.000000  0.500000  0.500000  1
  Ni  Ni13  1  0.349321  0.500000  0.849321  1
  Ni  Ni14  1  0.650679  0.500000  0.150679  1
  Ni  Ni15  1  0.875829  0.875829  0.000000  1
  Ni  Ni16  1  0.124171  0.124171  0.000000  1
  Sn  Sn17  1  0.500000  0.000000  0.500000  1
