# generated using pymatgen
data_Er5P12Os3Rh16
_symmetry_space_group_name_H-M   'P 1'
_cell_length_a   12.63283100
_cell_length_b   12.63283026
_cell_length_c   3.97341700
_cell_angle_alpha   90.00000000
_cell_angle_beta   90.00000000
_cell_angle_gamma   119.99999932
_symmetry_Int_Tables_number   1
_chemical_formula_structural   Er5P12Os3Rh16
_chemical_formula_sum   'Er5 P12 Os3 Rh16'
_cell_volume   549.15649848
_cell_formula_units_Z   1
loop_
 _symmetry_equiv_pos_site_id
 _symmetry_equiv_pos_as_xyz
  1  'x, y, z'
loop_
 _atom_site_type_symbol
 _atom_site_label
 _atom_site_symmetry_multiplicity
 _atom_site_fract_x
 _atom_site_fract_y
 _atom_site_fract_z
 _atom_site_occupancy
  Er  Er0  1  0.666667  0.333333  0.000000  1
  Er  Er1  1  0.333333  0.666667  0.000000  1
  Er  Er2  1  0.816516  0.816516  0.500000  1
  Er  Er3  1  0.183484  0.000000  0.500000  1
  Er  Er4  1  0.000000  0.183484  0.500000  1
  P  P5  1  0.687751  0.169460  0.500000  1
  P  P6  1  0.830540  0.518292  0.500000  1
  P  P7  1  0.481708  0.312249  0.500000  1
  P  P8  1  0.169460  0.687751  0.500000  1
  P  P9  1  0.518292  0.830540  0.500000  1
  P  P10  1  0.312249  0.481708  0.500000  1
  P  P11  1  0.635885  0.635885  0.000000  1
  P  P12  1  0.364115  0.000000  0.000000  1
  P  P13  1  0.000000  0.364115  0.000000  1
  P  P14  1  0.181187  0.181187  0.000000  1
  P  P15  1  0.818813  0.000000  0.000000  1
  P  P16  1  0.000000  0.818813  0.000000  1
  Os  Os17  1  0.284810  0.284810  0.500000  1
  Os  Os18  1  0.715190  0.000000  0.500000  1
  Os  Os19  1  0.000000  0.715190  0.500000  1
  Rh  Rh20  1  0.806672  0.182597  0.000000  1
  Rh  Rh21  1  0.817403  0.624076  0.000000  1
  Rh  Rh22  1  0.375924  0.193328  0.000000  1
  Rh  Rh23  1  0.182597  0.806672  0.000000  1
  Rh  Rh24  1  0.624076  0.817403  0.000000  1
  Rh  Rh25  1  0.193328  0.375924  0.000000  1
  Rh  Rh26  1  0.452726  0.452726  0.000000  1
  Rh  Rh27  1  0.547274  0.000000  0.000000  1
  Rh  Rh28  1  0.000000  0.547274  0.000000  1
  Rh  Rh29  1  0.868475  0.359505  0.500000  1
  Rh  Rh30  1  0.640495  0.508971  0.500000  1
  Rh  Rh31  1  0.491029  0.131525  0.500000  1
  Rh  Rh32  1  0.359505  0.868475  0.500000  1
  Rh  Rh33  1  0.508971  0.640495  0.500000  1
  Rh  Rh34  1  0.131525  0.491029  0.500000  1
  Rh  Rh35  1  0.000000  0.000000  0.000000  1
