# generated using pymatgen
data_Cs4K7Rb(SbTe3)4
_symmetry_space_group_name_H-M   'P 1'
_cell_length_a   10.87670454
_cell_length_b   10.87670454
_cell_length_c   10.87670454
_cell_angle_alpha   90.08177897
_cell_angle_beta   90.08177897
_cell_angle_gamma   90.08177897
_symmetry_Int_Tables_number   1
_chemical_formula_structural   Cs4K7Rb(SbTe3)4
_chemical_formula_sum   'Cs4 K7 Rb1 Sb4 Te12'
_cell_volume   1286.73959757
_cell_formula_units_Z   1
loop_
 _symmetry_equiv_pos_site_id
 _symmetry_equiv_pos_as_xyz
  1  'x, y, z'
loop_
 _atom_site_type_symbol
 _atom_site_label
 _atom_site_symmetry_multiplicity
 _atom_site_fract_x
 _atom_site_fract_y
 _atom_site_fract_z
 _atom_site_occupancy
  Cs  Cs0  1  0.576114  0.576114  0.576114  1
  Cs  Cs1  1  0.923907  0.424035  0.075875  1
  Cs  Cs2  1  0.075875  0.923907  0.424035  1
  Cs  Cs3  1  0.424035  0.075875  0.923907  1
  K  K4  1  0.180370  0.680565  0.819624  1
  K  K5  1  0.819624  0.180370  0.680565  1
  K  K6  1  0.680565  0.819624  0.180370  1
  K  K7  1  0.815124  0.815124  0.815124  1
  K  K8  1  0.684971  0.184757  0.315120  1
  K  K9  1  0.315120  0.684971  0.184757  1
  K  K10  1  0.184757  0.315120  0.684971  1
  Rb  Rb11  1  0.319309  0.319309  0.319309  1
  Sb  Sb12  1  0.025167  0.025167  0.025167  1
  Sb  Sb13  1  0.475153  0.974499  0.525311  1
  Sb  Sb14  1  0.525311  0.475153  0.974499  1
  Sb  Sb15  1  0.974499  0.525311  0.475153  1
  Te  Te16  1  0.221853  0.599489  0.498495  1
  Te  Te17  1  0.498495  0.221853  0.599489  1
  Te  Te18  1  0.599489  0.498495  0.221853  1
  Te  Te19  1  0.902560  0.502789  0.722779  1
  Te  Te20  1  0.994078  0.277038  0.403422  1
  Te  Te21  1  0.403422  0.994078  0.277038  1
  Te  Te22  1  0.002782  0.777434  0.097379  1
  Te  Te23  1  0.502789  0.722779  0.902560  1
  Te  Te24  1  0.097379  0.002782  0.777434  1
  Te  Te25  1  0.722779  0.902560  0.502789  1
  Te  Te26  1  0.777434  0.097379  0.002782  1
  Te  Te27  1  0.277038  0.403422  0.994078  1
