# generated using pymatgen
data_Y3Ho(GaCo)4
_symmetry_space_group_name_H-M   'P 1'
_cell_length_a   4.42332000
_cell_length_b   6.87532561
_cell_length_c   7.01834562
_cell_angle_alpha   89.86784829
_cell_angle_beta   90.00000000
_cell_angle_gamma   90.00000000
_symmetry_Int_Tables_number   1
_chemical_formula_structural   Y3Ho(GaCo)4
_chemical_formula_sum   'Y3 Ho1 Ga4 Co4'
_cell_volume   213.43971215
_cell_formula_units_Z   1
loop_
 _symmetry_equiv_pos_site_id
 _symmetry_equiv_pos_as_xyz
  1  'x, y, z'
loop_
 _atom_site_type_symbol
 _atom_site_label
 _atom_site_symmetry_multiplicity
 _atom_site_fract_x
 _atom_site_fract_y
 _atom_site_fract_z
 _atom_site_occupancy
  Y  Y0  1  0.250000  0.304501  0.521116  1
  Y  Y1  1  0.250000  0.194170  0.021063  1
  Y  Y2  1  0.750000  0.695802  0.478539  1
  Ho  Ho3  1  0.750000  0.803046  0.977784  1
  Ga  Ga4  1  0.250000  0.894589  0.694746  1
  Ga  Ga5  1  0.250000  0.605834  0.193868  1
  Ga  Ga6  1  0.750000  0.104950  0.305438  1
  Ga  Ga7  1  0.750000  0.394951  0.805849  1
  Co  Co8  1  0.250000  0.936235  0.343142  1
  Co  Co9  1  0.250000  0.565163  0.843928  1
  Co  Co10  1  0.750000  0.063241  0.658185  1
  Co  Co11  1  0.750000  0.437518  0.156342  1
