# generated using pymatgen
data_Rb3LiSn4
_symmetry_space_group_name_H-M   'P 1'
_cell_length_a   9.02082042
_cell_length_b   9.02082054
_cell_length_c   10.41402600
_cell_angle_alpha   90.00000000
_cell_angle_beta   90.00000000
_cell_angle_gamma   133.92767661
_symmetry_Int_Tables_number   1
_chemical_formula_structural   Rb3LiSn4
_chemical_formula_sum   'Rb6 Li2 Sn8'
_cell_volume   610.34241594
_cell_formula_units_Z   2
loop_
 _symmetry_equiv_pos_site_id
 _symmetry_equiv_pos_as_xyz
  1  'x, y, z'
loop_
 _atom_site_type_symbol
 _atom_site_label
 _atom_site_symmetry_multiplicity
 _atom_site_fract_x
 _atom_site_fract_y
 _atom_site_fract_z
 _atom_site_occupancy
  Rb  Rb0  1  0.231917  0.768083  0.250000  1
  Rb  Rb1  1  0.768083  0.231917  0.750000  1
  Rb  Rb2  1  0.611851  0.388149  0.053508  1
  Rb  Rb3  1  0.388149  0.611851  0.946492  1
  Rb  Rb4  1  0.388149  0.611851  0.553508  1
  Rb  Rb5  1  0.611851  0.388149  0.446492  1
  Li  Li6  1  0.000000  0.000000  0.000000  1
  Li  Li7  1  0.000000  0.000000  0.500000  1
  Sn  Sn8  1  0.178928  0.262530  0.250000  1
  Sn  Sn9  1  0.821072  0.737470  0.750000  1
  Sn  Sn10  1  0.737470  0.821072  0.250000  1
  Sn  Sn11  1  0.262530  0.178928  0.750000  1
  Sn  Sn12  1  0.832464  0.167536  0.108136  1
  Sn  Sn13  1  0.167536  0.832464  0.891864  1
  Sn  Sn14  1  0.167536  0.832464  0.608136  1
  Sn  Sn15  1  0.832464  0.167536  0.391864  1
