# generated using pymatgen
data_Dy16InHg3Ru4
_symmetry_space_group_name_H-M   'P 1'
_cell_length_a   9.56485276
_cell_length_b   9.58808781
_cell_length_c   9.58808700
_cell_angle_alpha   59.99999935
_cell_angle_beta   59.91960909
_cell_angle_gamma   59.91961661
_symmetry_Int_Tables_number   1
_chemical_formula_structural   Dy16InHg3Ru4
_chemical_formula_sum   'Dy16 In1 Hg3 Ru4'
_cell_volume   621.00986310
_cell_formula_units_Z   1
loop_
 _symmetry_equiv_pos_site_id
 _symmetry_equiv_pos_as_xyz
  1  'x, y, z'
loop_
 _atom_site_type_symbol
 _atom_site_label
 _atom_site_symmetry_multiplicity
 _atom_site_fract_x
 _atom_site_fract_y
 _atom_site_fract_z
 _atom_site_occupancy
  Dy  Dy0  1  0.599275  0.599438  0.599438  1
  Dy  Dy1  1  0.599275  0.599438  0.201849  1
  Dy  Dy2  1  0.599275  0.201849  0.599438  1
  Dy  Dy3  1  0.199234  0.600255  0.600255  1
  Dy  Dy4  1  0.060245  0.439886  0.439886  1
  Dy  Dy5  1  0.439654  0.059148  0.059148  1
  Dy  Dy6  1  0.439654  0.059148  0.442052  1
  Dy  Dy7  1  0.060245  0.439886  0.059982  1
  Dy  Dy8  1  0.439654  0.442052  0.059148  1
  Dy  Dy9  1  0.060245  0.059982  0.439886  1
  Dy  Dy10  1  0.187608  0.810067  0.810067  1
  Dy  Dy11  1  0.808131  0.190812  0.190812  1
  Dy  Dy12  1  0.808131  0.190812  0.810246  1
  Dy  Dy13  1  0.187608  0.810067  0.192257  1
  Dy  Dy14  1  0.808131  0.810246  0.190812  1
  Dy  Dy15  1  0.187608  0.192257  0.810067  1
  In  In16  1  0.511101  0.829633  0.829633  1
  Hg  Hg17  1  0.834058  0.834007  0.834007  1
  Hg  Hg18  1  0.834058  0.834007  0.497929  1
  Hg  Hg19  1  0.834058  0.497929  0.834007  1
  Ru  Ru20  1  0.390214  0.389089  0.389089  1
  Ru  Ru21  1  0.390214  0.389089  0.831608  1
  Ru  Ru22  1  0.390214  0.831608  0.389089  1
  Ru  Ru23  1  0.832111  0.389297  0.389297  1
