# generated using pymatgen
data_RbAlCrF6
_symmetry_space_group_name_H-M   'P 1'
_cell_length_a   7.15148400
_cell_length_b   7.27040600
_cell_length_c   10.28625300
_cell_angle_alpha   90.00000000
_cell_angle_beta   90.00000000
_cell_angle_gamma   90.00000000
_symmetry_Int_Tables_number   1
_chemical_formula_structural   RbAlCrF6
_chemical_formula_sum   'Rb4 Al4 Cr4 F24'
_cell_volume   534.82541532
_cell_formula_units_Z   4
loop_
 _symmetry_equiv_pos_site_id
 _symmetry_equiv_pos_as_xyz
  1  'x, y, z'
loop_
 _atom_site_type_symbol
 _atom_site_label
 _atom_site_symmetry_multiplicity
 _atom_site_fract_x
 _atom_site_fract_y
 _atom_site_fract_z
 _atom_site_occupancy
  Rb  Rb0  1  0.012726  0.250000  0.626762  1
  Rb  Rb1  1  0.987274  0.750000  0.373238  1
  Rb  Rb2  1  0.487274  0.750000  0.126762  1
  Rb  Rb3  1  0.512726  0.250000  0.873238  1
  Al  Al4  1  0.000000  0.000000  0.000000  1
  Al  Al5  1  0.500000  0.000000  0.500000  1
  Al  Al6  1  0.000000  0.500000  0.000000  1
  Al  Al7  1  0.500000  0.500000  0.500000  1
  Cr  Cr8  1  0.210362  0.250000  0.256239  1
  Cr  Cr9  1  0.789638  0.750000  0.743761  1
  Cr  Cr10  1  0.289638  0.750000  0.756239  1
  Cr  Cr11  1  0.710362  0.250000  0.243761  1
  F  F12  1  0.288722  0.046596  0.408402  1
  F  F13  1  0.711278  0.953404  0.591598  1
  F  F14  1  0.211278  0.953404  0.908402  1
  F  F15  1  0.711278  0.546596  0.591598  1
  F  F16  1  0.788722  0.046596  0.091598  1
  F  F17  1  0.288722  0.453404  0.408402  1
  F  F18  1  0.788722  0.453404  0.091598  1
  F  F19  1  0.211278  0.546596  0.908402  1
  F  F20  1  0.547300  0.250000  0.520112  1
  F  F21  1  0.452700  0.750000  0.479888  1
  F  F22  1  0.952700  0.750000  0.020112  1
  F  F23  1  0.047300  0.250000  0.979888  1
  F  F24  1  0.136682  0.501636  0.149630  1
  F  F25  1  0.863318  0.498364  0.850370  1
  F  F26  1  0.363318  0.498364  0.649630  1
  F  F27  1  0.863318  0.001636  0.850370  1
  F  F28  1  0.636682  0.501636  0.350370  1
  F  F29  1  0.136682  0.998364  0.149630  1
  F  F30  1  0.636682  0.998364  0.350370  1
  F  F31  1  0.363318  0.001636  0.649630  1
  F  F32  1  0.456045  0.250000  0.161557  1
  F  F33  1  0.543955  0.750000  0.838443  1
  F  F34  1  0.043955  0.750000  0.661557  1
  F  F35  1  0.956045  0.250000  0.338443  1
