# generated using pymatgen
data_LuZr4(ReTc7)3
_symmetry_space_group_name_H-M   'P 1'
_cell_length_a   8.44850963
_cell_length_b   8.44850935
_cell_length_c   8.44850946
_cell_angle_alpha   109.37138462
_cell_angle_beta   109.37138732
_cell_angle_gamma   109.37137625
_symmetry_Int_Tables_number   1
_chemical_formula_structural   LuZr4(ReTc7)3
_chemical_formula_sum   'Lu1 Zr4 Re3 Tc21'
_cell_volume   465.92219582
_cell_formula_units_Z   1
loop_
 _symmetry_equiv_pos_site_id
 _symmetry_equiv_pos_as_xyz
  1  'x, y, z'
loop_
 _atom_site_type_symbol
 _atom_site_label
 _atom_site_symmetry_multiplicity
 _atom_site_fract_x
 _atom_site_fract_y
 _atom_site_fract_z
 _atom_site_occupancy
  Lu  Lu0  1  0.999904  0.999904  0.999904  1
  Zr  Zr1  1  0.624078  0.000541  0.000541  1
  Zr  Zr2  1  0.000541  0.624078  0.000541  1
  Zr  Zr3  1  0.000541  0.000541  0.624078  1
  Zr  Zr4  1  0.374455  0.374455  0.374455  1
  Re  Re5  1  0.623946  0.623946  0.819487  1
  Re  Re6  1  0.819487  0.623946  0.623946  1
  Re  Re7  1  0.623946  0.819487  0.623946  1
  Tc  Tc8  1  0.394609  0.672091  0.999078  1
  Tc  Tc9  1  0.718508  0.324781  0.324781  1
  Tc  Tc10  1  0.394609  0.999078  0.672091  1
  Tc  Tc11  1  0.672091  0.394609  0.999078  1
  Tc  Tc12  1  0.999078  0.394609  0.672091  1
  Tc  Tc13  1  0.324781  0.718508  0.324781  1
  Tc  Tc14  1  0.324781  0.324781  0.718508  1
  Tc  Tc15  1  0.999078  0.672091  0.394609  1
  Tc  Tc16  1  0.672091  0.999078  0.394609  1
  Tc  Tc17  1  0.606957  0.606957  0.281159  1
  Tc  Tc18  1  0.281159  0.606957  0.606957  1
  Tc  Tc19  1  0.606957  0.281159  0.606957  1
  Tc  Tc20  1  0.375479  0.195583  0.999186  1
  Tc  Tc21  1  0.183411  0.807248  0.807248  1
  Tc  Tc22  1  0.375479  0.999186  0.195583  1
  Tc  Tc23  1  0.195583  0.375479  0.999186  1
  Tc  Tc24  1  0.999186  0.375479  0.195583  1
  Tc  Tc25  1  0.807248  0.183411  0.807248  1
  Tc  Tc26  1  0.807248  0.807248  0.183411  1
  Tc  Tc27  1  0.999186  0.195583  0.375479  1
  Tc  Tc28  1  0.195583  0.999186  0.375479  1
