# generated using pymatgen
data_YEr15In4IrRu3
_symmetry_space_group_name_H-M   'P 1'
_cell_length_a   9.59340142
_cell_length_b   9.57659838
_cell_length_c   9.60673800
_cell_angle_alpha   59.89583622
_cell_angle_beta   59.95400247
_cell_angle_gamma   59.80019487
_symmetry_Int_Tables_number   1
_chemical_formula_structural   YEr15In4IrRu3
_chemical_formula_sum   'Y1 Er15 In4 Ir1 Ru3'
_cell_volume   622.43244471
_cell_formula_units_Z   1
loop_
 _symmetry_equiv_pos_site_id
 _symmetry_equiv_pos_as_xyz
  1  'x, y, z'
loop_
 _atom_site_type_symbol
 _atom_site_label
 _atom_site_symmetry_multiplicity
 _atom_site_fract_x
 _atom_site_fract_y
 _atom_site_fract_z
 _atom_site_occupancy
  Y  Y0  1  0.058250  0.058457  0.441647  1
  Er  Er1  1  0.651821  0.043660  0.652260  1
  Er  Er2  1  0.191717  0.809770  0.190818  1
  Er  Er3  1  0.442976  0.058660  0.441759  1
  Er  Er4  1  0.193873  0.191068  0.807530  1
  Er  Er5  1  0.650797  0.652060  0.652704  1
  Er  Er6  1  0.043795  0.651728  0.652239  1
  Er  Er7  1  0.442976  0.058660  0.056605  1
  Er  Er8  1  0.650797  0.652060  0.044441  1
  Er  Er9  1  0.191717  0.809770  0.807696  1
  Er  Er10  1  0.808961  0.191009  0.807450  1
  Er  Er11  1  0.808961  0.191009  0.192581  1
  Er  Er12  1  0.808806  0.808658  0.191268  1
  Er  Er13  1  0.059493  0.442915  0.439805  1
  Er  Er14  1  0.439546  0.440549  0.059953  1
  Er  Er15  1  0.059493  0.442915  0.057787  1
  In  In16  1  0.748069  0.417892  0.417020  1
  In  In17  1  0.417142  0.418034  0.747896  1
  In  In18  1  0.417779  0.748017  0.417103  1
  In  In19  1  0.417142  0.418034  0.416929  1
  Ir  Ir20  1  0.858531  0.420044  0.860712  1
  Ru  Ru21  1  0.859256  0.858205  0.863771  1
  Ru  Ru22  1  0.418853  0.858626  0.861261  1
  Ru  Ru23  1  0.859256  0.858205  0.418770  1
