# generated using pymatgen
data_Tm4Lu2ZrCo17P12
_symmetry_space_group_name_H-M   'P 1'
_cell_length_a   3.68528300
_cell_length_b   10.54410400
_cell_length_c   12.24502700
_cell_angle_alpha   90.00000000
_cell_angle_beta   90.00000000
_cell_angle_gamma   90.00000000
_symmetry_Int_Tables_number   1
_chemical_formula_structural   Tm4Lu2ZrCo17P12
_chemical_formula_sum   'Tm4 Lu2 Zr1 Co17 P12'
_cell_volume   475.81734759
_cell_formula_units_Z   1
loop_
 _symmetry_equiv_pos_site_id
 _symmetry_equiv_pos_as_xyz
  1  'x, y, z'
loop_
 _atom_site_type_symbol
 _atom_site_label
 _atom_site_symmetry_multiplicity
 _atom_site_fract_x
 _atom_site_fract_y
 _atom_site_fract_z
 _atom_site_occupancy
  Tm  Tm0  1  0.000000  0.500000  0.529828  1
  Tm  Tm1  1  0.500000  0.000000  0.476650  1
  Tm  Tm2  1  0.000000  0.682723  0.796004  1
  Tm  Tm3  1  0.000000  0.317277  0.796004  1
  Lu  Lu4  1  0.500000  0.822139  0.207521  1
  Lu  Lu5  1  0.500000  0.177861  0.207521  1
  Zr  Zr6  1  0.500000  0.500000  0.155252  1
  Co  Co7  1  0.000000  0.000000  0.835709  1
  Co  Co8  1  0.500000  0.500000  0.702561  1
  Co  Co9  1  0.000000  0.000000  0.295953  1
  Co  Co10  1  0.000000  0.500000  0.983459  1
  Co  Co11  1  0.500000  0.000000  0.014696  1
  Co  Co12  1  0.500000  0.326446  0.987989  1
  Co  Co13  1  0.500000  0.673554  0.987989  1
  Co  Co14  1  0.000000  0.161080  0.001740  1
  Co  Co15  1  0.000000  0.838920  0.001740  1
  Co  Co16  1  0.500000  0.294065  0.434603  1
  Co  Co17  1  0.500000  0.705935  0.434603  1
  Co  Co18  1  0.000000  0.201445  0.570014  1
  Co  Co19  1  0.000000  0.798555  0.570014  1
  Co  Co20  1  0.500000  0.879769  0.707108  1
  Co  Co21  1  0.500000  0.120231  0.707108  1
  Co  Co22  1  0.000000  0.624111  0.297321  1
  Co  Co23  1  0.000000  0.375889  0.297321  1
  P  P24  1  0.500000  0.500000  0.880930  1
  P  P25  1  0.000000  0.000000  0.117686  1
  P  P26  1  0.500000  0.500000  0.363716  1
  P  P27  1  0.000000  0.000000  0.653064  1
  P  P28  1  0.500000  0.310170  0.618411  1
  P  P29  1  0.500000  0.689830  0.618411  1
  P  P30  1  0.000000  0.186782  0.385430  1
  P  P31  1  0.000000  0.813218  0.385430  1
  P  P32  1  0.500000  0.852528  0.887812  1
  P  P33  1  0.500000  0.147472  0.887812  1
  P  P34  1  0.000000  0.666542  0.101294  1
  P  P35  1  0.000000  0.333458  0.101294  1
