# generated using pymatgen
data_Nd5YOsPd
_symmetry_space_group_name_H-M   'P 1'
_cell_length_a   6.53357969
_cell_length_b   7.44111447
_cell_length_c   9.77868576
_cell_angle_alpha   89.91983109
_cell_angle_beta   92.27424809
_cell_angle_gamma   90.59331318
_symmetry_Int_Tables_number   1
_chemical_formula_structural   Nd5YOsPd
_chemical_formula_sum   'Nd10 Y2 Os2 Pd2'
_cell_volume   475.01131557
_cell_formula_units_Z   2
loop_
 _symmetry_equiv_pos_site_id
 _symmetry_equiv_pos_as_xyz
  1  'x, y, z'
loop_
 _atom_site_type_symbol
 _atom_site_label
 _atom_site_symmetry_multiplicity
 _atom_site_fract_x
 _atom_site_fract_y
 _atom_site_fract_z
 _atom_site_occupancy
  Nd  Nd0  1  0.631431  0.039386  0.250108  1
  Nd  Nd1  1  0.368569  0.960614  0.749892  1
  Nd  Nd2  1  0.143088  0.471555  0.753080  1
  Nd  Nd3  1  0.856912  0.528445  0.246920  1
  Nd  Nd4  1  0.169724  0.188711  0.068307  1
  Nd  Nd5  1  0.830276  0.811289  0.931693  1
  Nd  Nd6  1  0.656245  0.331413  0.928952  1
  Nd  Nd7  1  0.833237  0.813590  0.560939  1
  Nd  Nd8  1  0.343755  0.668587  0.071048  1
  Nd  Nd9  1  0.166763  0.186410  0.439061  1
  Y  Y10  1  0.339619  0.672519  0.443721  1
  Y  Y11  1  0.660381  0.327481  0.556279  1
  Os  Os12  1  0.443901  0.381077  0.270324  1
  Os  Os13  1  0.556099  0.618923  0.729676  1
  Pd  Pd14  1  0.928134  0.117776  0.750745  1
  Pd  Pd15  1  0.071866  0.882224  0.249255  1
