# generated using pymatgen
data_CsK12Rb3(SnSe4)4
_symmetry_space_group_name_H-M   'P 1'
_cell_length_a   8.38189661
_cell_length_b   10.51901496
_cell_length_c   15.55516225
_cell_angle_alpha   90.19200793
_cell_angle_beta   90.45803924
_cell_angle_gamma   89.77906130
_symmetry_Int_Tables_number   1
_chemical_formula_structural   CsK12Rb3(SnSe4)4
_chemical_formula_sum   'Cs1 K12 Rb3 Sn4 Se16'
_cell_volume   1371.42612000
_cell_formula_units_Z   1
loop_
 _symmetry_equiv_pos_site_id
 _symmetry_equiv_pos_as_xyz
  1  'x, y, z'
loop_
 _atom_site_type_symbol
 _atom_site_label
 _atom_site_symmetry_multiplicity
 _atom_site_fract_x
 _atom_site_fract_y
 _atom_site_fract_z
 _atom_site_occupancy
  Cs  Cs0  1  0.000000  0.000000  0.000000  1
  K  K1  1  0.973948  0.749462  0.427353  1
  K  K2  1  0.472911  0.251390  0.074448  1
  K  K3  1  0.026052  0.250538  0.572647  1
  K  K4  1  0.527089  0.748610  0.925552  1
  K  K5  1  0.834700  0.050071  0.267578  1
  K  K6  1  0.331735  0.947169  0.237158  1
  K  K7  1  0.163240  0.550659  0.732591  1
  K  K8  1  0.661573  0.451271  0.766106  1
  K  K9  1  0.165300  0.949929  0.732422  1
  K  K10  1  0.668265  0.052831  0.762842  1
  K  K11  1  0.836760  0.449341  0.267409  1
  K  K12  1  0.338427  0.548729  0.233894  1
  Rb  Rb13  1  0.500000  0.000000  0.500000  1
  Rb  Rb14  1  0.000000  0.500000  0.000000  1
  Rb  Rb15  1  0.500000  0.500000  0.500000  1
  Sn  Sn16  1  0.768965  0.749250  0.668099  1
  Sn  Sn17  1  0.231035  0.250750  0.331901  1
  Sn  Sn18  1  0.724968  0.747574  0.171233  1
  Sn  Sn19  1  0.275032  0.252426  0.828767  1
  Se  Se20  1  0.968035  0.253053  0.819698  1
  Se  Se21  1  0.537896  0.250087  0.325213  1
  Se  Se22  1  0.462104  0.749913  0.674787  1
  Se  Se23  1  0.031965  0.746947  0.180302  1
  Se  Se24  1  0.630016  0.550207  0.090188  1
  Se  Se25  1  0.131031  0.447972  0.410452  1
  Se  Se26  1  0.382875  0.057389  0.907235  1
  Se  Se27  1  0.869192  0.946600  0.590438  1
  Se  Se28  1  0.369984  0.449793  0.909812  1
  Se  Se29  1  0.868969  0.552028  0.589548  1
  Se  Se30  1  0.617125  0.942611  0.092765  1
  Se  Se31  1  0.130808  0.053400  0.409562  1
  Se  Se32  1  0.614110  0.747569  0.326128  1
  Se  Se33  1  0.115381  0.250172  0.177123  1
  Se  Se34  1  0.385890  0.252431  0.673872  1
  Se  Se35  1  0.884619  0.749828  0.822877  1
