# generated using pymatgen
data_ZnCN6
_symmetry_space_group_name_H-M   'P 1'
_cell_length_a   3.44960413
_cell_length_b   5.51237150
_cell_length_c   8.85428663
_cell_angle_alpha   84.49128926
_cell_angle_beta   83.85734223
_cell_angle_gamma   71.51263444
_symmetry_Int_Tables_number   1
_chemical_formula_structural   ZnCN6
_chemical_formula_sum   'Zn1 C1 N6'
_cell_volume   158.41869493
_cell_formula_units_Z   1
loop_
 _symmetry_equiv_pos_site_id
 _symmetry_equiv_pos_as_xyz
  1  'x, y, z'
loop_
 _atom_site_type_symbol
 _atom_site_label
 _atom_site_symmetry_multiplicity
 _atom_site_fract_x
 _atom_site_fract_y
 _atom_site_fract_z
 _atom_site_occupancy
  Zn  Zn0  1  0.055846  0.520541  0.910329  1
  C  C1  1  0.761025  0.102719  0.920992  1
  N  N2  1  0.317557  0.857194  0.602193  1
  N  N3  1  0.867146  0.874813  0.939579  1
  N  N4  1  0.645619  0.346147  0.904138  1
  N  N5  1  0.810173  0.363647  0.253793  1
  N  N6  1  0.555279  0.490987  0.325136  1
  N  N7  1  0.252387  0.061116  0.558089  1
