# generated using pymatgen
data_Tm4Ga16FeCo2
_symmetry_space_group_name_H-M   'P 1'
_cell_length_a   5.98747700
_cell_length_b   5.98747700
_cell_length_c   11.04501900
_cell_angle_alpha   90.00000000
_cell_angle_beta   90.00000000
_cell_angle_gamma   90.00000000
_symmetry_Int_Tables_number   1
_chemical_formula_structural   Tm4Ga16FeCo2
_chemical_formula_sum   'Tm4 Ga16 Fe1 Co2'
_cell_volume   395.96261487
_cell_formula_units_Z   1
loop_
 _symmetry_equiv_pos_site_id
 _symmetry_equiv_pos_as_xyz
  1  'x, y, z'
loop_
 _atom_site_type_symbol
 _atom_site_label
 _atom_site_symmetry_multiplicity
 _atom_site_fract_x
 _atom_site_fract_y
 _atom_site_fract_z
 _atom_site_occupancy
  Tm  Tm0  1  0.000000  0.500000  0.193747  1
  Tm  Tm1  1  0.000000  0.500000  0.806253  1
  Tm  Tm2  1  0.500000  0.000000  0.806253  1
  Tm  Tm3  1  0.500000  0.000000  0.193747  1
  Ga  Ga4  1  0.000000  0.000000  0.218016  1
  Ga  Ga5  1  0.000000  0.000000  0.781984  1
  Ga  Ga6  1  0.500000  0.500000  0.196783  1
  Ga  Ga7  1  0.500000  0.500000  0.803217  1
  Ga  Ga8  1  0.280886  0.280886  0.000000  1
  Ga  Ga9  1  0.719114  0.719114  0.000000  1
  Ga  Ga10  1  0.280886  0.719114  0.000000  1
  Ga  Ga11  1  0.719114  0.280886  0.000000  1
  Ga  Ga12  1  0.249924  0.249924  0.383771  1
  Ga  Ga13  1  0.750076  0.750076  0.383771  1
  Ga  Ga14  1  0.249924  0.750076  0.616229  1
  Ga  Ga15  1  0.750076  0.249924  0.616229  1
  Ga  Ga16  1  0.750076  0.750076  0.616229  1
  Ga  Ga17  1  0.249924  0.249924  0.616229  1
  Ga  Ga18  1  0.249924  0.750076  0.383771  1
  Ga  Ga19  1  0.750076  0.249924  0.383771  1
  Fe  Fe20  1  0.000000  0.000000  0.000000  1
  Co  Co21  1  0.000000  0.500000  0.500000  1
  Co  Co22  1  0.500000  0.000000  0.500000  1
