# generated using pymatgen
data_Lu6Fe17CoP12
_symmetry_space_group_name_H-M   'P 1'
_cell_length_a   3.66393300
_cell_length_b   10.43292500
_cell_length_c   12.10118600
_cell_angle_alpha   90.00000000
_cell_angle_beta   90.00000000
_cell_angle_gamma   90.00000000
_symmetry_Int_Tables_number   1
_chemical_formula_structural   Lu6Fe17CoP12
_chemical_formula_sum   'Lu6 Fe17 Co1 P12'
_cell_volume   462.57434764
_cell_formula_units_Z   1
loop_
 _symmetry_equiv_pos_site_id
 _symmetry_equiv_pos_as_xyz
  1  'x, y, z'
loop_
 _atom_site_type_symbol
 _atom_site_label
 _atom_site_symmetry_multiplicity
 _atom_site_fract_x
 _atom_site_fract_y
 _atom_site_fract_z
 _atom_site_occupancy
  Lu  Lu0  1  0.000000  0.500000  0.525719  1
  Lu  Lu1  1  0.500000  0.000000  0.473711  1
  Lu  Lu2  1  0.500000  0.820527  0.207446  1
  Lu  Lu3  1  0.500000  0.179473  0.207446  1
  Lu  Lu4  1  0.000000  0.679243  0.792497  1
  Lu  Lu5  1  0.000000  0.320757  0.792497  1
  Fe  Fe6  1  0.500000  0.500000  0.154000  1
  Fe  Fe7  1  0.000000  0.000000  0.846652  1
  Fe  Fe8  1  0.500000  0.500000  0.698739  1
  Fe  Fe9  1  0.000000  0.500000  0.989219  1
  Fe  Fe10  1  0.500000  0.000000  0.011331  1
  Fe  Fe11  1  0.500000  0.327620  0.996473  1
  Fe  Fe12  1  0.500000  0.672380  0.996473  1
  Fe  Fe13  1  0.000000  0.172428  0.004287  1
  Fe  Fe14  1  0.000000  0.827572  0.004287  1
  Fe  Fe15  1  0.500000  0.298670  0.430396  1
  Fe  Fe16  1  0.500000  0.701330  0.430396  1
  Fe  Fe17  1  0.000000  0.199460  0.569095  1
  Fe  Fe18  1  0.000000  0.800540  0.569095  1
  Fe  Fe19  1  0.500000  0.881884  0.707867  1
  Fe  Fe20  1  0.500000  0.118116  0.707867  1
  Fe  Fe21  1  0.000000  0.618599  0.292373  1
  Fe  Fe22  1  0.000000  0.381401  0.292373  1
  Co  Co23  1  0.000000  0.000000  0.300096  1
  P  P24  1  0.500000  0.500000  0.882157  1
  P  P25  1  0.000000  0.000000  0.117305  1
  P  P26  1  0.500000  0.500000  0.342345  1
  P  P27  1  0.000000  0.000000  0.658204  1
  P  P28  1  0.500000  0.307297  0.614635  1
  P  P29  1  0.500000  0.692703  0.614635  1
  P  P30  1  0.000000  0.191908  0.384704  1
  P  P31  1  0.000000  0.808092  0.384704  1
  P  P32  1  0.500000  0.850361  0.887379  1
  P  P33  1  0.500000  0.149639  0.887379  1
  P  P34  1  0.000000  0.649561  0.113108  1
  P  P35  1  0.000000  0.350439  0.113108  1
