# generated using pymatgen
data_Sr6MoOsO12
_symmetry_space_group_name_H-M   'P 1'
_cell_length_a   6.12150206
_cell_length_b   5.86566724
_cell_length_c   10.29345343
_cell_angle_alpha   55.13521288
_cell_angle_beta   89.73448924
_cell_angle_gamma   89.88573584
_symmetry_Int_Tables_number   1
_chemical_formula_structural   Sr6MoOsO12
_chemical_formula_sum   'Sr6 Mo1 Os1 O12'
_cell_volume   303.25787195
_cell_formula_units_Z   1
loop_
 _symmetry_equiv_pos_site_id
 _symmetry_equiv_pos_as_xyz
  1  'x, y, z'
loop_
 _atom_site_type_symbol
 _atom_site_label
 _atom_site_symmetry_multiplicity
 _atom_site_fract_x
 _atom_site_fract_y
 _atom_site_fract_z
 _atom_site_occupancy
  Sr  Sr0  1  0.500000  0.500000  0.500000  1
  Sr  Sr1  1  0.950268  0.728008  0.256476  1
  Sr  Sr2  1  0.446808  0.267354  0.246253  1
  Sr  Sr3  1  0.000000  0.500000  0.000000  1
  Sr  Sr4  1  0.553192  0.732646  0.753747  1
  Sr  Sr5  1  0.049732  0.271992  0.743524  1
  Mo  Mo6  1  0.500000  0.000000  0.000000  1
  Os  Os7  1  0.000000  0.000000  0.500000  1
  O  O8  1  0.452357  0.115634  0.781775  1
  O  O9  1  0.235604  0.766873  0.065957  1
  O  O10  1  0.178849  0.313536  0.454945  1
  O  O11  1  0.673900  0.684021  0.045025  1
  O  O12  1  0.738853  0.231690  0.435570  1
  O  O13  1  0.953017  0.883685  0.717962  1
  O  O14  1  0.046983  0.116315  0.282038  1
  O  O15  1  0.261147  0.768310  0.564430  1
  O  O16  1  0.326100  0.315979  0.954975  1
  O  O17  1  0.821151  0.686464  0.545055  1
  O  O18  1  0.764396  0.233127  0.934043  1
  O  O19  1  0.547643  0.884366  0.218225  1
