# generated using pymatgen
data_Ca5Pr8Sm7Sn16
_symmetry_space_group_name_H-M   'P 1'
_cell_length_a   8.08676453
_cell_length_b   8.48667549
_cell_length_c   16.01290464
_cell_angle_alpha   89.98023799
_cell_angle_beta   89.91531747
_cell_angle_gamma   90.03352094
_symmetry_Int_Tables_number   1
_chemical_formula_structural   Ca5Pr8Sm7Sn16
_chemical_formula_sum   'Ca5 Pr8 Sm7 Sn16'
_cell_volume   1098.96013067
_cell_formula_units_Z   1
loop_
 _symmetry_equiv_pos_site_id
 _symmetry_equiv_pos_as_xyz
  1  'x, y, z'
loop_
 _atom_site_type_symbol
 _atom_site_label
 _atom_site_symmetry_multiplicity
 _atom_site_fract_x
 _atom_site_fract_y
 _atom_site_fract_z
 _atom_site_occupancy
  Ca  Ca0  1  0.833577  0.671745  0.876555  1
  Ca  Ca1  1  0.164351  0.498121  0.750626  1
  Ca  Ca2  1  0.665338  0.000964  0.750577  1
  Ca  Ca3  1  0.835436  0.502754  0.249879  1
  Ca  Ca4  1  0.335766  0.997296  0.250131  1
  Pr  Pr5  1  0.493609  0.316439  0.903792  1
  Pr  Pr6  1  0.992834  0.183566  0.595627  1
  Pr  Pr7  1  0.507178  0.681785  0.403801  1
  Pr  Pr8  1  0.006422  0.817330  0.095984  1
  Pr  Pr9  1  0.507179  0.682788  0.095919  1
  Pr  Pr10  1  0.007325  0.817701  0.404200  1
  Pr  Pr11  1  0.493960  0.316956  0.595564  1
  Pr  Pr12  1  0.992405  0.183223  0.903952  1
  Sm  Sm13  1  0.335352  0.826559  0.875154  1
  Sm  Sm14  1  0.835949  0.673898  0.624307  1
  Sm  Sm15  1  0.664157  0.173362  0.375358  1
  Sm  Sm16  1  0.164575  0.327303  0.124620  1
  Sm  Sm17  1  0.665462  0.173364  0.124678  1
  Sm  Sm18  1  0.164282  0.326808  0.375529  1
  Sm  Sm19  1  0.335482  0.826219  0.624091  1
  Sn  Sn20  1  0.325376  0.037362  0.037426  1
  Sn  Sn21  1  0.824693  0.462659  0.462875  1
  Sn  Sn22  1  0.675070  0.962242  0.537073  1
  Sn  Sn23  1  0.175529  0.536958  0.963128  1
  Sn  Sn24  1  0.671527  0.965462  0.962254  1
  Sn  Sn25  1  0.175424  0.537137  0.537390  1
  Sn  Sn26  1  0.325131  0.037690  0.462930  1
  Sn  Sn27  1  0.827969  0.463159  0.038760  1
  Sn  Sn28  1  0.534024  0.607415  0.749157  1
  Sn  Sn29  1  0.034882  0.894943  0.749509  1
  Sn  Sn30  1  0.466262  0.392211  0.250117  1
  Sn  Sn31  1  0.966432  0.107069  0.249841  1
  Sn  Sn32  1  0.293727  0.138021  0.749770  1
  Sn  Sn33  1  0.793062  0.359418  0.749175  1
  Sn  Sn34  1  0.704905  0.860785  0.250143  1
  Sn  Sn35  1  0.205346  0.639288  0.250107  1
