# generated using pymatgen
data_DyTm9(GaSb)4
_symmetry_space_group_name_H-M   'P 1'
_cell_length_a   8.55897586
_cell_length_b   8.51997832
_cell_length_c   7.83626698
_cell_angle_alpha   90.08898852
_cell_angle_beta   90.03253174
_cell_angle_gamma   125.37987033
_symmetry_Int_Tables_number   1
_chemical_formula_structural   DyTm9(GaSb)4
_chemical_formula_sum   'Dy1 Tm9 Ga4 Sb4'
_cell_volume   465.91037733
_cell_formula_units_Z   1
loop_
 _symmetry_equiv_pos_site_id
 _symmetry_equiv_pos_as_xyz
  1  'x, y, z'
loop_
 _atom_site_type_symbol
 _atom_site_label
 _atom_site_symmetry_multiplicity
 _atom_site_fract_x
 _atom_site_fract_y
 _atom_site_fract_z
 _atom_site_occupancy
  Dy  Dy0  1  0.540428  0.803207  0.169155  1
  Tm  Tm1  1  0.295407  0.037588  0.333716  1
  Tm  Tm2  1  0.204439  0.461874  0.833417  1
  Tm  Tm3  1  0.959410  0.700158  0.667383  1
  Tm  Tm4  1  0.703792  0.961210  0.666322  1
  Tm  Tm5  1  0.460193  0.200428  0.832671  1
  Tm  Tm6  1  0.796516  0.538409  0.166499  1
  Tm  Tm7  1  0.039885  0.298450  0.332868  1
  Tm  Tm8  1  0.499528  0.498918  0.500096  1
  Tm  Tm9  1  0.000599  0.000629  0.999442  1
  Ga  Ga10  1  0.627333  0.626755  0.872774  1
  Ga  Ga11  1  0.127507  0.126864  0.626960  1
  Ga  Ga12  1  0.873433  0.872719  0.373879  1
  Ga  Ga13  1  0.372684  0.372343  0.127011  1
  Sb  Sb14  1  0.293527  0.705547  0.503379  1
  Sb  Sb15  1  0.203247  0.793491  0.000489  1
  Sb  Sb16  1  0.703990  0.291624  0.497518  1
  Sb  Sb17  1  0.798081  0.209786  0.996418  1
