# generated using pymatgen
data_HfZr3Mn3Si4Mo
_symmetry_space_group_name_H-M   'P 1'
_cell_length_a   3.61311200
_cell_length_b   6.71376722
_cell_length_c   7.85779000
_cell_angle_alpha   89.50232091
_cell_angle_beta   90.00000000
_cell_angle_gamma   90.00000000
_symmetry_Int_Tables_number   1
_chemical_formula_structural   HfZr3Mn3Si4Mo
_chemical_formula_sum   'Hf1 Zr3 Mn3 Si4 Mo1'
_cell_volume   190.60388031
_cell_formula_units_Z   1
loop_
 _symmetry_equiv_pos_site_id
 _symmetry_equiv_pos_as_xyz
  1  'x, y, z'
loop_
 _atom_site_type_symbol
 _atom_site_label
 _atom_site_symmetry_multiplicity
 _atom_site_fract_x
 _atom_site_fract_y
 _atom_site_fract_z
 _atom_site_occupancy
  Hf  Hf0  1  0.750000  0.463693  0.820390  1
  Zr  Zr1  1  0.250000  0.030976  0.329867  1
  Zr  Zr2  1  0.750000  0.965109  0.670509  1
  Zr  Zr3  1  0.250000  0.536527  0.176835  1
  Mn  Mn4  1  0.750000  0.367624  0.436175  1
  Mn  Mn5  1  0.250000  0.635203  0.561619  1
  Mn  Mn6  1  0.750000  0.863512  0.062629  1
  Si  Si7  1  0.250000  0.273654  0.619044  1
  Si  Si8  1  0.750000  0.730251  0.375315  1
  Si  Si9  1  0.250000  0.761426  0.870949  1
  Si  Si10  1  0.750000  0.234915  0.139818  1
  Mo  Mo11  1  0.250000  0.137109  0.936848  1
