# generated using pymatgen
data_Hf5ZrTi2(NbSi3)2
_symmetry_space_group_name_H-M   'P 1'
_cell_length_a   7.79042315
_cell_length_b   7.78047660
_cell_length_c   5.31120409
_cell_angle_alpha   89.97947427
_cell_angle_beta   90.01024380
_cell_angle_gamma   119.95775950
_symmetry_Int_Tables_number   1
_chemical_formula_structural   Hf5ZrTi2(NbSi3)2
_chemical_formula_sum   'Hf5 Zr1 Ti2 Nb2 Si6'
_cell_volume   278.91735587
_cell_formula_units_Z   1
loop_
 _symmetry_equiv_pos_site_id
 _symmetry_equiv_pos_as_xyz
  1  'x, y, z'
loop_
 _atom_site_type_symbol
 _atom_site_label
 _atom_site_symmetry_multiplicity
 _atom_site_fract_x
 _atom_site_fract_y
 _atom_site_fract_z
 _atom_site_occupancy
  Hf  Hf0  1  0.747615  0.748266  0.753089  1
  Hf  Hf1  1  0.252385  0.000652  0.753089  1
  Hf  Hf2  1  0.000000  0.251282  0.753028  1
  Hf  Hf3  1  0.251989  0.252254  0.246911  1
  Hf  Hf4  1  0.748011  0.000264  0.246911  1
  Zr  Zr5  1  0.000000  0.749085  0.246965  1
  Ti  Ti6  1  0.333515  0.666633  0.500174  1
  Ti  Ti7  1  0.666485  0.333117  0.500174  1
  Nb  Nb8  1  0.666491  0.333087  0.999841  1
  Nb  Nb9  1  0.333509  0.666596  0.999841  1
  Si  Si10  1  0.396063  0.395978  0.745203  1
  Si  Si11  1  0.603937  0.999915  0.745203  1
  Si  Si12  1  0.000000  0.603580  0.745175  1
  Si  Si13  1  0.603012  0.603540  0.254823  1
  Si  Si14  1  0.396988  0.000528  0.254823  1
  Si  Si15  1  0.000000  0.395223  0.254751  1
