# generated using pymatgen
data_Lu10In8Co2PtRh
_symmetry_space_group_name_H-M   'P 1'
_cell_length_a   3.51618700
_cell_length_b   7.93239624
_cell_length_c   17.86986351
_cell_angle_alpha   89.91818735
_cell_angle_beta   90.00000000
_cell_angle_gamma   90.00000000
_symmetry_Int_Tables_number   1
_chemical_formula_structural   Lu10In8Co2PtRh
_chemical_formula_sum   'Lu10 In8 Co2 Pt1 Rh1'
_cell_volume   498.42194597
_cell_formula_units_Z   1
loop_
 _symmetry_equiv_pos_site_id
 _symmetry_equiv_pos_as_xyz
  1  'x, y, z'
loop_
 _atom_site_type_symbol
 _atom_site_label
 _atom_site_symmetry_multiplicity
 _atom_site_fract_x
 _atom_site_fract_y
 _atom_site_fract_z
 _atom_site_occupancy
  Lu  Lu0  1  0.000000  0.114832  0.410971  1
  Lu  Lu1  1  0.000000  0.884030  0.590090  1
  Lu  Lu2  1  0.000000  0.380728  0.912008  1
  Lu  Lu3  1  0.000000  0.619596  0.086258  1
  Lu  Lu4  1  0.000000  0.236163  0.224831  1
  Lu  Lu5  1  0.000000  0.759228  0.775620  1
  Lu  Lu6  1  0.000000  0.246869  0.719801  1
  Lu  Lu7  1  0.000000  0.759266  0.280592  1
  Lu  Lu8  1  0.000000  0.999367  0.999721  1
  Lu  Lu9  1  0.000000  0.500768  0.500031  1
  In  In10  1  0.500000  0.424245  0.352833  1
  In  In11  1  0.500000  0.571273  0.648809  1
  In  In12  1  0.500000  0.069620  0.847578  1
  In  In13  1  0.500000  0.932814  0.151507  1
  In  In14  1  0.500000  0.292074  0.066333  1
  In  In15  1  0.500000  0.706381  0.931453  1
  In  In16  1  0.500000  0.203064  0.567436  1
  In  In17  1  0.500000  0.796276  0.432378  1
  Co  Co18  1  0.500000  0.025499  0.305666  1
  Co  Co19  1  0.500000  0.976932  0.695089  1
  Pt  Pt20  1  0.500000  0.526758  0.197550  1
  Rh  Rh21  1  0.500000  0.474219  0.803444  1
