# generated using pymatgen
data_TmNb(SeO3)4
_symmetry_space_group_name_H-M   'P 1'
_cell_length_a   8.58471200
_cell_length_b   8.85033032
_cell_length_c   8.67395118
_cell_angle_alpha   90.57855960
_cell_angle_beta   90.00000000
_cell_angle_gamma   90.00000000
_symmetry_Int_Tables_number   1
_chemical_formula_structural   TmNb(SeO3)4
_chemical_formula_sum   'Tm2 Nb2 Se8 O24'
_cell_volume   658.99184765
_cell_formula_units_Z   2
loop_
 _symmetry_equiv_pos_site_id
 _symmetry_equiv_pos_as_xyz
  1  'x, y, z'
loop_
 _atom_site_type_symbol
 _atom_site_label
 _atom_site_symmetry_multiplicity
 _atom_site_fract_x
 _atom_site_fract_y
 _atom_site_fract_z
 _atom_site_occupancy
  Tm  Tm0  1  0.000000  0.500000  0.000000  1
  Tm  Tm1  1  0.500000  0.500000  0.500000  1
  Nb  Nb2  1  0.000000  0.000000  0.500000  1
  Nb  Nb3  1  0.500000  0.000000  0.000000  1
  Se  Se4  1  0.332346  0.684287  0.175355  1
  Se  Se5  1  0.832346  0.315713  0.324645  1
  Se  Se6  1  0.692606  0.829227  0.686600  1
  Se  Se7  1  0.192606  0.170773  0.813400  1
  Se  Se8  1  0.667654  0.315713  0.824645  1
  Se  Se9  1  0.167654  0.684287  0.675355  1
  Se  Se10  1  0.307394  0.170773  0.313400  1
  Se  Se11  1  0.807394  0.829227  0.186600  1
  O  O12  1  0.242567  0.566211  0.049059  1
  O  O13  1  0.742567  0.433789  0.450941  1
  O  O14  1  0.774402  0.965282  0.563689  1
  O  O15  1  0.274402  0.034718  0.936311  1
  O  O16  1  0.558617  0.950144  0.779040  1
  O  O17  1  0.468687  0.573946  0.258945  1
  O  O18  1  0.968687  0.426054  0.241055  1
  O  O19  1  0.058617  0.049856  0.720960  1
  O  O20  1  0.955104  0.214552  0.457551  1
  O  O21  1  0.575623  0.734674  0.564759  1
  O  O22  1  0.455104  0.785448  0.042449  1
  O  O23  1  0.075623  0.265326  0.935241  1
  O  O24  1  0.757433  0.433789  0.950941  1
  O  O25  1  0.257433  0.566211  0.549059  1
  O  O26  1  0.225598  0.034718  0.436311  1
  O  O27  1  0.725598  0.965282  0.063689  1
  O  O28  1  0.441383  0.049856  0.220960  1
  O  O29  1  0.531313  0.426054  0.741055  1
  O  O30  1  0.031313  0.573946  0.758945  1
  O  O31  1  0.941383  0.950144  0.279040  1
  O  O32  1  0.044896  0.785448  0.542449  1
  O  O33  1  0.424377  0.265326  0.435241  1
  O  O34  1  0.544896  0.214552  0.957551  1
  O  O35  1  0.924377  0.734674  0.064759  1
