# generated using pymatgen
data_Hf18CrCoCuRe7
_symmetry_space_group_name_H-M   'P 1'
_cell_length_a   8.59034100
_cell_length_b   8.59034115
_cell_length_c   8.44519100
_cell_angle_alpha   90.00000000
_cell_angle_beta   90.00000000
_cell_angle_gamma   119.99999556
_symmetry_Int_Tables_number   1
_chemical_formula_structural   Hf18CrCoCuRe7
_chemical_formula_sum   'Hf18 Cr1 Co1 Cu1 Re7'
_cell_volume   539.71059382
_cell_formula_units_Z   1
loop_
 _symmetry_equiv_pos_site_id
 _symmetry_equiv_pos_as_xyz
  1  'x, y, z'
loop_
 _atom_site_type_symbol
 _atom_site_label
 _atom_site_symmetry_multiplicity
 _atom_site_fract_x
 _atom_site_fract_y
 _atom_site_fract_z
 _atom_site_occupancy
  Hf  Hf0  1  0.194129  0.805871  0.446221  1
  Hf  Hf1  1  0.194129  0.388259  0.446221  1
  Hf  Hf2  1  0.611741  0.805871  0.446221  1
  Hf  Hf3  1  0.801534  0.198466  0.557748  1
  Hf  Hf4  1  0.801534  0.603065  0.557748  1
  Hf  Hf5  1  0.396935  0.198466  0.557748  1
  Hf  Hf6  1  0.800535  0.199465  0.941278  1
  Hf  Hf7  1  0.800535  0.601069  0.941278  1
  Hf  Hf8  1  0.398931  0.199465  0.941278  1
  Hf  Hf9  1  0.194843  0.805157  0.054388  1
  Hf  Hf10  1  0.194843  0.389687  0.054388  1
  Hf  Hf11  1  0.610313  0.805157  0.054388  1
  Hf  Hf12  1  0.541767  0.458233  0.250217  1
  Hf  Hf13  1  0.541767  0.083534  0.250217  1
  Hf  Hf14  1  0.916466  0.458233  0.250217  1
  Hf  Hf15  1  0.458519  0.541481  0.749821  1
  Hf  Hf16  1  0.458519  0.917040  0.749821  1
  Hf  Hf17  1  0.082960  0.541481  0.749821  1
  Cr  Cr18  1  0.000000  0.000000  0.499678  1
  Co  Co19  1  0.666667  0.333333  0.750054  1
  Cu  Cu20  1  0.333333  0.666667  0.250353  1
  Re  Re21  1  0.890417  0.109583  0.254133  1
  Re  Re22  1  0.890417  0.780835  0.254133  1
  Re  Re23  1  0.219165  0.109583  0.254133  1
  Re  Re24  1  0.109090  0.890910  0.746022  1
  Re  Re25  1  0.109090  0.218179  0.746022  1
  Re  Re26  1  0.781821  0.890910  0.746022  1
  Re  Re27  1  0.000000  0.000000  0.000435  1
