# generated using pymatgen
data_La14NiRh5
_symmetry_space_group_name_H-M   'P 1'
_cell_length_a   10.18810840
_cell_length_b   10.16955809
_cell_length_c   6.60846300
_cell_angle_alpha   89.94061149
_cell_angle_beta   89.88533647
_cell_angle_gamma   120.47640233
_symmetry_Int_Tables_number   1
_chemical_formula_structural   La14NiRh5
_chemical_formula_sum   'La14 Ni1 Rh5'
_cell_volume   590.09196496
_cell_formula_units_Z   1
loop_
 _symmetry_equiv_pos_site_id
 _symmetry_equiv_pos_as_xyz
  1  'x, y, z'
loop_
 _atom_site_type_symbol
 _atom_site_label
 _atom_site_symmetry_multiplicity
 _atom_site_fract_x
 _atom_site_fract_y
 _atom_site_fract_z
 _atom_site_occupancy
  La  La0  1  0.667616  0.335795  0.557062  1
  La  La1  1  0.331229  0.662511  0.055318  1
  La  La2  1  0.876532  0.752639  0.792590  1
  La  La3  1  0.250661  0.126021  0.793917  1
  La  La4  1  0.876693  0.126352  0.795081  1
  La  La5  1  0.124066  0.249009  0.295357  1
  La  La6  1  0.749615  0.875181  0.294178  1
  La  La7  1  0.124644  0.874893  0.295319  1
  La  La8  1  0.460694  0.921157  0.594661  1
  La  La9  1  0.080673  0.535581  0.590413  1
  La  La10  1  0.455445  0.535340  0.592812  1
  La  La11  1  0.539516  0.079307  0.090401  1
  La  La12  1  0.922038  0.462151  0.088581  1
  La  La13  1  0.538990  0.461455  0.090243  1
  Ni  Ni14  1  0.187180  0.373916  0.828937  1
  Rh  Rh15  1  0.624203  0.810903  0.834706  1
  Rh  Rh16  1  0.187184  0.811039  0.831758  1
  Rh  Rh17  1  0.812722  0.627021  0.330224  1
  Rh  Rh18  1  0.376476  0.189199  0.332663  1
  Rh  Rh19  1  0.813822  0.190531  0.330826  1
