# generated using pymatgen
data_Ho3Tm2ScFe3Si6Ru
_symmetry_space_group_name_H-M   'P 1'
_cell_length_a   5.60645391
_cell_length_b   5.60645568
_cell_length_c   13.39946486
_cell_angle_alpha   89.81458819
_cell_angle_beta   90.18541088
_cell_angle_gamma   137.35013865
_symmetry_Int_Tables_number   1
_chemical_formula_structural   Ho3Tm2ScFe3Si6Ru
_chemical_formula_sum   'Ho3 Tm2 Sc1 Fe3 Si6 Ru1'
_cell_volume   285.35220281
_cell_formula_units_Z   1
loop_
 _symmetry_equiv_pos_site_id
 _symmetry_equiv_pos_as_xyz
  1  'x, y, z'
loop_
 _atom_site_type_symbol
 _atom_site_label
 _atom_site_symmetry_multiplicity
 _atom_site_fract_x
 _atom_site_fract_y
 _atom_site_fract_z
 _atom_site_occupancy
  Ho  Ho0  1  0.364583  0.635417  0.749744  1
  Ho  Ho1  1  0.921460  0.078540  0.116694  1
  Ho  Ho2  1  0.078580  0.921420  0.891320  1
  Tm  Tm3  1  0.081315  0.918685  0.610289  1
  Tm  Tm4  1  0.924780  0.075220  0.380739  1
  Sc  Sc5  1  0.644844  0.355156  0.249560  1
  Fe  Fe6  1  0.213011  0.786989  0.415749  1
  Fe  Fe7  1  0.212287  0.787713  0.085157  1
  Fe  Fe8  1  0.782695  0.217305  0.923398  1
  Si  Si9  1  0.318063  0.681937  0.250634  1
  Si  Si10  1  0.672508  0.327492  0.753741  1
  Si  Si11  1  0.623247  0.376753  0.045704  1
  Si  Si12  1  0.372605  0.627395  0.963659  1
  Si  Si13  1  0.383551  0.616449  0.531355  1
  Si  Si14  1  0.619930  0.380070  0.452441  1
  Ru  Ru15  1  0.786543  0.213457  0.579815  1
