# generated using pymatgen
data_ErSc4Si9P3Ir19
_symmetry_space_group_name_H-M   'P 1'
_cell_length_a   12.74976455
_cell_length_b   12.74362673
_cell_length_c   3.90080900
_cell_angle_alpha   90.00000000
_cell_angle_beta   90.00000000
_cell_angle_gamma   119.98408129
_symmetry_Int_Tables_number   1
_chemical_formula_structural   ErSc4Si9P3Ir19
_chemical_formula_sum   'Er1 Sc4 Si9 P3 Ir19'
_cell_volume   548.97196496
_cell_formula_units_Z   1
loop_
 _symmetry_equiv_pos_site_id
 _symmetry_equiv_pos_as_xyz
  1  'x, y, z'
loop_
 _atom_site_type_symbol
 _atom_site_label
 _atom_site_symmetry_multiplicity
 _atom_site_fract_x
 _atom_site_fract_y
 _atom_site_fract_z
 _atom_site_occupancy
  Er  Er0  1  0.000000  0.184006  0.500000  1
  Sc  Sc1  1  0.667081  0.333727  0.000000  1
  Sc  Sc2  1  0.332919  0.666647  0.000000  1
  Sc  Sc3  1  0.813028  0.813079  0.500000  1
  Sc  Sc4  1  0.186972  0.000051  0.500000  1
  Si  Si5  1  0.686296  0.169130  0.500000  1
  Si  Si6  1  0.831115  0.518092  0.500000  1
  Si  Si7  1  0.483603  0.313774  0.500000  1
  Si  Si8  1  0.168885  0.686977  0.500000  1
  Si  Si9  1  0.516397  0.830171  0.500000  1
  Si  Si10  1  0.313704  0.482834  0.500000  1
  Si  Si11  1  0.634861  0.634924  0.000000  1
  Si  Si12  1  0.365139  0.000064  0.000000  1
  Si  Si13  1  0.000000  0.366701  0.000000  1
  P  P14  1  0.177879  0.176029  0.000000  1
  P  P15  1  0.822121  0.998150  0.000000  1
  P  P16  1  0.000000  0.823070  0.000000  1
  Ir  Ir17  1  0.806783  0.179690  0.000000  1
  Ir  Ir18  1  0.820202  0.629419  0.000000  1
  Ir  Ir19  1  0.371332  0.191029  0.000000  1
  Ir  Ir20  1  0.179798  0.809218  0.000000  1
  Ir  Ir21  1  0.628668  0.819697  0.000000  1
  Ir  Ir22  1  0.193217  0.372907  0.000000  1
  Ir  Ir23  1  0.447450  0.446840  0.000000  1
  Ir  Ir24  1  0.552550  0.999390  0.000000  1
  Ir  Ir25  1  0.000000  0.553836  0.000000  1
  Ir  Ir26  1  0.277982  0.276917  0.500000  1
  Ir  Ir27  1  0.722018  0.998935  0.500000  1
  Ir  Ir28  1  0.000000  0.724223  0.500000  1
  Ir  Ir29  1  0.871155  0.360125  0.500000  1
  Ir  Ir30  1  0.640743  0.512212  0.500000  1
  Ir  Ir31  1  0.488379  0.128626  0.500000  1
  Ir  Ir32  1  0.359257  0.871468  0.500000  1
  Ir  Ir33  1  0.511621  0.640246  0.500000  1
  Ir  Ir34  1  0.128845  0.488969  0.500000  1
  Ir  Ir35  1  0.000000  0.998830  0.000000  1
