# generated using pymatgen
data_Ho20(Ir3Pt)3
_symmetry_space_group_name_H-M   'P 1'
_cell_length_a   10.91630580
_cell_length_b   10.91630580
_cell_length_c   6.31687625
_cell_angle_alpha   89.97730754
_cell_angle_beta   89.97730754
_cell_angle_gamma   90.18732190
_symmetry_Int_Tables_number   1
_chemical_formula_structural   Ho20(Ir3Pt)3
_chemical_formula_sum   'Ho20 Ir9 Pt3'
_cell_volume   752.75104259
_cell_formula_units_Z   1
loop_
 _symmetry_equiv_pos_site_id
 _symmetry_equiv_pos_as_xyz
  1  'x, y, z'
loop_
 _atom_site_type_symbol
 _atom_site_label
 _atom_site_symmetry_multiplicity
 _atom_site_fract_x
 _atom_site_fract_y
 _atom_site_fract_z
 _atom_site_occupancy
  Ho  Ho0  1  0.293746  0.086950  0.372176  1
  Ho  Ho1  1  0.292907  0.908790  0.876995  1
  Ho  Ho2  1  0.705309  0.089889  0.874081  1
  Ho  Ho3  1  0.704599  0.910011  0.373567  1
  Ho  Ho4  1  0.585263  0.791120  0.878481  1
  Ho  Ho5  1  0.585574  0.208948  0.378413  1
  Ho  Ho6  1  0.411072  0.791332  0.378127  1
  Ho  Ho7  1  0.414248  0.208971  0.878407  1
  Ho  Ho8  1  0.208880  0.414737  0.621519  1
  Ho  Ho9  1  0.208668  0.588928  0.121873  1
  Ho  Ho10  1  0.791052  0.414426  0.121587  1
  Ho  Ho11  1  0.791029  0.585752  0.621593  1
  Ho  Ho12  1  0.913050  0.706254  0.127824  1
  Ho  Ho13  1  0.910111  0.294691  0.625919  1
  Ho  Ho14  1  0.091210  0.707093  0.623005  1
  Ho  Ho15  1  0.089989  0.295401  0.126433  1
  Ho  Ho16  1  0.001285  0.998140  0.499379  1
  Ho  Ho17  1  0.001860  0.998715  0.000621  1
  Ho  Ho18  1  0.499796  0.499929  0.000352  1
  Ho  Ho19  1  0.500071  0.500204  0.499648  1
  Ir  Ir20  1  0.152447  0.847553  0.250000  1
  Ir  Ir21  1  0.654546  0.345454  0.750000  1
  Ir  Ir22  1  0.654813  0.654563  0.249674  1
  Ir  Ir23  1  0.345437  0.345187  0.250326  1
  Ir  Ir24  1  0.346244  0.653756  0.750000  1
  Ir  Ir25  1  0.500454  0.000088  0.122289  1
  Ir  Ir26  1  0.500351  0.000297  0.623276  1
  Ir  Ir27  1  0.999703  0.499649  0.876724  1
  Ir  Ir28  1  0.999912  0.499546  0.377711  1
  Pt  Pt29  1  0.846809  0.153191  0.250000  1
  Pt  Pt30  1  0.845806  0.846240  0.749870  1
  Pt  Pt31  1  0.153760  0.154194  0.750130  1
