# generated using pymatgen
data_Sc3Ga3HgPt2
_symmetry_space_group_name_H-M   'P 1'
_cell_length_a   7.37339700
_cell_length_b   7.37339802
_cell_length_c   3.52636000
_cell_angle_alpha   90.00000000
_cell_angle_beta   90.00000000
_cell_angle_gamma   119.99999992
_symmetry_Int_Tables_number   1
_chemical_formula_structural   Sc3Ga3HgPt2
_chemical_formula_sum   'Sc3 Ga3 Hg1 Pt2'
_cell_volume   166.03229627
_cell_formula_units_Z   1
loop_
 _symmetry_equiv_pos_site_id
 _symmetry_equiv_pos_as_xyz
  1  'x, y, z'
loop_
 _atom_site_type_symbol
 _atom_site_label
 _atom_site_symmetry_multiplicity
 _atom_site_fract_x
 _atom_site_fract_y
 _atom_site_fract_z
 _atom_site_occupancy
  Sc  Sc0  1  0.597013  0.975039  0.000000  1
  Sc  Sc1  1  0.378026  0.402987  0.000000  1
  Sc  Sc2  1  0.024961  0.621974  0.000000  1
  Ga  Ga3  1  0.733919  0.735270  0.500000  1
  Ga  Ga4  1  0.001352  0.266081  0.500000  1
  Ga  Ga5  1  0.264730  0.998648  0.500000  1
  Hg  Hg6  1  0.666667  0.333333  0.500000  1
  Pt  Pt7  1  0.000000  0.000000  0.000000  1
  Pt  Pt8  1  0.333333  0.666667  0.500000  1
