# generated using pymatgen
data_K2PuCdO6
_symmetry_space_group_name_H-M   'P 1'
_cell_length_a   6.06452756
_cell_length_b   6.07277844
_cell_length_c   8.58568332
_cell_angle_alpha   90.02797162
_cell_angle_beta   90.01527912
_cell_angle_gamma   90.02164348
_symmetry_Int_Tables_number   1
_chemical_formula_structural   K2PuCdO6
_chemical_formula_sum   'K4 Pu2 Cd2 O12'
_cell_volume   316.19804316
_cell_formula_units_Z   2
loop_
 _symmetry_equiv_pos_site_id
 _symmetry_equiv_pos_as_xyz
  1  'x, y, z'
loop_
 _atom_site_type_symbol
 _atom_site_label
 _atom_site_symmetry_multiplicity
 _atom_site_fract_x
 _atom_site_fract_y
 _atom_site_fract_z
 _atom_site_occupancy
  K  K0  1  0.449741  0.050122  0.249866  1
  K  K1  1  0.950011  0.550214  0.250054  1
  K  K2  1  0.449898  0.049942  0.750051  1
  K  K3  1  0.950048  0.550091  0.750070  1
  Pu  Pu4  1  0.950117  0.050414  0.000023  1
  Pu  Pu5  1  0.449915  0.549535  0.499975  1
  Cd  Cd6  1  0.450168  0.550310  0.000000  1
  Cd  Cd7  1  0.949865  0.049651  0.499997  1
  O  O8  1  0.178593  0.817401  0.000472  1
  O  O9  1  0.184027  0.278362  0.000831  1
  O  O10  1  0.948831  0.050261  0.230558  1
  O  O11  1  0.450940  0.550084  0.269514  1
  O  O12  1  0.213409  0.324300  0.499054  1
  O  O13  1  0.224239  0.785280  0.499779  1
  O  O14  1  0.675345  0.313619  0.500153  1
  O  O15  1  0.686554  0.774672  0.500985  1
  O  O16  1  0.448929  0.549091  0.730425  1
  O  O17  1  0.951164  0.050438  0.769506  1
  O  O18  1  0.716163  0.822473  0.999167  1
  O  O19  1  0.722038  0.283742  0.999502  1
