# generated using pymatgen
data_Sm6Cd23Si
_symmetry_space_group_name_H-M   'P 1'
_cell_length_a   10.03315019
_cell_length_b   10.03315029
_cell_length_c   10.03315100
_cell_angle_alpha   60.00000096
_cell_angle_beta   60.00000063
_cell_angle_gamma   60.00000075
_symmetry_Int_Tables_number   1
_chemical_formula_structural   Sm6Cd23Si
_chemical_formula_sum   'Sm6 Cd23 Si1'
_cell_volume   714.16241350
_cell_formula_units_Z   1
loop_
 _symmetry_equiv_pos_site_id
 _symmetry_equiv_pos_as_xyz
  1  'x, y, z'
loop_
 _atom_site_type_symbol
 _atom_site_label
 _atom_site_symmetry_multiplicity
 _atom_site_fract_x
 _atom_site_fract_y
 _atom_site_fract_z
 _atom_site_occupancy
  Sm  Sm0  1  0.795639  0.795639  0.204361  1
  Sm  Sm1  1  0.204361  0.795639  0.204361  1
  Sm  Sm2  1  0.795639  0.204361  0.204361  1
  Sm  Sm3  1  0.204361  0.204361  0.795639  1
  Sm  Sm4  1  0.795639  0.204361  0.795639  1
  Sm  Sm5  1  0.204361  0.795639  0.795639  1
  Cd  Cd6  1  0.836696  0.836696  0.489912  1
  Cd  Cd7  1  0.836696  0.489912  0.836696  1
  Cd  Cd8  1  0.489912  0.836696  0.836696  1
  Cd  Cd9  1  0.836696  0.836696  0.836696  1
  Cd  Cd10  1  0.163304  0.163304  0.510088  1
  Cd  Cd11  1  0.163304  0.510088  0.163304  1
  Cd  Cd12  1  0.510088  0.163304  0.163304  1
  Cd  Cd13  1  0.163304  0.163304  0.163304  1
  Cd  Cd14  1  0.622140  0.622140  0.133581  1
  Cd  Cd15  1  0.622140  0.133581  0.622140  1
  Cd  Cd16  1  0.133581  0.622140  0.622140  1
  Cd  Cd17  1  0.622140  0.622140  0.622140  1
  Cd  Cd18  1  0.377860  0.377860  0.866419  1
  Cd  Cd19  1  0.377860  0.866419  0.377860  1
  Cd  Cd20  1  0.866419  0.377860  0.377860  1
  Cd  Cd21  1  0.377860  0.377860  0.377860  1
  Cd  Cd22  1  0.000000  0.000000  0.500000  1
  Cd  Cd23  1  0.500000  0.000000  0.500000  1
  Cd  Cd24  1  0.000000  0.500000  0.500000  1
  Cd  Cd25  1  0.500000  0.500000  0.000000  1
  Cd  Cd26  1  0.000000  0.500000  0.000000  1
  Cd  Cd27  1  0.500000  0.000000  0.000000  1
  Cd  Cd28  1  0.500000  0.500000  0.500000  1
  Si  Si29  1  0.000000  0.000000  0.000000  1
