# generated using pymatgen
data_CsRb3URhBr12
_symmetry_space_group_name_H-M   'P 1'
_cell_length_a   7.71877138
_cell_length_b   7.67085144
_cell_length_c   11.37754500
_cell_angle_alpha   90.00000000
_cell_angle_beta   90.00000000
_cell_angle_gamma   90.06939960
_symmetry_Int_Tables_number   1
_chemical_formula_structural   CsRb3URhBr12
_chemical_formula_sum   'Cs1 Rb3 U1 Rh1 Br12'
_cell_volume   673.65880917
_cell_formula_units_Z   1
loop_
 _symmetry_equiv_pos_site_id
 _symmetry_equiv_pos_as_xyz
  1  'x, y, z'
loop_
 _atom_site_type_symbol
 _atom_site_label
 _atom_site_symmetry_multiplicity
 _atom_site_fract_x
 _atom_site_fract_y
 _atom_site_fract_z
 _atom_site_occupancy
  Cs  Cs0  1  0.500000  0.000000  0.786556  1
  Rb  Rb1  1  0.500000  0.000000  0.204133  1
  Rb  Rb2  1  0.000000  0.500000  0.204500  1
  Rb  Rb3  1  0.000000  0.500000  0.796188  1
  U  U4  1  0.500000  0.500000  0.499494  1
  Rh  Rh5  1  0.000000  0.000000  0.000551  1
  Br  Br6  1  0.772621  0.237718  0.002215  1
  Br  Br7  1  0.227379  0.762282  0.002215  1
  Br  Br8  1  0.500000  0.500000  0.260622  1
  Br  Br9  1  0.290467  0.218778  0.498975  1
  Br  Br10  1  0.233804  0.232255  0.002918  1
  Br  Br11  1  0.780591  0.291215  0.499920  1
  Br  Br12  1  0.000000  0.000000  0.223511  1
  Br  Br13  1  0.709533  0.781222  0.498975  1
  Br  Br14  1  0.219409  0.708785  0.499920  1
  Br  Br15  1  0.500000  0.500000  0.738607  1
  Br  Br16  1  0.766196  0.767745  0.002918  1
  Br  Br17  1  0.000000  0.000000  0.777784  1
