# generated using pymatgen
data_Cs4Na2ErAlAs4
_symmetry_space_group_name_H-M   'P 1'
_cell_length_a   9.82935713
_cell_length_b   9.82935788
_cell_length_c   9.82931444
_cell_angle_alpha   139.38862636
_cell_angle_beta   137.47951994
_cell_angle_gamma   60.25298571
_symmetry_Int_Tables_number   1
_chemical_formula_structural   Cs4Na2ErAlAs4
_chemical_formula_sum   'Cs4 Na2 Er1 Al1 As4'
_cell_volume   413.43562194
_cell_formula_units_Z   1
loop_
 _symmetry_equiv_pos_site_id
 _symmetry_equiv_pos_as_xyz
  1  'x, y, z'
loop_
 _atom_site_type_symbol
 _atom_site_label
 _atom_site_symmetry_multiplicity
 _atom_site_fract_x
 _atom_site_fract_y
 _atom_site_fract_z
 _atom_site_occupancy
  Cs  Cs0  1  0.096620  0.327182  0.775131  1
  Cs  Cs1  1  0.447950  0.172825  0.269432  1
  Cs  Cs2  1  0.903393  0.678517  0.230568  1
  Cs  Cs3  1  0.552050  0.821489  0.724869  1
  Na  Na4  1  0.500001  0.750001  0.250000  1
  Na  Na5  1  0.500008  0.250008  0.750000  1
  Er  Er6  1  0.999979  0.249979  0.250000  1
  Al  Al7  1  0.000002  0.750002  0.750000  1
  As  As8  1  0.121613  0.894699  0.190590  1
  As  As9  1  0.878407  0.069000  0.773132  1
  As  As10  1  0.295870  0.605276  0.726868  1
  As  As11  1  0.704109  0.431024  0.309410  1
