# generated using pymatgen
data_Ho2Mn3Re3P7Ir6
_symmetry_space_group_name_H-M   'P 1'
_cell_length_a   9.35865600
_cell_length_b   9.35865577
_cell_length_c   3.89746400
_cell_angle_alpha   90.00000000
_cell_angle_beta   90.00000000
_cell_angle_gamma   120.00000788
_symmetry_Int_Tables_number   1
_chemical_formula_structural   Ho2Mn3Re3P7Ir6
_chemical_formula_sum   'Ho2 Mn3 Re3 P7 Ir6'
_cell_volume   295.62398507
_cell_formula_units_Z   1
loop_
 _symmetry_equiv_pos_site_id
 _symmetry_equiv_pos_as_xyz
  1  'x, y, z'
loop_
 _atom_site_type_symbol
 _atom_site_label
 _atom_site_symmetry_multiplicity
 _atom_site_fract_x
 _atom_site_fract_y
 _atom_site_fract_z
 _atom_site_occupancy
  Ho  Ho0  1  0.666667  0.333333  0.000000  1
  Ho  Ho1  1  0.333333  0.666667  0.500000  1
  Mn  Mn2  1  0.267114  0.158361  0.000000  1
  Mn  Mn3  1  0.841639  0.108754  0.000000  1
  Mn  Mn4  1  0.891246  0.732886  0.000000  1
  Re  Re5  1  0.091059  0.209696  0.500000  1
  Re  Re6  1  0.790304  0.881362  0.500000  1
  Re  Re7  1  0.118638  0.908941  0.500000  1
  P  P8  1  0.298046  0.407306  0.000000  1
  P  P9  1  0.592694  0.890739  0.000000  1
  P  P10  1  0.109261  0.701954  0.000000  1
  P  P11  1  0.396810  0.120036  0.500000  1
  P  P12  1  0.879964  0.276773  0.500000  1
  P  P13  1  0.723227  0.603190  0.500000  1
  P  P14  1  0.000000  0.000000  0.000000  1
  Ir  Ir15  1  0.067282  0.429554  0.000000  1
  Ir  Ir16  1  0.570446  0.637727  0.000000  1
  Ir  Ir17  1  0.362273  0.932718  0.000000  1
  Ir  Ir18  1  0.443565  0.387800  0.500000  1
  Ir  Ir19  1  0.612200  0.055765  0.500000  1
  Ir  Ir20  1  0.944235  0.556435  0.500000  1
