# generated using pymatgen
data_Ce2Th6Cu3Si12Ru
_symmetry_space_group_name_H-M   'P 1'
_cell_length_a   8.13497178
_cell_length_b   8.13497319
_cell_length_c   8.48122400
_cell_angle_alpha   90.02513698
_cell_angle_beta   89.97486302
_cell_angle_gamma   119.95122851
_symmetry_Int_Tables_number   1
_chemical_formula_structural   Ce2Th6Cu3Si12Ru
_chemical_formula_sum   'Ce2 Th6 Cu3 Si12 Ru1'
_cell_volume   486.31146950
_cell_formula_units_Z   1
loop_
 _symmetry_equiv_pos_site_id
 _symmetry_equiv_pos_as_xyz
  1  'x, y, z'
loop_
 _atom_site_type_symbol
 _atom_site_label
 _atom_site_symmetry_multiplicity
 _atom_site_fract_x
 _atom_site_fract_y
 _atom_site_fract_z
 _atom_site_occupancy
  Ce  Ce0  1  0.496257  0.993250  0.753049  1
  Ce  Ce1  1  0.006750  0.503743  0.753049  1
  Th  Th2  1  0.000004  0.999996  0.250414  1
  Th  Th3  1  0.000028  0.999972  0.749151  1
  Th  Th4  1  0.497744  0.502256  0.246904  1
  Th  Th5  1  0.497565  0.995411  0.246935  1
  Th  Th6  1  0.004589  0.502435  0.246935  1
  Th  Th7  1  0.497148  0.502852  0.752813  1
  Cu  Cu8  1  0.333687  0.666313  0.500121  1
  Cu  Cu9  1  0.666417  0.333583  0.502056  1
  Cu  Cu10  1  0.666118  0.333882  0.998844  1
  Si  Si11  1  0.169073  0.830927  0.501933  1
  Si  Si12  1  0.168169  0.337295  0.500388  1
  Si  Si13  1  0.662705  0.831831  0.500388  1
  Si  Si14  1  0.829839  0.170161  0.502692  1
  Si  Si15  1  0.830738  0.660743  0.500978  1
  Si  Si16  1  0.339257  0.169262  0.500978  1
  Si  Si17  1  0.831339  0.168661  0.997344  1
  Si  Si18  1  0.832705  0.664201  0.998499  1
  Si  Si19  1  0.335799  0.167295  0.998499  1
  Si  Si20  1  0.166743  0.833257  0.997371  1
  Si  Si21  1  0.165608  0.332191  0.999536  1
  Si  Si22  1  0.667809  0.834392  0.999536  1
  Ru  Ru23  1  0.333909  0.666091  0.001590  1
