# generated using pymatgen
data_Zr8Ga15Rh7
_symmetry_space_group_name_H-M   'P 1'
_cell_length_a   8.94663214
_cell_length_b   8.94668602
_cell_length_c   8.94663255
_cell_angle_alpha   120.73316105
_cell_angle_beta   119.71325364
_cell_angle_gamma   89.61578204
_symmetry_Int_Tables_number   1
_chemical_formula_structural   Zr8Ga15Rh7
_chemical_formula_sum   'Zr8 Ga15 Rh7'
_cell_volume   504.59855101
_cell_formula_units_Z   1
loop_
 _symmetry_equiv_pos_site_id
 _symmetry_equiv_pos_as_xyz
  1  'x, y, z'
loop_
 _atom_site_type_symbol
 _atom_site_label
 _atom_site_symmetry_multiplicity
 _atom_site_fract_x
 _atom_site_fract_y
 _atom_site_fract_z
 _atom_site_occupancy
  Zr  Zr0  1  0.800508  0.289400  0.073874  1
  Zr  Zr1  1  0.215526  0.289405  0.488891  1
  Zr  Zr2  1  0.195199  0.695198  0.499999  1
  Zr  Zr3  1  0.215526  0.726634  0.926126  1
  Zr  Zr4  1  0.800510  0.726633  0.511102  1
  Zr  Zr5  1  0.772223  0.272223  0.500003  1
  Zr  Zr6  1  0.377736  0.121082  0.743346  1
  Zr  Zr7  1  0.377735  0.634391  0.256655  1
  Ga  Ga8  1  0.983359  0.483361  0.500001  1
  Ga  Ga9  1  0.157634  0.341303  0.183655  1
  Ga  Ga10  1  0.157642  0.973973  0.816339  1
  Ga  Ga11  1  0.149693  0.351238  0.798446  1
  Ga  Ga12  1  0.552790  0.351242  0.201551  1
  Ga  Ga13  1  0.844131  0.653653  0.809510  1
  Ga  Ga14  1  0.844136  0.034616  0.190486  1
  Ga  Ga15  1  0.843345  0.655802  0.187527  1
  Ga  Ga16  1  0.468274  0.655815  0.812472  1
  Ga  Ga17  1  0.375481  0.124952  0.250537  1
  Ga  Ga18  1  0.874423  0.124946  0.749470  1
  Ga  Ga19  1  0.620739  0.866531  0.245790  1
  Ga  Ga20  1  0.620741  0.374955  0.754215  1
  Ga  Ga21  1  0.614110  0.875793  0.738321  1
  Ga  Ga22  1  0.137475  0.875792  0.261681  1
  Rh  Rh23  1  0.999223  0.001037  0.502402  1
  Rh  Rh24  1  0.498633  0.001045  0.001824  1
  Rh  Rh25  1  0.497451  0.497452  0.000002  1
  Rh  Rh26  1  0.498633  0.496821  0.497597  1
  Rh  Rh27  1  0.999218  0.496809  0.998170  1
  Rh  Rh28  1  0.998782  0.998782  0.000004  1
  Rh  Rh29  1  0.509118  0.009116  0.500008  1
