# generated using pymatgen
data_Na2Ho(B3Ir4)2
_symmetry_space_group_name_H-M   'P 1'
_cell_length_a   9.92627410
_cell_length_b   9.07819776
_cell_length_c   5.60947200
_cell_angle_alpha   81.33223968
_cell_angle_beta   64.70463053
_cell_angle_gamma   33.96312350
_symmetry_Int_Tables_number   1
_chemical_formula_structural   Na2Ho(B3Ir4)2
_chemical_formula_sum   'Na2 Ho1 B6 Ir8'
_cell_volume   233.63668200
_cell_formula_units_Z   1
loop_
 _symmetry_equiv_pos_site_id
 _symmetry_equiv_pos_as_xyz
  1  'x, y, z'
loop_
 _atom_site_type_symbol
 _atom_site_label
 _atom_site_symmetry_multiplicity
 _atom_site_fract_x
 _atom_site_fract_y
 _atom_site_fract_z
 _atom_site_occupancy
  Na  Na0  1  0.184269  0.184269  0.815731  1
  Na  Na1  1  0.815731  0.815731  0.184269  1
  Ho  Ho2  1  0.000000  0.000000  0.000000  1
  B  B3  1  0.828389  0.519722  0.480278  1
  B  B4  1  0.171611  0.480278  0.519722  1
  B  B5  1  0.480278  0.171611  0.828389  1
  B  B6  1  0.670517  0.329483  0.670517  1
  B  B7  1  0.519722  0.828389  0.171611  1
  B  B8  1  0.329483  0.670517  0.329483  1
  Ir  Ir9  1  0.413956  0.413956  0.586044  1
  Ir  Ir10  1  0.585539  0.585539  0.914461  1
  Ir  Ir11  1  0.085539  0.085539  0.414461  1
  Ir  Ir12  1  0.914461  0.914461  0.585539  1
  Ir  Ir13  1  0.586044  0.586044  0.413956  1
  Ir  Ir14  1  0.250000  0.250000  0.250000  1
  Ir  Ir15  1  0.414461  0.414461  0.085539  1
  Ir  Ir16  1  0.750000  0.750000  0.750000  1
