# generated using pymatgen
data_TbPr19(Ga5Te)2
_symmetry_space_group_name_H-M   'P 1'
_cell_length_a   8.03920300
_cell_length_b   8.03920300
_cell_length_c   14.47778700
_cell_angle_alpha   90.00000000
_cell_angle_beta   90.00000000
_cell_angle_gamma   90.00000000
_symmetry_Int_Tables_number   1
_chemical_formula_structural   TbPr19(Ga5Te)2
_chemical_formula_sum   'Tb1 Pr19 Ga10 Te2'
_cell_volume   935.68178149
_cell_formula_units_Z   1
loop_
 _symmetry_equiv_pos_site_id
 _symmetry_equiv_pos_as_xyz
  1  'x, y, z'
loop_
 _atom_site_type_symbol
 _atom_site_label
 _atom_site_symmetry_multiplicity
 _atom_site_fract_x
 _atom_site_fract_y
 _atom_site_fract_z
 _atom_site_occupancy
  Tb  Tb0  1  0.000000  0.500000  0.766013  1
  Pr  Pr1  1  0.826609  0.839831  0.607870  1
  Pr  Pr2  1  0.172104  0.840607  0.100989  1
  Pr  Pr3  1  0.160810  0.826391  0.393642  1
  Pr  Pr4  1  0.839190  0.173609  0.393642  1
  Pr  Pr5  1  0.673609  0.660810  0.393642  1
  Pr  Pr6  1  0.660169  0.326609  0.607870  1
  Pr  Pr7  1  0.339831  0.673391  0.607870  1
  Pr  Pr8  1  0.000000  0.500000  0.203574  1
  Pr  Pr9  1  0.659393  0.672104  0.100989  1
  Pr  Pr10  1  0.673726  0.340764  0.898360  1
  Pr  Pr11  1  0.840764  0.826274  0.898360  1
  Pr  Pr12  1  0.326391  0.339190  0.393642  1
  Pr  Pr13  1  0.173391  0.160169  0.607870  1
  Pr  Pr14  1  0.827896  0.159393  0.100989  1
  Pr  Pr15  1  0.326274  0.659236  0.898360  1
  Pr  Pr16  1  0.340607  0.327896  0.100989  1
  Pr  Pr17  1  0.500000  0.000000  0.229389  1
  Pr  Pr18  1  0.159236  0.173726  0.898360  1
  Pr  Pr19  1  0.500000  0.000000  0.794855  1
  Ga  Ga20  1  0.624204  0.377476  0.253912  1
  Ga  Ga21  1  0.122241  0.871648  0.747178  1
  Ga  Ga22  1  0.371648  0.377759  0.747178  1
  Ga  Ga23  1  0.375796  0.622524  0.253912  1
  Ga  Ga24  1  0.877476  0.875796  0.253912  1
  Ga  Ga25  1  0.628352  0.622241  0.747178  1
  Ga  Ga26  1  0.877759  0.128352  0.747178  1
  Ga  Ga27  1  0.500000  0.000000  0.007068  1
  Ga  Ga28  1  0.122524  0.124204  0.253912  1
  Ga  Ga29  1  0.000000  0.500000  0.988983  1
  Te  Te30  1  0.000000  0.500000  0.516454  1
  Te  Te31  1  0.500000  0.000000  0.485860  1
