# generated using pymatgen
data_HfSc(Ga2Ni)2
_symmetry_space_group_name_H-M   'P 1'
_cell_length_a   5.20064837
_cell_length_b   5.20064866
_cell_length_c   6.36284600
_cell_angle_alpha   90.00000000
_cell_angle_beta   90.00000000
_cell_angle_gamma   133.88709967
_symmetry_Int_Tables_number   1
_chemical_formula_structural   HfSc(Ga2Ni)2
_chemical_formula_sum   'Hf1 Sc1 Ga4 Ni2'
_cell_volume   124.02958407
_cell_formula_units_Z   1
loop_
 _symmetry_equiv_pos_site_id
 _symmetry_equiv_pos_as_xyz
  1  'x, y, z'
loop_
 _atom_site_type_symbol
 _atom_site_label
 _atom_site_symmetry_multiplicity
 _atom_site_fract_x
 _atom_site_fract_y
 _atom_site_fract_z
 _atom_site_occupancy
  Hf  Hf0  1  0.924546  0.075454  0.250000  1
  Sc  Sc1  1  0.075333  0.924667  0.750000  1
  Ga  Ga2  1  0.634641  0.365359  0.451372  1
  Ga  Ga3  1  0.365424  0.634576  0.548095  1
  Ga  Ga4  1  0.365424  0.634576  0.951905  1
  Ga  Ga5  1  0.634641  0.365359  0.048628  1
  Ni  Ni6  1  0.205567  0.794433  0.250000  1
  Ni  Ni7  1  0.794423  0.205577  0.750000  1
