# generated using pymatgen
data_ErLu4(SiBi)2
_symmetry_space_group_name_H-M   'P 1'
_cell_length_a   8.49908350
_cell_length_b   8.52767504
_cell_length_c   7.78377659
_cell_angle_alpha   89.91565985
_cell_angle_beta   89.84645503
_cell_angle_gamma   125.72898867
_symmetry_Int_Tables_number   1
_chemical_formula_structural   ErLu4(SiBi)2
_chemical_formula_sum   'Er2 Lu8 Si4 Bi4'
_cell_volume   457.96388039
_cell_formula_units_Z   2
loop_
 _symmetry_equiv_pos_site_id
 _symmetry_equiv_pos_as_xyz
  1  'x, y, z'
loop_
 _atom_site_type_symbol
 _atom_site_label
 _atom_site_symmetry_multiplicity
 _atom_site_fract_x
 _atom_site_fract_y
 _atom_site_fract_z
 _atom_site_occupancy
  Er  Er0  1  0.713445  0.957322  0.664133  1
  Er  Er1  1  0.286555  0.042678  0.335867  1
  Lu  Lu2  1  0.042496  0.282866  0.337003  1
  Lu  Lu3  1  0.957504  0.717134  0.662997  1
  Lu  Lu4  1  0.457640  0.217122  0.837149  1
  Lu  Lu5  1  0.783888  0.543092  0.163179  1
  Lu  Lu6  1  0.542360  0.782878  0.162851  1
  Lu  Lu7  1  0.216112  0.456908  0.836821  1
  Lu  Lu8  1  0.000000  0.000000  0.000000  1
  Lu  Lu9  1  0.500000  0.500000  0.500000  1
  Si  Si10  1  0.363852  0.364851  0.133938  1
  Si  Si11  1  0.636148  0.635149  0.866062  1
  Si  Si12  1  0.137131  0.137114  0.635858  1
  Si  Si13  1  0.862869  0.862886  0.364142  1
  Bi  Bi14  1  0.791978  0.208032  0.002774  1
  Bi  Bi15  1  0.208023  0.791968  0.997226  1
  Bi  Bi16  1  0.710331  0.296182  0.501581  1
  Bi  Bi17  1  0.289669  0.703818  0.498419  1
