# generated using pymatgen
data_CsYSb2Se5
_symmetry_space_group_name_H-M   'P 1'
_cell_length_a   4.12091800
_cell_length_b   12.38276800
_cell_length_c   22.92281000
_cell_angle_alpha   90.00000000
_cell_angle_beta   90.00000000
_cell_angle_gamma   90.00000000
_symmetry_Int_Tables_number   1
_chemical_formula_structural   CsYSb2Se5
_chemical_formula_sum   'Cs4 Y4 Sb8 Se20'
_cell_volume   1169.71366544
_cell_formula_units_Z   4
loop_
 _symmetry_equiv_pos_site_id
 _symmetry_equiv_pos_as_xyz
  1  'x, y, z'
loop_
 _atom_site_type_symbol
 _atom_site_label
 _atom_site_symmetry_multiplicity
 _atom_site_fract_x
 _atom_site_fract_y
 _atom_site_fract_z
 _atom_site_occupancy
  Cs  Cs0  1  0.250000  0.492325  0.210635  1
  Cs  Cs1  1  0.750000  0.507675  0.789365  1
  Cs  Cs2  1  0.750000  0.992325  0.289365  1
  Cs  Cs3  1  0.250000  0.007675  0.710635  1
  Y  Y4  1  0.250000  0.364181  0.022519  1
  Y  Y5  1  0.750000  0.635819  0.977481  1
  Y  Y6  1  0.750000  0.864181  0.477481  1
  Y  Y7  1  0.250000  0.135819  0.522519  1
  Sb  Sb8  1  0.250000  0.810388  0.119750  1
  Sb  Sb9  1  0.750000  0.189612  0.880250  1
  Sb  Sb10  1  0.750000  0.310388  0.380250  1
  Sb  Sb11  1  0.250000  0.689612  0.619750  1
  Sb  Sb12  1  0.250000  0.595806  0.428884  1
  Sb  Sb13  1  0.750000  0.404194  0.571116  1
  Sb  Sb14  1  0.750000  0.095806  0.071116  1
  Sb  Sb15  1  0.250000  0.904194  0.928884  1
  Se  Se16  1  0.250000  0.802634  0.393484  1
  Se  Se17  1  0.750000  0.197366  0.606516  1
  Se  Se18  1  0.750000  0.302634  0.106516  1
  Se  Se19  1  0.250000  0.697366  0.893484  1
  Se  Se20  1  0.250000  0.257242  0.306232  1
  Se  Se21  1  0.750000  0.742758  0.693768  1
  Se  Se22  1  0.750000  0.757242  0.193768  1
  Se  Se23  1  0.250000  0.242758  0.806232  1
  Se  Se24  1  0.250000  0.356409  0.482107  1
  Se  Se25  1  0.750000  0.643591  0.517893  1
  Se  Se26  1  0.750000  0.856409  0.017893  1
  Se  Se27  1  0.250000  0.143591  0.982107  1
  Se  Se28  1  0.250000  0.026163  0.151261  1
  Se  Se29  1  0.750000  0.973837  0.848739  1
  Se  Se30  1  0.750000  0.526163  0.348739  1
  Se  Se31  1  0.250000  0.473837  0.651261  1
  Se  Se32  1  0.250000  0.583563  0.059202  1
  Se  Se33  1  0.750000  0.416437  0.940798  1
  Se  Se34  1  0.750000  0.083563  0.440798  1
  Se  Se35  1  0.250000  0.916437  0.559202  1
