# generated using pymatgen
data_Yb6DyY3Sn8
_symmetry_space_group_name_H-M   'P 1'
_cell_length_a   7.84298100
_cell_length_b   8.44982900
_cell_length_c   16.06624301
_cell_angle_alpha   90.00380974
_cell_angle_beta   90.00000000
_cell_angle_gamma   90.00000000
_symmetry_Int_Tables_number   1
_chemical_formula_structural   Yb6DyY3Sn8
_chemical_formula_sum   'Yb12 Dy2 Y6 Sn16'
_cell_volume   1064.73961767
_cell_formula_units_Z   2
loop_
 _symmetry_equiv_pos_site_id
 _symmetry_equiv_pos_as_xyz
  1  'x, y, z'
loop_
 _atom_site_type_symbol
 _atom_site_label
 _atom_site_symmetry_multiplicity
 _atom_site_fract_x
 _atom_site_fract_y
 _atom_site_fract_z
 _atom_site_occupancy
  Yb  Yb0  1  0.505059  0.688743  0.592756  1
  Yb  Yb1  1  0.005059  0.811257  0.907244  1
  Yb  Yb2  1  0.494937  0.311232  0.092738  1
  Yb  Yb3  1  0.994937  0.188768  0.407262  1
  Yb  Yb4  1  0.494923  0.311224  0.407252  1
  Yb  Yb5  1  0.994923  0.188776  0.092748  1
  Yb  Yb6  1  0.505046  0.688758  0.907230  1
  Yb  Yb7  1  0.005046  0.811242  0.592770  1
  Yb  Yb8  1  0.835403  0.512325  0.749991  1
  Yb  Yb9  1  0.335403  0.987675  0.750009  1
  Yb  Yb10  1  0.164626  0.487618  0.249996  1
  Yb  Yb11  1  0.664626  0.012382  0.250004  1
  Dy  Dy12  1  0.672723  0.165978  0.877927  1
  Dy  Dy13  1  0.172723  0.334022  0.622073  1
  Y  Y14  1  0.672880  0.165935  0.622040  1
  Y  Y15  1  0.172880  0.334065  0.877960  1
  Y  Y16  1  0.327192  0.834072  0.122065  1
  Y  Y17  1  0.827192  0.665928  0.377935  1
  Y  Y18  1  0.327185  0.834029  0.377931  1
  Y  Y19  1  0.827185  0.665971  0.122069  1
  Sn  Sn20  1  0.671765  0.964520  0.459274  1
  Sn  Sn21  1  0.171765  0.535480  0.040726  1
  Sn  Sn22  1  0.328292  0.035508  0.959247  1
  Sn  Sn23  1  0.828292  0.464492  0.540753  1
  Sn  Sn24  1  0.328196  0.035675  0.540784  1
  Sn  Sn25  1  0.828196  0.464325  0.959216  1
  Sn  Sn26  1  0.671775  0.964607  0.040676  1
  Sn  Sn27  1  0.171775  0.535393  0.459324  1
  Sn  Sn28  1  0.471595  0.374783  0.750086  1
  Sn  Sn29  1  0.971595  0.125217  0.749914  1
  Sn  Sn30  1  0.528405  0.625053  0.250013  1
  Sn  Sn31  1  0.028405  0.874947  0.249987  1
  Sn  Sn32  1  0.717567  0.873500  0.750056  1
  Sn  Sn33  1  0.217567  0.626500  0.749944  1
  Sn  Sn34  1  0.282432  0.126616  0.250002  1
  Sn  Sn35  1  0.782432  0.373384  0.249998  1
