# generated using pymatgen
data_Er16Tl2CdInNiRh3
_symmetry_space_group_name_H-M   'P 1'
_cell_length_a   9.57323009
_cell_length_b   9.57976062
_cell_length_c   9.57323000
_cell_angle_alpha   59.93665923
_cell_angle_beta   60.02929813
_cell_angle_gamma   59.93666801
_symmetry_Int_Tables_number   1
_chemical_formula_structural   Er16Tl2CdInNiRh3
_chemical_formula_sum   'Er16 Tl2 Cd1 In1 Ni1 Rh3'
_cell_volume   620.34903007
_cell_formula_units_Z   1
loop_
 _symmetry_equiv_pos_site_id
 _symmetry_equiv_pos_as_xyz
  1  'x, y, z'
loop_
 _atom_site_type_symbol
 _atom_site_label
 _atom_site_symmetry_multiplicity
 _atom_site_fract_x
 _atom_site_fract_y
 _atom_site_fract_z
 _atom_site_occupancy
  Er  Er0  1  0.188094  0.190358  0.810247  1
  Er  Er1  1  0.438565  0.057006  0.062694  1
  Er  Er2  1  0.435123  0.061431  0.435123  1
  Er  Er3  1  0.063200  0.436645  0.063200  1
  Er  Er4  1  0.645925  0.054450  0.645925  1
  Er  Er5  1  0.189202  0.812876  0.809904  1
  Er  Er6  1  0.062694  0.057006  0.438565  1
  Er  Er7  1  0.810247  0.190358  0.188094  1
  Er  Er8  1  0.809904  0.812876  0.189202  1
  Er  Er9  1  0.651041  0.645592  0.048529  1
  Er  Er10  1  0.654694  0.650508  0.654694  1
  Er  Er11  1  0.064839  0.435481  0.435786  1
  Er  Er12  1  0.048529  0.645592  0.651041  1
  Er  Er13  1  0.811435  0.191114  0.811435  1
  Er  Er14  1  0.435786  0.435481  0.064839  1
  Er  Er15  1  0.187995  0.811832  0.187995  1
  Tl  Tl16  1  0.413866  0.419892  0.755046  1
  Tl  Tl17  1  0.755046  0.419892  0.413866  1
  Cd  Cd18  1  0.417430  0.749573  0.417430  1
  In  In19  1  0.414781  0.418978  0.414781  1
  Ni  Ni20  1  0.859543  0.424024  0.859543  1
  Rh  Rh21  1  0.858405  0.860347  0.427403  1
  Rh  Rh22  1  0.427403  0.860347  0.858405  1
  Rh  Rh23  1  0.856257  0.858337  0.856257  1
