# generated using pymatgen
data_Th3(Al3Re)4
_symmetry_space_group_name_H-M   'P 1'
_cell_length_a   9.02843800
_cell_length_b   9.02844002
_cell_length_c   9.75803700
_cell_angle_alpha   90.00000000
_cell_angle_beta   90.00000000
_cell_angle_gamma   119.99999259
_symmetry_Int_Tables_number   1
_chemical_formula_structural   Th3(Al3Re)4
_chemical_formula_sum   'Th6 Al24 Re8'
_cell_volume   688.84016477
_cell_formula_units_Z   2
loop_
 _symmetry_equiv_pos_site_id
 _symmetry_equiv_pos_as_xyz
  1  'x, y, z'
loop_
 _atom_site_type_symbol
 _atom_site_label
 _atom_site_symmetry_multiplicity
 _atom_site_fract_x
 _atom_site_fract_y
 _atom_site_fract_z
 _atom_site_occupancy
  Th  Th0  1  0.194595  0.389190  0.250000  1
  Th  Th1  1  0.805405  0.610810  0.750000  1
  Th  Th2  1  0.610810  0.805405  0.250000  1
  Th  Th3  1  0.389190  0.194595  0.750000  1
  Th  Th4  1  0.194595  0.805405  0.250000  1
  Th  Th5  1  0.805405  0.194595  0.750000  1
  Al  Al6  1  0.333333  0.666667  0.004639  1
  Al  Al7  1  0.666667  0.333333  0.995361  1
  Al  Al8  1  0.666667  0.333333  0.504639  1
  Al  Al9  1  0.333333  0.666667  0.495361  1
  Al  Al10  1  0.162977  0.325953  0.574160  1
  Al  Al11  1  0.837023  0.674047  0.425840  1
  Al  Al12  1  0.674047  0.837023  0.574160  1
  Al  Al13  1  0.837023  0.674047  0.074160  1
  Al  Al14  1  0.325953  0.162977  0.425840  1
  Al  Al15  1  0.162977  0.325953  0.925840  1
  Al  Al16  1  0.162977  0.837023  0.574160  1
  Al  Al17  1  0.325953  0.162977  0.074160  1
  Al  Al18  1  0.837023  0.162977  0.425840  1
  Al  Al19  1  0.674047  0.837023  0.925840  1
  Al  Al20  1  0.837023  0.162977  0.074160  1
  Al  Al21  1  0.162977  0.837023  0.925840  1
  Al  Al22  1  0.563153  0.126304  0.250000  1
  Al  Al23  1  0.436847  0.873696  0.750000  1
  Al  Al24  1  0.873696  0.436847  0.250000  1
  Al  Al25  1  0.126304  0.563153  0.750000  1
  Al  Al26  1  0.563153  0.436847  0.250000  1
  Al  Al27  1  0.436847  0.563153  0.750000  1
  Al  Al28  1  0.000000  0.000000  0.250000  1
  Al  Al29  1  0.000000  0.000000  0.750000  1
  Re  Re30  1  0.500000  0.000000  0.000000  1
  Re  Re31  1  0.000000  0.500000  0.000000  1
  Re  Re32  1  0.500000  0.000000  0.500000  1
  Re  Re33  1  0.500000  0.500000  0.000000  1
  Re  Re34  1  0.000000  0.500000  0.500000  1
  Re  Re35  1  0.500000  0.500000  0.500000  1
  Re  Re36  1  0.000000  0.000000  0.000000  1
  Re  Re37  1  0.000000  0.000000  0.500000  1
