# generated using pymatgen
data_Ca2Zr5V2O16
_symmetry_space_group_name_H-M   'P 1'
_cell_length_a   12.04192959
_cell_length_b   12.04192976
_cell_length_c   12.04193000
_cell_angle_alpha   129.60445297
_cell_angle_beta   100.50648263
_cell_angle_gamma   100.37962491
_symmetry_Int_Tables_number   1
_chemical_formula_structural   Ca2Zr5V2O16
_chemical_formula_sum   'Ca8 Zr20 V8 O64'
_cell_volume   1217.34474474
_cell_formula_units_Z   4
loop_
 _symmetry_equiv_pos_site_id
 _symmetry_equiv_pos_as_xyz
  1  'x, y, z'
loop_
 _atom_site_type_symbol
 _atom_site_label
 _atom_site_symmetry_multiplicity
 _atom_site_fract_x
 _atom_site_fract_y
 _atom_site_fract_z
 _atom_site_occupancy
  Ca  Ca0  1  0.500361  0.793549  0.458651  1
  Ca  Ca1  1  0.834898  0.293549  0.293188  1
  Ca  Ca2  1  0.999229  0.206362  0.040128  1
  Ca  Ca3  1  0.666234  0.706362  0.207132  1
  Ca  Ca4  1  0.166234  0.959101  0.959872  1
  Ca  Ca5  1  0.499229  0.459101  0.792868  1
  Ca  Ca6  1  0.334898  0.041711  0.541349  1
  Ca  Ca7  1  0.000361  0.541711  0.706812  1
  Zr  Zr8  1  0.821745  0.981032  0.624841  1
  Zr  Zr9  1  0.856190  0.481032  0.159287  1
  Zr  Zr10  1  0.316950  0.374326  0.232001  1
  Zr  Zr11  1  0.642324  0.874326  0.057375  1
  Zr  Zr12  1  0.683942  0.025380  0.880474  1
  Zr  Zr13  1  0.644906  0.525380  0.341439  1
  Zr  Zr14  1  0.179129  0.628846  0.275644  1
  Zr  Zr15  1  0.853201  0.128846  0.449716  1
  Zr  Zr16  1  0.144906  0.803467  0.119526  1
  Zr  Zr17  1  0.183942  0.303467  0.658561  1
  Zr  Zr18  1  0.353201  0.903485  0.724356  1
  Zr  Zr19  1  0.679129  0.403485  0.550284  1
  Zr  Zr20  1  0.356190  0.196904  0.375159  1
  Zr  Zr21  1  0.321745  0.696904  0.840713  1
  Zr  Zr22  1  0.142324  0.084949  0.767999  1
  Zr  Zr23  1  0.816950  0.584949  0.942625  1
  Zr  Zr24  1  0.500900  0.144632  0.108122  1
  Zr  Zr25  1  0.536510  0.644632  0.643733  1
  Zr  Zr26  1  0.036510  0.392777  0.891878  1
  Zr  Zr27  1  0.000900  0.892777  0.356267  1
  V  V28  1  0.168483  0.463511  0.463450  1
  V  V29  1  0.500062  0.963511  0.295028  1
  V  V30  1  0.668483  0.205033  0.704972  1
  V  V31  1  0.000062  0.705033  0.536550  1
  V  V32  1  0.344718  0.552201  0.052057  1
  V  V33  1  0.000144  0.052201  0.207483  1
  V  V34  1  0.844718  0.792661  0.792517  1
  V  V35  1  0.500144  0.292661  0.947943  1
  O  O36  1  0.987245  0.571893  0.928494  1
  O  O37  1  0.143399  0.071893  0.584648  1
  O  O38  1  0.489703  0.680630  0.822612  1
  O  O39  1  0.358019  0.180630  0.190928  1
  O  O40  1  0.510595  0.427497  0.570075  1
  O  O41  1  0.357423  0.927497  0.916903  1
  O  O42  1  0.013936  0.322222  0.675717  1
  O  O43  1  0.146505  0.822222  0.308286  1
  O  O44  1  0.857423  0.940519  0.429925  1
  O  O45  1  0.010595  0.440519  0.083097  1
  O  O46  1  0.646505  0.338219  0.324283  1
  O  O47  1  0.513936  0.838219  0.691714  1
  O  O48  1  0.643399  0.058751  0.071506  1
  O  O49  1  0.487245  0.558751  0.415352  1
  O  O50  1  0.858019  0.667090  0.177388  1
  O  O51  1  0.989703  0.167090  0.809072  1
  O  O52  1  0.164427  0.034333  0.209580  1
  O  O53  1  0.324753  0.534333  0.869907  1
  O  O54  1  0.665305  0.963323  0.288776  1
  O  O55  1  0.174548  0.463323  0.298018  1
  O  O56  1  0.333810  0.963736  0.284934  1
  O  O57  1  0.178802  0.463736  0.629927  1
  O  O58  1  0.833256  0.033956  0.213970  1
  O  O59  1  0.319986  0.533956  0.200700  1
  O  O60  1  0.678802  0.048876  0.715066  1
  O  O61  1  0.833810  0.548876  0.370073  1
  O  O62  1  0.819986  0.619286  0.786030  1
  O  O63  1  0.333256  0.119286  0.799300  1
  O  O64  1  0.824753  0.954846  0.790420  1
  O  O65  1  0.664427  0.454846  0.130093  1
  O  O66  1  0.674548  0.376529  0.711224  1
  O  O67  1  0.165305  0.876529  0.701982  1
  O  O68  1  0.529225  0.114837  0.919019  1
  O  O69  1  0.695818  0.614837  0.585610  1
  O  O70  1  0.031307  0.658229  0.362480  1
  O  O71  1  0.795749  0.158229  0.626922  1
  O  O72  1  0.968369  0.882831  0.594762  1
  O  O73  1  0.788069  0.382831  0.914462  1
  O  O74  1  0.472156  0.331952  0.134179  1
  O  O75  1  0.697773  0.831952  0.859796  1
  O  O76  1  0.288069  0.373607  0.405238  1
  O  O77  1  0.468369  0.873607  0.085538  1
  O  O78  1  0.197773  0.337977  0.865821  1
  O  O79  1  0.972156  0.837977  0.140204  1
  O  O80  1  0.195818  0.610207  0.080981  1
  O  O81  1  0.029225  0.110207  0.414390  1
  O  O82  1  0.295749  0.668827  0.637520  1
  O  O83  1  0.531307  0.168827  0.373078  1
  O  O84  1  0.180127  0.748379  0.928325  1
  O  O85  1  0.320054  0.248380  0.568252  1
  O  O86  1  0.680406  0.680406  0.000000  1
  O  O87  1  0.180406  0.180406  0.000000  1
  O  O88  1  0.820485  0.320485  0.500000  1
  O  O89  1  0.320485  0.820485  0.500000  1
  O  O90  1  0.680127  0.751803  0.431748  1
  O  O91  1  0.820054  0.251803  0.071675  1
  O  O92  1  0.031256  0.247505  0.286172  1
  O  O93  1  0.461332  0.747505  0.216249  1
  O  O94  1  0.536302  0.036302  0.500000  1
  O  O95  1  0.036302  0.536302  0.500000  1
  O  O96  1  0.966738  0.966738  0.000000  1
  O  O97  1  0.466738  0.466738  0.000000  1
  O  O98  1  0.531256  0.245083  0.783751  1
  O  O99  1  0.961332  0.745083  0.713828  1
