# generated using pymatgen
data_Yb12Ga3Si5Pd8
_symmetry_space_group_name_H-M   'P 1'
_cell_length_a   5.66815600
_cell_length_b   8.00482925
_cell_length_c   13.42935300
_cell_angle_alpha   90.13202300
_cell_angle_beta   90.00000000
_cell_angle_gamma   90.00000000
_symmetry_Int_Tables_number   1
_chemical_formula_structural   Yb12Ga3Si5Pd8
_chemical_formula_sum   'Yb12 Ga3 Si5 Pd8'
_cell_volume   609.32332563
_cell_formula_units_Z   1
loop_
 _symmetry_equiv_pos_site_id
 _symmetry_equiv_pos_as_xyz
  1  'x, y, z'
loop_
 _atom_site_type_symbol
 _atom_site_label
 _atom_site_symmetry_multiplicity
 _atom_site_fract_x
 _atom_site_fract_y
 _atom_site_fract_z
 _atom_site_occupancy
  Yb  Yb0  1  0.652925  0.248267  0.250580  1
  Yb  Yb1  1  0.346236  0.751939  0.749801  1
  Yb  Yb2  1  0.346236  0.748061  0.250199  1
  Yb  Yb3  1  0.652925  0.251733  0.749420  1
  Yb  Yb4  1  0.144852  0.393721  0.102484  1
  Yb  Yb5  1  0.853789  0.607536  0.897389  1
  Yb  Yb6  1  0.855208  0.604262  0.602061  1
  Yb  Yb7  1  0.855208  0.895738  0.397939  1
  Yb  Yb8  1  0.139860  0.389953  0.398288  1
  Yb  Yb9  1  0.139860  0.110047  0.601712  1
  Yb  Yb10  1  0.144852  0.106279  0.897516  1
  Yb  Yb11  1  0.853789  0.892464  0.102611  1
  Ga  Ga12  1  0.643849  0.250000  0.000000  1
  Ga  Ga13  1  0.355313  0.750000  0.000000  1
  Ga  Ga14  1  0.361659  0.750000  0.500000  1
  Si  Si15  1  0.157034  0.099148  0.250318  1
  Si  Si16  1  0.841321  0.898059  0.747577  1
  Si  Si17  1  0.841321  0.601941  0.252423  1
  Si  Si18  1  0.157034  0.400852  0.749682  1
  Si  Si19  1  0.639588  0.250000  0.500000  1
  Pd  Pd20  1  0.373068  0.035227  0.093655  1
  Pd  Pd21  1  0.628400  0.965351  0.905739  1
  Pd  Pd22  1  0.627416  0.973103  0.591212  1
  Pd  Pd23  1  0.627416  0.526897  0.408788  1
  Pd  Pd24  1  0.379688  0.043149  0.407910  1
  Pd  Pd25  1  0.379688  0.456851  0.592090  1
  Pd  Pd26  1  0.373068  0.464773  0.906345  1
  Pd  Pd27  1  0.628400  0.534649  0.094261  1
