# generated using pymatgen
data_Tm4BPt5Rh7
_symmetry_space_group_name_H-M   'P 1'
_cell_length_a   6.99900740
_cell_length_b   6.99900877
_cell_length_c   6.99900900
_cell_angle_alpha   108.71880598
_cell_angle_beta   109.84874668
_cell_angle_gamma   109.84872589
_symmetry_Int_Tables_number   1
_chemical_formula_structural   Tm4BPt5Rh7
_chemical_formula_sum   'Tm4 B1 Pt5 Rh7'
_cell_volume   263.89522314
_cell_formula_units_Z   1
loop_
 _symmetry_equiv_pos_site_id
 _symmetry_equiv_pos_as_xyz
  1  'x, y, z'
loop_
 _atom_site_type_symbol
 _atom_site_label
 _atom_site_symmetry_multiplicity
 _atom_site_fract_x
 _atom_site_fract_y
 _atom_site_fract_z
 _atom_site_occupancy
  Tm  Tm0  1  0.995433  0.997722  0.497738  1
  Tm  Tm1  1  0.004567  0.502262  0.002278  1
  Tm  Tm2  1  0.500000  0.997722  0.002278  1
  Tm  Tm3  1  0.500000  0.502288  0.497712  1
  B  B4  1  0.000000  0.999997  0.000003  1
  Pt  Pt5  1  0.749858  0.250024  0.500128  1
  Pt  Pt6  1  0.749886  0.499889  0.249756  1
  Pt  Pt7  1  0.500000  0.250026  0.749974  1
  Pt  Pt8  1  0.250142  0.499872  0.749976  1
  Pt  Pt9  1  0.250114  0.750244  0.500111  1
  Rh  Rh10  1  0.500000  0.750009  0.249991  1
  Rh  Rh11  1  0.740488  0.740076  0.999604  1
  Rh  Rh12  1  0.259512  0.000396  0.259924  1
  Rh  Rh13  1  0.000022  0.257932  0.257977  1
  Rh  Rh14  1  0.259579  0.259136  0.999621  1
  Rh  Rh15  1  0.740421  0.000379  0.740864  1
  Rh  Rh16  1  0.999978  0.742023  0.742068  1
