# generated using pymatgen
data_Ti10GaSnSb4
_symmetry_space_group_name_H-M   'P 1'
_cell_length_a   7.89931602
_cell_length_b   7.89931302
_cell_length_c   7.89931709
_cell_angle_alpha   96.50145742
_cell_angle_beta   96.50858623
_cell_angle_gamma   140.66196562
_symmetry_Int_Tables_number   1
_chemical_formula_structural   Ti10GaSnSb4
_chemical_formula_sum   'Ti10 Ga1 Sn1 Sb4'
_cell_volume   294.22258122
_cell_formula_units_Z   1
loop_
 _symmetry_equiv_pos_site_id
 _symmetry_equiv_pos_as_xyz
  1  'x, y, z'
loop_
 _atom_site_type_symbol
 _atom_site_label
 _atom_site_symmetry_multiplicity
 _atom_site_fract_x
 _atom_site_fract_y
 _atom_site_fract_z
 _atom_site_occupancy
  Ti  Ti0  1  0.566024  0.713671  0.297925  1
  Ti  Ti1  1  0.415743  0.268088  0.702064  1
  Ti  Ti2  1  0.749983  0.250000  0.499983  1
  Ti  Ti3  1  0.249975  0.750000  0.499975  1
  Ti  Ti4  1  0.713586  0.415761  0.147682  1
  Ti  Ti5  1  0.268064  0.565881  0.852331  1
  Ti  Ti6  1  0.933976  0.231912  0.147655  1
  Ti  Ti7  1  0.231921  0.084239  0.297827  1
  Ti  Ti8  1  0.084254  0.786329  0.852352  1
  Ti  Ti9  1  0.786450  0.934119  0.702184  1
  Ga  Ga10  1  0.250037  0.250000  0.000037  1
  Sn  Sn11  1  0.750009  0.750000  0.000009  1
  Sb  Sb12  1  0.336009  0.836048  0.171975  1
  Sb  Sb13  1  0.163989  0.335958  0.500012  1
  Sb  Sb14  1  0.664054  0.164042  0.828030  1
  Sb  Sb15  1  0.835927  0.663952  0.499961  1
