# generated using pymatgen
data_Yb6Al25Os7
_symmetry_space_group_name_H-M   'P 1'
_cell_length_a   8.91362904
_cell_length_b   8.91362908
_cell_length_c   9.62528487
_cell_angle_alpha   90.12025079
_cell_angle_beta   89.87974730
_cell_angle_gamma   120.19053142
_symmetry_Int_Tables_number   1
_chemical_formula_structural   Yb6Al25Os7
_chemical_formula_sum   'Yb6 Al25 Os7'
_cell_volume   661.02068145
_cell_formula_units_Z   1
loop_
 _symmetry_equiv_pos_site_id
 _symmetry_equiv_pos_as_xyz
  1  'x, y, z'
loop_
 _atom_site_type_symbol
 _atom_site_label
 _atom_site_symmetry_multiplicity
 _atom_site_fract_x
 _atom_site_fract_y
 _atom_site_fract_z
 _atom_site_occupancy
  Yb  Yb0  1  0.193836  0.385743  0.251008  1
  Yb  Yb1  1  0.806164  0.614257  0.748992  1
  Yb  Yb2  1  0.614257  0.806164  0.251008  1
  Yb  Yb3  1  0.385743  0.193836  0.748992  1
  Yb  Yb4  1  0.196483  0.803517  0.255120  1
  Yb  Yb5  1  0.803517  0.196483  0.744880  1
  Al  Al6  1  0.326320  0.673680  0.000688  1
  Al  Al7  1  0.673680  0.326320  0.999312  1
  Al  Al8  1  0.666429  0.333571  0.504443  1
  Al  Al9  1  0.333571  0.666429  0.495557  1
  Al  Al10  1  0.161187  0.324073  0.573322  1
  Al  Al11  1  0.838813  0.675927  0.426678  1
  Al  Al12  1  0.675927  0.838813  0.573322  1
  Al  Al13  1  0.852479  0.679976  0.082449  1
  Al  Al14  1  0.324073  0.161187  0.426678  1
  Al  Al15  1  0.147521  0.320024  0.917551  1
  Al  Al16  1  0.161455  0.838545  0.575699  1
  Al  Al17  1  0.320024  0.147521  0.082449  1
  Al  Al18  1  0.838545  0.161455  0.424301  1
  Al  Al19  1  0.679976  0.852479  0.917551  1
  Al  Al20  1  0.838854  0.161146  0.075299  1
  Al  Al21  1  0.161146  0.838854  0.924701  1
  Al  Al22  1  0.561329  0.117722  0.249909  1
  Al  Al23  1  0.438671  0.882278  0.750091  1
  Al  Al24  1  0.882278  0.438671  0.249909  1
  Al  Al25  1  0.117722  0.561329  0.750091  1
  Al  Al26  1  0.565887  0.434113  0.256867  1
  Al  Al27  1  0.434113  0.565887  0.743133  1
  Al  Al28  1  0.001747  0.998253  0.250602  1
  Al  Al29  1  0.998253  0.001747  0.749398  1
  Al  Al30  1  0.500000  0.500000  0.000000  1
  Os  Os31  1  0.500000  0.000000  0.000000  1
  Os  Os32  1  0.000000  0.500000  0.000000  1
  Os  Os33  1  0.500000  0.000000  0.500000  1
  Os  Os34  1  0.000000  0.500000  0.500000  1
  Os  Os35  1  0.500000  0.500000  0.500000  1
  Os  Os36  1  0.000000  0.000000  0.000000  1
  Os  Os37  1  0.000000  0.000000  0.500000  1
