# generated using pymatgen
data_Y3Tm13In4(RuRh)2
_symmetry_space_group_name_H-M   'P 1'
_cell_length_a   9.56763413
_cell_length_b   9.56228541
_cell_length_c   9.58222550
_cell_angle_alpha   59.96794128
_cell_angle_beta   59.91259031
_cell_angle_gamma   59.88612334
_symmetry_Int_Tables_number   1
_chemical_formula_structural   Y3Tm13In4(RuRh)2
_chemical_formula_sum   'Y3 Tm13 In4 Ru2 Rh2'
_cell_volume   618.79993138
_cell_formula_units_Z   1
loop_
 _symmetry_equiv_pos_site_id
 _symmetry_equiv_pos_as_xyz
  1  'x, y, z'
loop_
 _atom_site_type_symbol
 _atom_site_label
 _atom_site_symmetry_multiplicity
 _atom_site_fract_x
 _atom_site_fract_y
 _atom_site_fract_z
 _atom_site_occupancy
  Y  Y0  1  0.058022  0.058022  0.441978  1
  Y  Y1  1  0.442005  0.062463  0.435882  1
  Y  Y2  1  0.062463  0.442005  0.059652  1
  Tm  Tm3  1  0.042759  0.652219  0.652626  1
  Tm  Tm4  1  0.439748  0.439748  0.060252  1
  Tm  Tm5  1  0.652219  0.042759  0.652397  1
  Tm  Tm6  1  0.190257  0.808616  0.192618  1
  Tm  Tm7  1  0.191525  0.191525  0.808475  1
  Tm  Tm8  1  0.809010  0.809010  0.190990  1
  Tm  Tm9  1  0.445424  0.059194  0.056561  1
  Tm  Tm10  1  0.808690  0.190166  0.192717  1
  Tm  Tm11  1  0.059194  0.445424  0.438822  1
  Tm  Tm12  1  0.808616  0.190257  0.808509  1
  Tm  Tm13  1  0.190166  0.808690  0.808427  1
  Tm  Tm14  1  0.651795  0.651527  0.046965  1
  Tm  Tm15  1  0.651527  0.651795  0.649714  1
  In  In16  1  0.416578  0.417860  0.418207  1
  In  In17  1  0.748932  0.417544  0.417617  1
  In  In18  1  0.417544  0.748932  0.415906  1
  In  In19  1  0.417860  0.416578  0.747354  1
  Ru  Ru20  1  0.859617  0.857355  0.420495  1
  Ru  Ru21  1  0.857355  0.859617  0.862532  1
  Rh  Rh22  1  0.422041  0.856658  0.861615  1
  Rh  Rh23  1  0.856658  0.422041  0.859686  1
