# generated using pymatgen
data_Tm8B24Os2RuW
_symmetry_space_group_name_H-M   'P 1'
_cell_length_a   3.60765700
_cell_length_b   9.11421899
_cell_length_c   11.49904079
_cell_angle_alpha   89.93749600
_cell_angle_beta   90.00000000
_cell_angle_gamma   90.00000000
_symmetry_Int_Tables_number   1
_chemical_formula_structural   Tm8B24Os2RuW
_chemical_formula_sum   'Tm8 B24 Os2 Ru1 W1'
_cell_volume   378.09945831
_cell_formula_units_Z   1
loop_
 _symmetry_equiv_pos_site_id
 _symmetry_equiv_pos_as_xyz
  1  'x, y, z'
loop_
 _atom_site_type_symbol
 _atom_site_label
 _atom_site_symmetry_multiplicity
 _atom_site_fract_x
 _atom_site_fract_y
 _atom_site_fract_z
 _atom_site_occupancy
  Tm  Tm0  1  0.000000  0.321392  0.414464  1
  Tm  Tm1  1  0.000000  0.679981  0.586569  1
  Tm  Tm2  1  0.000000  0.822437  0.085322  1
  Tm  Tm3  1  0.000000  0.180676  0.913236  1
  Tm  Tm4  1  0.000000  0.941618  0.371541  1
  Tm  Tm5  1  0.000000  0.054293  0.626320  1
  Tm  Tm6  1  0.000000  0.443301  0.128756  1
  Tm  Tm7  1  0.000000  0.557417  0.874443  1
  B  B8  1  0.500000  0.554173  0.431611  1
  B  B9  1  0.500000  0.450556  0.562745  1
  B  B10  1  0.500000  0.053159  0.066483  1
  B  B11  1  0.500000  0.946338  0.933782  1
  B  B12  1  0.500000  0.748285  0.419022  1
  B  B13  1  0.500000  0.247587  0.577001  1
  B  B14  1  0.500000  0.248929  0.080843  1
  B  B15  1  0.500000  0.751101  0.920434  1
  B  B16  1  0.500000  0.791219  0.265119  1
  B  B17  1  0.500000  0.204267  0.736725  1
  B  B18  1  0.500000  0.290866  0.234571  1
  B  B19  1  0.500000  0.709582  0.767271  1
  B  B20  1  0.500000  0.631729  0.184555  1
  B  B21  1  0.500000  0.368226  0.818681  1
  B  B22  1  0.500000  0.130165  0.314655  1
  B  B23  1  0.500000  0.868609  0.685519  1
  B  B24  1  0.500000  0.981503  0.211676  1
  B  B25  1  0.500000  0.017038  0.787493  1
  B  B26  1  0.500000  0.482840  0.286846  1
  B  B27  1  0.500000  0.524187  0.713526  1
  B  B28  1  0.500000  0.606521  0.030458  1
  B  B29  1  0.500000  0.394928  0.972896  1
  B  B30  1  0.500000  0.102764  0.469187  1
  B  B31  1  0.500000  0.892738  0.528674  1
  Os  Os32  1  0.000000  0.136985  0.178956  1
  Os  Os33  1  0.000000  0.863199  0.822587  1
  Ru  Ru34  1  0.000000  0.638309  0.319745  1
  W  W35  1  0.000000  0.363081  0.678289  1
