# generated using pymatgen
data_La16Cd4CoTc3
_symmetry_space_group_name_H-M   'P 1'
_cell_length_a   9.96750977
_cell_length_b   9.96750962
_cell_length_c   9.96751029
_cell_angle_alpha   60.97028316
_cell_angle_beta   60.97028492
_cell_angle_gamma   60.97028075
_symmetry_Int_Tables_number   1
_chemical_formula_structural   La16Cd4CoTc3
_chemical_formula_sum   'La16 Cd4 Co1 Tc3'
_cell_volume   715.54406243
_cell_formula_units_Z   1
loop_
 _symmetry_equiv_pos_site_id
 _symmetry_equiv_pos_as_xyz
  1  'x, y, z'
loop_
 _atom_site_type_symbol
 _atom_site_label
 _atom_site_symmetry_multiplicity
 _atom_site_fract_x
 _atom_site_fract_y
 _atom_site_fract_z
 _atom_site_occupancy
  La  La0  1  0.943486  0.943486  0.556016  1
  La  La1  1  0.556960  0.940956  0.556960  1
  La  La2  1  0.556016  0.943486  0.943486  1
  La  La3  1  0.687932  0.687932  0.313262  1
  La  La4  1  0.156675  0.156675  0.537417  1
  La  La5  1  0.313262  0.687932  0.687932  1
  La  La6  1  0.154270  0.154270  0.154270  1
  La  La7  1  0.537417  0.156675  0.156675  1
  La  La8  1  0.312188  0.685976  0.312188  1
  La  La9  1  0.312188  0.312188  0.685976  1
  La  La10  1  0.687932  0.313262  0.687932  1
  La  La11  1  0.940956  0.556960  0.556960  1
  La  La12  1  0.556960  0.556960  0.940956  1
  La  La13  1  0.156675  0.537417  0.156675  1
  La  La14  1  0.685976  0.312188  0.312188  1
  La  La15  1  0.943486  0.556016  0.943486  1
  Cd  Cd16  1  0.235081  0.921446  0.921446  1
  Cd  Cd17  1  0.921487  0.921487  0.921487  1
  Cd  Cd18  1  0.921446  0.921446  0.235081  1
  Cd  Cd19  1  0.921446  0.235081  0.921446  1
  Co  Co20  1  0.362953  0.362953  0.362953  1
  Tc  Tc21  1  0.903480  0.365862  0.365862  1
  Tc  Tc22  1  0.365862  0.365862  0.903480  1
  Tc  Tc23  1  0.365862  0.903480  0.365862  1
