# generated using pymatgen
data_La9Gd11Si16
_symmetry_space_group_name_H-M   'P 1'
_cell_length_a   7.62319300
_cell_length_b   7.89598145
_cell_length_c   15.02607500
_cell_angle_alpha   89.89967405
_cell_angle_beta   90.12450234
_cell_angle_gamma   90.33070097
_symmetry_Int_Tables_number   1
_chemical_formula_structural   La9Gd11Si16
_chemical_formula_sum   'La9 Gd11 Si16'
_cell_volume   904.43981226
_cell_formula_units_Z   1
loop_
 _symmetry_equiv_pos_site_id
 _symmetry_equiv_pos_as_xyz
  1  'x, y, z'
loop_
 _atom_site_type_symbol
 _atom_site_label
 _atom_site_symmetry_multiplicity
 _atom_site_fract_x
 _atom_site_fract_y
 _atom_site_fract_z
 _atom_site_occupancy
  La  La0  1  0.974868  0.820476  0.099894  1
  La  La1  1  0.474235  0.679219  0.401237  1
  La  La2  1  0.524306  0.319631  0.901597  1
  La  La3  1  0.026658  0.180769  0.597462  1
  La  La4  1  0.027063  0.180259  0.899683  1
  La  La5  1  0.525234  0.320338  0.597129  1
  La  La6  1  0.473097  0.680615  0.100540  1
  La  La7  1  0.974495  0.820449  0.401062  1
  La  La8  1  0.683346  0.820237  0.879362  1
  Gd  Gd9  1  0.647676  0.989931  0.250900  1
  Gd  Gd10  1  0.148567  0.509897  0.250279  1
  Gd  Gd11  1  0.852751  0.488730  0.749035  1
  Gd  Gd12  1  0.353366  0.010646  0.749933  1
  Gd  Gd13  1  0.182234  0.678228  0.621726  1
  Gd  Gd14  1  0.817435  0.322542  0.123528  1
  Gd  Gd15  1  0.317030  0.178528  0.377581  1
  Gd  Gd16  1  0.316639  0.179647  0.125100  1
  Gd  Gd17  1  0.817734  0.322276  0.377273  1
  Gd  Gd18  1  0.183918  0.677721  0.876885  1
  Gd  Gd19  1  0.681928  0.821209  0.621643  1
  Si  Si20  1  0.764298  0.618765  0.250430  1
  Si  Si21  1  0.263421  0.882606  0.250326  1
  Si  Si22  1  0.738576  0.119753  0.746596  1
  Si  Si23  1  0.235885  0.381714  0.749026  1
  Si  Si24  1  0.023992  0.111228  0.250960  1
  Si  Si25  1  0.525590  0.390814  0.250923  1
  Si  Si26  1  0.472391  0.605885  0.748257  1
  Si  Si27  1  0.977814  0.891227  0.745959  1
  Si  Si28  1  0.866159  0.524531  0.960876  1
  Si  Si29  1  0.359698  0.969375  0.539126  1
  Si  Si30  1  0.635323  0.033215  0.043797  1
  Si  Si31  1  0.140425  0.469951  0.459726  1
  Si  Si32  1  0.143527  0.467552  0.039995  1
  Si  Si33  1  0.640844  0.029857  0.459798  1
  Si  Si34  1  0.350900  0.971373  0.963550  1
  Si  Si35  1  0.858574  0.530805  0.538807  1
