# generated using pymatgen
data_Tb12Cu3Si8Ni
_symmetry_space_group_name_H-M   'P 1'
_cell_length_a   4.17170000
_cell_length_b   11.39058885
_cell_length_c   11.30693103
_cell_angle_alpha   89.88273124
_cell_angle_beta   90.00000000
_cell_angle_gamma   90.00000000
_symmetry_Int_Tables_number   1
_chemical_formula_structural   Tb12Cu3Si8Ni
_chemical_formula_sum   'Tb12 Cu3 Si8 Ni1'
_cell_volume   537.28297482
_cell_formula_units_Z   1
loop_
 _symmetry_equiv_pos_site_id
 _symmetry_equiv_pos_as_xyz
  1  'x, y, z'
loop_
 _atom_site_type_symbol
 _atom_site_label
 _atom_site_symmetry_multiplicity
 _atom_site_fract_x
 _atom_site_fract_y
 _atom_site_fract_z
 _atom_site_occupancy
  Tb  Tb0  1  0.250000  0.058446  0.877697  1
  Tb  Tb1  1  0.250000  0.437016  0.378086  1
  Tb  Tb2  1  0.750000  0.935887  0.117836  1
  Tb  Tb3  1  0.750000  0.561577  0.620828  1
  Tb  Tb4  1  0.250000  0.120642  0.559274  1
  Tb  Tb5  1  0.250000  0.380011  0.059064  1
  Tb  Tb6  1  0.750000  0.878663  0.439833  1
  Tb  Tb7  1  0.750000  0.626296  0.939617  1
  Tb  Tb8  1  0.250000  0.805262  0.713129  1
  Tb  Tb9  1  0.250000  0.696738  0.208984  1
  Tb  Tb10  1  0.750000  0.195868  0.290780  1
  Tb  Tb11  1  0.750000  0.303419  0.791847  1
  Cu  Cu12  1  0.250000  0.363975  0.631604  1
  Cu  Cu13  1  0.250000  0.134791  0.130115  1
  Cu  Cu14  1  0.750000  0.635801  0.368936  1
  Si  Si15  1  0.250000  0.814834  0.973683  1
  Si  Si16  1  0.250000  0.685571  0.475932  1
  Si  Si17  1  0.750000  0.187315  0.025300  1
  Si  Si18  1  0.750000  0.313330  0.524904  1
  Si  Si19  1  0.250000  0.494444  0.806571  1
  Si  Si20  1  0.250000  0.005408  0.305186  1
  Si  Si21  1  0.750000  0.506182  0.194523  1
  Si  Si22  1  0.750000  0.991715  0.695353  1
  Ni  Ni23  1  0.750000  0.866807  0.870916  1
