# generated using pymatgen
data_MgZr10HgBi4
_symmetry_space_group_name_H-M   'P 1'
_cell_length_a   5.66259335
_cell_length_b   8.57938687
_cell_length_c   8.57938661
_cell_angle_alpha   96.25234523
_cell_angle_beta   109.26946616
_cell_angle_gamma   70.73052406
_symmetry_Int_Tables_number   1
_chemical_formula_structural   MgZr10HgBi4
_chemical_formula_sum   'Mg1 Zr10 Hg1 Bi4'
_cell_volume   371.40745986
_cell_formula_units_Z   1
loop_
 _symmetry_equiv_pos_site_id
 _symmetry_equiv_pos_as_xyz
  1  'x, y, z'
loop_
 _atom_site_type_symbol
 _atom_site_label
 _atom_site_symmetry_multiplicity
 _atom_site_fract_x
 _atom_site_fract_y
 _atom_site_fract_z
 _atom_site_occupancy
  Mg  Mg0  1  0.750000  0.000000  0.000000  1
  Zr  Zr1  1  0.426892  0.855320  0.701946  1
  Zr  Zr2  1  0.580267  0.144680  0.298054  1
  Zr  Zr3  1  0.919733  0.298054  0.144680  1
  Zr  Zr4  1  0.073108  0.701946  0.855320  1
  Zr  Zr5  1  0.724945  0.701946  0.144680  1
  Zr  Zr6  1  0.282212  0.298054  0.855320  1
  Zr  Zr7  1  0.775055  0.144680  0.701946  1
  Zr  Zr8  1  0.217788  0.855320  0.298054  1
  Zr  Zr9  1  0.250000  0.500000  0.500000  1
  Zr  Zr10  1  0.750000  0.500000  0.500000  1
  Hg  Hg11  1  0.250000  0.000000  0.000000  1
  Bi  Bi12  1  0.335473  0.500000  0.170947  1
  Bi  Bi13  1  0.664527  0.500000  0.829053  1
  Bi  Bi14  1  0.835473  0.829053  0.500000  1
  Bi  Bi15  1  0.164527  0.170947  0.500000  1
