# generated using pymatgen
data_DyY9Cd3Tc
_symmetry_space_group_name_H-M   'P 1'
_cell_length_a   9.65387337
_cell_length_b   9.64287190
_cell_length_c   9.90247285
_cell_angle_alpha   89.99999946
_cell_angle_beta   89.94009584
_cell_angle_gamma   119.96231460
_symmetry_Int_Tables_number   1
_chemical_formula_structural   DyY9Cd3Tc
_chemical_formula_sum   'Dy2 Y18 Cd6 Tc2'
_cell_volume   798.63210760
_cell_formula_units_Z   2
loop_
 _symmetry_equiv_pos_site_id
 _symmetry_equiv_pos_as_xyz
  1  'x, y, z'
loop_
 _atom_site_type_symbol
 _atom_site_label
 _atom_site_symmetry_multiplicity
 _atom_site_fract_x
 _atom_site_fract_y
 _atom_site_fract_z
 _atom_site_occupancy
  Dy  Dy0  1  0.210161  0.790130  0.439926  1
  Dy  Dy1  1  0.210161  0.420031  0.439926  1
  Y  Y2  1  0.000720  0.000360  0.499792  1
  Y  Y3  1  0.000076  0.000038  0.000045  1
  Y  Y4  1  0.580258  0.790129  0.441433  1
  Y  Y5  1  0.790402  0.209747  0.559473  1
  Y  Y6  1  0.790402  0.580655  0.559473  1
  Y  Y7  1  0.419953  0.209977  0.558875  1
  Y  Y8  1  0.790096  0.209613  0.940429  1
  Y  Y9  1  0.790096  0.580483  0.940429  1
  Y  Y10  1  0.419931  0.209965  0.940894  1
  Y  Y11  1  0.210042  0.790476  0.059641  1
  Y  Y12  1  0.210042  0.419566  0.059641  1
  Y  Y13  1  0.579657  0.789829  0.059042  1
  Y  Y14  1  0.539090  0.460260  0.250040  1
  Y  Y15  1  0.539090  0.078831  0.250040  1
  Y  Y16  1  0.920974  0.460487  0.250240  1
  Y  Y17  1  0.460895  0.539489  0.749802  1
  Y  Y18  1  0.460895  0.921406  0.749802  1
  Y  Y19  1  0.079383  0.539691  0.749635  1
  Cd  Cd20  1  0.886271  0.113591  0.249993  1
  Cd  Cd21  1  0.886271  0.772681  0.249993  1
  Cd  Cd22  1  0.227748  0.113874  0.249756  1
  Cd  Cd23  1  0.113527  0.886247  0.750136  1
  Cd  Cd24  1  0.113527  0.227279  0.750136  1
  Cd  Cd25  1  0.772268  0.886134  0.749956  1
  Tc  Tc26  1  0.330630  0.665316  0.251569  1
  Tc  Tc27  1  0.667434  0.333716  0.749881  1
