# generated using pymatgen
data_Li6Ti5AsRh12
_symmetry_space_group_name_H-M   'P 1'
_cell_length_a   4.26337800
_cell_length_b   6.01872100
_cell_length_c   12.70140100
_cell_angle_alpha   90.00034277
_cell_angle_beta   89.99978413
_cell_angle_gamma   89.99991209
_symmetry_Int_Tables_number   1
_chemical_formula_structural   Li6Ti5AsRh12
_chemical_formula_sum   'Li6 Ti5 As1 Rh12'
_cell_volume   325.91900006
_cell_formula_units_Z   1
loop_
 _symmetry_equiv_pos_site_id
 _symmetry_equiv_pos_as_xyz
  1  'x, y, z'
loop_
 _atom_site_type_symbol
 _atom_site_label
 _atom_site_symmetry_multiplicity
 _atom_site_fract_x
 _atom_site_fract_y
 _atom_site_fract_z
 _atom_site_occupancy
  Li  Li0  1  0.999992  0.499996  0.000965  1
  Li  Li1  1  0.499957  0.000002  0.165192  1
  Li  Li2  1  0.999949  0.499996  0.333317  1
  Li  Li3  1  0.500005  0.000002  0.501462  1
  Li  Li4  1  0.000046  0.499995  0.665716  1
  Li  Li5  1  0.500065  0.000004  0.833352  1
  Ti  Ti6  1  0.000004  0.999999  0.998931  1
  Ti  Ti7  1  0.499947  0.500000  0.166734  1
  Ti  Ti8  1  0.999921  0.000000  0.333353  1
  Ti  Ti9  1  0.500001  0.500001  0.499938  1
  Ti  Ti10  1  0.000080  0.999999  0.667726  1
  As  As11  1  0.500049  0.500001  0.833330  1
  Rh  Rh12  1  0.500002  0.254962  0.996478  1
  Rh  Rh13  1  0.500002  0.745040  0.996477  1
  Rh  Rh14  1  0.999964  0.250458  0.166302  1
  Rh  Rh15  1  0.999966  0.749543  0.166302  1
  Rh  Rh16  1  0.499929  0.249794  0.333329  1
  Rh  Rh17  1  0.499929  0.750202  0.333327  1
  Rh  Rh18  1  0.000002  0.250459  0.500365  1
  Rh  Rh19  1  0.999999  0.749544  0.500365  1
  Rh  Rh20  1  0.500057  0.254950  0.670184  1
  Rh  Rh21  1  0.500058  0.745048  0.670185  1
  Rh  Rh22  1  0.000038  0.254516  0.833335  1
  Rh  Rh23  1  0.000036  0.745483  0.833334  1
