# generated using pymatgen
data_Yb2Re7Si4Tc
_symmetry_space_group_name_H-M   'P 1'
_cell_length_a   7.05911022
_cell_length_b   7.66322412
_cell_length_c   4.19426100
_cell_angle_alpha   90.00000000
_cell_angle_beta   90.00000000
_cell_angle_gamma   90.06468354
_symmetry_Int_Tables_number   1
_chemical_formula_structural   Yb2Re7Si4Tc
_chemical_formula_sum   'Yb2 Re7 Si4 Tc1'
_cell_volume   226.89068469
_cell_formula_units_Z   1
loop_
 _symmetry_equiv_pos_site_id
 _symmetry_equiv_pos_as_xyz
  1  'x, y, z'
loop_
 _atom_site_type_symbol
 _atom_site_label
 _atom_site_symmetry_multiplicity
 _atom_site_fract_x
 _atom_site_fract_y
 _atom_site_fract_z
 _atom_site_occupancy
  Yb  Yb0  1  0.499958  0.500971  0.000000  1
  Yb  Yb1  1  0.000040  0.000446  0.500000  1
  Re  Re2  1  0.155260  0.610388  0.500000  1
  Re  Re3  1  0.082464  0.339695  0.000000  1
  Re  Re4  1  0.918563  0.658279  0.000000  1
  Re  Re5  1  0.416812  0.840711  0.500000  1
  Re  Re6  1  0.581118  0.159652  0.500000  1
  Re  Re7  1  0.345924  0.110251  0.000000  1
  Re  Re8  1  0.844019  0.389620  0.500000  1
  Si  Si9  1  0.223286  0.810751  0.000000  1
  Si  Si10  1  0.775657  0.189042  0.000000  1
  Si  Si11  1  0.722477  0.690373  0.500000  1
  Si  Si12  1  0.276742  0.310980  0.500000  1
  Tc  Tc13  1  0.657680  0.888840  0.000000  1
