# generated using pymatgen
data_NdTh(Co3P2)2
_symmetry_space_group_name_H-M   'P 1'
_cell_length_a   3.80752600
_cell_length_b   10.65421179
_cell_length_c   12.42272337
_cell_angle_alpha   90.09635575
_cell_angle_beta   90.00000000
_cell_angle_gamma   90.00000000
_symmetry_Int_Tables_number   1
_chemical_formula_structural   NdTh(Co3P2)2
_chemical_formula_sum   'Nd3 Th3 Co18 P12'
_cell_volume   503.94182382
_cell_formula_units_Z   3
loop_
 _symmetry_equiv_pos_site_id
 _symmetry_equiv_pos_as_xyz
  1  'x, y, z'
loop_
 _atom_site_type_symbol
 _atom_site_label
 _atom_site_symmetry_multiplicity
 _atom_site_fract_x
 _atom_site_fract_y
 _atom_site_fract_z
 _atom_site_occupancy
  Nd  Nd0  1  0.500000  0.186718  0.205069  1
  Nd  Nd1  1  0.000000  0.684828  0.795155  1
  Nd  Nd2  1  0.000000  0.314834  0.794082  1
  Th  Th3  1  0.000000  0.499690  0.523644  1
  Th  Th4  1  0.500000  0.000781  0.477566  1
  Th  Th5  1  0.500000  0.816887  0.206946  1
  Co  Co6  1  0.500000  0.499810  0.157579  1
  Co  Co7  1  0.000000  0.999038  0.843556  1
  Co  Co8  1  0.500000  0.499536  0.700273  1
  Co  Co9  1  0.000000  0.995947  0.297145  1
  Co  Co10  1  0.000000  0.499711  0.985038  1
  Co  Co11  1  0.500000  0.000553  0.013488  1
  Co  Co12  1  0.500000  0.334431  0.995298  1
  Co  Co13  1  0.500000  0.666083  0.996490  1
  Co  Co14  1  0.000000  0.166981  0.003725  1
  Co  Co15  1  0.000000  0.834528  0.005198  1
  Co  Co16  1  0.500000  0.299095  0.429778  1
  Co  Co17  1  0.500000  0.699195  0.429612  1
  Co  Co18  1  0.000000  0.199747  0.569738  1
  Co  Co19  1  0.000000  0.799971  0.571580  1
  Co  Co20  1  0.500000  0.882544  0.712615  1
  Co  Co21  1  0.500000  0.117238  0.711834  1
  Co  Co22  1  0.000000  0.619281  0.286716  1
  Co  Co23  1  0.000000  0.383060  0.288140  1
  P  P24  1  0.500000  0.499768  0.883849  1
  P  P25  1  0.000000  0.002228  0.113882  1
  P  P26  1  0.500000  0.499330  0.338845  1
  P  P27  1  0.000000  0.999492  0.662242  1
  P  P28  1  0.500000  0.303925  0.614219  1
  P  P29  1  0.500000  0.695364  0.615279  1
  P  P30  1  0.000000  0.194941  0.385025  1
  P  P31  1  0.000000  0.803780  0.388763  1
  P  P32  1  0.500000  0.848918  0.896421  1
  P  P33  1  0.500000  0.151953  0.896114  1
  P  P34  1  0.000000  0.650343  0.102081  1
  P  P35  1  0.000000  0.349470  0.103016  1
