# generated using pymatgen
data_HoLu15In4Ir3Ru
_symmetry_space_group_name_H-M   'P 1'
_cell_length_a   9.47383153
_cell_length_b   9.49785952
_cell_length_c   9.48278675
_cell_angle_alpha   59.94740945
_cell_angle_beta   59.81313569
_cell_angle_gamma   59.91607003
_symmetry_Int_Tables_number   1
_chemical_formula_structural   HoLu15In4Ir3Ru
_chemical_formula_sum   'Ho1 Lu15 In4 Ir3 Ru1'
_cell_volume   601.87686604
_cell_formula_units_Z   1
loop_
 _symmetry_equiv_pos_site_id
 _symmetry_equiv_pos_as_xyz
  1  'x, y, z'
loop_
 _atom_site_type_symbol
 _atom_site_label
 _atom_site_symmetry_multiplicity
 _atom_site_fract_x
 _atom_site_fract_y
 _atom_site_fract_z
 _atom_site_occupancy
  Ho  Ho0  1  0.437695  0.060989  0.440326  1
  Lu  Lu1  1  0.440498  0.444772  0.056917  1
  Lu  Lu2  1  0.651582  0.651773  0.044873  1
  Lu  Lu3  1  0.194237  0.807389  0.190986  1
  Lu  Lu4  1  0.060550  0.439071  0.061307  1
  Lu  Lu5  1  0.193609  0.806577  0.809545  1
  Lu  Lu6  1  0.057281  0.442625  0.441116  1
  Lu  Lu7  1  0.809168  0.192046  0.193054  1
  Lu  Lu8  1  0.649946  0.653267  0.650933  1
  Lu  Lu9  1  0.807595  0.192214  0.807976  1
  Lu  Lu10  1  0.193609  0.190269  0.809545  1
  Lu  Lu11  1  0.046181  0.650915  0.651989  1
  Lu  Lu12  1  0.440498  0.057813  0.056917  1
  Lu  Lu13  1  0.057281  0.058977  0.441116  1
  Lu  Lu14  1  0.649946  0.045854  0.650933  1
  Lu  Lu15  1  0.809168  0.805732  0.193054  1
  In  In16  1  0.416920  0.416837  0.416336  1
  In  In17  1  0.415799  0.416758  0.750687  1
  In  In18  1  0.416920  0.749907  0.416336  1
  In  In19  1  0.749858  0.416713  0.416717  1
  Ir  Ir20  1  0.859463  0.860569  0.859091  1
  Ir  Ir21  1  0.859463  0.420876  0.859091  1
  Ir  Ir22  1  0.861188  0.858899  0.421013  1
  Ru  Ru23  1  0.421545  0.859156  0.860142  1
