# generated using pymatgen
data_LiNd3(As3Ir4)2
_symmetry_space_group_name_H-M   'P 1'
_cell_length_a   4.10641400
_cell_length_b   11.72677000
_cell_length_c   13.27059500
_cell_angle_alpha   90.00000000
_cell_angle_beta   90.00000000
_cell_angle_gamma   90.00000000
_symmetry_Int_Tables_number   1
_chemical_formula_structural   LiNd3(As3Ir4)2
_chemical_formula_sum   'Li2 Nd6 As12 Ir16'
_cell_volume   639.04513732
_cell_formula_units_Z   2
loop_
 _symmetry_equiv_pos_site_id
 _symmetry_equiv_pos_as_xyz
  1  'x, y, z'
loop_
 _atom_site_type_symbol
 _atom_site_label
 _atom_site_symmetry_multiplicity
 _atom_site_fract_x
 _atom_site_fract_y
 _atom_site_fract_z
 _atom_site_occupancy
  Li  Li0  1  0.500000  0.500000  0.150650  1
  Li  Li1  1  0.000000  0.000000  0.849350  1
  Nd  Nd2  1  0.000000  0.500000  0.515279  1
  Nd  Nd3  1  0.500000  0.000000  0.484721  1
  Nd  Nd4  1  0.500000  0.818106  0.203476  1
  Nd  Nd5  1  0.500000  0.181894  0.203476  1
  Nd  Nd6  1  0.000000  0.681894  0.796524  1
  Nd  Nd7  1  0.000000  0.318106  0.796524  1
  As  As8  1  0.500000  0.500000  0.881460  1
  As  As9  1  0.000000  0.000000  0.118540  1
  As  As10  1  0.500000  0.500000  0.341417  1
  As  As11  1  0.000000  0.000000  0.658583  1
  As  As12  1  0.500000  0.314069  0.617030  1
  As  As13  1  0.500000  0.685931  0.617030  1
  As  As14  1  0.000000  0.185931  0.382970  1
  As  As15  1  0.000000  0.814069  0.382970  1
  As  As16  1  0.500000  0.845182  0.890519  1
  As  As17  1  0.500000  0.154818  0.890519  1
  As  As18  1  0.000000  0.654818  0.109481  1
  As  As19  1  0.000000  0.345182  0.109481  1
  Ir  Ir20  1  0.500000  0.500000  0.700399  1
  Ir  Ir21  1  0.000000  0.000000  0.299601  1
  Ir  Ir22  1  0.000000  0.500000  0.983633  1
  Ir  Ir23  1  0.500000  0.000000  0.016367  1
  Ir  Ir24  1  0.500000  0.332341  0.996919  1
  Ir  Ir25  1  0.500000  0.667659  0.996919  1
  Ir  Ir26  1  0.000000  0.167659  0.003081  1
  Ir  Ir27  1  0.000000  0.832341  0.003081  1
  Ir  Ir28  1  0.500000  0.290673  0.429651  1
  Ir  Ir29  1  0.500000  0.709327  0.429651  1
  Ir  Ir30  1  0.000000  0.209327  0.570349  1
  Ir  Ir31  1  0.000000  0.790673  0.570349  1
  Ir  Ir32  1  0.500000  0.875459  0.705589  1
  Ir  Ir33  1  0.500000  0.124541  0.705589  1
  Ir  Ir34  1  0.000000  0.624541  0.294411  1
  Ir  Ir35  1  0.000000  0.375459  0.294411  1
