# generated using pymatgen
data_CeTh2Si4(PdRh)2
_symmetry_space_group_name_H-M   'P 1'
_cell_length_a   4.06050798
_cell_length_b   4.21717315
_cell_length_c   12.72874175
_cell_angle_alpha   80.46468488
_cell_angle_beta   80.82202464
_cell_angle_gamma   89.99999356
_symmetry_Int_Tables_number   1
_chemical_formula_structural   CeTh2Si4(PdRh)2
_chemical_formula_sum   'Ce1 Th2 Si4 Pd2 Rh2'
_cell_volume   212.12370298
_cell_formula_units_Z   1
loop_
 _symmetry_equiv_pos_site_id
 _symmetry_equiv_pos_as_xyz
  1  'x, y, z'
loop_
 _atom_site_type_symbol
 _atom_site_label
 _atom_site_symmetry_multiplicity
 _atom_site_fract_x
 _atom_site_fract_y
 _atom_site_fract_z
 _atom_site_occupancy
  Ce  Ce0  1  0.149190  0.649190  0.701617  1
  Th  Th1  1  0.000416  0.000416  0.999169  1
  Th  Th2  1  0.850774  0.350774  0.298452  1
  Si  Si3  1  0.697089  0.197089  0.605823  1
  Si  Si4  1  0.302114  0.802114  0.395770  1
  Si  Si5  1  0.451920  0.451920  0.096160  1
  Si  Si6  1  0.549019  0.549019  0.901961  1
  Pd  Pd7  1  0.597749  0.097749  0.804502  1
  Pd  Pd8  1  0.402500  0.902500  0.194999  1
  Rh  Rh9  1  0.249583  0.249583  0.500834  1
  Rh  Rh10  1  0.749645  0.749645  0.500711  1
