# generated using pymatgen
data_Ga2GeCl8
_symmetry_space_group_name_H-M   'P 1'
_cell_length_a   7.05010100
_cell_length_b   7.33033925
_cell_length_c   13.40056002
_cell_angle_alpha   87.00358351
_cell_angle_beta   90.00000000
_cell_angle_gamma   90.00000000
_symmetry_Int_Tables_number   1
_chemical_formula_structural   Ga2GeCl8
_chemical_formula_sum   'Ga4 Ge2 Cl16'
_cell_volume   691.58917996
_cell_formula_units_Z   2
loop_
 _symmetry_equiv_pos_site_id
 _symmetry_equiv_pos_as_xyz
  1  'x, y, z'
loop_
 _atom_site_type_symbol
 _atom_site_label
 _atom_site_symmetry_multiplicity
 _atom_site_fract_x
 _atom_site_fract_y
 _atom_site_fract_z
 _atom_site_occupancy
  Ga  Ga0  1  0.935453  0.223048  0.577407  1
  Ga  Ga1  1  0.064547  0.223048  0.077407  1
  Ga  Ga2  1  0.565988  0.638082  0.776966  1
  Ga  Ga3  1  0.434012  0.638082  0.276966  1
  Ge  Ge4  1  0.754048  0.070609  0.811882  1
  Ge  Ge5  1  0.245952  0.070609  0.311882  1
  Cl  Cl6  1  0.419665  0.613622  0.638758  1
  Cl  Cl7  1  0.580335  0.613622  0.138758  1
  Cl  Cl8  1  0.867288  0.740779  0.761903  1
  Cl  Cl9  1  0.132712  0.740779  0.261903  1
  Cl  Cl10  1  0.938373  0.479891  0.494763  1
  Cl  Cl11  1  0.061627  0.479891  0.994763  1
  Cl  Cl12  1  0.920322  0.001418  0.000210  1
  Cl  Cl13  1  0.079678  0.001418  0.500210  1
  Cl  Cl14  1  0.641937  0.126606  0.622430  1
  Cl  Cl15  1  0.358063  0.126606  0.122430  1
  Cl  Cl16  1  0.563118  0.381673  0.872529  1
  Cl  Cl17  1  0.436882  0.381673  0.372529  1
  Cl  Cl18  1  0.446114  0.863793  0.864745  1
  Cl  Cl19  1  0.553886  0.863793  0.364745  1
  Cl  Cl20  1  0.935020  0.227880  0.230608  1
  Cl  Cl21  1  0.064980  0.227880  0.730608  1
