# generated using pymatgen
data_NaAl3CoCl12
_symmetry_space_group_name_H-M   'P 1'
_cell_length_a   12.21289500
_cell_length_b   12.69074895
_cell_length_c   13.82127700
_cell_angle_alpha   73.16265451
_cell_angle_beta   90.00000000
_cell_angle_gamma   90.00000000
_symmetry_Int_Tables_number   1
_chemical_formula_structural   NaAl3CoCl12
_chemical_formula_sum   'Na4 Al12 Co4 Cl48'
_cell_volume   2050.33764554
_cell_formula_units_Z   4
loop_
 _symmetry_equiv_pos_site_id
 _symmetry_equiv_pos_as_xyz
  1  'x, y, z'
loop_
 _atom_site_type_symbol
 _atom_site_label
 _atom_site_symmetry_multiplicity
 _atom_site_fract_x
 _atom_site_fract_y
 _atom_site_fract_z
 _atom_site_occupancy
  Na  Na0  1  0.207744  0.516851  0.709463  1
  Na  Na1  1  0.792256  0.483149  0.290537  1
  Na  Na2  1  0.292256  0.016851  0.709463  1
  Na  Na3  1  0.707744  0.983149  0.290537  1
  Al  Al4  1  0.985950  0.176803  0.278016  1
  Al  Al5  1  0.753366  0.613186  0.019905  1
  Al  Al6  1  0.079901  0.674715  0.389622  1
  Al  Al7  1  0.485950  0.323197  0.721984  1
  Al  Al8  1  0.746634  0.113186  0.019905  1
  Al  Al9  1  0.420099  0.174715  0.389622  1
  Al  Al10  1  0.579901  0.825285  0.610378  1
  Al  Al11  1  0.920099  0.325285  0.610378  1
  Al  Al12  1  0.514050  0.676803  0.278016  1
  Al  Al13  1  0.253366  0.886814  0.980095  1
  Al  Al14  1  0.014050  0.823197  0.721984  1
  Al  Al15  1  0.246634  0.386814  0.980095  1
  Co  Co16  1  0.737443  0.258986  0.785702  1
  Co  Co17  1  0.237443  0.241014  0.214298  1
  Co  Co18  1  0.262557  0.741014  0.214298  1
  Co  Co19  1  0.762557  0.758986  0.785702  1
  Cl  Cl20  1  0.112456  0.246449  0.354112  1
  Cl  Cl21  1  0.613280  0.666503  0.721536  1
  Cl  Cl22  1  0.338700  0.239248  0.061370  1
  Cl  Cl23  1  0.831520  0.578310  0.889569  1
  Cl  Cl24  1  0.887544  0.753551  0.645888  1
  Cl  Cl25  1  0.910669  0.632708  0.400328  1
  Cl  Cl26  1  0.612456  0.253551  0.645888  1
  Cl  Cl27  1  0.089813  0.138600  0.162831  1
  Cl  Cl28  1  0.147624  0.014209  0.897242  1
  Cl  Cl29  1  0.410669  0.867292  0.599672  1
  Cl  Cl30  1  0.386720  0.333497  0.278464  1
  Cl  Cl31  1  0.886720  0.166503  0.721536  1
  Cl  Cl32  1  0.387544  0.746449  0.354112  1
  Cl  Cl33  1  0.910187  0.861400  0.837169  1
  Cl  Cl34  1  0.851896  0.317541  0.469785  1
  Cl  Cl35  1  0.352376  0.514209  0.897242  1
  Cl  Cl36  1  0.133869  0.702898  0.791411  1
  Cl  Cl37  1  0.325495  0.069893  0.319083  1
  Cl  Cl38  1  0.351896  0.182459  0.530215  1
  Cl  Cl39  1  0.674505  0.930107  0.680917  1
  Cl  Cl40  1  0.174505  0.569893  0.319083  1
  Cl  Cl41  1  0.668480  0.078310  0.889569  1
  Cl  Cl42  1  0.125126  0.356998  0.879786  1
  Cl  Cl43  1  0.087276  0.969657  0.626463  1
  Cl  Cl44  1  0.168480  0.421690  0.110431  1
  Cl  Cl45  1  0.148104  0.682459  0.530215  1
  Cl  Cl46  1  0.161300  0.739248  0.061370  1
  Cl  Cl47  1  0.912724  0.030343  0.373537  1
  Cl  Cl48  1  0.366131  0.202898  0.791411  1
  Cl  Cl49  1  0.625126  0.143002  0.120214  1
  Cl  Cl50  1  0.587276  0.530343  0.373537  1
  Cl  Cl51  1  0.866131  0.297102  0.208589  1
  Cl  Cl52  1  0.852376  0.985791  0.102758  1
  Cl  Cl53  1  0.874874  0.643002  0.120214  1
  Cl  Cl54  1  0.410187  0.638600  0.162831  1
  Cl  Cl55  1  0.374874  0.856998  0.879786  1
  Cl  Cl56  1  0.331520  0.921690  0.110431  1
  Cl  Cl57  1  0.647624  0.485791  0.102758  1
  Cl  Cl58  1  0.825495  0.430107  0.680917  1
  Cl  Cl59  1  0.838700  0.260752  0.938630  1
  Cl  Cl60  1  0.648104  0.817541  0.469785  1
  Cl  Cl61  1  0.589331  0.132708  0.400328  1
  Cl  Cl62  1  0.589813  0.361400  0.837169  1
  Cl  Cl63  1  0.412724  0.469657  0.626463  1
  Cl  Cl64  1  0.661300  0.760752  0.938630  1
  Cl  Cl65  1  0.633869  0.797102  0.208589  1
  Cl  Cl66  1  0.113280  0.833497  0.278464  1
  Cl  Cl67  1  0.089331  0.367292  0.599672  1
