# generated using pymatgen
data_Yb3Dy(IrRu3)2
_symmetry_space_group_name_H-M   'P 1'
_cell_length_a   5.21054617
_cell_length_b   5.21054494
_cell_length_c   9.00898200
_cell_angle_alpha   90.00129800
_cell_angle_beta   89.99870243
_cell_angle_gamma   120.00159815
_symmetry_Int_Tables_number   1
_chemical_formula_structural   Yb3Dy(IrRu3)2
_chemical_formula_sum   'Yb3 Dy1 Ir2 Ru6'
_cell_volume   211.81940896
_cell_formula_units_Z   1
loop_
 _symmetry_equiv_pos_site_id
 _symmetry_equiv_pos_as_xyz
  1  'x, y, z'
loop_
 _atom_site_type_symbol
 _atom_site_label
 _atom_site_symmetry_multiplicity
 _atom_site_fract_x
 _atom_site_fract_y
 _atom_site_fract_z
 _atom_site_occupancy
  Yb  Yb0  1  0.333348  0.666652  0.429244  1
  Yb  Yb1  1  0.333343  0.666657  0.065343  1
  Yb  Yb2  1  0.666668  0.333332  0.938238  1
  Dy  Dy3  1  0.666667  0.333333  0.567942  1
  Ir  Ir4  1  0.999984  0.000016  0.499246  1
  Ir  Ir5  1  0.999989  0.000011  0.999397  1
  Ru  Ru6  1  0.170802  0.341576  0.749834  1
  Ru  Ru7  1  0.170779  0.829221  0.749813  1
  Ru  Ru8  1  0.658424  0.829198  0.749834  1
  Ru  Ru9  1  0.829437  0.658951  0.250373  1
  Ru  Ru10  1  0.829509  0.170491  0.250363  1
  Ru  Ru11  1  0.341049  0.170563  0.250373  1
