# generated using pymatgen
data_Tb(ScCu6)2
_symmetry_space_group_name_H-M   'P 1'
_cell_length_a   4.89940449
_cell_length_b   4.89940398
_cell_length_c   10.47916402
_cell_angle_alpha   94.91404974
_cell_angle_beta   94.91404622
_cell_angle_gamma   119.75893487
_symmetry_Int_Tables_number   1
_chemical_formula_structural   Tb(ScCu6)2
_chemical_formula_sum   'Tb1 Sc2 Cu12'
_cell_volume   215.16530205
_cell_formula_units_Z   1
loop_
 _symmetry_equiv_pos_site_id
 _symmetry_equiv_pos_as_xyz
  1  'x, y, z'
loop_
 _atom_site_type_symbol
 _atom_site_label
 _atom_site_symmetry_multiplicity
 _atom_site_fract_x
 _atom_site_fract_y
 _atom_site_fract_z
 _atom_site_occupancy
  Tb  Tb0  1  0.000000  0.000000  0.000000  1
  Sc  Sc1  1  0.134907  0.134907  0.362795  1
  Sc  Sc2  1  0.865093  0.865093  0.637205  1
  Cu  Cu3  1  0.664027  0.335974  0.000000  1
  Cu  Cu4  1  0.335974  0.664027  0.000000  1
  Cu  Cu5  1  0.570466  0.069372  0.201247  1
  Cu  Cu6  1  0.069372  0.570466  0.201247  1
  Cu  Cu7  1  0.570712  0.570712  0.205727  1
  Cu  Cu8  1  0.808214  0.478827  0.408931  1
  Cu  Cu9  1  0.478827  0.808214  0.408931  1
  Cu  Cu10  1  0.521175  0.191787  0.591069  1
  Cu  Cu11  1  0.191787  0.521175  0.591069  1
  Cu  Cu12  1  0.429287  0.429287  0.794273  1
  Cu  Cu13  1  0.930627  0.429533  0.798754  1
  Cu  Cu14  1  0.429533  0.930627  0.798754  1
