# generated using pymatgen
data_Tb16MgCd(Ni2Hg)2
_symmetry_space_group_name_H-M   'P 1'
_cell_length_a   9.58246975
_cell_length_b   9.59040632
_cell_length_c   9.59040557
_cell_angle_alpha   60.21211294
_cell_angle_beta   60.13084476
_cell_angle_gamma   60.13083842
_symmetry_Int_Tables_number   1
_chemical_formula_structural   Tb16MgCd(Ni2Hg)2
_chemical_formula_sum   'Tb16 Mg1 Cd1 Ni4 Hg2'
_cell_volume   625.44138855
_cell_formula_units_Z   1
loop_
 _symmetry_equiv_pos_site_id
 _symmetry_equiv_pos_as_xyz
  1  'x, y, z'
loop_
 _atom_site_type_symbol
 _atom_site_label
 _atom_site_symmetry_multiplicity
 _atom_site_fract_x
 _atom_site_fract_y
 _atom_site_fract_z
 _atom_site_occupancy
  Tb  Tb0  1  0.186226  0.815421  0.815421  1
  Tb  Tb1  1  0.809702  0.187602  0.187602  1
  Tb  Tb2  1  0.811847  0.189240  0.814811  1
  Tb  Tb3  1  0.185888  0.812951  0.187093  1
  Tb  Tb4  1  0.811847  0.814811  0.189240  1
  Tb  Tb5  1  0.185888  0.187093  0.812951  1
  Tb  Tb6  1  0.058493  0.442529  0.442529  1
  Tb  Tb7  1  0.435661  0.063159  0.063159  1
  Tb  Tb8  1  0.436113  0.063280  0.440560  1
  Tb  Tb9  1  0.059082  0.440548  0.060541  1
  Tb  Tb10  1  0.436113  0.440560  0.063280  1
  Tb  Tb11  1  0.059082  0.060541  0.440548  1
  Tb  Tb12  1  0.595743  0.595954  0.595954  1
  Tb  Tb13  1  0.599875  0.598387  0.204028  1
  Tb  Tb14  1  0.599875  0.204028  0.598387  1
  Tb  Tb15  1  0.199626  0.600518  0.600518  1
  Mg  Mg16  1  0.531903  0.820587  0.820587  1
  Cd  Cd17  1  0.832361  0.830917  0.830917  1
  Ni  Ni18  1  0.392040  0.394064  0.394064  1
  Ni  Ni19  1  0.390895  0.391232  0.823497  1
  Ni  Ni20  1  0.390895  0.823497  0.391232  1
  Ni  Ni21  1  0.822567  0.392060  0.392060  1
  Hg  Hg22  1  0.834140  0.836585  0.494438  1
  Hg  Hg23  1  0.834140  0.494438  0.836585  1
