# generated using pymatgen
data_PrNd11(RhBr3)4
_symmetry_space_group_name_H-M   'P 1'
_cell_length_a   10.50133601
_cell_length_b   10.50133527
_cell_length_c   10.51266503
_cell_angle_alpha   109.49399566
_cell_angle_beta   109.49399544
_cell_angle_gamma   109.43588869
_symmetry_Int_Tables_number   1
_chemical_formula_structural   PrNd11(RhBr3)4
_chemical_formula_sum   'Pr1 Nd11 Rh4 Br12'
_cell_volume   892.32924139
_cell_formula_units_Z   1
loop_
 _symmetry_equiv_pos_site_id
 _symmetry_equiv_pos_as_xyz
  1  'x, y, z'
loop_
 _atom_site_type_symbol
 _atom_site_label
 _atom_site_symmetry_multiplicity
 _atom_site_fract_x
 _atom_site_fract_y
 _atom_site_fract_z
 _atom_site_occupancy
  Pr  Pr0  1  0.234370  0.265630  0.750000  1
  Nd  Nd1  1  0.467662  0.483929  0.234272  1
  Nd  Nd2  1  0.750297  0.233970  0.266404  1
  Nd  Nd3  1  0.749511  0.016014  0.483473  1
  Nd  Nd4  1  0.233664  0.467666  0.483452  1
  Nd  Nd5  1  0.266030  0.749703  0.233596  1
  Nd  Nd6  1  0.032334  0.266336  0.016548  1
  Nd  Nd7  1  0.016071  0.032338  0.265728  1
  Nd  Nd8  1  0.483986  0.750489  0.016527  1
  Nd  Nd9  1  0.483793  0.233677  0.467420  1
  Nd  Nd10  1  0.016092  0.483908  0.750000  1
  Nd  Nd11  1  0.266323  0.016207  0.032580  1
  Rh  Rh12  1  0.249999  0.250001  0.250000  1
  Rh  Rh13  1  0.499976  0.000024  0.250000  1
  Rh  Rh14  1  0.999463  0.249943  0.499476  1
  Rh  Rh15  1  0.250057  0.500537  0.000524  1
  Br  Br16  1  0.250007  0.754326  0.745860  1
  Br  Br17  1  0.509871  0.506169  0.754145  1
  Br  Br18  1  0.991390  0.745773  0.995659  1
  Br  Br19  1  0.745674  0.249993  0.754140  1
  Br  Br20  1  0.993831  0.990129  0.745855  1
  Br  Br21  1  0.249825  0.994310  0.502778  1
  Br  Br22  1  0.754227  0.508610  0.504341  1
  Br  Br23  1  0.505690  0.250175  0.997222  1
  Br  Br24  1  0.754234  0.745766  0.250000  1
  Br  Br25  1  0.745751  0.995747  0.991421  1
  Br  Br26  1  0.995619  0.504381  0.250000  1
  Br  Br27  1  0.504253  0.754249  0.508579  1
