# generated using pymatgen
data_Ca3HoV4O12
_symmetry_space_group_name_H-M   'P 1'
_cell_length_a   5.37995577
_cell_length_b   7.57829012
_cell_length_c   5.56369284
_cell_angle_alpha   89.88195143
_cell_angle_beta   90.14606292
_cell_angle_gamma   90.16226197
_symmetry_Int_Tables_number   1
_chemical_formula_structural   Ca3HoV4O12
_chemical_formula_sum   'Ca3 Ho1 V4 O12'
_cell_volume   226.83444846
_cell_formula_units_Z   1
loop_
 _symmetry_equiv_pos_site_id
 _symmetry_equiv_pos_as_xyz
  1  'x, y, z'
loop_
 _atom_site_type_symbol
 _atom_site_label
 _atom_site_symmetry_multiplicity
 _atom_site_fract_x
 _atom_site_fract_y
 _atom_site_fract_z
 _atom_site_occupancy
  Ca  Ca0  1  0.486106  0.752841  0.448184  1
  Ca  Ca1  1  0.514951  0.249805  0.552570  1
  Ca  Ca2  1  0.989104  0.249327  0.046789  1
  Ho  Ho3  1  0.012536  0.751298  0.937589  1
  V  V4  1  0.501213  0.500223  0.000379  1
  V  V5  1  0.997168  0.500877  0.496531  1
  V  V6  1  0.996537  0.003330  0.496723  1
  V  V7  1  0.499723  0.001466  0.000622  1
  O  O8  1  0.912585  0.756437  0.529699  1
  O  O9  1  0.599191  0.756946  0.024933  1
  O  O10  1  0.088629  0.241209  0.475477  1
  O  O11  1  0.420733  0.241759  0.978095  1
  O  O12  1  0.801786  0.462278  0.799293  1
  O  O13  1  0.701175  0.045494  0.298712  1
  O  O14  1  0.277396  0.546267  0.697823  1
  O  O15  1  0.197596  0.946443  0.199179  1
  O  O16  1  0.198164  0.550976  0.196728  1
  O  O17  1  0.287441  0.944733  0.715058  1
  O  O18  1  0.717757  0.459153  0.307706  1
  O  O19  1  0.800209  0.039147  0.797914  1
