# generated using pymatgen
data_Ca12InAg5Pb6
_symmetry_space_group_name_H-M   'P 1'
_cell_length_a   5.43802700
_cell_length_b   7.58935900
_cell_length_c   16.31145200
_cell_angle_alpha   90.00000000
_cell_angle_beta   89.99727093
_cell_angle_gamma   90.00000000
_symmetry_Int_Tables_number   1
_chemical_formula_structural   Ca12InAg5Pb6
_chemical_formula_sum   'Ca12 In1 Ag5 Pb6'
_cell_volume   673.19220493
_cell_formula_units_Z   1
loop_
 _symmetry_equiv_pos_site_id
 _symmetry_equiv_pos_as_xyz
  1  'x, y, z'
loop_
 _atom_site_type_symbol
 _atom_site_label
 _atom_site_symmetry_multiplicity
 _atom_site_fract_x
 _atom_site_fract_y
 _atom_site_fract_z
 _atom_site_occupancy
  Ca  Ca0  1  0.500000  0.240346  0.000000  1
  Ca  Ca1  1  0.500000  0.759654  0.000000  1
  Ca  Ca2  1  0.999949  0.244320  0.171543  1
  Ca  Ca3  1  0.999949  0.755680  0.171543  1
  Ca  Ca4  1  0.499973  0.249372  0.334550  1
  Ca  Ca5  1  0.499973  0.750628  0.334550  1
  Ca  Ca6  1  0.000000  0.248786  0.500000  1
  Ca  Ca7  1  0.000000  0.751214  0.500000  1
  Ca  Ca8  1  0.500027  0.249372  0.665450  1
  Ca  Ca9  1  0.500027  0.750628  0.665450  1
  Ca  Ca10  1  0.000051  0.244320  0.828458  1
  Ca  Ca11  1  0.000051  0.755680  0.828458  1
  In  In12  1  0.000000  0.500000  0.000000  1
  Ag  Ag13  1  0.499940  0.000000  0.170005  1
  Ag  Ag14  1  0.999978  0.500000  0.334268  1
  Ag  Ag15  1  0.500001  0.000000  0.500000  1
  Ag  Ag16  1  0.000022  0.500000  0.665733  1
  Ag  Ag17  1  0.500060  0.000000  0.829996  1
  Pb  Pb18  1  0.000000  0.000000  0.000000  1
  Pb  Pb19  1  0.499901  0.500000  0.165216  1
  Pb  Pb20  1  0.999962  0.000000  0.334616  1
  Pb  Pb21  1  0.500001  0.500000  0.500000  1
  Pb  Pb22  1  0.000038  0.000000  0.665384  1
  Pb  Pb23  1  0.500099  0.500000  0.834784  1
