# generated using pymatgen
data_La7Pr(IrO6)4
_symmetry_space_group_name_H-M   'P 1'
_cell_length_a   5.52027320
_cell_length_b   9.54693224
_cell_length_c   10.28464912
_cell_angle_alpha   89.99633256
_cell_angle_beta   90.01678145
_cell_angle_gamma   89.97444636
_symmetry_Int_Tables_number   1
_chemical_formula_structural   La7Pr(IrO6)4
_chemical_formula_sum   'La7 Pr1 Ir4 O24'
_cell_volume   542.01814832
_cell_formula_units_Z   1
loop_
 _symmetry_equiv_pos_site_id
 _symmetry_equiv_pos_as_xyz
  1  'x, y, z'
loop_
 _atom_site_type_symbol
 _atom_site_label
 _atom_site_symmetry_multiplicity
 _atom_site_fract_x
 _atom_site_fract_y
 _atom_site_fract_z
 _atom_site_occupancy
  La  La0  1  0.026826  0.397343  0.040697  1
  La  La1  1  0.473262  0.602028  0.541230  1
  La  La2  1  0.973375  0.897758  0.459244  1
  La  La3  1  0.531615  0.219754  0.363493  1
  La  La4  1  0.031761  0.280512  0.636934  1
  La  La5  1  0.468503  0.719433  0.136225  1
  La  La6  1  0.968356  0.780759  0.863440  1
  Pr  Pr7  1  0.525870  0.101867  0.959277  1
  Ir  Ir8  1  0.457392  0.997328  0.639891  1
  Ir  Ir9  1  0.957267  0.502824  0.360325  1
  Ir  Ir10  1  0.542754  0.496907  0.860443  1
  Ir  Ir11  1  0.042724  0.003044  0.139382  1
  O  O12  1  0.311989  0.129825  0.176630  1
  O  O13  1  0.810650  0.370051  0.821869  1
  O  O14  1  0.689219  0.629964  0.321959  1
  O  O15  1  0.189213  0.870046  0.677992  1
  O  O16  1  0.723236  0.111912  0.563638  1
  O  O17  1  0.223221  0.388011  0.436276  1
  O  O18  1  0.276912  0.611620  0.936344  1
  O  O19  1  0.776259  0.888858  0.063413  1
  O  O20  1  0.672255  0.639037  0.745516  1
  O  O21  1  0.172056  0.860865  0.254422  1
  O  O22  1  0.328560  0.139206  0.755314  1
  O  O23  1  0.827728  0.360834  0.245428  1
  O  O24  1  0.663644  0.943383  0.781181  1
  O  O25  1  0.164192  0.557346  0.219722  1
  O  O26  1  0.335724  0.442657  0.719692  1
  O  O27  1  0.836267  0.057451  0.280271  1
  O  O28  1  0.250183  0.087190  0.504071  1
  O  O29  1  0.750150  0.412886  0.496228  1
  O  O30  1  0.749909  0.587035  0.996253  1
  O  O31  1  0.250608  0.913436  0.003456  1
  O  O32  1  0.063838  0.648258  0.482208  1
  O  O33  1  0.563925  0.851817  0.518108  1
  O  O34  1  0.933918  0.148301  0.017650  1
  O  O35  1  0.436641  0.350455  0.981781  1
