# generated using pymatgen
data_Nd16Cd4Co3Tc
_symmetry_space_group_name_H-M   'P 1'
_cell_length_a   9.78354518
_cell_length_b   9.87394358
_cell_length_c   9.78354500
_cell_angle_alpha   60.30239780
_cell_angle_beta   60.00000397
_cell_angle_gamma   60.30239264
_symmetry_Int_Tables_number   1
_chemical_formula_structural   Nd16Cd4Co3Tc
_chemical_formula_sum   'Nd16 Cd4 Co3 Tc1'
_cell_volume   671.33322379
_cell_formula_units_Z   1
loop_
 _symmetry_equiv_pos_site_id
 _symmetry_equiv_pos_as_xyz
  1  'x, y, z'
loop_
 _atom_site_type_symbol
 _atom_site_label
 _atom_site_symmetry_multiplicity
 _atom_site_fract_x
 _atom_site_fract_y
 _atom_site_fract_z
 _atom_site_occupancy
  Nd  Nd0  1  0.562083  0.937719  0.562083  1
  Nd  Nd1  1  0.188898  0.189474  0.810814  1
  Nd  Nd2  1  0.557883  0.564396  0.938860  1
  Nd  Nd3  1  0.961199  0.342613  0.348094  1
  Nd  Nd4  1  0.810814  0.189474  0.810814  1
  Nd  Nd5  1  0.188959  0.814371  0.188959  1
  Nd  Nd6  1  0.348094  0.342613  0.961199  1
  Nd  Nd7  1  0.345842  0.962474  0.345842  1
  Nd  Nd8  1  0.938116  0.937719  0.562083  1
  Nd  Nd9  1  0.938860  0.564396  0.557883  1
  Nd  Nd10  1  0.348094  0.342613  0.348094  1
  Nd  Nd11  1  0.807712  0.814371  0.188959  1
  Nd  Nd12  1  0.810814  0.189474  0.188898  1
  Nd  Nd13  1  0.562083  0.937719  0.938116  1
  Nd  Nd14  1  0.938860  0.564396  0.938860  1
  Nd  Nd15  1  0.188959  0.814371  0.807712  1
  Cd  Cd16  1  0.578982  0.580030  0.578982  1
  Cd  Cd17  1  0.579742  0.260776  0.579742  1
  Cd  Cd18  1  0.578982  0.580030  0.262008  1
  Cd  Cd19  1  0.262008  0.580030  0.578982  1
  Co  Co20  1  0.582812  0.135465  0.140863  1
  Co  Co21  1  0.140863  0.135465  0.582812  1
  Co  Co22  1  0.140863  0.135465  0.140863  1
  Tc  Tc23  1  0.138482  0.584556  0.138482  1
