# generated using pymatgen
data_Y6OsPt
_symmetry_space_group_name_H-M   'P 1'
_cell_length_a   6.47098874
_cell_length_b   7.33332180
_cell_length_c   9.23514100
_cell_angle_alpha   90.00000000
_cell_angle_beta   90.00000000
_cell_angle_gamma   90.33293348
_symmetry_Int_Tables_number   1
_chemical_formula_structural   Y6OsPt
_chemical_formula_sum   'Y12 Os2 Pt2'
_cell_volume   438.23553077
_cell_formula_units_Z   2
loop_
 _symmetry_equiv_pos_site_id
 _symmetry_equiv_pos_as_xyz
  1  'x, y, z'
loop_
 _atom_site_type_symbol
 _atom_site_label
 _atom_site_symmetry_multiplicity
 _atom_site_fract_x
 _atom_site_fract_y
 _atom_site_fract_z
 _atom_site_occupancy
  Y  Y0  1  0.626309  0.041094  0.250000  1
  Y  Y1  1  0.373691  0.958906  0.750000  1
  Y  Y2  1  0.123200  0.471882  0.750000  1
  Y  Y3  1  0.876800  0.528118  0.250000  1
  Y  Y4  1  0.177597  0.182321  0.062317  1
  Y  Y5  1  0.822403  0.817679  0.937683  1
  Y  Y6  1  0.665794  0.325122  0.939707  1
  Y  Y7  1  0.822403  0.817679  0.562317  1
  Y  Y8  1  0.334206  0.674878  0.060293  1
  Y  Y9  1  0.177597  0.182321  0.437683  1
  Y  Y10  1  0.334206  0.674878  0.439707  1
  Y  Y11  1  0.665794  0.325122  0.560293  1
  Os  Os12  1  0.461054  0.385167  0.250000  1
  Os  Os13  1  0.538946  0.614833  0.750000  1
  Pt  Pt14  1  0.955818  0.113768  0.750000  1
  Pt  Pt15  1  0.044182  0.886232  0.250000  1
