# generated using pymatgen
data_CaHo(Al5Ru)4
_symmetry_space_group_name_H-M   'P 1'
_cell_length_a   6.86720758
_cell_length_b   6.86720747
_cell_length_c   9.14573600
_cell_angle_alpha   90.00000000
_cell_angle_beta   90.00000000
_cell_angle_gamma   96.71274580
_symmetry_Int_Tables_number   1
_chemical_formula_structural   CaHo(Al5Ru)4
_chemical_formula_sum   'Ca1 Ho1 Al20 Ru4'
_cell_volume   428.34284921
_cell_formula_units_Z   1
loop_
 _symmetry_equiv_pos_site_id
 _symmetry_equiv_pos_as_xyz
  1  'x, y, z'
loop_
 _atom_site_type_symbol
 _atom_site_label
 _atom_site_symmetry_multiplicity
 _atom_site_fract_x
 _atom_site_fract_y
 _atom_site_fract_z
 _atom_site_occupancy
  Ca  Ca0  1  0.873991  0.126009  0.750000  1
  Ho  Ho1  1  0.126140  0.873860  0.250000  1
  Al  Al2  1  0.623240  0.376760  0.544680  1
  Al  Al3  1  0.377036  0.622964  0.449899  1
  Al  Al4  1  0.377036  0.622964  0.050101  1
  Al  Al5  1  0.623240  0.376760  0.955320  1
  Al  Al6  1  0.225190  0.226212  0.499279  1
  Al  Al7  1  0.773788  0.774810  0.499279  1
  Al  Al8  1  0.773788  0.774810  0.000721  1
  Al  Al9  1  0.225190  0.226212  0.000721  1
  Al  Al10  1  0.845593  0.154407  0.098858  1
  Al  Al11  1  0.157957  0.842043  0.901000  1
  Al  Al12  1  0.157957  0.842043  0.599000  1
  Al  Al13  1  0.845593  0.154407  0.401142  1
  Al  Al14  1  0.860047  0.588260  0.750000  1
  Al  Al15  1  0.139868  0.414420  0.250000  1
  Al  Al16  1  0.411740  0.139953  0.750000  1
  Al  Al17  1  0.585580  0.860132  0.250000  1
  Al  Al18  1  0.220264  0.477149  0.750000  1
  Al  Al19  1  0.779517  0.521392  0.250000  1
  Al  Al20  1  0.522851  0.779736  0.750000  1
  Al  Al21  1  0.478608  0.220483  0.250000  1
  Ru  Ru22  1  0.999722  0.501828  0.499126  1
  Ru  Ru23  1  0.999722  0.501828  0.000874  1
  Ru  Ru24  1  0.498172  0.000278  0.000874  1
  Ru  Ru25  1  0.498172  0.000278  0.499126  1
