# generated using pymatgen
data_PdSF34
_symmetry_space_group_name_H-M   'P 1'
_cell_length_a   8.95700896
_cell_length_b   8.55624058
_cell_length_c   9.99639714
_cell_angle_alpha   82.86987898
_cell_angle_beta   86.11399208
_cell_angle_gamma   63.66601447
_symmetry_Int_Tables_number   1
_chemical_formula_structural   PdSF34
_chemical_formula_sum   'Pd1 S1 F34'
_cell_volume   681.22395861
_cell_formula_units_Z   1
loop_
 _symmetry_equiv_pos_site_id
 _symmetry_equiv_pos_as_xyz
  1  'x, y, z'
loop_
 _atom_site_type_symbol
 _atom_site_label
 _atom_site_symmetry_multiplicity
 _atom_site_fract_x
 _atom_site_fract_y
 _atom_site_fract_z
 _atom_site_occupancy
  Pd  Pd0  1  0.129787  0.752436  0.250013  1
  S  S1  1  0.866884  0.247482  0.758365  1
  F  F2  1  0.619880  0.201898  0.479204  1
  F  F3  1  0.391536  0.789847  0.515698  1
  F  F4  1  0.835085  0.699458  0.712386  1
  F  F5  1  0.165490  0.317981  0.273469  1
  F  F6  1  0.096744  0.740923  0.873143  1
  F  F7  1  0.919690  0.226621  0.140642  1
  F  F8  1  0.563004  0.142666  0.374752  1
  F  F9  1  0.434995  0.858616  0.622557  1
  F  F10  1  0.680883  0.319906  0.705155  1
  F  F11  1  0.351277  0.663687  0.313265  1
  F  F12  1  0.926684  0.086490  0.670156  1
  F  F13  1  0.058643  0.939705  0.359766  1
  F  F14  1  0.907510  0.359866  0.634521  1
  F  F15  1  0.082228  0.616600  0.394163  1
  F  F16  1  0.858150  0.816589  0.608362  1
  F  F17  1  0.154023  0.189587  0.373587  1
  F  F18  1  0.807297  0.409306  0.846516  1
  F  F19  1  0.197441  0.562940  0.142457  1
  F  F20  1  0.212669  0.695140  0.763563  1
  F  F21  1  0.779222  0.309534  0.225629  1
  F  F22  1  0.909798  0.841566  0.184345  1
  F  F23  1  0.051947  0.175775  0.812442  1
  F  F24  1  0.825279  0.135140  0.881898  1
  F  F25  1  0.179716  0.887674  0.106273  1
  F  F26  1  0.482813  0.594190  0.990432  1
  F  F27  1  0.515826  0.414341  0.007939  1
  F  F28  1  0.444857  0.100343  0.867465  1
  F  F29  1  0.538295  0.902958  0.134499  1
  F  F30  1  0.285855  0.256896  0.601932  1
  F  F31  1  0.723571  0.735089  0.390377  1
  F  F32  1  0.255417  0.404105  0.671590  1
  F  F33  1  0.739757  0.589822  0.324731  1
  F  F34  1  0.558953  0.934084  0.826688  1
  F  F35  1  0.448794  0.080743  0.162021  1
