# generated using pymatgen
data_Zr3Cu3Si4Rh
_symmetry_space_group_name_H-M   'P 1'
_cell_length_a   7.59175120
_cell_length_b   7.57632287
_cell_length_c   7.57632293
_cell_angle_alpha   149.75805896
_cell_angle_beta   128.92520156
_cell_angle_gamma   60.49574536
_symmetry_Int_Tables_number   1
_chemical_formula_structural   Zr3Cu3Si4Rh
_chemical_formula_sum   'Zr3 Cu3 Si4 Rh1'
_cell_volume   169.33290573
_cell_formula_units_Z   1
loop_
 _symmetry_equiv_pos_site_id
 _symmetry_equiv_pos_as_xyz
  1  'x, y, z'
loop_
 _atom_site_type_symbol
 _atom_site_label
 _atom_site_symmetry_multiplicity
 _atom_site_fract_x
 _atom_site_fract_y
 _atom_site_fract_z
 _atom_site_occupancy
  Zr  Zr0  1  0.885947  0.876219  0.009728  1
  Zr  Zr1  1  0.118156  0.126284  0.991873  1
  Zr  Zr2  1  0.504272  0.997321  0.506951  1
  Cu  Cu3  1  0.856170  0.665640  0.190530  1
  Cu  Cu4  1  0.135141  0.334415  0.800727  1
  Cu  Cu5  1  0.482004  0.676158  0.805846  1
  Si  Si6  1  0.808725  0.495715  0.313010  1
  Si  Si7  1  0.195813  0.505706  0.690107  1
  Si  Si8  1  0.272660  0.784655  0.488005  1
  Si  Si9  1  0.724235  0.215973  0.508262  1
  Rh  Rh10  1  0.516876  0.321913  0.194963  1
