# generated using pymatgen
data_AcPrTeO6
_symmetry_space_group_name_H-M   'P 1'
_cell_length_a   5.54491200
_cell_length_b   9.51104400
_cell_length_c   10.43193900
_cell_angle_alpha   90.00000000
_cell_angle_beta   90.00000000
_cell_angle_gamma   90.00000000
_symmetry_Int_Tables_number   1
_chemical_formula_structural   AcPrTeO6
_chemical_formula_sum   'Ac4 Pr4 Te4 O24'
_cell_volume   550.15857674
_cell_formula_units_Z   4
loop_
 _symmetry_equiv_pos_site_id
 _symmetry_equiv_pos_as_xyz
  1  'x, y, z'
loop_
 _atom_site_type_symbol
 _atom_site_label
 _atom_site_symmetry_multiplicity
 _atom_site_fract_x
 _atom_site_fract_y
 _atom_site_fract_z
 _atom_site_occupancy
  Ac  Ac0  1  0.024836  0.219688  0.143933  1
  Ac  Ac1  1  0.475164  0.780312  0.643933  1
  Ac  Ac2  1  0.975164  0.719688  0.356067  1
  Ac  Ac3  1  0.524836  0.280312  0.856067  1
  Pr  Pr4  1  0.025374  0.104468  0.545057  1
  Pr  Pr5  1  0.474626  0.895532  0.045057  1
  Pr  Pr6  1  0.974626  0.604468  0.954943  1
  Pr  Pr7  1  0.525374  0.395532  0.454943  1
  Te  Te8  1  0.539479  0.008299  0.360790  1
  Te  Te9  1  0.960521  0.991701  0.860790  1
  Te  Te10  1  0.460521  0.508299  0.139210  1
  Te  Te11  1  0.039479  0.491701  0.639210  1
  O  O12  1  0.421441  0.152645  0.477331  1
  O  O13  1  0.078559  0.847355  0.977331  1
  O  O14  1  0.578559  0.652645  0.022669  1
  O  O15  1  0.921441  0.347355  0.522669  1
  O  O16  1  0.719057  0.394372  0.063630  1
  O  O17  1  0.780943  0.605628  0.563630  1
  O  O18  1  0.280943  0.894372  0.436370  1
  O  O19  1  0.219057  0.105628  0.936370  1
  O  O20  1  0.252163  0.419985  0.008149  1
  O  O21  1  0.247837  0.580015  0.508149  1
  O  O22  1  0.747837  0.919985  0.491851  1
  O  O23  1  0.752163  0.080015  0.991851  1
  O  O24  1  0.199479  0.641607  0.166624  1
  O  O25  1  0.300521  0.358393  0.666624  1
  O  O26  1  0.800521  0.141607  0.333376  1
  O  O27  1  0.699479  0.858393  0.833376  1
  O  O28  1  0.338406  0.055452  0.216868  1
  O  O29  1  0.161594  0.944548  0.716868  1
  O  O30  1  0.661594  0.555452  0.283132  1
  O  O31  1  0.838406  0.444548  0.783132  1
  O  O32  1  0.325213  0.370477  0.254732  1
  O  O33  1  0.174787  0.629523  0.754732  1
  O  O34  1  0.674787  0.870477  0.245268  1
  O  O35  1  0.825213  0.129523  0.745268  1
