# generated using pymatgen
data_Dy2Tm4ZrCo17P12
_symmetry_space_group_name_H-M   'P 1'
_cell_length_a   3.69640300
_cell_length_b   10.55838700
_cell_length_c   12.26240900
_cell_angle_alpha   90.00000000
_cell_angle_beta   90.00000000
_cell_angle_gamma   90.00000000
_symmetry_Int_Tables_number   1
_chemical_formula_structural   Dy2Tm4ZrCo17P12
_chemical_formula_sum   'Dy2 Tm4 Zr1 Co17 P12'
_cell_volume   478.57795304
_cell_formula_units_Z   1
loop_
 _symmetry_equiv_pos_site_id
 _symmetry_equiv_pos_as_xyz
  1  'x, y, z'
loop_
 _atom_site_type_symbol
 _atom_site_label
 _atom_site_symmetry_multiplicity
 _atom_site_fract_x
 _atom_site_fract_y
 _atom_site_fract_z
 _atom_site_occupancy
  Dy  Dy0  1  0.000000  0.500000  0.529975  1
  Dy  Dy1  1  0.500000  0.000000  0.476912  1
  Tm  Tm2  1  0.500000  0.821868  0.207356  1
  Tm  Tm3  1  0.500000  0.178132  0.207356  1
  Tm  Tm4  1  0.000000  0.682773  0.796095  1
  Tm  Tm5  1  0.000000  0.317227  0.796095  1
  Zr  Zr6  1  0.500000  0.500000  0.154378  1
  Co  Co7  1  0.000000  0.000000  0.836323  1
  Co  Co8  1  0.500000  0.500000  0.703641  1
  Co  Co9  1  0.000000  0.000000  0.295364  1
  Co  Co10  1  0.000000  0.500000  0.982984  1
  Co  Co11  1  0.500000  0.000000  0.013986  1
  Co  Co12  1  0.500000  0.326675  0.987655  1
  Co  Co13  1  0.500000  0.673325  0.987655  1
  Co  Co14  1  0.000000  0.161382  0.001489  1
  Co  Co15  1  0.000000  0.838618  0.001489  1
  Co  Co16  1  0.500000  0.293991  0.434479  1
  Co  Co17  1  0.500000  0.706009  0.434479  1
  Co  Co18  1  0.000000  0.202095  0.570719  1
  Co  Co19  1  0.000000  0.797905  0.570719  1
  Co  Co20  1  0.500000  0.879738  0.707811  1
  Co  Co21  1  0.500000  0.120262  0.707811  1
  Co  Co22  1  0.000000  0.623609  0.297180  1
  Co  Co23  1  0.000000  0.376391  0.297180  1
  P  P24  1  0.500000  0.500000  0.880963  1
  P  P25  1  0.000000  0.000000  0.117065  1
  P  P26  1  0.500000  0.500000  0.362232  1
  P  P27  1  0.000000  0.000000  0.654477  1
  P  P28  1  0.500000  0.309124  0.618842  1
  P  P29  1  0.500000  0.690876  0.618842  1
  P  P30  1  0.000000  0.188080  0.385696  1
  P  P31  1  0.000000  0.811920  0.385696  1
  P  P32  1  0.500000  0.852061  0.887978  1
  P  P33  1  0.500000  0.147939  0.887978  1
  P  P34  1  0.000000  0.666010  0.100548  1
  P  P35  1  0.000000  0.333990  0.100548  1
