# generated using pymatgen
data_Tm2Al8SiRh3
_symmetry_space_group_name_H-M   'P 1'
_cell_length_a   7.51821773
_cell_length_b   7.49029957
_cell_length_c   9.37564787
_cell_angle_alpha   89.99031236
_cell_angle_beta   89.84687288
_cell_angle_gamma   119.73294290
_symmetry_Int_Tables_number   1
_chemical_formula_structural   Tm2Al8SiRh3
_chemical_formula_sum   'Tm4 Al16 Si2 Rh6'
_cell_volume   458.46505421
_cell_formula_units_Z   2
loop_
 _symmetry_equiv_pos_site_id
 _symmetry_equiv_pos_as_xyz
  1  'x, y, z'
loop_
 _atom_site_type_symbol
 _atom_site_label
 _atom_site_symmetry_multiplicity
 _atom_site_fract_x
 _atom_site_fract_y
 _atom_site_fract_z
 _atom_site_occupancy
  Tm  Tm0  1  0.994881  0.664425  0.243203  1
  Tm  Tm1  1  0.005119  0.335575  0.756797  1
  Tm  Tm2  1  0.675334  0.001335  0.247219  1
  Tm  Tm3  1  0.324666  0.998665  0.752781  1
  Al  Al4  1  0.127585  0.126143  0.250259  1
  Al  Al5  1  0.872415  0.873857  0.749741  1
  Al  Al6  1  0.999360  0.665732  0.570316  1
  Al  Al7  1  0.334683  0.998956  0.424639  1
  Al  Al8  1  0.000640  0.334268  0.429684  1
  Al  Al9  1  0.665317  0.001044  0.575361  1
  Al  Al10  1  0.661835  0.997235  0.922302  1
  Al  Al11  1  0.338165  0.002765  0.077698  1
  Al  Al12  1  0.332696  0.331809  0.555702  1
  Al  Al13  1  0.667304  0.668191  0.444298  1
  Al  Al14  1  0.664504  0.667212  0.056085  1
  Al  Al15  1  0.335496  0.332788  0.943915  1
  Al  Al16  1  0.339154  0.549723  0.249742  1
  Al  Al17  1  0.660846  0.450277  0.750258  1
  Al  Al18  1  0.547943  0.340708  0.250145  1
  Al  Al19  1  0.452057  0.659292  0.749855  1
  Si  Si20  1  0.001817  0.328512  0.077857  1
  Si  Si21  1  0.998183  0.671488  0.922143  1
  Rh  Rh22  1  0.690594  0.337473  0.001707  1
  Rh  Rh23  1  0.309406  0.662527  0.998293  1
  Rh  Rh24  1  0.327034  0.671534  0.500436  1
  Rh  Rh25  1  0.672966  0.328466  0.499564  1
  Rh  Rh26  1  0.000000  0.000000  0.000000  1
  Rh  Rh27  1  0.000000  0.000000  0.500000  1
