# generated using pymatgen
data_Sr6Sn8PI
_symmetry_space_group_name_H-M   'P 1'
_cell_length_a   9.01326088
_cell_length_b   9.01326034
_cell_length_c   9.01326066
_cell_angle_alpha   120.32109590
_cell_angle_beta   120.32108846
_cell_angle_gamma   89.44474438
_symmetry_Int_Tables_number   1
_chemical_formula_structural   Sr6Sn8PI
_chemical_formula_sum   'Sr6 Sn8 P1 I1'
_cell_volume   515.22365698
_cell_formula_units_Z   1
loop_
 _symmetry_equiv_pos_site_id
 _symmetry_equiv_pos_as_xyz
  1  'x, y, z'
loop_
 _atom_site_type_symbol
 _atom_site_label
 _atom_site_symmetry_multiplicity
 _atom_site_fract_x
 _atom_site_fract_y
 _atom_site_fract_z
 _atom_site_occupancy
  Sr  Sr0  1  0.268993  0.268993  0.000000  1
  Sr  Sr1  1  0.731007  0.731007  0.000000  1
  Sr  Sr2  1  0.189093  0.644070  0.833163  1
  Sr  Sr3  1  0.810907  0.355930  0.166837  1
  Sr  Sr4  1  0.644070  0.810907  0.454977  1
  Sr  Sr5  1  0.355930  0.189093  0.545023  1
  Sn  Sn6  1  0.835254  0.328966  0.784466  1
  Sn  Sn7  1  0.164746  0.671034  0.215534  1
  Sn  Sn8  1  0.544501  0.050787  0.215534  1
  Sn  Sn9  1  0.328966  0.544501  0.493713  1
  Sn  Sn10  1  0.949213  0.164746  0.493713  1
  Sn  Sn11  1  0.455499  0.949213  0.784466  1
  Sn  Sn12  1  0.671034  0.455499  0.506287  1
  Sn  Sn13  1  0.050787  0.835254  0.506287  1
  P  P14  1  0.500000  0.500000  0.000000  1
  I  I15  1  0.000000  0.000000  0.000000  1
