# generated using pymatgen
data_Lu2MnB2Ir4Ru
_symmetry_space_group_name_H-M   'P 1'
_cell_length_a   9.56838300
_cell_length_b   9.56838300
_cell_length_c   3.06048700
_cell_angle_alpha   90.00000000
_cell_angle_beta   90.00000000
_cell_angle_gamma   90.00000000
_symmetry_Int_Tables_number   1
_chemical_formula_structural   Lu2MnB2Ir4Ru
_chemical_formula_sum   'Lu4 Mn2 B4 Ir8 Ru2'
_cell_volume   280.19968367
_cell_formula_units_Z   2
loop_
 _symmetry_equiv_pos_site_id
 _symmetry_equiv_pos_as_xyz
  1  'x, y, z'
loop_
 _atom_site_type_symbol
 _atom_site_label
 _atom_site_symmetry_multiplicity
 _atom_site_fract_x
 _atom_site_fract_y
 _atom_site_fract_z
 _atom_site_occupancy
  Lu  Lu0  1  0.675154  0.175154  0.000000  1
  Lu  Lu1  1  0.324846  0.824846  0.000000  1
  Lu  Lu2  1  0.175154  0.324846  0.000000  1
  Lu  Lu3  1  0.824846  0.675154  0.000000  1
  Mn  Mn4  1  0.000000  0.000000  0.000000  1
  Mn  Mn5  1  0.500000  0.500000  0.000000  1
  B  B6  1  0.121246  0.621246  0.000000  1
  B  B7  1  0.878754  0.378754  0.000000  1
  B  B8  1  0.621246  0.878754  0.000000  1
  B  B9  1  0.378754  0.121246  0.000000  1
  Ir  Ir10  1  0.217345  0.069652  0.500000  1
  Ir  Ir11  1  0.782655  0.930348  0.500000  1
  Ir  Ir12  1  0.069652  0.782655  0.500000  1
  Ir  Ir13  1  0.717345  0.430348  0.500000  1
  Ir  Ir14  1  0.930348  0.217345  0.500000  1
  Ir  Ir15  1  0.282655  0.569652  0.500000  1
  Ir  Ir16  1  0.569652  0.717345  0.500000  1
  Ir  Ir17  1  0.430348  0.282655  0.500000  1
  Ru  Ru18  1  0.500000  0.000000  0.500000  1
  Ru  Ru19  1  0.000000  0.500000  0.500000  1
