# generated using pymatgen
data_Er15TmCdIn3Ir4
_symmetry_space_group_name_H-M   'P 1'
_cell_length_a   9.57779610
_cell_length_b   9.59295093
_cell_length_c   9.59183516
_cell_angle_alpha   59.85445011
_cell_angle_beta   59.87767648
_cell_angle_gamma   59.88272511
_symmetry_Int_Tables_number   1
_chemical_formula_structural   Er15TmCdIn3Ir4
_chemical_formula_sum   'Er15 Tm1 Cd1 In3 Ir4'
_cell_volume   621.35166801
_cell_formula_units_Z   1
loop_
 _symmetry_equiv_pos_site_id
 _symmetry_equiv_pos_as_xyz
  1  'x, y, z'
loop_
 _atom_site_type_symbol
 _atom_site_label
 _atom_site_symmetry_multiplicity
 _atom_site_fract_x
 _atom_site_fract_y
 _atom_site_fract_z
 _atom_site_occupancy
  Er  Er0  1  0.599534  0.598472  0.598477  1
  Er  Er1  1  0.600079  0.600015  0.202049  1
  Er  Er2  1  0.599902  0.202069  0.600107  1
  Er  Er3  1  0.201217  0.600082  0.600405  1
  Er  Er4  1  0.057562  0.441697  0.441864  1
  Er  Er5  1  0.439902  0.059334  0.059299  1
  Er  Er6  1  0.441037  0.058242  0.441202  1
  Er  Er7  1  0.057224  0.441562  0.057469  1
  Er  Er8  1  0.441136  0.441047  0.058193  1
  Er  Er9  1  0.057285  0.057426  0.441655  1
  Er  Er10  1  0.190289  0.812234  0.812072  1
  Er  Er11  1  0.810886  0.189294  0.189184  1
  Er  Er12  1  0.812649  0.188574  0.810539  1
  Er  Er13  1  0.191549  0.810571  0.187640  1
  Er  Er14  1  0.812496  0.810581  0.188608  1
  Tm  Tm15  1  0.191706  0.188008  0.810252  1
  Cd  Cd16  1  0.501255  0.832869  0.832600  1
  In  In17  1  0.831642  0.834147  0.834160  1
  In  In18  1  0.831242  0.833847  0.500611  1
  In  In19  1  0.831402  0.500355  0.833887  1
  Ir  Ir20  1  0.391167  0.390898  0.391026  1
  Ir  Ir21  1  0.391070  0.391134  0.826415  1
  Ir  Ir22  1  0.391096  0.826483  0.391190  1
  Ir  Ir23  1  0.826674  0.391057  0.391095  1
