# generated using pymatgen
data_Dy3Y5Si12(IrRh)2
_symmetry_space_group_name_H-M   'P 1'
_cell_length_a   8.17393000
_cell_length_b   8.17393034
_cell_length_c   7.94077100
_cell_angle_alpha   90.00000000
_cell_angle_beta   90.00000000
_cell_angle_gamma   119.99999053
_symmetry_Int_Tables_number   1
_chemical_formula_structural   Dy3Y5Si12(IrRh)2
_chemical_formula_sum   'Dy3 Y5 Si12 Ir2 Rh2'
_cell_volume   459.46791687
_cell_formula_units_Z   1
loop_
 _symmetry_equiv_pos_site_id
 _symmetry_equiv_pos_as_xyz
  1  'x, y, z'
loop_
 _atom_site_type_symbol
 _atom_site_label
 _atom_site_symmetry_multiplicity
 _atom_site_fract_x
 _atom_site_fract_y
 _atom_site_fract_z
 _atom_site_occupancy
  Dy  Dy0  1  0.490938  0.509062  0.749721  1
  Dy  Dy1  1  0.490938  0.981875  0.749721  1
  Dy  Dy2  1  0.018125  0.509062  0.749721  1
  Y  Y3  1  0.000000  0.000000  0.248405  1
  Y  Y4  1  0.000000  0.000000  0.751636  1
  Y  Y5  1  0.509149  0.490851  0.250278  1
  Y  Y6  1  0.509149  0.018300  0.250278  1
  Y  Y7  1  0.981700  0.490851  0.250278  1
  Si  Si8  1  0.166735  0.833265  0.499398  1
  Si  Si9  1  0.166735  0.333470  0.499398  1
  Si  Si10  1  0.666530  0.833265  0.499398  1
  Si  Si11  1  0.833184  0.166816  0.501512  1
  Si  Si12  1  0.833184  0.666367  0.501512  1
  Si  Si13  1  0.333633  0.166816  0.501512  1
  Si  Si14  1  0.832788  0.167212  0.000021  1
  Si  Si15  1  0.832788  0.665575  0.000021  1
  Si  Si16  1  0.334425  0.167212  0.000021  1
  Si  Si17  1  0.167134  0.832866  0.999203  1
  Si  Si18  1  0.167134  0.334267  0.999203  1
  Si  Si19  1  0.665733  0.832866  0.999203  1
  Ir  Ir20  1  0.333333  0.666667  0.471527  1
  Ir  Ir21  1  0.666667  0.333333  0.531398  1
  Rh  Rh22  1  0.666667  0.333333  0.960893  1
  Rh  Rh23  1  0.333333  0.666667  0.035741  1
