# generated using pymatgen
data_Pr2Nd6SiPd24
_symmetry_space_group_name_H-M   'P 1'
_cell_length_a   8.48538801
_cell_length_b   8.48538801
_cell_length_c   8.48538801
_cell_angle_alpha   89.99555691
_cell_angle_beta   89.99555691
_cell_angle_gamma   89.99555691
_symmetry_Int_Tables_number   1
_chemical_formula_structural   Pr2Nd6SiPd24
_chemical_formula_sum   'Pr2 Nd6 Si1 Pd24'
_cell_volume   610.96328764
_cell_formula_units_Z   1
loop_
 _symmetry_equiv_pos_site_id
 _symmetry_equiv_pos_as_xyz
  1  'x, y, z'
loop_
 _atom_site_type_symbol
 _atom_site_label
 _atom_site_symmetry_multiplicity
 _atom_site_fract_x
 _atom_site_fract_y
 _atom_site_fract_z
 _atom_site_occupancy
  Pr  Pr0  1  0.253312  0.253312  0.253312  1
  Pr  Pr1  1  0.746688  0.746688  0.746688  1
  Nd  Nd2  1  0.746681  0.746681  0.253312  1
  Nd  Nd3  1  0.746681  0.253312  0.746681  1
  Nd  Nd4  1  0.253319  0.253319  0.746688  1
  Nd  Nd5  1  0.253319  0.746688  0.253319  1
  Nd  Nd6  1  0.253312  0.746681  0.746681  1
  Nd  Nd7  1  0.746688  0.253319  0.253319  1
  Si  Si8  1  0.000000  0.000000  0.000000  1
  Pd  Pd9  1  0.256631  0.500209  0.999807  1
  Pd  Pd10  1  0.743369  0.499791  0.000193  1
  Pd  Pd11  1  0.999807  0.256631  0.500209  1
  Pd  Pd12  1  0.500209  0.256631  0.999807  1
  Pd  Pd13  1  0.000193  0.743369  0.499791  1
  Pd  Pd14  1  0.499791  0.743369  0.000193  1
  Pd  Pd15  1  0.500209  0.999807  0.256631  1
  Pd  Pd16  1  0.256631  0.999807  0.500209  1
  Pd  Pd17  1  0.499791  0.000193  0.743369  1
  Pd  Pd18  1  0.743369  0.000193  0.499791  1
  Pd  Pd19  1  0.999807  0.500209  0.256631  1
  Pd  Pd20  1  0.000193  0.499791  0.743369  1
  Pd  Pd21  1  0.251460  0.500224  0.500224  1
  Pd  Pd22  1  0.748540  0.499776  0.499776  1
  Pd  Pd23  1  0.500224  0.251460  0.500224  1
  Pd  Pd24  1  0.499776  0.748540  0.499776  1
  Pd  Pd25  1  0.500224  0.500224  0.251460  1
  Pd  Pd26  1  0.499776  0.499776  0.748540  1
  Pd  Pd27  1  0.280127  0.999796  0.999796  1
  Pd  Pd28  1  0.719873  0.000204  0.000204  1
  Pd  Pd29  1  0.999796  0.280127  0.999796  1
  Pd  Pd30  1  0.000204  0.719873  0.000204  1
  Pd  Pd31  1  0.999796  0.999796  0.280127  1
  Pd  Pd32  1  0.000204  0.000204  0.719873  1
