# generated using pymatgen
data_CsNb2Tc4Te7
_symmetry_space_group_name_H-M   'P 1'
_cell_length_a   10.43023516
_cell_length_b   10.41478716
_cell_length_c   10.40619903
_cell_angle_alpha   62.03748836
_cell_angle_beta   62.02280029
_cell_angle_gamma   62.19832265
_symmetry_Int_Tables_number   1
_chemical_formula_structural   CsNb2Tc4Te7
_chemical_formula_sum   'Cs2 Nb4 Tc8 Te14'
_cell_volume   836.59282212
_cell_formula_units_Z   2
loop_
 _symmetry_equiv_pos_site_id
 _symmetry_equiv_pos_as_xyz
  1  'x, y, z'
loop_
 _atom_site_type_symbol
 _atom_site_label
 _atom_site_symmetry_multiplicity
 _atom_site_fract_x
 _atom_site_fract_y
 _atom_site_fract_z
 _atom_site_occupancy
  Cs  Cs0  1  0.615502  0.615321  0.614277  1
  Cs  Cs1  1  0.383413  0.382971  0.384671  1
  Nb  Nb2  1  0.704059  0.878162  0.001909  1
  Nb  Nb3  1  0.996887  0.710242  0.871597  1
  Nb  Nb4  1  0.880428  0.998118  0.704324  1
  Nb  Nb5  1  0.291333  0.120533  0.003519  1
  Tc  Tc6  1  0.000693  0.289611  0.121636  1
  Tc  Tc7  1  0.122044  0.998046  0.292024  1
  Tc  Tc8  1  0.939527  0.812641  0.101632  1
  Tc  Tc9  1  0.103305  0.941874  0.813739  1
  Tc  Tc10  1  0.815788  0.101991  0.939473  1
  Tc  Tc11  1  0.060816  0.184112  0.895472  1
  Tc  Tc12  1  0.902549  0.060029  0.181421  1
  Tc  Tc13  1  0.185004  0.895503  0.059724  1
  Te  Te14  1  0.409134  0.807719  0.177276  1
  Te  Te15  1  0.162801  0.416209  0.817506  1
  Te  Te16  1  0.820666  0.167718  0.408356  1
  Te  Te17  1  0.581224  0.194967  0.830469  1
  Te  Te18  1  0.834000  0.575305  0.192693  1
  Te  Te19  1  0.198215  0.834343  0.573557  1
  Te  Te20  1  0.654695  0.987281  0.241097  1
  Te  Te21  1  0.237444  0.651783  0.985378  1
  Te  Te22  1  0.984938  0.241499  0.651437  1
  Te  Te23  1  0.350608  0.015262  0.761840  1
  Te  Te24  1  0.770680  0.352318  0.016763  1
  Te  Te25  1  0.018631  0.767968  0.352209  1
  Te  Te26  1  0.760981  0.772395  0.769402  1
  Te  Te27  1  0.214635  0.226078  0.236599  1
