# generated using pymatgen
data_Li2Cr3Ni9As7
_symmetry_space_group_name_H-M   'P 1'
_cell_length_a   9.48444100
_cell_length_b   9.48453941
_cell_length_c   3.68850900
_cell_angle_alpha   90.00000000
_cell_angle_beta   90.00000000
_cell_angle_gamma   120.00078013
_symmetry_Int_Tables_number   1
_chemical_formula_structural   Li2Cr3Ni9As7
_chemical_formula_sum   'Li2 Cr3 Ni9 As7'
_cell_volume   287.34659134
_cell_formula_units_Z   1
loop_
 _symmetry_equiv_pos_site_id
 _symmetry_equiv_pos_as_xyz
  1  'x, y, z'
loop_
 _atom_site_type_symbol
 _atom_site_label
 _atom_site_symmetry_multiplicity
 _atom_site_fract_x
 _atom_site_fract_y
 _atom_site_fract_z
 _atom_site_occupancy
  Li  Li0  1  0.333328  0.666668  0.000000  1
  Li  Li1  1  0.000002  0.999998  0.500000  1
  Cr  Cr2  1  0.763931  0.560171  0.500000  1
  Cr  Cr3  1  0.439903  0.203797  0.500000  1
  Cr  Cr4  1  0.796231  0.236086  0.500000  1
  Ni  Ni5  1  0.279890  0.380672  0.500000  1
  Ni  Ni6  1  0.619318  0.899220  0.500000  1
  Ni  Ni7  1  0.100776  0.720091  0.500000  1
  Ni  Ni8  1  0.504301  0.452062  0.000000  1
  Ni  Ni9  1  0.547930  0.052230  0.000000  1
  Ni  Ni10  1  0.947752  0.495674  0.000000  1
  Ni  Ni11  1  0.721253  0.763501  0.000000  1
  Ni  Ni12  1  0.236502  0.957763  0.000000  1
  Ni  Ni13  1  0.042236  0.278739  0.000000  1
  As  As14  1  0.960930  0.754774  0.000000  1
  As  As15  1  0.245229  0.206153  0.000000  1
  As  As16  1  0.793841  0.039070  0.000000  1
  As  As17  1  0.666661  0.333328  0.000000  1
  As  As18  1  0.535351  0.624016  0.500000  1
  As  As19  1  0.375980  0.911349  0.500000  1
  As  As20  1  0.088658  0.464638  0.500000  1
