# generated using pymatgen
data_Sr8Ti3CoO16
_symmetry_space_group_name_H-M   'P 1'
_cell_length_a   5.50669704
_cell_length_b   8.82913822
_cell_length_c   8.82915483
_cell_angle_alpha   88.60339008
_cell_angle_beta   71.67123740
_cell_angle_gamma   108.33028263
_symmetry_Int_Tables_number   1
_chemical_formula_structural   Sr8Ti3CoO16
_chemical_formula_sum   'Sr8 Ti3 Co1 O16'
_cell_volume   383.17743860
_cell_formula_units_Z   1
loop_
 _symmetry_equiv_pos_site_id
 _symmetry_equiv_pos_as_xyz
  1  'x, y, z'
loop_
 _atom_site_type_symbol
 _atom_site_label
 _atom_site_symmetry_multiplicity
 _atom_site_fract_x
 _atom_site_fract_y
 _atom_site_fract_z
 _atom_site_occupancy
  Sr  Sr0  1  0.249116  0.393860  0.892989  1
  Sr  Sr1  1  0.997757  0.641773  0.647232  1
  Sr  Sr2  1  0.750385  0.895386  0.396897  1
  Sr  Sr3  1  0.502804  0.147186  0.140899  1
  Sr  Sr4  1  0.997810  0.352826  0.358151  1
  Sr  Sr5  1  0.750501  0.603240  0.104549  1
  Sr  Sr6  1  0.502581  0.858897  0.853000  1
  Sr  Sr7  1  0.249132  0.107005  0.606109  1
  Ti  Ti8  1  0.499144  0.497011  0.502951  1
  Ti  Ti9  1  0.251279  0.750052  0.250077  1
  Ti  Ti10  1  0.001265  0.003190  0.996846  1
  Co  Co11  1  0.748766  0.250141  0.749755  1
  O  O12  1  0.249820  0.591043  0.092351  1
  O  O13  1  0.002725  0.842351  0.841515  1
  O  O14  1  0.749357  0.095814  0.595145  1
  O  O15  1  0.496753  0.341188  0.341767  1
  O  O16  1  0.003149  0.158925  0.157261  1
  O  O17  1  0.749214  0.404657  0.904248  1
  O  O18  1  0.496788  0.658260  0.658719  1
  O  O19  1  0.249686  0.907404  0.409330  1
  O  O20  1  0.872700  0.126798  0.873005  1
  O  O21  1  0.622936  0.372363  0.627631  1
  O  O22  1  0.377415  0.624376  0.375510  1
  O  O23  1  0.128356  0.876609  0.123704  1
  O  O24  1  0.386825  0.129766  0.870026  1
  O  O25  1  0.110795  0.371356  0.628643  1
  O  O26  1  0.872777  0.623464  0.376494  1
  O  O27  1  0.630164  0.875059  0.125191  1
