# generated using pymatgen
data_La3Sn2SbRh3
_symmetry_space_group_name_H-M   'P 1'
_cell_length_a   7.60974214
_cell_length_b   7.60974117
_cell_length_c   4.18253400
_cell_angle_alpha   90.00000000
_cell_angle_beta   90.00000000
_cell_angle_gamma   119.72356253
_symmetry_Int_Tables_number   1
_chemical_formula_structural   La3Sn2SbRh3
_chemical_formula_sum   'La3 Sn2 Sb1 Rh3'
_cell_volume   210.33568830
_cell_formula_units_Z   1
loop_
 _symmetry_equiv_pos_site_id
 _symmetry_equiv_pos_as_xyz
  1  'x, y, z'
loop_
 _atom_site_type_symbol
 _atom_site_label
 _atom_site_symmetry_multiplicity
 _atom_site_fract_x
 _atom_site_fract_y
 _atom_site_fract_z
 _atom_site_occupancy
  La  La0  1  0.000329  0.584303  0.000000  1
  La  La1  1  0.415070  0.415070  0.000000  1
  La  La2  1  0.584303  0.000329  0.000000  1
  Sn  Sn3  1  0.002022  0.250403  0.500000  1
  Sn  Sn4  1  0.250403  0.002022  0.500000  1
  Sb  Sb5  1  0.751332  0.751332  0.500000  1
  Rh  Rh6  1  0.333394  0.665884  0.500000  1
  Rh  Rh7  1  0.665884  0.333394  0.500000  1
  Rh  Rh8  1  0.997262  0.997262  0.000000  1
