# generated using pymatgen
data_ScNb3O6
_symmetry_space_group_name_H-M   'P 1'
_cell_length_a   5.10010200
_cell_length_b   5.10010259
_cell_length_c   11.08238200
_cell_angle_alpha   90.00000000
_cell_angle_beta   90.00000000
_cell_angle_gamma   120.00000913
_symmetry_Int_Tables_number   1
_chemical_formula_structural   ScNb3O6
_chemical_formula_sum   'Sc2 Nb6 O12'
_cell_volume   249.64420072
_cell_formula_units_Z   2
loop_
 _symmetry_equiv_pos_site_id
 _symmetry_equiv_pos_as_xyz
  1  'x, y, z'
loop_
 _atom_site_type_symbol
 _atom_site_label
 _atom_site_symmetry_multiplicity
 _atom_site_fract_x
 _atom_site_fract_y
 _atom_site_fract_z
 _atom_site_occupancy
  Sc  Sc0  1  0.666667  0.333333  0.750000  1
  Sc  Sc1  1  0.333333  0.666667  0.250000  1
  Nb  Nb2  1  0.333333  0.666667  0.511048  1
  Nb  Nb3  1  0.666667  0.333333  0.011048  1
  Nb  Nb4  1  0.666667  0.333333  0.488952  1
  Nb  Nb5  1  0.333333  0.666667  0.988952  1
  Nb  Nb6  1  0.000000  0.000000  0.500000  1
  Nb  Nb7  1  0.000000  0.000000  0.000000  1
  O  O8  1  0.326473  0.349845  0.118845  1
  O  O9  1  0.650155  0.976628  0.118845  1
  O  O10  1  0.023372  0.673527  0.118845  1
  O  O11  1  0.976628  0.326473  0.618845  1
  O  O12  1  0.673527  0.023372  0.881155  1
  O  O13  1  0.673527  0.650155  0.618845  1
  O  O14  1  0.349845  0.023372  0.618845  1
  O  O15  1  0.650155  0.673527  0.381155  1
  O  O16  1  0.326473  0.976628  0.381155  1
  O  O17  1  0.349845  0.326473  0.881155  1
  O  O18  1  0.976628  0.650155  0.881155  1
  O  O19  1  0.023372  0.349845  0.381155  1
