# generated using pymatgen
data_TbEr4SnSb2
_symmetry_space_group_name_H-M   'P 1'
_cell_length_a   8.91528563
_cell_length_b   8.87834573
_cell_length_c   6.38617300
_cell_angle_alpha   90.00000000
_cell_angle_beta   90.00000000
_cell_angle_gamma   119.86301985
_symmetry_Int_Tables_number   1
_chemical_formula_structural   TbEr4SnSb2
_chemical_formula_sum   'Tb2 Er8 Sn2 Sb4'
_cell_volume   438.36556348
_cell_formula_units_Z   2
loop_
 _symmetry_equiv_pos_site_id
 _symmetry_equiv_pos_as_xyz
  1  'x, y, z'
loop_
 _atom_site_type_symbol
 _atom_site_label
 _atom_site_symmetry_multiplicity
 _atom_site_fract_x
 _atom_site_fract_y
 _atom_site_fract_z
 _atom_site_occupancy
  Tb  Tb0  1  0.000863  0.758256  0.750000  1
  Tb  Tb1  1  0.000863  0.242607  0.250000  1
  Er  Er2  1  0.755270  0.756358  0.250000  1
  Er  Er3  1  0.755270  0.998911  0.750000  1
  Er  Er4  1  0.244039  0.242115  0.750000  1
  Er  Er5  1  0.244039  0.001924  0.250000  1
  Er  Er6  1  0.333203  0.666602  0.500000  1
  Er  Er7  1  0.665600  0.332799  0.000000  1
  Er  Er8  1  0.665600  0.332799  0.500000  1
  Er  Er9  1  0.333203  0.666602  0.000000  1
  Sn  Sn10  1  0.393627  0.000054  0.750000  1
  Sn  Sn11  1  0.393627  0.393573  0.250000  1
  Sb  Sb12  1  0.999326  0.610049  0.250000  1
  Sb  Sb13  1  0.999326  0.389278  0.750000  1
  Sb  Sb14  1  0.608071  0.608940  0.750000  1
  Sb  Sb15  1  0.608071  0.999131  0.250000  1
