# generated using pymatgen
data_TbNd3Sn10(IrRh2)2
_symmetry_space_group_name_H-M   'P 1'
_cell_length_a   13.58586575
_cell_length_b   13.58586652
_cell_length_c   7.26311416
_cell_angle_alpha   89.86589153
_cell_angle_beta   90.13410802
_cell_angle_gamma   160.82109544
_symmetry_Int_Tables_number   1
_chemical_formula_structural   TbNd3Sn10(IrRh2)2
_chemical_formula_sum   'Tb1 Nd3 Sn10 Ir2 Rh4'
_cell_volume   440.40951627
_cell_formula_units_Z   1
loop_
 _symmetry_equiv_pos_site_id
 _symmetry_equiv_pos_as_xyz
  1  'x, y, z'
loop_
 _atom_site_type_symbol
 _atom_site_label
 _atom_site_symmetry_multiplicity
 _atom_site_fract_x
 _atom_site_fract_y
 _atom_site_fract_z
 _atom_site_occupancy
  Tb  Tb0  1  0.523647  0.476353  0.237896  1
  Nd  Nd1  1  0.172089  0.827911  0.753832  1
  Nd  Nd2  1  0.827897  0.172103  0.254314  1
  Nd  Nd3  1  0.476963  0.523037  0.737834  1
  Sn  Sn4  1  0.879335  0.120665  0.733070  1
  Sn  Sn5  1  0.120204  0.879796  0.233081  1
  Sn  Sn6  1  0.704339  0.295661  0.048284  1
  Sn  Sn7  1  0.295295  0.704705  0.548450  1
  Sn  Sn8  1  0.596775  0.403225  0.609787  1
  Sn  Sn9  1  0.403575  0.596425  0.110802  1
  Sn  Sn10  1  0.952815  0.047185  0.400530  1
  Sn  Sn11  1  0.047906  0.952094  0.903061  1
  Sn  Sn12  1  0.290105  0.709895  0.975859  1
  Sn  Sn13  1  0.709772  0.290228  0.475510  1
  Ir  Ir14  1  0.050914  0.949086  0.516267  1
  Ir  Ir15  1  0.949374  0.050626  0.021189  1
  Rh  Rh16  1  0.777452  0.222548  0.764129  1
  Rh  Rh17  1  0.222352  0.777648  0.263902  1
  Rh  Rh18  1  0.394631  0.605369  0.482915  1
  Rh  Rh19  1  0.604561  0.395439  0.985286  1
