# generated using pymatgen
data_NdSm(BeCo12)2
_symmetry_space_group_name_H-M   'P 1'
_cell_length_a   7.86203112
_cell_length_b   7.86203044
_cell_length_c   7.86203100
_cell_angle_alpha   60.00000185
_cell_angle_beta   60.00000472
_cell_angle_gamma   60.00000028
_symmetry_Int_Tables_number   1
_chemical_formula_structural   NdSm(BeCo12)2
_chemical_formula_sum   'Nd1 Sm1 Be2 Co24'
_cell_volume   343.62856311
_cell_formula_units_Z   1
loop_
 _symmetry_equiv_pos_site_id
 _symmetry_equiv_pos_as_xyz
  1  'x, y, z'
loop_
 _atom_site_type_symbol
 _atom_site_label
 _atom_site_symmetry_multiplicity
 _atom_site_fract_x
 _atom_site_fract_y
 _atom_site_fract_z
 _atom_site_occupancy
  Nd  Nd0  1  0.250000  0.250000  0.250000  1
  Sm  Sm1  1  0.750000  0.750000  0.750000  1
  Be  Be2  1  0.000000  0.000000  0.000000  1
  Be  Be3  1  0.500000  0.500000  0.500000  1
  Co  Co4  1  0.293663  0.059348  0.940252  1
  Co  Co5  1  0.706737  0.940252  0.059348  1
  Co  Co6  1  0.059348  0.293663  0.706737  1
  Co  Co7  1  0.940252  0.706737  0.293663  1
  Co  Co8  1  0.940252  0.293663  0.059348  1
  Co  Co9  1  0.206337  0.440652  0.793263  1
  Co  Co10  1  0.059348  0.706737  0.940252  1
  Co  Co11  1  0.793263  0.559748  0.206337  1
  Co  Co12  1  0.706737  0.059348  0.293663  1
  Co  Co13  1  0.440652  0.206337  0.559748  1
  Co  Co14  1  0.293663  0.940252  0.706737  1
  Co  Co15  1  0.559748  0.793263  0.440652  1
  Co  Co16  1  0.059348  0.940252  0.293663  1
  Co  Co17  1  0.559748  0.206337  0.793263  1
  Co  Co18  1  0.940252  0.059348  0.706737  1
  Co  Co19  1  0.440652  0.793263  0.206337  1
  Co  Co20  1  0.706737  0.293663  0.940252  1
  Co  Co21  1  0.206337  0.559748  0.440652  1
  Co  Co22  1  0.293663  0.706737  0.059348  1
  Co  Co23  1  0.793263  0.440652  0.559748  1
  Co  Co24  1  0.793263  0.206337  0.440652  1
  Co  Co25  1  0.206337  0.793263  0.559748  1
  Co  Co26  1  0.559748  0.440652  0.206337  1
  Co  Co27  1  0.440652  0.559748  0.793263  1
