# generated using pymatgen
data_Sr7Pr(Ge3Pd)4
_symmetry_space_group_name_H-M   'P 1'
_cell_length_a   8.71082400
_cell_length_b   8.71082411
_cell_length_c   8.97782000
_cell_angle_alpha   90.00000000
_cell_angle_beta   90.00000000
_cell_angle_gamma   119.99999958
_symmetry_Int_Tables_number   1
_chemical_formula_structural   Sr7Pr(Ge3Pd)4
_chemical_formula_sum   'Sr7 Pr1 Ge12 Pd4'
_cell_volume   589.95652780
_cell_formula_units_Z   1
loop_
 _symmetry_equiv_pos_site_id
 _symmetry_equiv_pos_as_xyz
  1  'x, y, z'
loop_
 _atom_site_type_symbol
 _atom_site_label
 _atom_site_symmetry_multiplicity
 _atom_site_fract_x
 _atom_site_fract_y
 _atom_site_fract_z
 _atom_site_occupancy
  Sr  Sr0  1  0.499692  0.500308  0.750000  1
  Sr  Sr1  1  0.500292  0.499708  0.250000  1
  Sr  Sr2  1  0.000616  0.500308  0.750000  1
  Sr  Sr3  1  0.999415  0.499708  0.250000  1
  Sr  Sr4  1  0.499692  0.999384  0.750000  1
  Sr  Sr5  1  0.500292  0.000585  0.250000  1
  Sr  Sr6  1  0.000000  0.000000  0.750000  1
  Pr  Pr7  1  0.000000  0.000000  0.250000  1
  Ge  Ge8  1  0.833936  0.166064  0.003791  1
  Ge  Ge9  1  0.166024  0.833976  0.003972  1
  Ge  Ge10  1  0.332130  0.166064  0.003791  1
  Ge  Ge11  1  0.166024  0.833976  0.496028  1
  Ge  Ge12  1  0.667951  0.833976  0.003972  1
  Ge  Ge13  1  0.833936  0.166064  0.496209  1
  Ge  Ge14  1  0.833936  0.667870  0.003791  1
  Ge  Ge15  1  0.667951  0.833976  0.496028  1
  Ge  Ge16  1  0.166024  0.332049  0.003972  1
  Ge  Ge17  1  0.332130  0.166064  0.496209  1
  Ge  Ge18  1  0.166024  0.332049  0.496028  1
  Ge  Ge19  1  0.833936  0.667870  0.496209  1
  Pd  Pd20  1  0.666667  0.333333  0.998000  1
  Pd  Pd21  1  0.333333  0.666667  0.000410  1
  Pd  Pd22  1  0.333333  0.666667  0.499590  1
  Pd  Pd23  1  0.666667  0.333333  0.502000  1
