# generated using pymatgen
data_ZrCdTeO6
_symmetry_space_group_name_H-M   'P 1'
_cell_length_a   5.06272500
_cell_length_b   5.06272500
_cell_length_c   9.42633800
_cell_angle_alpha   90.00000000
_cell_angle_beta   90.00000000
_cell_angle_gamma   90.00000000
_symmetry_Int_Tables_number   1
_chemical_formula_structural   ZrCdTeO6
_chemical_formula_sum   'Zr2 Cd2 Te2 O12'
_cell_volume   241.60820774
_cell_formula_units_Z   2
loop_
 _symmetry_equiv_pos_site_id
 _symmetry_equiv_pos_as_xyz
  1  'x, y, z'
loop_
 _atom_site_type_symbol
 _atom_site_label
 _atom_site_symmetry_multiplicity
 _atom_site_fract_x
 _atom_site_fract_y
 _atom_site_fract_z
 _atom_site_occupancy
  Zr  Zr0  1  0.500000  0.000000  0.112554  1
  Zr  Zr1  1  0.000000  0.500000  0.887445  1
  Cd  Cd2  1  0.000000  0.000000  0.500000  1
  Cd  Cd3  1  0.500000  0.500000  0.500000  1
  Te  Te4  1  0.000000  0.500000  0.234708  1
  Te  Te5  1  0.500000  0.000000  0.765292  1
  O  O6  1  0.814984  0.314985  0.077833  1
  O  O7  1  0.185015  0.685016  0.077833  1
  O  O8  1  0.271591  0.228408  0.236876  1
  O  O9  1  0.728408  0.771592  0.236876  1
  O  O10  1  0.803217  0.303217  0.372414  1
  O  O11  1  0.196782  0.696782  0.372414  1
  O  O12  1  0.303217  0.196782  0.627587  1
  O  O13  1  0.696782  0.803217  0.627587  1
  O  O14  1  0.771592  0.271591  0.763124  1
  O  O15  1  0.228408  0.728408  0.763124  1
  O  O16  1  0.314985  0.185015  0.922168  1
  O  O17  1  0.685016  0.814984  0.922168  1
