# generated using pymatgen
data_PrNd(In2Pt)4
_symmetry_space_group_name_H-M   'P 1'
_cell_length_a   4.57849600
_cell_length_b   7.32445200
_cell_length_c   18.70085400
_cell_angle_alpha   90.00000000
_cell_angle_beta   90.00000000
_cell_angle_gamma   90.00000000
_symmetry_Int_Tables_number   1
_chemical_formula_structural   PrNd(In2Pt)4
_chemical_formula_sum   'Pr2 Nd2 In16 Pt8'
_cell_volume   627.13265611
_cell_formula_units_Z   2
loop_
 _symmetry_equiv_pos_site_id
 _symmetry_equiv_pos_as_xyz
  1  'x, y, z'
loop_
 _atom_site_type_symbol
 _atom_site_label
 _atom_site_symmetry_multiplicity
 _atom_site_fract_x
 _atom_site_fract_y
 _atom_site_fract_z
 _atom_site_occupancy
  Pr  Pr0  1  0.750000  0.970184  0.639932  1
  Pr  Pr1  1  0.250000  0.470184  0.860068  1
  Nd  Nd2  1  0.750000  0.530179  0.139820  1
  Nd  Nd3  1  0.250000  0.030179  0.360180  1
  In  In4  1  0.250000  0.241510  0.191690  1
  In  In5  1  0.250000  0.497726  0.430765  1
  In  In6  1  0.250000  0.001683  0.931101  1
  In  In7  1  0.250000  0.828182  0.186305  1
  In  In8  1  0.250000  0.671345  0.686193  1
  In  In9  1  0.250000  0.259479  0.691683  1
  In  In10  1  0.250000  0.148587  0.534522  1
  In  In11  1  0.750000  0.997726  0.069235  1
  In  In12  1  0.750000  0.171345  0.813807  1
  In  In13  1  0.250000  0.351544  0.034994  1
  In  In14  1  0.750000  0.851544  0.465006  1
  In  In15  1  0.750000  0.648587  0.965478  1
  In  In16  1  0.750000  0.759479  0.808317  1
  In  In17  1  0.750000  0.501683  0.568899  1
  In  In18  1  0.750000  0.328182  0.313695  1
  In  In19  1  0.750000  0.741510  0.308310  1
  Pt  Pt20  1  0.250000  0.962331  0.782992  1
  Pt  Pt21  1  0.750000  0.037851  0.217226  1
  Pt  Pt22  1  0.250000  0.537851  0.282774  1
  Pt  Pt23  1  0.250000  0.754933  0.541111  1
  Pt  Pt24  1  0.250000  0.744467  0.041612  1
  Pt  Pt25  1  0.750000  0.244467  0.458388  1
  Pt  Pt26  1  0.750000  0.254933  0.958889  1
  Pt  Pt27  1  0.750000  0.462331  0.717008  1
