# generated using pymatgen
data_Nd2Ga3Cu4Si
_symmetry_space_group_name_H-M   'P 1'
_cell_length_a   4.15725300
_cell_length_b   4.15725300
_cell_length_c   10.17227800
_cell_angle_alpha   90.00000000
_cell_angle_beta   90.00000000
_cell_angle_gamma   90.00000000
_symmetry_Int_Tables_number   1
_chemical_formula_structural   Nd2Ga3Cu4Si
_chemical_formula_sum   'Nd2 Ga3 Cu4 Si1'
_cell_volume   175.80496310
_cell_formula_units_Z   1
loop_
 _symmetry_equiv_pos_site_id
 _symmetry_equiv_pos_as_xyz
  1  'x, y, z'
loop_
 _atom_site_type_symbol
 _atom_site_label
 _atom_site_symmetry_multiplicity
 _atom_site_fract_x
 _atom_site_fract_y
 _atom_site_fract_z
 _atom_site_occupancy
  Nd  Nd0  1  0.000000  0.500000  0.242377  1
  Nd  Nd1  1  0.500000  0.000000  0.757367  1
  Ga  Ga2  1  0.000000  0.000000  0.498761  1
  Ga  Ga3  1  0.500000  0.500000  0.498761  1
  Ga  Ga4  1  0.000000  0.500000  0.869334  1
  Cu  Cu5  1  0.000000  0.000000  0.006724  1
  Cu  Cu6  1  0.500000  0.500000  0.006724  1
  Cu  Cu7  1  0.000000  0.500000  0.632610  1
  Cu  Cu8  1  0.500000  0.000000  0.359596  1
  Si  Si9  1  0.500000  0.000000  0.127744  1
