# generated using pymatgen
data_Mg2ZnPt2
_symmetry_space_group_name_H-M   'P 1'
_cell_length_a   5.17861967
_cell_length_b   5.17861993
_cell_length_c   5.17862001
_cell_angle_alpha   133.91545519
_cell_angle_beta   113.51642861
_cell_angle_gamma   84.68632133
_symmetry_Int_Tables_number   1
_chemical_formula_structural   Mg2ZnPt2
_chemical_formula_sum   'Mg2 Zn1 Pt2'
_cell_volume   88.09866777
_cell_formula_units_Z   1
loop_
 _symmetry_equiv_pos_site_id
 _symmetry_equiv_pos_as_xyz
  1  'x, y, z'
loop_
 _atom_site_type_symbol
 _atom_site_label
 _atom_site_symmetry_multiplicity
 _atom_site_fract_x
 _atom_site_fract_y
 _atom_site_fract_z
 _atom_site_occupancy
  Mg  Mg0  1  0.698001  0.198002  0.499999  1
  Mg  Mg1  1  0.301999  0.801999  0.500000  1
  Zn  Zn2  1  0.000000  0.000000  0.000000  1
  Pt  Pt3  1  0.732366  0.500000  0.232365  1
  Pt  Pt4  1  0.267634  0.500000  0.767634  1
