# generated using pymatgen
data_YHo3Al2(B2Rh5)2
_symmetry_space_group_name_H-M   'P 1'
_cell_length_a   9.51033689
_cell_length_b   9.51033689
_cell_length_c   3.18007300
_cell_angle_alpha   90.00000000
_cell_angle_beta   90.00000000
_cell_angle_gamma   89.95038156
_symmetry_Int_Tables_number   1
_chemical_formula_structural   YHo3Al2(B2Rh5)2
_chemical_formula_sum   'Y1 Ho3 Al2 B4 Rh10'
_cell_volume   287.62638952
_cell_formula_units_Z   1
loop_
 _symmetry_equiv_pos_site_id
 _symmetry_equiv_pos_as_xyz
  1  'x, y, z'
loop_
 _atom_site_type_symbol
 _atom_site_label
 _atom_site_symmetry_multiplicity
 _atom_site_fract_x
 _atom_site_fract_y
 _atom_site_fract_z
 _atom_site_occupancy
  Y  Y0  1  0.174990  0.674990  0.000000  1
  Ho  Ho1  1  0.825028  0.325028  0.000000  1
  Ho  Ho2  1  0.325075  0.174922  0.000000  1
  Ho  Ho3  1  0.674922  0.825075  0.000000  1
  Al  Al4  1  0.999992  0.000012  0.000000  1
  Al  Al5  1  0.500012  0.499992  0.000000  1
  B  B6  1  0.622023  0.122023  0.000000  1
  B  B7  1  0.121997  0.377832  0.000000  1
  B  B8  1  0.877832  0.621997  0.000000  1
  B  B9  1  0.378157  0.878157  0.000000  1
  Rh  Rh10  1  0.070262  0.218609  0.500000  1
  Rh  Rh11  1  0.218826  0.930506  0.500000  1
  Rh  Rh12  1  0.781320  0.070316  0.500000  1
  Rh  Rh13  1  0.929086  0.781555  0.500000  1
  Rh  Rh14  1  0.430506  0.718826  0.500000  1
  Rh  Rh15  1  0.570316  0.281320  0.500000  1
  Rh  Rh16  1  0.718609  0.570262  0.500000  1
  Rh  Rh17  1  0.281555  0.429086  0.500000  1
  Rh  Rh18  1  0.500078  0.000078  0.500000  1
  Rh  Rh19  1  0.999413  0.499413  0.500000  1
