# generated using pymatgen
data_Yb6ReRuO12
_symmetry_space_group_name_H-M   'P 1'
_cell_length_a   5.80962458
_cell_length_b   5.46474642
_cell_length_c   9.60514674
_cell_angle_alpha   55.41468050
_cell_angle_beta   89.16910874
_cell_angle_gamma   90.03365816
_symmetry_Int_Tables_number   1
_chemical_formula_structural   Yb6ReRuO12
_chemical_formula_sum   'Yb6 Re1 Ru1 O12'
_cell_volume   251.01520575
_cell_formula_units_Z   1
loop_
 _symmetry_equiv_pos_site_id
 _symmetry_equiv_pos_as_xyz
  1  'x, y, z'
loop_
 _atom_site_type_symbol
 _atom_site_label
 _atom_site_symmetry_multiplicity
 _atom_site_fract_x
 _atom_site_fract_y
 _atom_site_fract_z
 _atom_site_occupancy
  Yb  Yb0  1  0.571068  0.240794  0.237305  1
  Yb  Yb1  1  0.060773  0.789273  0.225686  1
  Yb  Yb2  1  0.500000  0.000000  0.000000  1
  Yb  Yb3  1  0.000000  0.000000  0.500000  1
  Yb  Yb4  1  0.939227  0.210727  0.774314  1
  Yb  Yb5  1  0.428932  0.759206  0.762695  1
  Re  Re6  1  0.500000  0.500000  0.500000  1
  Ru  Ru7  1  0.000000  0.500000  0.000000  1
  O  O8  1  0.551060  0.396324  0.723032  1
  O  O9  1  0.055347  0.614135  0.766556  1
  O  O10  1  0.448940  0.603676  0.276968  1
  O  O11  1  0.944653  0.385865  0.233444  1
  O  O12  1  0.776007  0.736629  0.424833  1
  O  O13  1  0.284744  0.259338  0.067196  1
  O  O14  1  0.223993  0.263371  0.575167  1
  O  O15  1  0.715256  0.740662  0.932804  1
  O  O16  1  0.182505  0.845320  0.948963  1
  O  O17  1  0.668602  0.160911  0.553759  1
  O  O18  1  0.817495  0.154680  0.051037  1
  O  O19  1  0.331398  0.839089  0.446241  1
