# generated using pymatgen
data_RbO4
_symmetry_space_group_name_H-M   'P 1'
_cell_length_a   4.91961809
_cell_length_b   4.95997902
_cell_length_c   8.53693471
_cell_angle_alpha   90.00794921
_cell_angle_beta   117.57934881
_cell_angle_gamma   89.99329036
_symmetry_Int_Tables_number   1
_chemical_formula_structural   RbO4
_chemical_formula_sum   'Rb2 O8'
_cell_volume   184.64114399
_cell_formula_units_Z   2
loop_
 _symmetry_equiv_pos_site_id
 _symmetry_equiv_pos_as_xyz
  1  'x, y, z'
loop_
 _atom_site_type_symbol
 _atom_site_label
 _atom_site_symmetry_multiplicity
 _atom_site_fract_x
 _atom_site_fract_y
 _atom_site_fract_z
 _atom_site_occupancy
  Rb  Rb0  1  0.999957  0.203636  0.250024  1
  Rb  Rb1  1  0.999945  0.796361  0.750022  1
  O  O2  1  0.329724  0.341943  0.022209  1
  O  O3  1  0.592545  0.692278  0.101519  1
  O  O4  1  0.407410  0.692172  0.398474  1
  O  O5  1  0.670272  0.341836  0.477735  1
  O  O6  1  0.329788  0.658091  0.522229  1
  O  O7  1  0.592696  0.307713  0.601489  1
  O  O8  1  0.407415  0.307791  0.898480  1
  O  O9  1  0.670249  0.658181  0.977825  1
