# generated using pymatgen
data_Hf16Pt7RhN4
_symmetry_space_group_name_H-M   'P 1'
_cell_length_a   8.76673628
_cell_length_b   8.76673583
_cell_length_c   8.76673748
_cell_angle_alpha   60.03095430
_cell_angle_beta   60.03095249
_cell_angle_gamma   60.03095827
_symmetry_Int_Tables_number   1
_chemical_formula_structural   Hf16Pt7RhN4
_chemical_formula_sum   'Hf16 Pt7 Rh1 N4'
_cell_volume   476.76404933
_cell_formula_units_Z   1
loop_
 _symmetry_equiv_pos_site_id
 _symmetry_equiv_pos_as_xyz
  1  'x, y, z'
loop_
 _atom_site_type_symbol
 _atom_site_label
 _atom_site_symmetry_multiplicity
 _atom_site_fract_x
 _atom_site_fract_y
 _atom_site_fract_z
 _atom_site_occupancy
  Hf  Hf0  1  0.122406  0.627049  0.627049  1
  Hf  Hf1  1  0.627049  0.122406  0.627049  1
  Hf  Hf2  1  0.627049  0.627049  0.122406  1
  Hf  Hf3  1  0.625001  0.625001  0.625001  1
  Hf  Hf4  1  0.817862  0.817862  0.179116  1
  Hf  Hf5  1  0.182248  0.182248  0.817548  1
  Hf  Hf6  1  0.817862  0.179116  0.817862  1
  Hf  Hf7  1  0.182248  0.817548  0.182248  1
  Hf  Hf8  1  0.179116  0.817862  0.817862  1
  Hf  Hf9  1  0.817548  0.182248  0.182248  1
  Hf  Hf10  1  0.432676  0.432676  0.067706  1
  Hf  Hf11  1  0.067738  0.067738  0.432657  1
  Hf  Hf12  1  0.432676  0.067706  0.432676  1
  Hf  Hf13  1  0.067738  0.432657  0.067738  1
  Hf  Hf14  1  0.067706  0.432676  0.432676  1
  Hf  Hf15  1  0.432657  0.067738  0.067738  1
  Pt  Pt16  1  0.781549  0.406173  0.406173  1
  Pt  Pt17  1  0.406173  0.781549  0.406173  1
  Pt  Pt18  1  0.406173  0.406173  0.781549  1
  Pt  Pt19  1  0.406303  0.406303  0.406303  1
  Pt  Pt20  1  0.468775  0.843954  0.843954  1
  Pt  Pt21  1  0.843954  0.468775  0.843954  1
  Pt  Pt22  1  0.843954  0.843954  0.468775  1
  Rh  Rh23  1  0.843439  0.843439  0.843439  1
  N  N24  1  0.624744  0.125156  0.125156  1
  N  N25  1  0.125156  0.624744  0.125156  1
  N  N26  1  0.125156  0.125156  0.624744  1
  N  N27  1  0.125047  0.125047  0.125047  1
