# generated using pymatgen
data_Lu10In8CuOs3
_symmetry_space_group_name_H-M   'P 1'
_cell_length_a   3.54607800
_cell_length_b   7.95929587
_cell_length_c   18.04842495
_cell_angle_alpha   90.05337247
_cell_angle_beta   90.00000000
_cell_angle_gamma   90.00000000
_symmetry_Int_Tables_number   1
_chemical_formula_structural   Lu10In8CuOs3
_chemical_formula_sum   'Lu10 In8 Cu1 Os3'
_cell_volume   509.40364996
_cell_formula_units_Z   1
loop_
 _symmetry_equiv_pos_site_id
 _symmetry_equiv_pos_as_xyz
  1  'x, y, z'
loop_
 _atom_site_type_symbol
 _atom_site_label
 _atom_site_symmetry_multiplicity
 _atom_site_fract_x
 _atom_site_fract_y
 _atom_site_fract_z
 _atom_site_occupancy
  Lu  Lu0  1  0.000000  0.500055  0.498927  1
  Lu  Lu1  1  0.000000  0.000305  0.001434  1
  Lu  Lu2  1  0.000000  0.727630  0.278507  1
  Lu  Lu3  1  0.000000  0.257332  0.722522  1
  Lu  Lu4  1  0.000000  0.760220  0.778098  1
  Lu  Lu5  1  0.000000  0.256629  0.220317  1
  Lu  Lu6  1  0.000000  0.617460  0.086178  1
  Lu  Lu7  1  0.000000  0.382447  0.910831  1
  Lu  Lu8  1  0.000000  0.880907  0.587940  1
  Lu  Lu9  1  0.000000  0.119218  0.414503  1
  In  In10  1  0.500000  0.707052  0.932298  1
  In  In11  1  0.500000  0.292499  0.068222  1
  In  In12  1  0.500000  0.795140  0.433118  1
  In  In13  1  0.500000  0.202797  0.566302  1
  In  In14  1  0.500000  0.569704  0.648705  1
  In  In15  1  0.500000  0.426498  0.351366  1
  In  In16  1  0.500000  0.922912  0.151527  1
  In  In17  1  0.500000  0.068443  0.852033  1
  Cu  Cu18  1  0.500000  0.021236  0.302666  1
  Os  Os19  1  0.500000  0.523448  0.196151  1
  Os  Os20  1  0.500000  0.484309  0.801852  1
  Os  Os21  1  0.500000  0.983760  0.696502  1
