# generated using pymatgen
data_KHo6Sn23Ir6
_symmetry_space_group_name_H-M   'P 1'
_cell_length_a   9.89313200
_cell_length_b   9.89313095
_cell_length_c   10.12490400
_cell_angle_alpha   90.00000000
_cell_angle_beta   90.00000000
_cell_angle_gamma   119.99999682
_symmetry_Int_Tables_number   1
_chemical_formula_structural   KHo6Sn23Ir6
_chemical_formula_sum   'K1 Ho6 Sn23 Ir6'
_cell_volume   858.20120715
_cell_formula_units_Z   1
loop_
 _symmetry_equiv_pos_site_id
 _symmetry_equiv_pos_as_xyz
  1  'x, y, z'
loop_
 _atom_site_type_symbol
 _atom_site_label
 _atom_site_symmetry_multiplicity
 _atom_site_fract_x
 _atom_site_fract_y
 _atom_site_fract_z
 _atom_site_occupancy
  K  K0  1  0.000000  0.000000  0.000000  1
  Ho  Ho1  1  0.517453  0.482547  0.695811  1
  Ho  Ho2  1  0.517453  0.034906  0.695811  1
  Ho  Ho3  1  0.965094  0.482547  0.695811  1
  Ho  Ho4  1  0.034906  0.517453  0.304189  1
  Ho  Ho5  1  0.482547  0.965094  0.304189  1
  Ho  Ho6  1  0.482547  0.517453  0.304189  1
  Sn  Sn7  1  0.666667  0.333333  0.172627  1
  Sn  Sn8  1  0.666667  0.333333  0.878217  1
  Sn  Sn9  1  0.333333  0.666667  0.121783  1
  Sn  Sn10  1  0.350969  0.350969  0.000000  1
  Sn  Sn11  1  0.000000  0.649031  0.000000  1
  Sn  Sn12  1  0.649031  0.000000  0.000000  1
  Sn  Sn13  1  0.649031  0.649031  0.000000  1
  Sn  Sn14  1  0.333333  0.666667  0.827373  1
  Sn  Sn15  1  0.446607  0.223303  0.460827  1
  Sn  Sn16  1  0.223303  0.776697  0.539173  1
  Sn  Sn17  1  0.223303  0.446607  0.539173  1
  Sn  Sn18  1  0.553393  0.776697  0.539173  1
  Sn  Sn19  1  0.117791  0.882209  0.283618  1
  Sn  Sn20  1  0.776697  0.553393  0.460827  1
  Sn  Sn21  1  0.776697  0.223303  0.460827  1
  Sn  Sn22  1  0.350969  0.000000  0.000000  1
  Sn  Sn23  1  0.117791  0.235583  0.283618  1
  Sn  Sn24  1  0.764417  0.882209  0.283618  1
  Sn  Sn25  1  0.235583  0.117791  0.716382  1
  Sn  Sn26  1  0.882209  0.764417  0.716382  1
  Sn  Sn27  1  0.882209  0.117791  0.716382  1
  Sn  Sn28  1  0.000000  0.000000  0.500000  1
  Sn  Sn29  1  0.000000  0.350969  0.000000  1
  Ir  Ir30  1  0.172951  0.827049  0.795393  1
  Ir  Ir31  1  0.172951  0.345901  0.795393  1
  Ir  Ir32  1  0.654099  0.827049  0.795393  1
  Ir  Ir33  1  0.345901  0.172951  0.204607  1
  Ir  Ir34  1  0.827049  0.654099  0.204607  1
  Ir  Ir35  1  0.827049  0.172951  0.204607  1
