# generated using pymatgen
data_Th2Ga7Co2Sn
_symmetry_space_group_name_H-M   'P 1'
_cell_length_a   8.13086413
_cell_length_b   8.13086462
_cell_length_c   6.66701316
_cell_angle_alpha   90.29917612
_cell_angle_beta   89.70082326
_cell_angle_gamma   149.59371776
_symmetry_Int_Tables_number   1
_chemical_formula_structural   Th2Ga7Co2Sn
_chemical_formula_sum   'Th2 Ga7 Co2 Sn1'
_cell_volume   223.07917878
_cell_formula_units_Z   1
loop_
 _symmetry_equiv_pos_site_id
 _symmetry_equiv_pos_as_xyz
  1  'x, y, z'
loop_
 _atom_site_type_symbol
 _atom_site_label
 _atom_site_symmetry_multiplicity
 _atom_site_fract_x
 _atom_site_fract_y
 _atom_site_fract_z
 _atom_site_occupancy
  Th  Th0  1  0.383191  0.616809  0.741962  1
  Th  Th1  1  0.616809  0.383191  0.258038  1
  Ga  Ga2  1  0.000000  0.000000  0.500000  1
  Ga  Ga3  1  0.807223  0.192777  0.055168  1
  Ga  Ga4  1  0.192777  0.807223  0.944832  1
  Ga  Ga5  1  0.189823  0.810177  0.556790  1
  Ga  Ga6  1  0.810177  0.189823  0.443210  1
  Ga  Ga7  1  0.421623  0.578377  0.259399  1
  Ga  Ga8  1  0.578377  0.421623  0.740601  1
  Co  Co9  1  0.727772  0.272228  0.748647  1
  Co  Co10  1  0.272228  0.727772  0.251353  1
  Sn  Sn11  1  0.000000  0.000000  0.000000  1
