# generated using pymatgen
data_CaY3Ni13C4
_symmetry_space_group_name_H-M   'P 1'
_cell_length_a   8.40976452
_cell_length_b   8.40976600
_cell_length_c   3.89052300
_cell_angle_alpha   90.00000000
_cell_angle_beta   90.00000000
_cell_angle_gamma   90.83629641
_symmetry_Int_Tables_number   1
_chemical_formula_structural   CaY3Ni13C4
_chemical_formula_sum   'Ca1 Y3 Ni13 C4'
_cell_volume   275.12462937
_cell_formula_units_Z   1
loop_
 _symmetry_equiv_pos_site_id
 _symmetry_equiv_pos_as_xyz
  1  'x, y, z'
loop_
 _atom_site_type_symbol
 _atom_site_label
 _atom_site_symmetry_multiplicity
 _atom_site_fract_x
 _atom_site_fract_y
 _atom_site_fract_z
 _atom_site_occupancy
  Ca  Ca0  1  0.649179  0.649179  0.500000  1
  Y  Y1  1  0.812056  0.187490  0.500000  1
  Y  Y2  1  0.187490  0.812056  0.500000  1
  Y  Y3  1  0.350433  0.350433  0.500000  1
  Ni  Ni4  1  0.496196  0.005596  0.500000  1
  Ni  Ni5  1  0.005596  0.496196  0.500000  1
  Ni  Ni6  1  0.001849  0.001849  0.000000  1
  Ni  Ni7  1  0.427144  0.783290  0.000000  1
  Ni  Ni8  1  0.568460  0.213696  0.000000  1
  Ni  Ni9  1  0.213696  0.568460  0.000000  1
  Ni  Ni10  1  0.783290  0.427144  0.000000  1
  Ni  Ni11  1  0.711574  0.929215  0.000000  1
  Ni  Ni12  1  0.292386  0.074894  0.000000  1
  Ni  Ni13  1  0.074894  0.292386  0.000000  1
  Ni  Ni14  1  0.929215  0.711574  0.000000  1
  Ni  Ni15  1  0.877249  0.877249  0.500000  1
  Ni  Ni16  1  0.124815  0.124815  0.500000  1
  C  C17  1  0.441810  0.555044  0.000000  1
  C  C18  1  0.555044  0.441810  0.000000  1
  C  C19  1  0.501075  0.996550  0.000000  1
  C  C20  1  0.996550  0.501075  0.000000  1
