# generated using pymatgen
data_CuPd3O4
_symmetry_space_group_name_H-M   'P 1'
_cell_length_a   4.34765177
_cell_length_b   4.29472812
_cell_length_c   5.37992668
_cell_angle_alpha   89.82101224
_cell_angle_beta   90.50815426
_cell_angle_gamma   91.01673353
_symmetry_Int_Tables_number   1
_chemical_formula_structural   CuPd3O4
_chemical_formula_sum   'Cu1 Pd3 O4'
_cell_volume   100.43368788
_cell_formula_units_Z   1
loop_
 _symmetry_equiv_pos_site_id
 _symmetry_equiv_pos_as_xyz
  1  'x, y, z'
loop_
 _atom_site_type_symbol
 _atom_site_label
 _atom_site_symmetry_multiplicity
 _atom_site_fract_x
 _atom_site_fract_y
 _atom_site_fract_z
 _atom_site_occupancy
  Cu  Cu0  1  0.499999  0.000000  0.000000  1
  Pd  Pd1  1  0.000000  0.500001  0.000000  1
  Pd  Pd2  1  0.000000  0.000000  0.499999  1
  Pd  Pd3  1  0.499999  0.500001  0.499999  1
  O  O4  1  0.256658  0.760605  0.246174  1
  O  O5  1  0.741434  0.244887  0.246018  1
  O  O6  1  0.258565  0.755111  0.753981  1
  O  O7  1  0.743341  0.239394  0.753827  1
