# generated using pymatgen
data_BaTcH9
_symmetry_space_group_name_H-M   'P 1'
_cell_length_a   9.26086100
_cell_length_b   5.34952388
_cell_length_c   5.39063409
_cell_angle_alpha   59.77776905
_cell_angle_beta   90.00000000
_cell_angle_gamma   90.00000000
_symmetry_Int_Tables_number   1
_chemical_formula_structural   BaTcH9
_chemical_formula_sum   'Ba2 Tc2 H18'
_cell_volume   230.75976248
_cell_formula_units_Z   2
loop_
 _symmetry_equiv_pos_site_id
 _symmetry_equiv_pos_as_xyz
  1  'x, y, z'
loop_
 _atom_site_type_symbol
 _atom_site_label
 _atom_site_symmetry_multiplicity
 _atom_site_fract_x
 _atom_site_fract_y
 _atom_site_fract_z
 _atom_site_occupancy
  Ba  Ba0  1  0.500000  0.000000  0.000000  1
  Ba  Ba1  1  0.000000  0.000000  0.000000  1
  Tc  Tc2  1  0.250000  0.672198  0.666273  1
  Tc  Tc3  1  0.750000  0.327802  0.333727  1
  H  H4  1  0.250000  0.754649  0.932563  1
  H  H5  1  0.750000  0.245351  0.067437  1
  H  H6  1  0.250000  0.323944  0.940393  1
  H  H7  1  0.750000  0.676056  0.059607  1
  H  H8  1  0.250000  0.847455  0.310390  1
  H  H9  1  0.750000  0.152545  0.689610  1
  H  H10  1  0.356884  0.508386  0.537376  1
  H  H11  1  0.856884  0.491614  0.462624  1
  H  H12  1  0.643116  0.491614  0.462624  1
  H  H13  1  0.143116  0.508386  0.537376  1
  H  H14  1  0.356143  0.967922  0.527887  1
  H  H15  1  0.856143  0.032078  0.472113  1
  H  H16  1  0.643857  0.032078  0.472113  1
  H  H17  1  0.143857  0.967922  0.527887  1
  H  H18  1  0.411555  0.594041  0.824879  1
  H  H19  1  0.911555  0.405959  0.175121  1
  H  H20  1  0.588445  0.405959  0.175121  1
  H  H21  1  0.088445  0.594041  0.824879  1
