# generated using pymatgen
data_TbY7CdInPd2
_symmetry_space_group_name_H-M   'P 1'
_cell_length_a   9.74891601
_cell_length_b   9.74891676
_cell_length_c   9.76456700
_cell_angle_alpha   59.94687846
_cell_angle_beta   59.94687590
_cell_angle_gamma   59.98107570
_symmetry_Int_Tables_number   1
_chemical_formula_structural   TbY7CdInPd2
_chemical_formula_sum   'Tb2 Y14 Cd2 In2 Pd4'
_cell_volume   655.60075813
_cell_formula_units_Z   2
loop_
 _symmetry_equiv_pos_site_id
 _symmetry_equiv_pos_as_xyz
  1  'x, y, z'
loop_
 _atom_site_type_symbol
 _atom_site_label
 _atom_site_symmetry_multiplicity
 _atom_site_fract_x
 _atom_site_fract_y
 _atom_site_fract_z
 _atom_site_occupancy
  Tb  Tb0  1  0.352639  0.352639  0.352826  1
  Tb  Tb1  1  0.352639  0.352639  0.941895  1
  Y  Y2  1  0.354469  0.937836  0.353848  1
  Y  Y3  1  0.937836  0.354469  0.353848  1
  Y  Y4  1  0.809824  0.190690  0.189901  1
  Y  Y5  1  0.190690  0.809824  0.809585  1
  Y  Y6  1  0.190690  0.809824  0.189901  1
  Y  Y7  1  0.809824  0.190690  0.809585  1
  Y  Y8  1  0.189081  0.189081  0.810919  1
  Y  Y9  1  0.808683  0.808683  0.191317  1
  Y  Y10  1  0.936910  0.565177  0.564809  1
  Y  Y11  1  0.565177  0.936910  0.933104  1
  Y  Y12  1  0.565177  0.936910  0.564809  1
  Y  Y13  1  0.936910  0.565177  0.933104  1
  Y  Y14  1  0.565513  0.565513  0.934487  1
  Y  Y15  1  0.936286  0.936286  0.563714  1
  Cd  Cd16  1  0.581691  0.251187  0.583562  1
  Cd  Cd17  1  0.251187  0.581691  0.583562  1
  In  In18  1  0.582556  0.582556  0.583873  1
  In  In19  1  0.582556  0.582556  0.251015  1
  Pd  Pd20  1  0.144305  0.144305  0.144689  1
  Pd  Pd21  1  0.144305  0.144305  0.566700  1
  Pd  Pd22  1  0.144071  0.566981  0.144473  1
  Pd  Pd23  1  0.566981  0.144071  0.144473  1
