# generated using pymatgen
data_Nd2SmSi4(AsPd10)2
_symmetry_space_group_name_H-M   'P 1'
_cell_length_a   8.76309560
_cell_length_b   8.86166581
_cell_length_c   8.86166488
_cell_angle_alpha   59.26545127
_cell_angle_beta   60.36728285
_cell_angle_gamma   60.36727427
_symmetry_Int_Tables_number   1
_chemical_formula_structural   Nd2SmSi4(AsPd10)2
_chemical_formula_sum   'Nd2 Sm1 Si4 As2 Pd20'
_cell_volume   486.48221577
_cell_formula_units_Z   1
loop_
 _symmetry_equiv_pos_site_id
 _symmetry_equiv_pos_as_xyz
  1  'x, y, z'
loop_
 _atom_site_type_symbol
 _atom_site_label
 _atom_site_symmetry_multiplicity
 _atom_site_fract_x
 _atom_site_fract_y
 _atom_site_fract_z
 _atom_site_occupancy
  Nd  Nd0  1  0.250000  0.250000  0.250000  1
  Nd  Nd1  1  0.750000  0.750000  0.750000  1
  Sm  Sm2  1  0.000000  0.000000  0.000000  1
  Si  Si3  1  0.267263  0.732737  0.267263  1
  Si  Si4  1  0.732737  0.267263  0.732737  1
  Si  Si5  1  0.267263  0.267263  0.732737  1
  Si  Si6  1  0.732737  0.732737  0.267263  1
  As  As7  1  0.737205  0.262795  0.262795  1
  As  As8  1  0.262795  0.737205  0.737205  1
  Pd  Pd9  1  0.346314  0.000000  0.000000  1
  Pd  Pd10  1  0.653686  0.000000  0.000000  1
  Pd  Pd11  1  0.000000  0.346314  0.653686  1
  Pd  Pd12  1  0.000000  0.653686  0.346314  1
  Pd  Pd13  1  0.009273  0.347446  0.990727  1
  Pd  Pd14  1  0.652554  0.990727  0.347446  1
  Pd  Pd15  1  0.990727  0.652554  0.009273  1
  Pd  Pd16  1  0.347446  0.009273  0.652554  1
  Pd  Pd17  1  0.009273  0.990727  0.347446  1
  Pd  Pd18  1  0.990727  0.009273  0.652554  1
  Pd  Pd19  1  0.652554  0.347446  0.990727  1
  Pd  Pd20  1  0.347446  0.652554  0.009273  1
  Pd  Pd21  1  0.380732  0.387427  0.387427  1
  Pd  Pd22  1  0.619268  0.612573  0.612573  1
  Pd  Pd23  1  0.387427  0.380732  0.844413  1
  Pd  Pd24  1  0.387427  0.844413  0.380732  1
  Pd  Pd25  1  0.612573  0.619268  0.155587  1
  Pd  Pd26  1  0.612573  0.155587  0.619268  1
  Pd  Pd27  1  0.844413  0.387427  0.387427  1
  Pd  Pd28  1  0.155587  0.612573  0.612573  1
