# generated using pymatgen
data_Rb5As10(Ir2Ru3)2
_symmetry_space_group_name_H-M   'P 1'
_cell_length_a   9.54839144
_cell_length_b   9.54773421
_cell_length_c   9.54706131
_cell_angle_alpha   122.59485618
_cell_angle_beta   122.60451371
_cell_angle_gamma   85.56251341
_symmetry_Int_Tables_number   1
_chemical_formula_structural   Rb5As10(Ir2Ru3)2
_chemical_formula_sum   'Rb5 As10 Ir4 Ru6'
_cell_volume   589.27648399
_cell_formula_units_Z   1
loop_
 _symmetry_equiv_pos_site_id
 _symmetry_equiv_pos_as_xyz
  1  'x, y, z'
loop_
 _atom_site_type_symbol
 _atom_site_label
 _atom_site_symmetry_multiplicity
 _atom_site_fract_x
 _atom_site_fract_y
 _atom_site_fract_z
 _atom_site_occupancy
  Rb  Rb0  1  0.199214  0.602184  0.801590  1
  Rb  Rb1  1  0.397543  0.199637  0.598251  1
  Rb  Rb2  1  0.602148  0.801387  0.402426  1
  Rb  Rb3  1  0.801808  0.398009  0.198854  1
  Rb  Rb4  1  0.999470  0.998929  0.999172  1
  As  As5  1  0.453788  0.057483  0.201846  1
  As  As6  1  0.653452  0.654798  0.000632  1
  As  As7  1  0.854388  0.254020  0.799924  1
  As  As8  1  0.054913  0.853454  0.599545  1
  As  As9  1  0.255184  0.451997  0.397644  1
  As  As10  1  0.348348  0.346474  0.003310  1
  As  As11  1  0.545900  0.945548  0.800009  1
  As  As12  1  0.742884  0.544787  0.597117  1
  As  As13  1  0.946434  0.145895  0.400968  1
  As  As14  1  0.144483  0.745480  0.198657  1
  Ir  Ir15  1  0.650229  0.951151  0.101703  1
  Ir  Ir16  1  0.847841  0.549775  0.898843  1
  Ir  Ir17  1  0.051650  0.149883  0.701359  1
  Ir  Ir18  1  0.250005  0.748792  0.498235  1
  Ru  Ru19  1  0.350129  0.048642  0.898517  1
  Ru  Ru20  1  0.549337  0.650864  0.701242  1
  Ru  Ru21  1  0.751547  0.250273  0.501347  1
  Ru  Ru22  1  0.949767  0.849640  0.300033  1
  Ru  Ru23  1  0.149236  0.450623  0.098754  1
  Ru  Ru24  1  0.450306  0.350275  0.300019  1
