# generated using pymatgen
data_Tb8YbDyIr6
_symmetry_space_group_name_H-M   'P 1'
_cell_length_a   10.93517000
_cell_length_b   10.93517000
_cell_length_c   6.36986000
_cell_angle_alpha   90.00000000
_cell_angle_beta   90.00000000
_cell_angle_gamma   90.00000000
_symmetry_Int_Tables_number   1
_chemical_formula_structural   Tb8YbDyIr6
_chemical_formula_sum   'Tb16 Yb2 Dy2 Ir12'
_cell_volume   761.69475555
_cell_formula_units_Z   2
loop_
 _symmetry_equiv_pos_site_id
 _symmetry_equiv_pos_as_xyz
  1  'x, y, z'
loop_
 _atom_site_type_symbol
 _atom_site_label
 _atom_site_symmetry_multiplicity
 _atom_site_fract_x
 _atom_site_fract_y
 _atom_site_fract_z
 _atom_site_occupancy
  Tb  Tb0  1  0.290013  0.087796  0.381457  1
  Tb  Tb1  1  0.290013  0.912204  0.881457  1
  Tb  Tb2  1  0.709987  0.087796  0.881457  1
  Tb  Tb3  1  0.709987  0.912204  0.381457  1
  Tb  Tb4  1  0.589189  0.791124  0.880117  1
  Tb  Tb5  1  0.589189  0.208876  0.380117  1
  Tb  Tb6  1  0.410811  0.791124  0.380117  1
  Tb  Tb7  1  0.410811  0.208876  0.880117  1
  Tb  Tb8  1  0.208876  0.410811  0.619883  1
  Tb  Tb9  1  0.208876  0.589189  0.119883  1
  Tb  Tb10  1  0.791124  0.410811  0.119883  1
  Tb  Tb11  1  0.791124  0.589189  0.619883  1
  Tb  Tb12  1  0.912204  0.709987  0.118543  1
  Tb  Tb13  1  0.912204  0.290013  0.618543  1
  Tb  Tb14  1  0.087796  0.709987  0.618543  1
  Tb  Tb15  1  0.087796  0.290013  0.118543  1
  Yb  Yb16  1  0.000000  0.000000  0.500000  1
  Yb  Yb17  1  0.000000  0.000000  0.000000  1
  Dy  Dy18  1  0.500000  0.500000  0.000000  1
  Dy  Dy19  1  0.500000  0.500000  0.500000  1
  Ir  Ir20  1  0.842209  0.157791  0.250000  1
  Ir  Ir21  1  0.842209  0.842209  0.750000  1
  Ir  Ir22  1  0.157791  0.157791  0.750000  1
  Ir  Ir23  1  0.157791  0.842209  0.250000  1
  Ir  Ir24  1  0.653052  0.346948  0.750000  1
  Ir  Ir25  1  0.653052  0.653052  0.250000  1
  Ir  Ir26  1  0.346948  0.346948  0.250000  1
  Ir  Ir27  1  0.346948  0.653052  0.750000  1
  Ir  Ir28  1  0.500000  0.000000  0.122566  1
  Ir  Ir29  1  0.500000  0.000000  0.622566  1
  Ir  Ir30  1  0.000000  0.500000  0.877434  1
  Ir  Ir31  1  0.000000  0.500000  0.377434  1
