# generated using pymatgen
data_Ce2Nb2Ni10As7
_symmetry_space_group_name_H-M   'P 1'
_cell_length_a   9.62556503
_cell_length_b   9.49511855
_cell_length_c   3.89139900
_cell_angle_alpha   90.00000000
_cell_angle_beta   90.00000000
_cell_angle_gamma   120.16879198
_symmetry_Int_Tables_number   1
_chemical_formula_structural   Ce2Nb2Ni10As7
_chemical_formula_sum   'Ce2 Nb2 Ni10 As7'
_cell_volume   307.48350904
_cell_formula_units_Z   1
loop_
 _symmetry_equiv_pos_site_id
 _symmetry_equiv_pos_as_xyz
  1  'x, y, z'
loop_
 _atom_site_type_symbol
 _atom_site_label
 _atom_site_symmetry_multiplicity
 _atom_site_fract_x
 _atom_site_fract_y
 _atom_site_fract_z
 _atom_site_occupancy
  Ce  Ce0  1  0.342461  0.666431  0.000000  1
  Ce  Ce1  1  0.667751  0.341325  0.500000  1
  Nb  Nb2  1  0.215827  0.100247  0.500000  1
  Nb  Nb3  1  0.893702  0.108892  0.500000  1
  Ni  Ni4  1  0.426874  0.060794  0.000000  1
  Ni  Ni5  1  0.151180  0.280829  0.000000  1
  Ni  Ni6  1  0.940297  0.367958  0.000000  1
  Ni  Ni7  1  0.633910  0.570843  0.000000  1
  Ni  Ni8  1  0.131870  0.842436  0.000000  1
  Ni  Ni9  1  0.714795  0.873221  0.000000  1
  Ni  Ni10  1  0.376830  0.436215  0.500000  1
  Ni  Ni11  1  0.046589  0.623472  0.500000  1
  Ni  Ni12  1  0.885656  0.784521  0.500000  1
  Ni  Ni13  1  0.567137  0.943207  0.500000  1
  As  As14  1  0.994028  0.985968  0.000000  1
  As  As15  1  0.694182  0.113403  0.000000  1
  As  As16  1  0.411319  0.304947  0.000000  1
  As  As17  1  0.891223  0.593128  0.000000  1
  As  As18  1  0.112455  0.412050  0.500000  1
  As  As19  1  0.603780  0.707776  0.500000  1
  As  As20  1  0.298132  0.882340  0.500000  1
