# generated using pymatgen
data_Mg2AlGePt2
_symmetry_space_group_name_H-M   'P 1'
_cell_length_a   6.53533100
_cell_length_b   4.05209200
_cell_length_c   7.87821300
_cell_angle_alpha   90.00000000
_cell_angle_beta   90.00000000
_cell_angle_gamma   90.00000000
_symmetry_Int_Tables_number   1
_chemical_formula_structural   Mg2AlGePt2
_chemical_formula_sum   'Mg4 Al2 Ge2 Pt4'
_cell_volume   208.62896529
_cell_formula_units_Z   2
loop_
 _symmetry_equiv_pos_site_id
 _symmetry_equiv_pos_as_xyz
  1  'x, y, z'
loop_
 _atom_site_type_symbol
 _atom_site_label
 _atom_site_symmetry_multiplicity
 _atom_site_fract_x
 _atom_site_fract_y
 _atom_site_fract_z
 _atom_site_occupancy
  Mg  Mg0  1  0.967708  0.750001  0.167639  1
  Mg  Mg1  1  0.467707  0.750001  0.332361  1
  Mg  Mg2  1  0.531531  0.250001  0.665181  1
  Mg  Mg3  1  0.031530  0.250001  0.834820  1
  Al  Al4  1  0.650009  0.250001  0.054462  1
  Al  Al5  1  0.150008  0.250001  0.445538  1
  Ge  Ge6  1  0.851396  0.750001  0.554550  1
  Ge  Ge7  1  0.351395  0.750001  0.945450  1
  Pt  Pt8  1  0.271690  0.250001  0.138750  1
  Pt  Pt9  1  0.771689  0.250001  0.361250  1
  Pt  Pt10  1  0.227667  0.750001  0.636237  1
  Pt  Pt11  1  0.727667  0.750001  0.863764  1
