# generated using pymatgen
data_YbY5Al20(SiOs2)4
_symmetry_space_group_name_H-M   'P 1'
_cell_length_a   8.70316700
_cell_length_b   8.69708301
_cell_length_c   9.68722000
_cell_angle_alpha   90.00000000
_cell_angle_beta   90.00000000
_cell_angle_gamma   120.02313961
_symmetry_Int_Tables_number   1
_chemical_formula_structural   YbY5Al20(SiOs2)4
_chemical_formula_sum   'Yb1 Y5 Al20 Si4 Os8'
_cell_volume   634.86212021
_cell_formula_units_Z   1
loop_
 _symmetry_equiv_pos_site_id
 _symmetry_equiv_pos_as_xyz
  1  'x, y, z'
loop_
 _atom_site_type_symbol
 _atom_site_label
 _atom_site_symmetry_multiplicity
 _atom_site_fract_x
 _atom_site_fract_y
 _atom_site_fract_z
 _atom_site_occupancy
  Yb  Yb0  1  0.195690  0.391379  0.250000  1
  Y  Y1  1  0.804367  0.608735  0.750000  1
  Y  Y2  1  0.609338  0.804078  0.250000  1
  Y  Y3  1  0.390492  0.195689  0.750000  1
  Y  Y4  1  0.194740  0.804078  0.250000  1
  Y  Y5  1  0.805197  0.195689  0.750000  1
  Al  Al6  1  0.165536  0.331073  0.573821  1
  Al  Al7  1  0.834507  0.669015  0.423338  1
  Al  Al8  1  0.669136  0.835065  0.575833  1
  Al  Al9  1  0.834507  0.669015  0.076662  1
  Al  Al10  1  0.330692  0.165634  0.424316  1
  Al  Al11  1  0.165536  0.331073  0.926179  1
  Al  Al12  1  0.165930  0.835065  0.575833  1
  Al  Al13  1  0.330692  0.165634  0.075684  1
  Al  Al14  1  0.834942  0.165634  0.424316  1
  Al  Al15  1  0.669136  0.835065  0.924167  1
  Al  Al16  1  0.834942  0.165634  0.075684  1
  Al  Al17  1  0.165930  0.835065  0.924167  1
  Al  Al18  1  0.564206  0.128411  0.250000  1
  Al  Al19  1  0.436162  0.872325  0.750000  1
  Al  Al20  1  0.873383  0.435605  0.250000  1
  Al  Al21  1  0.127827  0.563422  0.750000  1
  Al  Al22  1  0.562223  0.435605  0.250000  1
  Al  Al23  1  0.435594  0.563422  0.750000  1
  Al  Al24  1  0.000785  0.001569  0.250000  1
  Al  Al25  1  0.000233  0.000466  0.750000  1
  Si  Si26  1  0.332903  0.665808  0.036574  1
  Si  Si27  1  0.666315  0.332629  0.963343  1
  Si  Si28  1  0.666315  0.332629  0.536657  1
  Si  Si29  1  0.332903  0.665808  0.463426  1
  Os  Os30  1  0.500015  0.000030  0.999546  1
  Os  Os31  1  0.999100  0.500254  0.999002  1
  Os  Os32  1  0.500015  0.000030  0.500454  1
  Os  Os33  1  0.501154  0.500254  0.999002  1
  Os  Os34  1  0.999100  0.500254  0.500998  1
  Os  Os35  1  0.501154  0.500254  0.500998  1
  Os  Os36  1  0.999652  0.999304  0.000102  1
  Os  Os37  1  0.999652  0.999304  0.499898  1
