# generated using pymatgen
data_YPaCdNi2
_symmetry_space_group_name_H-M   'P 1'
_cell_length_a   7.48174195
_cell_length_b   7.48174293
_cell_length_c   3.57944200
_cell_angle_alpha   90.00000000
_cell_angle_beta   90.00000000
_cell_angle_gamma   94.22976588
_symmetry_Int_Tables_number   1
_chemical_formula_structural   YPaCdNi2
_chemical_formula_sum   'Y2 Pa2 Cd2 Ni4'
_cell_volume   199.81879342
_cell_formula_units_Z   2
loop_
 _symmetry_equiv_pos_site_id
 _symmetry_equiv_pos_as_xyz
  1  'x, y, z'
loop_
 _atom_site_type_symbol
 _atom_site_label
 _atom_site_symmetry_multiplicity
 _atom_site_fract_x
 _atom_site_fract_y
 _atom_site_fract_z
 _atom_site_occupancy
  Y  Y0  1  0.170441  0.329559  0.500000  1
  Y  Y1  1  0.829559  0.670441  0.500000  1
  Pa  Pa2  1  0.671034  0.171034  0.500000  1
  Pa  Pa3  1  0.328966  0.828966  0.500000  1
  Cd  Cd4  1  0.000000  0.000000  0.000000  1
  Cd  Cd5  1  0.500000  0.500000  0.000000  1
  Ni  Ni6  1  0.138291  0.638291  0.000000  1
  Ni  Ni7  1  0.861709  0.361709  0.000000  1
  Ni  Ni8  1  0.615023  0.884977  0.000000  1
  Ni  Ni9  1  0.384977  0.115023  0.000000  1
