# generated using pymatgen
data_Ca2AsPd14
_symmetry_space_group_name_H-M   'P 1'
_cell_length_a   8.98501400
_cell_length_b   8.98501400
_cell_length_c   7.11745100
_cell_angle_alpha   90.00000000
_cell_angle_beta   90.00000000
_cell_angle_gamma   90.00000000
_symmetry_Int_Tables_number   1
_chemical_formula_structural   Ca2AsPd14
_chemical_formula_sum   'Ca4 As2 Pd28'
_cell_volume   574.59521127
_cell_formula_units_Z   2
loop_
 _symmetry_equiv_pos_site_id
 _symmetry_equiv_pos_as_xyz
  1  'x, y, z'
loop_
 _atom_site_type_symbol
 _atom_site_label
 _atom_site_symmetry_multiplicity
 _atom_site_fract_x
 _atom_site_fract_y
 _atom_site_fract_z
 _atom_site_occupancy
  Ca  Ca0  1  0.500000  0.000000  0.939339  1
  Ca  Ca1  1  0.000000  0.500000  0.060661  1
  Ca  Ca2  1  0.000000  0.000000  0.500000  1
  Ca  Ca3  1  0.500000  0.500000  0.500000  1
  As  As4  1  0.500000  0.000000  0.449650  1
  As  As5  1  0.000000  0.500000  0.550350  1
  Pd  Pd6  1  0.330726  0.830726  0.622497  1
  Pd  Pd7  1  0.330726  0.169274  0.622497  1
  Pd  Pd8  1  0.669274  0.830726  0.622497  1
  Pd  Pd9  1  0.669274  0.169274  0.622497  1
  Pd  Pd10  1  0.169274  0.669274  0.377503  1
  Pd  Pd11  1  0.169274  0.330726  0.377503  1
  Pd  Pd12  1  0.830726  0.669274  0.377503  1
  Pd  Pd13  1  0.830726  0.330726  0.377503  1
  Pd  Pd14  1  0.500000  0.766660  0.253844  1
  Pd  Pd15  1  0.500000  0.233340  0.253844  1
  Pd  Pd16  1  0.266660  0.000000  0.253844  1
  Pd  Pd17  1  0.733340  0.000000  0.253844  1
  Pd  Pd18  1  0.000000  0.733340  0.746156  1
  Pd  Pd19  1  0.000000  0.266660  0.746156  1
  Pd  Pd20  1  0.233340  0.500000  0.746156  1
  Pd  Pd21  1  0.766660  0.500000  0.746156  1
  Pd  Pd22  1  0.500000  0.349236  0.857369  1
  Pd  Pd23  1  0.500000  0.650764  0.857369  1
  Pd  Pd24  1  0.849236  0.000000  0.857369  1
  Pd  Pd25  1  0.150764  0.000000  0.857369  1
  Pd  Pd26  1  0.000000  0.150764  0.142631  1
  Pd  Pd27  1  0.000000  0.849236  0.142631  1
  Pd  Pd28  1  0.650764  0.500000  0.142631  1
  Pd  Pd29  1  0.349236  0.500000  0.142631  1
  Pd  Pd30  1  0.250000  0.750000  0.000000  1
  Pd  Pd31  1  0.250000  0.250000  0.000000  1
  Pd  Pd32  1  0.750000  0.750000  0.000000  1
  Pd  Pd33  1  0.750000  0.250000  0.000000  1
