# generated using pymatgen
data_Be6Si6Ir7Os5
_symmetry_space_group_name_H-M   'P 1'
_cell_length_a   4.08464100
_cell_length_b   5.76478220
_cell_length_c   12.29474743
_cell_angle_alpha   89.96978793
_cell_angle_beta   89.99983661
_cell_angle_gamma   89.99999998
_symmetry_Int_Tables_number   1
_chemical_formula_structural   Be6Si6Ir7Os5
_chemical_formula_sum   'Be6 Si6 Ir7 Os5'
_cell_volume   289.50518558
_cell_formula_units_Z   1
loop_
 _symmetry_equiv_pos_site_id
 _symmetry_equiv_pos_as_xyz
  1  'x, y, z'
loop_
 _atom_site_type_symbol
 _atom_site_label
 _atom_site_symmetry_multiplicity
 _atom_site_fract_x
 _atom_site_fract_y
 _atom_site_fract_z
 _atom_site_occupancy
  Be  Be0  1  0.999995  0.499329  0.996164  1
  Be  Be1  1  0.499835  0.999493  0.166135  1
  Be  Be2  1  0.999833  0.502259  0.336065  1
  Be  Be3  1  0.499992  0.997279  0.503990  1
  Be  Be4  1  0.000167  0.502830  0.668250  1
  Be  Be5  1  0.500150  0.999355  0.829468  1
  Si  Si6  1  0.000000  0.000293  0.996305  1
  Si  Si7  1  0.499892  0.499746  0.166670  1
  Si  Si8  1  0.999900  0.996551  0.335199  1
  Si  Si9  1  0.500000  0.505259  0.504131  1
  Si  Si10  1  0.000115  0.996692  0.669132  1
  Si  Si11  1  0.500109  0.501257  0.828594  1
  Ir  Ir12  1  0.500001  0.250107  0.003374  1
  Ir  Ir13  1  0.500000  0.749163  0.003572  1
  Ir  Ir14  1  0.999914  0.249275  0.168111  1
  Ir  Ir15  1  0.999918  0.750931  0.166380  1
  Ir  Ir16  1  0.499918  0.250053  0.331983  1
  Ir  Ir17  1  0.499918  0.748882  0.330017  1
  Ir  Ir18  1  0.999999  0.250165  0.496842  1
  Os  Os19  1  0.999998  0.750286  0.496873  1
  Os  Os20  1  0.500079  0.249312  0.665523  1
  Os  Os21  1  0.500094  0.752418  0.665489  1
  Os  Os22  1  0.000081  0.250591  0.835083  1
  Os  Os23  1  0.000091  0.748470  0.836650  1
