# generated using pymatgen
data_Ba4Pr7PuS16
_symmetry_space_group_name_H-M   'P 1'
_cell_length_a   4.21034000
_cell_length_b   12.52106929
_cell_length_c   15.01572690
_cell_angle_alpha   89.80880134
_cell_angle_beta   90.00000000
_cell_angle_gamma   90.00000000
_symmetry_Int_Tables_number   1
_chemical_formula_structural   Ba4Pr7PuS16
_chemical_formula_sum   'Ba4 Pr7 Pu1 S16'
_cell_volume   791.59406529
_cell_formula_units_Z   1
loop_
 _symmetry_equiv_pos_site_id
 _symmetry_equiv_pos_as_xyz
  1  'x, y, z'
loop_
 _atom_site_type_symbol
 _atom_site_label
 _atom_site_symmetry_multiplicity
 _atom_site_fract_x
 _atom_site_fract_y
 _atom_site_fract_z
 _atom_site_occupancy
  Ba  Ba0  1  0.250000  0.755853  0.340846  1
  Ba  Ba1  1  0.250000  0.256087  0.162044  1
  Ba  Ba2  1  0.750000  0.242537  0.658024  1
  Ba  Ba3  1  0.750000  0.744355  0.839482  1
  Pr  Pr4  1  0.250000  0.424458  0.392549  1
  Pr  Pr5  1  0.250000  0.929127  0.110547  1
  Pr  Pr6  1  0.750000  0.572601  0.608675  1
  Pr  Pr7  1  0.750000  0.073007  0.891444  1
  Pr  Pr8  1  0.250000  0.420182  0.896997  1
  Pr  Pr9  1  0.250000  0.922351  0.601501  1
  Pr  Pr10  1  0.750000  0.578997  0.103421  1
  Pu  Pu11  1  0.750000  0.078837  0.396827  1
  S  S12  1  0.250000  0.208094  0.823005  1
  S  S13  1  0.250000  0.708913  0.674030  1
  S  S14  1  0.750000  0.792149  0.176609  1
  S  S15  1  0.750000  0.288033  0.326548  1
  S  S16  1  0.250000  0.129175  0.516338  1
  S  S17  1  0.250000  0.629746  0.975762  1
  S  S18  1  0.750000  0.873696  0.473902  1
  S  S19  1  0.750000  0.369642  0.024562  1
  S  S20  1  0.250000  0.519959  0.217779  1
  S  S21  1  0.250000  0.025078  0.286721  1
  S  S22  1  0.750000  0.478646  0.782904  1
  S  S23  1  0.750000  0.979510  0.716472  1
  S  S24  1  0.250000  0.418207  0.580552  1
  S  S25  1  0.250000  0.919250  0.922003  1
  S  S26  1  0.750000  0.579756  0.420593  1
  S  S27  1  0.750000  0.081753  0.079865  1
