# generated using pymatgen
data_Ce12Si12OsRu3
_symmetry_space_group_name_H-M   'P 1'
_cell_length_a   4.32355500
_cell_length_b   10.42895598
_cell_length_c   12.83589900
_cell_angle_alpha   89.95668598
_cell_angle_beta   90.00000000
_cell_angle_gamma   90.00000000
_symmetry_Int_Tables_number   1
_chemical_formula_structural   Ce12Si12OsRu3
_chemical_formula_sum   'Ce12 Si12 Os1 Ru3'
_cell_volume   578.77263553
_cell_formula_units_Z   1
loop_
 _symmetry_equiv_pos_site_id
 _symmetry_equiv_pos_as_xyz
  1  'x, y, z'
loop_
 _atom_site_type_symbol
 _atom_site_label
 _atom_site_symmetry_multiplicity
 _atom_site_fract_x
 _atom_site_fract_y
 _atom_site_fract_z
 _atom_site_occupancy
  Ce  Ce0  1  0.250000  0.906542  0.028841  1
  Ce  Ce1  1  0.250000  0.596006  0.528094  1
  Ce  Ce2  1  0.750000  0.094447  0.970958  1
  Ce  Ce3  1  0.750000  0.405472  0.471353  1
  Ce  Ce4  1  0.250000  0.916652  0.594944  1
  Ce  Ce5  1  0.250000  0.583201  0.094594  1
  Ce  Ce6  1  0.750000  0.083453  0.406029  1
  Ce  Ce7  1  0.750000  0.415988  0.904962  1
  Ce  Ce8  1  0.250000  0.666886  0.807702  1
  Ce  Ce9  1  0.250000  0.831576  0.307918  1
  Ce  Ce10  1  0.750000  0.330812  0.192004  1
  Ce  Ce11  1  0.750000  0.166416  0.691865  1
  Si  Si12  1  0.250000  0.995600  0.811783  1
  Si  Si13  1  0.250000  0.503874  0.311480  1
  Si  Si14  1  0.750000  0.004865  0.188795  1
  Si  Si15  1  0.750000  0.493634  0.688665  1
  Si  Si16  1  0.250000  0.237589  0.842131  1
  Si  Si17  1  0.250000  0.263080  0.344121  1
  Si  Si18  1  0.750000  0.763319  0.156183  1
  Si  Si19  1  0.750000  0.737240  0.656654  1
  Si  Si20  1  0.250000  0.219272  0.539537  1
  Si  Si21  1  0.250000  0.281112  0.037640  1
  Si  Si22  1  0.750000  0.782259  0.461932  1
  Si  Si23  1  0.750000  0.719316  0.961703  1
  Os  Os24  1  0.250000  0.380230  0.686725  1
  Ru  Ru25  1  0.250000  0.120884  0.187687  1
  Ru  Ru26  1  0.750000  0.620380  0.312675  1
  Ru  Ru27  1  0.750000  0.879892  0.813026  1
