# generated using pymatgen
data_DyHo7In3Co
_symmetry_space_group_name_H-M   'P 1'
_cell_length_a   10.32907700
_cell_length_b   10.32907674
_cell_length_c   6.98258500
_cell_angle_alpha   89.99822880
_cell_angle_beta   90.00177371
_cell_angle_gamma   119.99735798
_symmetry_Int_Tables_number   1
_chemical_formula_structural   DyHo7In3Co
_chemical_formula_sum   'Dy2 Ho14 In6 Co2'
_cell_volume   645.18081285
_cell_formula_units_Z   2
loop_
 _symmetry_equiv_pos_site_id
 _symmetry_equiv_pos_as_xyz
  1  'x, y, z'
loop_
 _atom_site_type_symbol
 _atom_site_label
 _atom_site_symmetry_multiplicity
 _atom_site_fract_x
 _atom_site_fract_y
 _atom_site_fract_z
 _atom_site_occupancy
  Dy  Dy0  1  0.534839  0.069683  0.504331  1
  Dy  Dy1  1  0.930317  0.465161  0.504331  1
  Ho  Ho2  1  0.534815  0.465185  0.504743  1
  Ho  Ho3  1  0.464840  0.929631  0.004504  1
  Ho  Ho4  1  0.070369  0.535160  0.004504  1
  Ho  Ho5  1  0.464925  0.535075  0.004775  1
  Ho  Ho6  1  0.178398  0.356329  0.712648  1
  Ho  Ho7  1  0.643671  0.821602  0.712648  1
  Ho  Ho8  1  0.178184  0.821816  0.712678  1
  Ho  Ho9  1  0.821875  0.644022  0.212330  1
  Ho  Ho10  1  0.355978  0.178125  0.212330  1
  Ho  Ho11  1  0.822031  0.177969  0.212049  1
  Ho  Ho12  1  0.666550  0.333450  0.894391  1
  Ho  Ho13  1  0.333450  0.666550  0.395074  1
  Ho  Ho14  1  0.000026  0.999974  0.493504  1
  Ho  Ho15  1  0.999992  0.000008  0.993358  1
  In  In16  1  0.837096  0.674602  0.753048  1
  In  In17  1  0.325398  0.162904  0.753048  1
  In  In18  1  0.837535  0.162465  0.752903  1
  In  In19  1  0.162997  0.326071  0.252981  1
  In  In20  1  0.673929  0.837003  0.252981  1
  In  In21  1  0.163081  0.836919  0.252833  1
  Co  Co22  1  0.666387  0.333613  0.280823  1
  Co  Co23  1  0.333317  0.666683  0.781225  1
