# generated using pymatgen
data_Zr8GaSi7
_symmetry_space_group_name_H-M   'P 1'
_cell_length_a   14.23228013
_cell_length_b   3.78764200
_cell_length_c   5.35011405
_cell_angle_alpha   90.00000000
_cell_angle_beta   90.01522868
_cell_angle_gamma   90.00000000
_symmetry_Int_Tables_number   1
_chemical_formula_structural   Zr8GaSi7
_chemical_formula_sum   'Zr8 Ga1 Si7'
_cell_volume   288.40742122
_cell_formula_units_Z   1
loop_
 _symmetry_equiv_pos_site_id
 _symmetry_equiv_pos_as_xyz
  1  'x, y, z'
loop_
 _atom_site_type_symbol
 _atom_site_label
 _atom_site_symmetry_multiplicity
 _atom_site_fract_x
 _atom_site_fract_y
 _atom_site_fract_z
 _atom_site_occupancy
  Zr  Zr0  1  0.213546  0.250001  0.000538  1
  Zr  Zr1  1  0.036756  0.749999  0.246763  1
  Zr  Zr2  1  0.531923  0.749999  0.257312  1
  Zr  Zr3  1  0.716444  0.250001  0.501518  1
  Zr  Zr4  1  0.285217  0.749999  0.501215  1
  Zr  Zr5  1  0.461401  0.250001  0.744208  1
  Zr  Zr6  1  0.964301  0.250001  0.752791  1
  Zr  Zr7  1  0.790049  0.749999  0.995252  1
  Ga  Ga8  1  0.644925  0.250001  0.018637  1
  Si  Si9  1  0.896348  0.250001  0.238800  1
  Si  Si10  1  0.395032  0.250001  0.261983  1
  Si  Si11  1  0.144451  0.250001  0.487345  1
  Si  Si12  1  0.856650  0.749999  0.509747  1
  Si  Si13  1  0.603934  0.749999  0.735864  1
  Si  Si14  1  0.104387  0.749999  0.760989  1
  Si  Si15  1  0.354635  0.749999  0.987024  1
