# generated using pymatgen
data_Al2(MoN2)3
_symmetry_space_group_name_H-M   'P 1'
_cell_length_a   4.92874300
_cell_length_b   4.92874406
_cell_length_c   10.04218400
_cell_angle_alpha   90.00000000
_cell_angle_beta   90.00000000
_cell_angle_gamma   120.00001305
_symmetry_Int_Tables_number   1
_chemical_formula_structural   Al2(MoN2)3
_chemical_formula_sum   'Al4 Mo6 N12'
_cell_volume   211.26676815
_cell_formula_units_Z   2
loop_
 _symmetry_equiv_pos_site_id
 _symmetry_equiv_pos_as_xyz
  1  'x, y, z'
loop_
 _atom_site_type_symbol
 _atom_site_label
 _atom_site_symmetry_multiplicity
 _atom_site_fract_x
 _atom_site_fract_y
 _atom_site_fract_z
 _atom_site_occupancy
  Al  Al0  1  0.333333  0.666667  0.500000  1
  Al  Al1  1  0.666667  0.333333  0.000000  1
  Al  Al2  1  0.666667  0.333333  0.500000  1
  Al  Al3  1  0.333333  0.666667  0.000000  1
  Mo  Mo4  1  0.674904  0.000000  0.750000  1
  Mo  Mo5  1  0.674904  0.674904  0.250000  1
  Mo  Mo6  1  0.000000  0.325096  0.250000  1
  Mo  Mo7  1  0.000000  0.674904  0.750000  1
  Mo  Mo8  1  0.325096  0.325096  0.750000  1
  Mo  Mo9  1  0.325096  0.000000  0.250000  1
  N  N10  1  0.349569  0.349569  0.380734  1
  N  N11  1  0.650431  0.000000  0.380734  1
  N  N12  1  0.000000  0.650431  0.380734  1
  N  N13  1  0.000000  0.349569  0.880734  1
  N  N14  1  0.650431  0.000000  0.119266  1
  N  N15  1  0.650431  0.650431  0.880734  1
  N  N16  1  0.349569  0.000000  0.880734  1
  N  N17  1  0.650431  0.650431  0.619266  1
  N  N18  1  0.000000  0.349569  0.619266  1
  N  N19  1  0.000000  0.650431  0.119266  1
  N  N20  1  0.349569  0.000000  0.619266  1
  N  N21  1  0.349569  0.349569  0.119266  1
