# generated using pymatgen
data_CdGaCu(Ni10B3)2
_symmetry_space_group_name_H-M   'P 1'
_cell_length_a   7.45564719
_cell_length_b   7.45564689
_cell_length_c   7.45637600
_cell_angle_alpha   59.99413706
_cell_angle_beta   59.99413902
_cell_angle_gamma   60.00134787
_symmetry_Int_Tables_number   1
_chemical_formula_structural   CdGaCu(Ni10B3)2
_chemical_formula_sum   'Cd1 Ga1 Cu1 Ni20 B6'
_cell_volume   293.05519135
_cell_formula_units_Z   1
loop_
 _symmetry_equiv_pos_site_id
 _symmetry_equiv_pos_as_xyz
  1  'x, y, z'
loop_
 _atom_site_type_symbol
 _atom_site_label
 _atom_site_symmetry_multiplicity
 _atom_site_fract_x
 _atom_site_fract_y
 _atom_site_fract_z
 _atom_site_occupancy
  Cd  Cd0  1  0.750000  0.750000  0.749999  1
  Ga  Ga1  1  0.250002  0.250002  0.249989  1
  Cu  Cu2  1  0.000000  0.000000  0.000001  1
  Ni  Ni3  1  0.610288  0.610288  0.169080  1
  Ni  Ni4  1  0.610331  0.169206  0.610225  1
  Ni  Ni5  1  0.169206  0.610331  0.610225  1
  Ni  Ni6  1  0.610258  0.610258  0.610301  1
  Ni  Ni7  1  0.379688  0.379688  0.860983  1
  Ni  Ni8  1  0.379653  0.860869  0.379756  1
  Ni  Ni9  1  0.860869  0.379653  0.379756  1
  Ni  Ni10  1  0.379709  0.379709  0.379696  1
  Ni  Ni11  1  0.000117  0.000117  0.336871  1
  Ni  Ni12  1  0.662917  0.000100  0.336888  1
  Ni  Ni13  1  0.000100  0.662917  0.336888  1
  Ni  Ni14  1  0.662741  0.336928  0.000165  1
  Ni  Ni15  1  0.000164  0.336889  0.000168  1
  Ni  Ni16  1  0.000208  0.336779  0.662801  1
  Ni  Ni17  1  0.336928  0.662741  0.000165  1
  Ni  Ni18  1  0.336779  0.000208  0.662801  1
  Ni  Ni19  1  0.336889  0.000164  0.000168  1
  Ni  Ni20  1  0.000205  0.000205  0.662792  1
  Ni  Ni21  1  0.000151  0.662804  0.000140  1
  Ni  Ni22  1  0.662804  0.000151  0.000140  1
  B  B23  1  0.726912  0.726912  0.273086  1
  B  B24  1  0.273063  0.726942  0.273067  1
  B  B25  1  0.726942  0.273063  0.273067  1
  B  B26  1  0.273072  0.273072  0.726922  1
  B  B27  1  0.726965  0.273044  0.726930  1
  B  B28  1  0.273044  0.726965  0.726930  1
