# generated using pymatgen
data_Nd8Tm12Si15Ir
_symmetry_space_group_name_H-M   'P 1'
_cell_length_a   7.44006274
_cell_length_b   14.72311600
_cell_length_c   7.81846800
_cell_angle_alpha   90.00000000
_cell_angle_beta   90.10179162
_cell_angle_gamma   90.00000000
_symmetry_Int_Tables_number   1
_chemical_formula_structural   Nd8Tm12Si15Ir
_chemical_formula_sum   'Nd8 Tm12 Si15 Ir1'
_cell_volume   856.44072284
_cell_formula_units_Z   1
loop_
 _symmetry_equiv_pos_site_id
 _symmetry_equiv_pos_as_xyz
  1  'x, y, z'
loop_
 _atom_site_type_symbol
 _atom_site_label
 _atom_site_symmetry_multiplicity
 _atom_site_fract_x
 _atom_site_fract_y
 _atom_site_fract_z
 _atom_site_occupancy
  Nd  Nd0  1  0.020440  0.097062  0.181002  1
  Nd  Nd1  1  0.020440  0.402938  0.181002  1
  Nd  Nd2  1  0.519708  0.097051  0.321319  1
  Nd  Nd3  1  0.519708  0.402949  0.321319  1
  Nd  Nd4  1  0.479705  0.596594  0.678186  1
  Nd  Nd5  1  0.479705  0.903406  0.678186  1
  Nd  Nd6  1  0.982893  0.597044  0.824754  1
  Nd  Nd7  1  0.982893  0.902956  0.824754  1
  Tm  Tm8  1  0.345413  0.250000  0.011210  1
  Tm  Tm9  1  0.312240  0.626433  0.173692  1
  Tm  Tm10  1  0.312240  0.873566  0.173692  1
  Tm  Tm11  1  0.828896  0.626014  0.316692  1
  Tm  Tm12  1  0.828896  0.873985  0.316692  1
  Tm  Tm13  1  0.845489  0.250000  0.488725  1
  Tm  Tm14  1  0.148380  0.750000  0.505063  1
  Tm  Tm15  1  0.179094  0.124532  0.678741  1
  Tm  Tm16  1  0.179094  0.375467  0.678741  1
  Tm  Tm17  1  0.679515  0.124930  0.824108  1
  Tm  Tm18  1  0.679515  0.375069  0.824108  1
  Tm  Tm19  1  0.663855  0.750000  0.993838  1
  Si  Si20  1  0.646849  0.538408  0.031321  1
  Si  Si21  1  0.646849  0.961592  0.031321  1
  Si  Si22  1  0.723816  0.250000  0.123839  1
  Si  Si23  1  0.224368  0.250000  0.375680  1
  Si  Si24  1  0.523723  0.750000  0.392261  1
  Si  Si25  1  0.150481  0.538242  0.472573  1
  Si  Si26  1  0.150481  0.961758  0.472573  1
  Si  Si27  1  0.852433  0.038930  0.532839  1
  Si  Si28  1  0.852433  0.461069  0.532839  1
  Si  Si29  1  0.474979  0.250000  0.613820  1
  Si  Si30  1  0.766651  0.750000  0.620503  1
  Si  Si31  1  0.273969  0.750000  0.873103  1
  Si  Si32  1  0.975198  0.250000  0.884893  1
  Si  Si33  1  0.352903  0.039486  0.968097  1
  Si  Si34  1  0.352903  0.460513  0.968097  1
  Ir  Ir35  1  0.023846  0.750000  0.110420  1
