# generated using pymatgen
data_AcZn10Ir
_symmetry_space_group_name_H-M   'P 1'
_cell_length_a   8.41661743
_cell_length_b   8.41661798
_cell_length_c   8.41661762
_cell_angle_alpha   101.45857023
_cell_angle_beta   98.10571131
_cell_angle_gamma   131.32586269
_symmetry_Int_Tables_number   1
_chemical_formula_structural   AcZn10Ir
_chemical_formula_sum   'Ac2 Zn20 Ir2'
_cell_volume   407.71317332
_cell_formula_units_Z   2
loop_
 _symmetry_equiv_pos_site_id
 _symmetry_equiv_pos_as_xyz
  1  'x, y, z'
loop_
 _atom_site_type_symbol
 _atom_site_label
 _atom_site_symmetry_multiplicity
 _atom_site_fract_x
 _atom_site_fract_y
 _atom_site_fract_z
 _atom_site_occupancy
  Ac  Ac0  1  0.256563  0.756563  0.500000  1
  Ac  Ac1  1  0.993437  0.993437  0.000000  1
  Zn  Zn2  1  0.896047  0.565721  0.078809  1
  Zn  Zn3  1  0.427405  0.514249  0.327150  1
  Zn  Zn4  1  0.486912  0.565721  0.669674  1
  Zn  Zn5  1  0.427405  0.100254  0.913157  1
  Zn  Zn6  1  0.763088  0.184279  0.830326  1
  Zn  Zn7  1  0.486912  0.817239  0.921191  1
  Zn  Zn8  1  0.517686  0.517686  0.000000  1
  Zn  Zn9  1  0.763088  0.932761  0.578809  1
  Zn  Zn10  1  0.732314  0.232314  0.500000  1
  Zn  Zn11  1  0.062901  0.649746  0.827150  1
  Zn  Zn12  1  0.125000  0.375000  0.750000  1
  Zn  Zn13  1  0.353953  0.184279  0.421191  1
  Zn  Zn14  1  0.822595  0.649746  0.586843  1
  Zn  Zn15  1  0.896047  0.817239  0.330326  1
  Zn  Zn16  1  0.187099  0.100254  0.672850  1
  Zn  Zn17  1  0.062901  0.235751  0.413157  1
  Zn  Zn18  1  0.353953  0.932761  0.169674  1
  Zn  Zn19  1  0.822595  0.235751  0.172850  1
  Zn  Zn20  1  0.187099  0.514249  0.086843  1
  Zn  Zn21  1  0.625000  0.375000  0.250000  1
  Ir  Ir22  1  0.625000  0.875000  0.250000  1
  Ir  Ir23  1  0.625000  0.375000  0.750000  1
