# generated using pymatgen
data_TbCu3NiPt
_symmetry_space_group_name_H-M   'P 1'
_cell_length_a   5.17009470
_cell_length_b   5.17009502
_cell_length_c   4.09447300
_cell_angle_alpha   90.00000000
_cell_angle_beta   90.00000000
_cell_angle_gamma   123.98429645
_symmetry_Int_Tables_number   1
_chemical_formula_structural   TbCu3NiPt
_chemical_formula_sum   'Tb1 Cu3 Ni1 Pt1'
_cell_volume   90.75060133
_cell_formula_units_Z   1
loop_
 _symmetry_equiv_pos_site_id
 _symmetry_equiv_pos_as_xyz
  1  'x, y, z'
loop_
 _atom_site_type_symbol
 _atom_site_label
 _atom_site_symmetry_multiplicity
 _atom_site_fract_x
 _atom_site_fract_y
 _atom_site_fract_z
 _atom_site_occupancy
  Tb  Tb0  1  0.502150  0.497850  0.000000  1
  Cu  Cu1  1  0.180430  0.819570  0.000000  1
  Cu  Cu2  1  0.997661  0.500026  0.500000  1
  Cu  Cu3  1  0.499974  0.002339  0.500000  1
  Ni  Ni4  1  0.821994  0.178006  0.000000  1
  Pt  Pt5  1  0.997790  0.002210  0.500000  1
