# generated using pymatgen
data_Nd11In9(IrPd)2
_symmetry_space_group_name_H-M   'P 1'
_cell_length_a   13.43616782
_cell_length_b   13.50356417
_cell_length_c   3.84923100
_cell_angle_alpha   90.00000000
_cell_angle_beta   90.00000000
_cell_angle_gamma   111.19971990
_symmetry_Int_Tables_number   1
_chemical_formula_structural   Nd11In9(IrPd)2
_chemical_formula_sum   'Nd11 In9 Ir2 Pd2'
_cell_volume   651.12654625
_cell_formula_units_Z   1
loop_
 _symmetry_equiv_pos_site_id
 _symmetry_equiv_pos_as_xyz
  1  'x, y, z'
loop_
 _atom_site_type_symbol
 _atom_site_label
 _atom_site_symmetry_multiplicity
 _atom_site_fract_x
 _atom_site_fract_y
 _atom_site_fract_z
 _atom_site_occupancy
  Nd  Nd0  1  0.072802  0.417196  0.000000  1
  Nd  Nd1  1  0.927198  0.582804  0.000000  1
  Nd  Nd2  1  0.418558  0.076689  0.000000  1
  Nd  Nd3  1  0.581442  0.923311  0.000000  1
  Nd  Nd4  1  0.621020  0.367429  0.000000  1
  Nd  Nd5  1  0.378980  0.632571  0.000000  1
  Nd  Nd6  1  0.839546  0.157873  0.000000  1
  Nd  Nd7  1  0.160454  0.842127  0.000000  1
  Nd  Nd8  1  0.000000  0.000000  0.000000  1
  Nd  Nd9  1  0.314680  0.307365  0.000000  1
  Nd  Nd10  1  0.685320  0.692635  0.000000  1
  In  In11  1  0.838202  0.366877  0.500000  1
  In  In12  1  0.161798  0.633123  0.500000  1
  In  In13  1  0.364806  0.836384  0.500000  1
  In  In14  1  0.635194  0.163616  0.500000  1
  In  In15  1  0.077212  0.219017  0.500000  1
  In  In16  1  0.922788  0.780983  0.500000  1
  In  In17  1  0.219577  0.077623  0.500000  1
  In  In18  1  0.780423  0.922377  0.500000  1
  In  In19  1  0.500000  0.500000  0.500000  1
  Ir  Ir20  1  0.449289  0.242669  0.500000  1
  Ir  Ir21  1  0.550711  0.757331  0.500000  1
  Pd  Pd22  1  0.247657  0.449968  0.500000  1
  Pd  Pd23  1  0.752343  0.550032  0.500000  1
