# generated using pymatgen
data_Lu5Sc3(Si3Ir4)4
_symmetry_space_group_name_H-M   'P 1'
_cell_length_a   13.02196900
_cell_length_b   13.02196928
_cell_length_c   4.01542400
_cell_angle_alpha   90.00000000
_cell_angle_beta   90.00000000
_cell_angle_gamma   120.00000182
_symmetry_Int_Tables_number   1
_chemical_formula_structural   Lu5Sc3(Si3Ir4)4
_chemical_formula_sum   'Lu5 Sc3 Si12 Ir16'
_cell_volume   589.67858747
_cell_formula_units_Z   1
loop_
 _symmetry_equiv_pos_site_id
 _symmetry_equiv_pos_as_xyz
  1  'x, y, z'
loop_
 _atom_site_type_symbol
 _atom_site_label
 _atom_site_symmetry_multiplicity
 _atom_site_fract_x
 _atom_site_fract_y
 _atom_site_fract_z
 _atom_site_occupancy
  Lu  Lu0  1  0.333333  0.666667  0.500000  1
  Lu  Lu1  1  0.666667  0.333333  0.500000  1
  Lu  Lu2  1  0.000000  0.814913  0.000000  1
  Lu  Lu3  1  0.185087  0.185087  0.000000  1
  Lu  Lu4  1  0.814913  0.000000  0.000000  1
  Sc  Sc5  1  0.000000  0.436755  0.500000  1
  Sc  Sc6  1  0.563245  0.563245  0.500000  1
  Sc  Sc7  1  0.436755  0.000000  0.500000  1
  Si  Si8  1  0.000000  0.638813  0.500000  1
  Si  Si9  1  0.361187  0.361187  0.500000  1
  Si  Si10  1  0.638813  0.000000  0.500000  1
  Si  Si11  1  0.517981  0.694892  0.000000  1
  Si  Si12  1  0.305108  0.823088  0.000000  1
  Si  Si13  1  0.176912  0.482019  0.000000  1
  Si  Si14  1  0.482019  0.176912  0.000000  1
  Si  Si15  1  0.694892  0.517981  0.000000  1
  Si  Si16  1  0.823088  0.305108  0.000000  1
  Si  Si17  1  0.000000  0.180652  0.500000  1
  Si  Si18  1  0.819348  0.819348  0.500000  1
  Si  Si19  1  0.180652  0.000000  0.500000  1
  Ir  Ir20  1  0.509806  0.874606  0.000000  1
  Ir  Ir21  1  0.125394  0.635201  0.000000  1
  Ir  Ir22  1  0.364799  0.490194  0.000000  1
  Ir  Ir23  1  0.490194  0.364799  0.000000  1
  Ir  Ir24  1  0.874606  0.509806  0.000000  1
  Ir  Ir25  1  0.635201  0.125394  0.000000  1
  Ir  Ir26  1  0.000000  0.277024  0.000000  1
  Ir  Ir27  1  0.722976  0.722976  0.000000  1
  Ir  Ir28  1  0.277024  0.000000  0.000000  1
  Ir  Ir29  1  0.627749  0.808685  0.500000  1
  Ir  Ir30  1  0.191315  0.819064  0.500000  1
  Ir  Ir31  1  0.180936  0.372251  0.500000  1
  Ir  Ir32  1  0.372251  0.180936  0.500000  1
  Ir  Ir33  1  0.808685  0.627749  0.500000  1
  Ir  Ir34  1  0.819064  0.191315  0.500000  1
  Ir  Ir35  1  0.000000  0.000000  0.500000  1
