# generated using pymatgen
data_Pa2Mn8Co4P7
_symmetry_space_group_name_H-M   'P 1'
_cell_length_a   9.08988516
_cell_length_b   9.12702087
_cell_length_c   3.67046500
_cell_angle_alpha   90.00000000
_cell_angle_beta   90.00000000
_cell_angle_gamma   120.08016515
_symmetry_Int_Tables_number   1
_chemical_formula_structural   Pa2Mn8Co4P7
_chemical_formula_sum   'Pa2 Mn8 Co4 P7'
_cell_volume   263.50433843
_cell_formula_units_Z   1
loop_
 _symmetry_equiv_pos_site_id
 _symmetry_equiv_pos_as_xyz
  1  'x, y, z'
loop_
 _atom_site_type_symbol
 _atom_site_label
 _atom_site_symmetry_multiplicity
 _atom_site_fract_x
 _atom_site_fract_y
 _atom_site_fract_z
 _atom_site_occupancy
  Pa  Pa0  1  0.333812  0.668127  0.000000  1
  Pa  Pa1  1  0.999591  0.995842  0.500000  1
  Mn  Mn2  1  0.728541  0.764389  0.000000  1
  Mn  Mn3  1  0.235538  0.965164  0.000000  1
  Mn  Mn4  1  0.544806  0.057676  0.000000  1
  Mn  Mn5  1  0.944885  0.486821  0.000000  1
  Mn  Mn6  1  0.510765  0.456558  0.000000  1
  Mn  Mn7  1  0.783109  0.225831  0.500000  1
  Mn  Mn8  1  0.772214  0.552409  0.500000  1
  Mn  Mn9  1  0.446678  0.221747  0.500000  1
  Co  Co10  1  0.036013  0.269286  0.000000  1
  Co  Co11  1  0.607080  0.893415  0.500000  1
  Co  Co12  1  0.108400  0.715591  0.500000  1
  Co  Co13  1  0.282582  0.392284  0.500000  1
  P  P14  1  0.772934  0.029815  0.000000  1
  P  P15  1  0.967497  0.741028  0.000000  1
  P  P16  1  0.258093  0.223910  0.000000  1
  P  P17  1  0.374440  0.934565  0.500000  1
  P  P18  1  0.067174  0.444694  0.500000  1
  P  P19  1  0.559140  0.626740  0.500000  1
  P  P20  1  0.666704  0.334111  0.000000  1
