# generated using pymatgen
data_Pr5SnRhO12
_symmetry_space_group_name_H-M   'P 1'
_cell_length_a   7.16759449
_cell_length_b   7.16759463
_cell_length_c   7.69961630
_cell_angle_alpha   74.46782688
_cell_angle_beta   74.46783340
_cell_angle_gamma   51.03474527
_symmetry_Int_Tables_number   1
_chemical_formula_structural   Pr5SnRhO12
_chemical_formula_sum   'Pr5 Sn1 Rh1 O12'
_cell_volume   293.70980237
_cell_formula_units_Z   1
loop_
 _symmetry_equiv_pos_site_id
 _symmetry_equiv_pos_as_xyz
  1  'x, y, z'
loop_
 _atom_site_type_symbol
 _atom_site_label
 _atom_site_symmetry_multiplicity
 _atom_site_fract_x
 _atom_site_fract_y
 _atom_site_fract_z
 _atom_site_occupancy
  Pr  Pr0  1  0.303298  0.304881  0.359705  1
  Pr  Pr1  1  0.695119  0.696702  0.640295  1
  Pr  Pr2  1  0.688457  0.698033  0.168313  1
  Pr  Pr3  1  0.301967  0.311543  0.831687  1
  Pr  Pr4  1  0.006299  0.993701  0.500000  1
  Sn  Sn5  1  0.761709  0.238291  0.000000  1
  Rh  Rh6  1  0.249901  0.750099  0.000000  1
  O  O7  1  0.093367  0.598036  0.575472  1
  O  O8  1  0.012629  0.985697  0.180743  1
  O  O9  1  0.401964  0.906633  0.424528  1
  O  O10  1  0.495754  0.505230  0.179627  1
  O  O11  1  0.102811  0.584149  0.078965  1
  O  O12  1  0.903313  0.406149  0.421745  1
  O  O13  1  0.014303  0.987371  0.819257  1
  O  O14  1  0.593851  0.096686  0.578255  1
  O  O15  1  0.494770  0.504246  0.820373  1
  O  O16  1  0.566002  0.101365  0.081440  1
  O  O17  1  0.415851  0.897189  0.921035  1
  O  O18  1  0.898635  0.433998  0.918560  1
