# generated using pymatgen
data_Tb2Ho4Al17Si7Os8
_symmetry_space_group_name_H-M   'P 1'
_cell_length_a   8.70026213
_cell_length_b   8.68882898
_cell_length_c   9.49101300
_cell_angle_alpha   90.00000000
_cell_angle_beta   90.00000000
_cell_angle_gamma   120.11170256
_symmetry_Int_Tables_number   1
_chemical_formula_structural   Tb2Ho4Al17Si7Os8
_chemical_formula_sum   'Tb2 Ho4 Al17 Si7 Os8'
_cell_volume   620.65012688
_cell_formula_units_Z   1
loop_
 _symmetry_equiv_pos_site_id
 _symmetry_equiv_pos_as_xyz
  1  'x, y, z'
loop_
 _atom_site_type_symbol
 _atom_site_label
 _atom_site_symmetry_multiplicity
 _atom_site_fract_x
 _atom_site_fract_y
 _atom_site_fract_z
 _atom_site_occupancy
  Tb  Tb0  1  0.807657  0.615047  0.750000  1
  Tb  Tb1  1  0.386740  0.190434  0.750000  1
  Ho  Ho2  1  0.192816  0.388384  0.250000  1
  Ho  Ho3  1  0.610765  0.807328  0.250000  1
  Ho  Ho4  1  0.195836  0.805439  0.250000  1
  Ho  Ho5  1  0.802658  0.191539  0.750000  1
  Al  Al6  1  0.164235  0.329669  0.577886  1
  Al  Al7  1  0.834267  0.671284  0.420665  1
  Al  Al8  1  0.671239  0.835189  0.577476  1
  Al  Al9  1  0.834267  0.671284  0.079335  1
  Al  Al10  1  0.329531  0.165861  0.421826  1
  Al  Al11  1  0.164235  0.329669  0.922114  1
  Al  Al12  1  0.163796  0.834240  0.576326  1
  Al  Al13  1  0.329531  0.165861  0.078174  1
  Al  Al14  1  0.835501  0.164005  0.421410  1
  Al  Al15  1  0.671239  0.835189  0.922524  1
  Al  Al16  1  0.835501  0.164005  0.078590  1
  Al  Al17  1  0.163796  0.834240  0.923674  1
  Al  Al18  1  0.125975  0.565295  0.750000  1
  Al  Al19  1  0.564542  0.435239  0.250000  1
  Al  Al20  1  0.438489  0.566644  0.750000  1
  Al  Al21  1  0.999541  0.999406  0.250000  1
  Al  Al22  1  0.999495  0.001011  0.750000  1
  Si  Si23  1  0.333434  0.664608  0.039169  1
  Si  Si24  1  0.666734  0.335407  0.960816  1
  Si  Si25  1  0.666734  0.335407  0.539184  1
  Si  Si26  1  0.333434  0.664608  0.460831  1
  Si  Si27  1  0.564703  0.124298  0.250000  1
  Si  Si28  1  0.436861  0.873026  0.750000  1
  Si  Si29  1  0.874920  0.434960  0.250000  1
  Os  Os30  1  0.501040  0.000892  0.001238  1
  Os  Os31  1  0.998540  0.499253  0.006844  1
  Os  Os32  1  0.501040  0.000892  0.498762  1
  Os  Os33  1  0.500596  0.500215  0.000797  1
  Os  Os34  1  0.998540  0.499253  0.493156  1
  Os  Os35  1  0.500596  0.500215  0.499203  1
  Os  Os36  1  0.000588  0.000350  0.000001  1
  Os  Os37  1  0.000588  0.000350  0.499999  1
