# generated using pymatgen
data_La4Nd8Os2I17
_symmetry_space_group_name_H-M   'P 1'
_cell_length_a   10.12754359
_cell_length_b   12.23338853
_cell_length_c   12.17217256
_cell_angle_alpha   74.18158127
_cell_angle_beta   75.11232769
_cell_angle_gamma   65.52154234
_symmetry_Int_Tables_number   1
_chemical_formula_structural   La4Nd8Os2I17
_chemical_formula_sum   'La4 Nd8 Os2 I17'
_cell_volume   1302.56336215
_cell_formula_units_Z   1
loop_
 _symmetry_equiv_pos_site_id
 _symmetry_equiv_pos_as_xyz
  1  'x, y, z'
loop_
 _atom_site_type_symbol
 _atom_site_label
 _atom_site_symmetry_multiplicity
 _atom_site_fract_x
 _atom_site_fract_y
 _atom_site_fract_z
 _atom_site_occupancy
  La  La0  1  0.590621  0.759842  0.280767  1
  La  La1  1  0.822350  0.188764  0.582761  1
  La  La2  1  0.172776  0.811625  0.424580  1
  La  La3  1  0.143036  0.713781  0.149432  1
  Nd  Nd4  1  0.454225  0.484718  0.323119  1
  Nd  Nd5  1  0.557513  0.670601  0.005823  1
  Nd  Nd6  1  0.271584  0.991125  0.103430  1
  Nd  Nd7  1  0.863987  0.288323  0.850615  1
  Nd  Nd8  1  0.402998  0.240013  0.718087  1
  Nd  Nd9  1  0.724943  0.015010  0.895610  1
  Nd  Nd10  1  0.548464  0.508511  0.676934  1
  Nd  Nd11  1  0.448174  0.329638  0.987492  1
  Os  Os12  1  0.365488  0.739063  0.213988  1
  Os  Os13  1  0.635459  0.260763  0.785729  1
  I  I14  1  0.054048  0.105160  0.321557  1
  I  I15  1  0.466962  0.947878  0.843792  1
  I  I16  1  0.429672  0.812185  0.540292  1
  I  I17  1  0.565534  0.185420  0.464107  1
  I  I18  1  0.842005  0.708783  0.041662  1
  I  I19  1  0.225233  0.418208  0.241141  1
  I  I20  1  0.683917  0.372439  0.100736  1
  I  I21  1  0.528494  0.054646  0.156220  1
  I  I22  1  0.738632  0.471078  0.416387  1
  I  I23  1  0.885263  0.786404  0.369582  1
  I  I24  1  0.944827  0.893013  0.681194  1
  I  I25  1  0.158656  0.292802  0.955007  1
  I  I26  1  0.321682  0.629476  0.896417  1
  I  I27  1  0.999510  0.002601  0.000405  1
  I  I28  1  0.113545  0.214375  0.634439  1
  I  I29  1  0.779231  0.579032  0.757704  1
  I  I30  1  0.261172  0.524724  0.580988  1
