# generated using pymatgen
data_Ho3Tm5ZnIn3
_symmetry_space_group_name_H-M   'P 1'
_cell_length_a   10.55581400
_cell_length_b   10.55290235
_cell_length_c   6.69227963
_cell_angle_alpha   89.95710034
_cell_angle_beta   90.00000000
_cell_angle_gamma   120.00912743
_symmetry_Int_Tables_number   1
_chemical_formula_structural   Ho3Tm5ZnIn3
_chemical_formula_sum   'Ho6 Tm10 Zn2 In6'
_cell_volume   645.54756320
_cell_formula_units_Z   2
loop_
 _symmetry_equiv_pos_site_id
 _symmetry_equiv_pos_as_xyz
  1  'x, y, z'
loop_
 _atom_site_type_symbol
 _atom_site_label
 _atom_site_symmetry_multiplicity
 _atom_site_fract_x
 _atom_site_fract_y
 _atom_site_fract_z
 _atom_site_occupancy
  Ho  Ho0  1  0.346403  0.173063  0.233926  1
  Ho  Ho1  1  0.826660  0.173063  0.233926  1
  Ho  Ho2  1  0.666730  0.333460  0.866991  1
  Ho  Ho3  1  0.333327  0.666654  0.368076  1
  Ho  Ho4  1  0.999697  0.999393  0.499042  1
  Ho  Ho5  1  0.999695  0.999390  0.997843  1
  Tm  Tm6  1  0.520901  0.041801  0.518142  1
  Tm  Tm7  1  0.958402  0.479642  0.517576  1
  Tm  Tm8  1  0.521242  0.479642  0.517576  1
  Tm  Tm9  1  0.478568  0.957138  0.017010  1
  Tm  Tm10  1  0.042356  0.521624  0.016959  1
  Tm  Tm11  1  0.479266  0.521624  0.016959  1
  Tm  Tm12  1  0.173135  0.346270  0.733995  1
  Tm  Tm13  1  0.653638  0.827035  0.733581  1
  Tm  Tm14  1  0.173396  0.827035  0.733581  1
  Tm  Tm15  1  0.826591  0.653182  0.233524  1
  Zn  Zn16  1  0.667196  0.334391  0.302529  1
  Zn  Zn17  1  0.333295  0.666592  0.802186  1
  In  In18  1  0.835800  0.671599  0.750194  1
  In  In19  1  0.328457  0.164330  0.749748  1
  In  In20  1  0.835872  0.164330  0.749748  1
  In  In21  1  0.164676  0.329352  0.250473  1
  In  In22  1  0.671059  0.834695  0.250308  1
  In  In23  1  0.163637  0.834695  0.250308  1
