# generated using pymatgen
data_Tb5PdRhO12
_symmetry_space_group_name_H-M   'P 1'
_cell_length_a   6.90089068
_cell_length_b   6.90089049
_cell_length_c   7.31201210
_cell_angle_alpha   74.50292240
_cell_angle_beta   74.50292420
_cell_angle_gamma   51.11561738
_symmetry_Int_Tables_number   1
_chemical_formula_structural   Tb5PdRhO12
_chemical_formula_sum   'Tb5 Pd1 Rh1 O12'
_cell_volume   258.89458166
_cell_formula_units_Z   1
loop_
 _symmetry_equiv_pos_site_id
 _symmetry_equiv_pos_as_xyz
  1  'x, y, z'
loop_
 _atom_site_type_symbol
 _atom_site_label
 _atom_site_symmetry_multiplicity
 _atom_site_fract_x
 _atom_site_fract_y
 _atom_site_fract_z
 _atom_site_occupancy
  Tb  Tb0  1  0.694238  0.690216  0.668377  1
  Tb  Tb1  1  0.704120  0.693313  0.140252  1
  Tb  Tb2  1  0.000952  0.999048  0.000000  1
  Tb  Tb3  1  0.306687  0.295880  0.859748  1
  Tb  Tb4  1  0.309784  0.305762  0.331623  1
  Pd  Pd5  1  0.749164  0.250836  0.500000  1
  Rh  Rh6  1  0.242685  0.757315  0.500000  1
  O  O7  1  0.400405  0.900927  0.928154  1
  O  O8  1  0.563764  0.095685  0.585263  1
  O  O9  1  0.904315  0.436236  0.414737  1
  O  O10  1  0.099073  0.599595  0.071846  1
  O  O11  1  0.999798  0.000022  0.317526  1
  O  O12  1  0.497375  0.502085  0.687968  1
  O  O13  1  0.905263  0.402597  0.924283  1
  O  O14  1  0.100805  0.573724  0.583723  1
  O  O15  1  0.426276  0.899195  0.416277  1
  O  O16  1  0.597403  0.094737  0.075717  1
  O  O17  1  0.497915  0.502625  0.312032  1
  O  O18  1  0.999978  0.000202  0.682474  1
