# generated using pymatgen
data_TbPr15MgCo4Hg3
_symmetry_space_group_name_H-M   'P 1'
_cell_length_a   9.80222939
_cell_length_b   9.81434617
_cell_length_c   9.81434655
_cell_angle_alpha   60.10026785
_cell_angle_beta   60.14122330
_cell_angle_gamma   60.14121628
_symmetry_Int_Tables_number   1
_chemical_formula_structural   TbPr15MgCo4Hg3
_chemical_formula_sum   'Tb1 Pr15 Mg1 Co4 Hg3'
_cell_volume   669.55424596
_cell_formula_units_Z   1
loop_
 _symmetry_equiv_pos_site_id
 _symmetry_equiv_pos_as_xyz
  1  'x, y, z'
loop_
 _atom_site_type_symbol
 _atom_site_label
 _atom_site_symmetry_multiplicity
 _atom_site_fract_x
 _atom_site_fract_y
 _atom_site_fract_z
 _atom_site_occupancy
  Tb  Tb0  1  0.285325  0.904866  0.904866  1
  Pr  Pr1  1  0.687245  0.688940  0.312218  1
  Pr  Pr2  1  0.905461  0.903381  0.287541  1
  Pr  Pr3  1  0.309032  0.690512  0.309034  1
  Pr  Pr4  1  0.689876  0.309573  0.309573  1
  Pr  Pr5  1  0.061248  0.439361  0.439361  1
  Pr  Pr6  1  0.440249  0.058268  0.058268  1
  Pr  Pr7  1  0.058333  0.058501  0.441146  1
  Pr  Pr8  1  0.309032  0.309034  0.690512  1
  Pr  Pr9  1  0.438046  0.061873  0.440911  1
  Pr  Pr10  1  0.904584  0.901759  0.901759  1
  Pr  Pr11  1  0.438046  0.440911  0.061873  1
  Pr  Pr12  1  0.309961  0.689151  0.689151  1
  Pr  Pr13  1  0.687245  0.312218  0.688940  1
  Pr  Pr14  1  0.058333  0.441146  0.058501  1
  Pr  Pr15  1  0.905461  0.287541  0.903381  1
  Mg  Mg16  1  0.677446  0.680740  0.680740  1
  Co  Co17  1  0.112643  0.105550  0.105550  1
  Co  Co18  1  0.112247  0.105074  0.673189  1
  Co  Co19  1  0.671603  0.107808  0.107808  1
  Co  Co20  1  0.112247  0.673189  0.105074  1
  Hg  Hg21  1  0.663153  0.666288  0.999311  1
  Hg  Hg22  1  0.000030  0.665006  0.665006  1
  Hg  Hg23  1  0.663153  0.999311  0.666288  1
