# generated using pymatgen
data_Zr4TiSi8Os5
_symmetry_space_group_name_H-M   'P 1'
_cell_length_a   10.01632695
_cell_length_b   10.01632730
_cell_length_c   13.40216200
_cell_angle_alpha   54.11398399
_cell_angle_beta   54.11398254
_cell_angle_gamma   31.24897659
_symmetry_Int_Tables_number   1
_chemical_formula_structural   Zr4TiSi8Os5
_chemical_formula_sum   'Zr8 Ti2 Si16 Os10'
_cell_volume   553.43069105
_cell_formula_units_Z   2
loop_
 _symmetry_equiv_pos_site_id
 _symmetry_equiv_pos_as_xyz
  1  'x, y, z'
loop_
 _atom_site_type_symbol
 _atom_site_label
 _atom_site_symmetry_multiplicity
 _atom_site_fract_x
 _atom_site_fract_y
 _atom_site_fract_z
 _atom_site_occupancy
  Zr  Zr0  1  0.037948  0.293041  0.634759  1
  Zr  Zr1  1  0.706959  0.962052  0.865241  1
  Zr  Zr2  1  0.969768  0.706108  0.357800  1
  Zr  Zr3  1  0.293892  0.030232  0.142200  1
  Zr  Zr4  1  0.302058  0.551013  0.645890  1
  Zr  Zr5  1  0.448987  0.697942  0.854110  1
  Zr  Zr6  1  0.712240  0.442293  0.339691  1
  Zr  Zr7  1  0.557707  0.287760  0.160309  1
  Ti  Ti8  1  0.754949  0.490181  0.058732  1
  Ti  Ti9  1  0.509819  0.245051  0.441268  1
  Si  Si10  1  0.982487  0.244905  0.886379  1
  Si  Si11  1  0.755095  0.017513  0.613621  1
  Si  Si12  1  0.029815  0.745671  0.104753  1
  Si  Si13  1  0.254329  0.970185  0.395247  1
  Si  Si14  1  0.142592  0.393040  0.900266  1
  Si  Si15  1  0.606960  0.857408  0.599734  1
  Si  Si16  1  0.857039  0.616663  0.098886  1
  Si  Si17  1  0.383337  0.142961  0.401114  1
  Si  Si18  1  0.065008  0.586988  0.568837  1
  Si  Si19  1  0.413012  0.934992  0.931163  1
  Si  Si20  1  0.912792  0.431800  0.431422  1
  Si  Si21  1  0.568200  0.087208  0.068578  1
  Si  Si22  1  0.622110  0.377890  0.750000  1
  Si  Si23  1  0.374233  0.625767  0.250000  1
  Si  Si24  1  0.126118  0.873882  0.750000  1
  Si  Si25  1  0.879892  0.120108  0.250000  1
  Os  Os26  1  0.900572  0.141559  0.583977  1
  Os  Os27  1  0.858441  0.099428  0.916023  1
  Os  Os28  1  0.098294  0.857324  0.420740  1
  Os  Os29  1  0.142676  0.901706  0.079260  1
  Os  Os30  1  0.835443  0.639054  0.785173  1
  Os  Os31  1  0.360946  0.164557  0.714827  1
  Os  Os32  1  0.160889  0.364194  0.215606  1
  Os  Os33  1  0.635806  0.839111  0.284394  1
  Os  Os34  1  0.253338  0.513750  0.925395  1
  Os  Os35  1  0.486250  0.746662  0.574605  1
