# generated using pymatgen
data_TmLu7(Co5B2)4
_symmetry_space_group_name_H-M   'P 1'
_cell_length_a   5.00984600
_cell_length_b   5.00984608
_cell_length_c   19.88082200
_cell_angle_alpha   90.00000000
_cell_angle_beta   90.00000000
_cell_angle_gamma   119.99999946
_symmetry_Int_Tables_number   1
_chemical_formula_structural   TmLu7(Co5B2)4
_chemical_formula_sum   'Tm1 Lu7 Co20 B8'
_cell_volume   432.12931612
_cell_formula_units_Z   1
loop_
 _symmetry_equiv_pos_site_id
 _symmetry_equiv_pos_as_xyz
  1  'x, y, z'
loop_
 _atom_site_type_symbol
 _atom_site_label
 _atom_site_symmetry_multiplicity
 _atom_site_fract_x
 _atom_site_fract_y
 _atom_site_fract_z
 _atom_site_occupancy
  Tm  Tm0  1  0.666667  0.333333  0.824644  1
  Lu  Lu1  1  0.666667  0.333333  0.976649  1
  Lu  Lu2  1  0.333333  0.666667  0.476396  1
  Lu  Lu3  1  0.333333  0.666667  0.023759  1
  Lu  Lu4  1  0.333333  0.666667  0.175518  1
  Lu  Lu5  1  0.666667  0.333333  0.523184  1
  Lu  Lu6  1  0.666667  0.333333  0.674848  1
  Lu  Lu7  1  0.333333  0.666667  0.324842  1
  Co  Co8  1  0.164862  0.329723  0.896455  1
  Co  Co9  1  0.164890  0.835110  0.603435  1
  Co  Co10  1  0.835059  0.164941  0.396143  1
  Co  Co11  1  0.333951  0.166975  0.250348  1
  Co  Co12  1  0.329881  0.164941  0.396143  1
  Co  Co13  1  0.835113  0.670226  0.103952  1
  Co  Co14  1  0.835059  0.670119  0.396143  1
  Co  Co15  1  0.833025  0.666049  0.250348  1
  Co  Co16  1  0.670221  0.835110  0.603435  1
  Co  Co17  1  0.666025  0.833012  0.749782  1
  Co  Co18  1  0.835113  0.164887  0.103952  1
  Co  Co19  1  0.670277  0.835138  0.896455  1
  Co  Co20  1  0.000000  0.000000  0.000092  1
  Co  Co21  1  0.166988  0.333975  0.749782  1
  Co  Co22  1  0.166988  0.833012  0.749782  1
  Co  Co23  1  0.833025  0.166975  0.250348  1
  Co  Co24  1  0.329774  0.164887  0.103952  1
  Co  Co25  1  0.000000  0.000000  0.499604  1
  Co  Co26  1  0.164862  0.835138  0.896455  1
  Co  Co27  1  0.164890  0.329779  0.603435  1
  B  B28  1  0.333333  0.666667  0.825079  1
  B  B29  1  0.333333  0.666667  0.674647  1
  B  B30  1  0.666667  0.333333  0.325097  1
  B  B31  1  0.000000  0.000000  0.824285  1
  B  B32  1  0.666667  0.333333  0.175247  1
  B  B33  1  0.000000  0.000000  0.675479  1
  B  B34  1  0.000000  0.000000  0.324290  1
  B  B35  1  0.000000  0.000000  0.175998  1
