# generated using pymatgen
data_Er7LuRe(TcB8)3
_symmetry_space_group_name_H-M   'P 1'
_cell_length_a   3.65330900
_cell_length_b   9.11546109
_cell_length_c   11.48531602
_cell_angle_alpha   90.03151066
_cell_angle_beta   90.00000000
_cell_angle_gamma   90.00000000
_symmetry_Int_Tables_number   1
_chemical_formula_structural   Er7LuRe(TcB8)3
_chemical_formula_sum   'Er7 Lu1 Re1 Tc3 B24'
_cell_volume   382.47929672
_cell_formula_units_Z   1
loop_
 _symmetry_equiv_pos_site_id
 _symmetry_equiv_pos_as_xyz
  1  'x, y, z'
loop_
 _atom_site_type_symbol
 _atom_site_label
 _atom_site_symmetry_multiplicity
 _atom_site_fract_x
 _atom_site_fract_y
 _atom_site_fract_z
 _atom_site_occupancy
  Er  Er0  1  0.000000  0.323716  0.414313  1
  Er  Er1  1  0.000000  0.676464  0.585923  1
  Er  Er2  1  0.000000  0.823313  0.085899  1
  Er  Er3  1  0.000000  0.177009  0.914312  1
  Er  Er4  1  0.000000  0.942601  0.369204  1
  Er  Er5  1  0.000000  0.058184  0.629956  1
  Er  Er6  1  0.000000  0.442531  0.130467  1
  Lu  Lu7  1  0.000000  0.556543  0.869486  1
  Re  Re8  1  0.000000  0.860640  0.820688  1
  Tc  Tc9  1  0.000000  0.638691  0.320372  1
  Tc  Tc10  1  0.000000  0.361886  0.679983  1
  Tc  Tc11  1  0.000000  0.138735  0.179375  1
  B  B12  1  0.500000  0.553388  0.433244  1
  B  B13  1  0.500000  0.446984  0.567019  1
  B  B14  1  0.500000  0.053229  0.066858  1
  B  B15  1  0.500000  0.946606  0.933378  1
  B  B16  1  0.500000  0.749418  0.418772  1
  B  B17  1  0.500000  0.251068  0.581193  1
  B  B18  1  0.500000  0.249345  0.081179  1
  B  B19  1  0.500000  0.749221  0.918972  1
  B  B20  1  0.500000  0.791917  0.264726  1
  B  B21  1  0.500000  0.208370  0.735129  1
  B  B22  1  0.500000  0.291956  0.235280  1
  B  B23  1  0.500000  0.706928  0.765110  1
  B  B24  1  0.500000  0.630298  0.184993  1
  B  B25  1  0.500000  0.370128  0.815267  1
  B  B26  1  0.500000  0.130475  0.314924  1
  B  B27  1  0.500000  0.869528  0.685015  1
  B  B28  1  0.500000  0.981516  0.211560  1
  B  B29  1  0.500000  0.018687  0.788274  1
  B  B30  1  0.500000  0.481473  0.288420  1
  B  B31  1  0.500000  0.518803  0.712259  1
  B  B32  1  0.500000  0.599023  0.027011  1
  B  B33  1  0.500000  0.400994  0.971811  1
  B  B34  1  0.500000  0.099863  0.471942  1
  B  B35  1  0.500000  0.900470  0.527683  1
