# generated using pymatgen
data_Ac8Yb3Ho9Sn16
_symmetry_space_group_name_H-M   'P 1'
_cell_length_a   8.23404091
_cell_length_b   8.53093562
_cell_length_c   16.03799600
_cell_angle_alpha   90.00000000
_cell_angle_beta   90.00000000
_cell_angle_gamma   89.99119579
_symmetry_Int_Tables_number   1
_chemical_formula_structural   Ac8Yb3Ho9Sn16
_chemical_formula_sum   'Ac8 Yb3 Ho9 Sn16'
_cell_volume   1126.57414574
_cell_formula_units_Z   1
loop_
 _symmetry_equiv_pos_site_id
 _symmetry_equiv_pos_as_xyz
  1  'x, y, z'
loop_
 _atom_site_type_symbol
 _atom_site_label
 _atom_site_symmetry_multiplicity
 _atom_site_fract_x
 _atom_site_fract_y
 _atom_site_fract_z
 _atom_site_occupancy
  Ac  Ac0  1  0.502274  0.675092  0.597608  1
  Ac  Ac1  1  0.005717  0.826919  0.903674  1
  Ac  Ac2  1  0.494161  0.323907  0.096298  1
  Ac  Ac3  1  0.993336  0.177284  0.404074  1
  Ac  Ac4  1  0.494161  0.323907  0.403702  1
  Ac  Ac5  1  0.993336  0.177284  0.095926  1
  Ac  Ac6  1  0.502274  0.675092  0.902392  1
  Ac  Ac7  1  0.005717  0.826919  0.596326  1
  Yb  Yb8  1  0.333115  0.000812  0.750000  1
  Yb  Yb9  1  0.167097  0.498758  0.250000  1
  Yb  Yb10  1  0.666789  0.999059  0.250000  1
  Ho  Ho11  1  0.667944  0.166707  0.626323  1
  Ho  Ho12  1  0.172056  0.333126  0.874292  1
  Ho  Ho13  1  0.331951  0.829917  0.124511  1
  Ho  Ho14  1  0.831423  0.667331  0.375962  1
  Ho  Ho15  1  0.331951  0.829917  0.375489  1
  Ho  Ho16  1  0.831423  0.667331  0.124038  1
  Ho  Ho17  1  0.667944  0.166707  0.873677  1
  Ho  Ho18  1  0.172056  0.333126  0.625708  1
  Ho  Ho19  1  0.835703  0.499275  0.750000  1
  Sn  Sn20  1  0.668036  0.957109  0.460811  1
  Sn  Sn21  1  0.169499  0.541046  0.039611  1
  Sn  Sn22  1  0.332325  0.042718  0.960324  1
  Sn  Sn23  1  0.831272  0.459612  0.543728  1
  Sn  Sn24  1  0.332325  0.042718  0.539676  1
  Sn  Sn25  1  0.831272  0.459612  0.956272  1
  Sn  Sn26  1  0.668036  0.957109  0.039189  1
  Sn  Sn27  1  0.169499  0.541046  0.460389  1
  Sn  Sn28  1  0.475753  0.373899  0.750000  1
  Sn  Sn29  1  0.970950  0.135613  0.750000  1
  Sn  Sn30  1  0.530673  0.628848  0.250000  1
  Sn  Sn31  1  0.030294  0.869938  0.250000  1
  Sn  Sn32  1  0.707491  0.865322  0.750000  1
  Sn  Sn33  1  0.195380  0.629347  0.750000  1
  Sn  Sn34  1  0.292737  0.124471  0.250000  1
  Sn  Sn35  1  0.794030  0.373124  0.250000  1
