# generated using pymatgen
data_Pr4MnCu3(RuO5)4
_symmetry_space_group_name_H-M   'P 1'
_cell_length_a   5.64281500
_cell_length_b   7.97812150
_cell_length_c   8.87193184
_cell_angle_alpha   89.89305540
_cell_angle_beta   90.00000000
_cell_angle_gamma   90.00000000
_symmetry_Int_Tables_number   1
_chemical_formula_structural   Pr4MnCu3(RuO5)4
_chemical_formula_sum   'Pr4 Mn1 Cu3 Ru4 O20'
_cell_volume   399.40536843
_cell_formula_units_Z   1
loop_
 _symmetry_equiv_pos_site_id
 _symmetry_equiv_pos_as_xyz
  1  'x, y, z'
loop_
 _atom_site_type_symbol
 _atom_site_label
 _atom_site_symmetry_multiplicity
 _atom_site_fract_x
 _atom_site_fract_y
 _atom_site_fract_z
 _atom_site_occupancy
  Pr  Pr0  1  0.000000  0.353913  0.671760  1
  Pr  Pr1  1  0.000000  0.646755  0.327920  1
  Pr  Pr2  1  0.000000  0.853205  0.830633  1
  Pr  Pr3  1  0.000000  0.150061  0.169605  1
  Mn  Mn4  1  0.500000  0.420642  0.356185  1
  Cu  Cu5  1  0.500000  0.066016  0.849914  1
  Cu  Cu6  1  0.500000  0.935785  0.149420  1
  Cu  Cu7  1  0.500000  0.571788  0.649735  1
  Ru  Ru8  1  0.283058  0.501511  0.997283  1
  Ru  Ru9  1  0.717989  0.999315  0.499981  1
  Ru  Ru10  1  0.716942  0.501511  0.997283  1
  Ru  Ru11  1  0.282011  0.999315  0.499981  1
  O  O12  1  0.252167  0.909501  0.291054  1
  O  O13  1  0.251688  0.091020  0.708779  1
  O  O14  1  0.750269  0.406421  0.211095  1
  O  O15  1  0.749511  0.591499  0.791184  1
  O  O16  1  0.748312  0.091020  0.708779  1
  O  O17  1  0.747833  0.909501  0.291054  1
  O  O18  1  0.250489  0.591499  0.791184  1
  O  O19  1  0.249731  0.406421  0.211095  1
  O  O20  1  0.500000  0.329937  0.928081  1
  O  O21  1  0.500000  0.670712  0.069201  1
  O  O22  1  0.500000  0.828620  0.568254  1
  O  O23  1  0.500000  0.172762  0.430358  1
  O  O24  1  0.269344  0.000655  0.999400  1
  O  O25  1  0.734742  0.500030  0.499841  1
  O  O26  1  0.730656  0.000655  0.999400  1
  O  O27  1  0.265258  0.500030  0.499841  1
  O  O28  1  0.000000  0.153091  0.448020  1
  O  O29  1  0.000000  0.845191  0.553161  1
  O  O30  1  0.000000  0.654262  0.052730  1
  O  O31  1  0.000000  0.347355  0.947790  1
