# generated using pymatgen
data_Ba2Al8Zn5Cu13
_symmetry_space_group_name_H-M   'P 1'
_cell_length_a   8.60990058
_cell_length_b   8.61094432
_cell_length_c   8.60455900
_cell_angle_alpha   120.14694874
_cell_angle_beta   121.07408802
_cell_angle_gamma   88.94931649
_symmetry_Int_Tables_number   1
_chemical_formula_structural   Ba2Al8Zn5Cu13
_chemical_formula_sum   'Ba2 Al8 Zn5 Cu13'
_cell_volume   446.80123544
_cell_formula_units_Z   1
loop_
 _symmetry_equiv_pos_site_id
 _symmetry_equiv_pos_as_xyz
  1  'x, y, z'
loop_
 _atom_site_type_symbol
 _atom_site_label
 _atom_site_symmetry_multiplicity
 _atom_site_fract_x
 _atom_site_fract_y
 _atom_site_fract_z
 _atom_site_occupancy
  Ba  Ba0  1  0.749807  0.747729  0.999760  1
  Ba  Ba1  1  0.251971  0.249954  0.999702  1
  Al  Al2  1  0.808854  0.302963  0.858549  1
  Al  Al3  1  0.448033  0.944818  0.144812  1
  Al  Al4  1  0.699814  0.556306  0.504470  1
  Al  Al5  1  0.043719  0.192903  0.489410  1
  Al  Al6  1  0.200063  0.696885  0.144840  1
  Al  Al7  1  0.555539  0.049639  0.858621  1
  Al  Al8  1  0.948170  0.804612  0.504487  1
  Al  Al9  1  0.296529  0.445700  0.489382  1
  Zn  Zn10  1  0.195196  0.057014  0.252186  1
  Zn  Zn11  1  0.801515  0.940716  0.742264  1
  Zn  Zn12  1  0.297070  0.562165  0.859194  1
  Zn  Zn13  1  0.705056  0.441373  0.146474  1
  Zn  Zn14  1  0.436589  0.289895  0.726501  1
  Cu  Cu15  1  0.565862  0.711291  0.277090  1
  Cu  Cu16  1  0.934117  0.212370  0.146792  1
  Cu  Cu17  1  0.065010  0.787154  0.851950  1
  Cu  Cu18  1  0.500269  0.999112  0.499360  1
  Cu  Cu19  1  0.001304  0.499819  0.501110  1
  Cu  Cu20  1  0.291123  0.789883  0.727622  1
  Cu  Cu21  1  0.061384  0.566364  0.272403  1
  Cu  Cu22  1  0.209044  0.938627  0.500005  1
  Cu  Cu23  1  0.438225  0.710984  0.501333  1
  Cu  Cu24  1  0.706201  0.211118  0.272629  1
  Cu  Cu25  1  0.937764  0.436556  0.727728  1
  Cu  Cu26  1  0.561430  0.290961  0.500036  1
  Cu  Cu27  1  0.790344  0.063092  0.501299  1
