# generated using pymatgen
data_Yb7YAlPd24
_symmetry_space_group_name_H-M   'P 1'
_cell_length_a   8.30249401
_cell_length_b   8.30249401
_cell_length_c   8.30249401
_cell_angle_alpha   89.99714294
_cell_angle_beta   90.00285706
_cell_angle_gamma   90.00285706
_symmetry_Int_Tables_number   1
_chemical_formula_structural   Yb7YAlPd24
_chemical_formula_sum   'Yb7 Y1 Al1 Pd24'
_cell_volume   572.30258881
_cell_formula_units_Z   1
loop_
 _symmetry_equiv_pos_site_id
 _symmetry_equiv_pos_as_xyz
  1  'x, y, z'
loop_
 _atom_site_type_symbol
 _atom_site_label
 _atom_site_symmetry_multiplicity
 _atom_site_fract_x
 _atom_site_fract_y
 _atom_site_fract_z
 _atom_site_occupancy
  Yb  Yb0  1  0.251478  0.251471  0.251471  1
  Yb  Yb1  1  0.748584  0.748610  0.748610  1
  Yb  Yb2  1  0.748529  0.748522  0.251471  1
  Yb  Yb3  1  0.748529  0.251471  0.748522  1
  Yb  Yb4  1  0.251390  0.251416  0.748610  1
  Yb  Yb5  1  0.251390  0.748610  0.251416  1
  Yb  Yb6  1  0.251576  0.748424  0.748424  1
  Y  Y7  1  0.747879  0.252121  0.252121  1
  Al  Al8  1  0.000044  0.999956  0.999956  1
  Pd  Pd9  1  0.260807  0.499949  0.000138  1
  Pd  Pd10  1  0.739214  0.500453  0.999520  1
  Pd  Pd11  1  0.000480  0.260786  0.500453  1
  Pd  Pd12  1  0.499547  0.260786  0.999520  1
  Pd  Pd13  1  0.999862  0.739193  0.499949  1
  Pd  Pd14  1  0.500051  0.739193  0.000138  1
  Pd  Pd15  1  0.499547  0.999520  0.260786  1
  Pd  Pd16  1  0.260807  0.000138  0.499949  1
  Pd  Pd17  1  0.500051  0.000138  0.739193  1
  Pd  Pd18  1  0.739214  0.999520  0.500453  1
  Pd  Pd19  1  0.000480  0.500453  0.260786  1
  Pd  Pd20  1  0.999862  0.499949  0.739193  1
  Pd  Pd21  1  0.253595  0.499863  0.499863  1
  Pd  Pd22  1  0.746390  0.500535  0.500535  1
  Pd  Pd23  1  0.499465  0.253610  0.500535  1
  Pd  Pd24  1  0.500137  0.746405  0.499863  1
  Pd  Pd25  1  0.499465  0.500535  0.253610  1
  Pd  Pd26  1  0.500137  0.499863  0.746405  1
  Pd  Pd27  1  0.291479  0.999908  0.999908  1
  Pd  Pd28  1  0.708301  0.999237  0.999237  1
  Pd  Pd29  1  0.000763  0.291699  0.999237  1
  Pd  Pd30  1  0.000092  0.708521  0.999908  1
  Pd  Pd31  1  0.000763  0.999237  0.291699  1
  Pd  Pd32  1  0.000092  0.999908  0.708521  1
