# generated using pymatgen
data_Sm4Dy3Ho(ReB6)4
_symmetry_space_group_name_H-M   'P 1'
_cell_length_a   3.71489100
_cell_length_b   9.22382000
_cell_length_c   11.64937701
_cell_angle_alpha   90.00354587
_cell_angle_beta   90.00000000
_cell_angle_gamma   90.00000000
_symmetry_Int_Tables_number   1
_chemical_formula_structural   Sm4Dy3Ho(ReB6)4
_chemical_formula_sum   'Sm4 Dy3 Ho1 Re4 B24'
_cell_volume   399.17156300
_cell_formula_units_Z   1
loop_
 _symmetry_equiv_pos_site_id
 _symmetry_equiv_pos_as_xyz
  1  'x, y, z'
loop_
 _atom_site_type_symbol
 _atom_site_label
 _atom_site_symmetry_multiplicity
 _atom_site_fract_x
 _atom_site_fract_y
 _atom_site_fract_z
 _atom_site_occupancy
  Sm  Sm0  1  0.000000  0.323173  0.414127  1
  Sm  Sm1  1  0.000000  0.676751  0.585959  1
  Sm  Sm2  1  0.000000  0.823129  0.085854  1
  Sm  Sm3  1  0.000000  0.176886  0.914126  1
  Dy  Dy4  1  0.000000  0.942903  0.369546  1
  Dy  Dy5  1  0.000000  0.057173  0.630493  1
  Dy  Dy6  1  0.000000  0.442904  0.130233  1
  Ho  Ho7  1  0.000000  0.557139  0.869470  1
  Re  Re8  1  0.000000  0.638942  0.319964  1
  Re  Re9  1  0.000000  0.361238  0.680247  1
  Re  Re10  1  0.000000  0.139032  0.179931  1
  Re  Re11  1  0.000000  0.860694  0.820026  1
  B  B12  1  0.500000  0.554175  0.431526  1
  B  B13  1  0.500000  0.445830  0.568599  1
  B  B14  1  0.500000  0.054164  0.068479  1
  B  B15  1  0.500000  0.945701  0.931479  1
  B  B16  1  0.500000  0.749104  0.416818  1
  B  B17  1  0.500000  0.250985  0.583253  1
  B  B18  1  0.500000  0.249092  0.083196  1
  B  B19  1  0.500000  0.750474  0.916824  1
  B  B20  1  0.500000  0.791359  0.265871  1
  B  B21  1  0.500000  0.208790  0.734149  1
  B  B22  1  0.500000  0.291362  0.234093  1
  B  B23  1  0.500000  0.708307  0.765974  1
  B  B24  1  0.500000  0.630170  0.186199  1
  B  B25  1  0.500000  0.370121  0.813958  1
  B  B26  1  0.500000  0.130201  0.313736  1
  B  B27  1  0.500000  0.869721  0.686305  1
  B  B28  1  0.500000  0.983457  0.212494  1
  B  B29  1  0.500000  0.016501  0.787531  1
  B  B30  1  0.500000  0.483403  0.287470  1
  B  B31  1  0.500000  0.516772  0.712736  1
  B  B32  1  0.500000  0.597802  0.026861  1
  B  B33  1  0.500000  0.402533  0.972464  1
  B  B34  1  0.500000  0.097906  0.472748  1
  B  B35  1  0.500000  0.902105  0.527262  1
