# generated using pymatgen
data_TbYb2Ga5Cu6
_symmetry_space_group_name_H-M   'P 1'
_cell_length_a   7.96985292
_cell_length_b   7.96985348
_cell_length_c   7.96985349
_cell_angle_alpha   148.93998851
_cell_angle_beta   113.33049996
_cell_angle_gamma   75.36492539
_symmetry_Int_Tables_number   1
_chemical_formula_structural   TbYb2Ga5Cu6
_chemical_formula_sum   'Tb1 Yb2 Ga5 Cu6'
_cell_volume   235.78822206
_cell_formula_units_Z   1
loop_
 _symmetry_equiv_pos_site_id
 _symmetry_equiv_pos_as_xyz
  1  'x, y, z'
loop_
 _atom_site_type_symbol
 _atom_site_label
 _atom_site_symmetry_multiplicity
 _atom_site_fract_x
 _atom_site_fract_y
 _atom_site_fract_z
 _atom_site_occupancy
  Tb  Tb0  1  0.692977  0.692977  0.000000  1
  Yb  Yb1  1  0.000225  0.000225  0.000000  1
  Yb  Yb2  1  0.311144  0.311144  0.000000  1
  Ga  Ga3  1  0.322122  0.672150  0.649972  1
  Ga  Ga4  1  0.499694  0.999694  0.500000  1
  Ga  Ga5  1  0.674262  0.327420  0.346842  1
  Ga  Ga6  1  0.980579  0.327420  0.653158  1
  Ga  Ga7  1  0.022178  0.672150  0.350028  1
  Cu  Cu8  1  0.299611  0.498827  0.800784  1
  Cu  Cu9  1  0.698043  0.498827  0.199216  1
  Cu  Cu10  1  0.398712  0.122208  0.276502  1
  Cu  Cu11  1  0.845706  0.122208  0.723498  1
  Cu  Cu12  1  0.153575  0.877374  0.276201  1
  Cu  Cu13  1  0.601171  0.877374  0.723799  1
