# generated using pymatgen
data_Dy5Si2P10Ru16Pt3
_symmetry_space_group_name_H-M   'P 1'
_cell_length_a   12.63409278
_cell_length_b   12.63790783
_cell_length_c   3.98675600
_cell_angle_alpha   90.00000000
_cell_angle_beta   90.00000000
_cell_angle_gamma   120.13264837
_symmetry_Int_Tables_number   1
_chemical_formula_structural   Dy5Si2P10Ru16Pt3
_chemical_formula_sum   'Dy5 Si2 P10 Ru16 Pt3'
_cell_volume   550.53822644
_cell_formula_units_Z   1
loop_
 _symmetry_equiv_pos_site_id
 _symmetry_equiv_pos_as_xyz
  1  'x, y, z'
loop_
 _atom_site_type_symbol
 _atom_site_label
 _atom_site_symmetry_multiplicity
 _atom_site_fract_x
 _atom_site_fract_y
 _atom_site_fract_z
 _atom_site_occupancy
  Dy  Dy0  1  0.667197  0.333925  0.000000  1
  Dy  Dy1  1  0.333011  0.666328  0.000000  1
  Dy  Dy2  1  0.815395  0.000197  0.500000  1
  Dy  Dy3  1  0.182313  0.183680  0.500000  1
  Dy  Dy4  1  0.999766  0.816759  0.500000  1
  Si  Si5  1  0.691903  0.529601  0.500000  1
  Si  Si6  1  0.837359  0.308728  0.500000  1
  P  P7  1  0.626292  0.987220  0.000000  1
  P  P8  1  0.361290  0.372892  0.000000  1
  P  P9  1  0.011723  0.637561  0.000000  1
  P  P10  1  0.306554  0.828042  0.500000  1
  P  P11  1  0.521147  0.693461  0.500000  1
  P  P12  1  0.183609  0.000269  0.000000  1
  P  P13  1  0.816510  0.816234  0.000000  1
  P  P14  1  0.999129  0.182767  0.000000  1
  P  P15  1  0.470695  0.165212  0.500000  1
  P  P16  1  0.171913  0.478216  0.500000  1
  Ru  Ru17  1  0.618371  0.799666  0.000000  1
  Ru  Ru18  1  0.181124  0.380462  0.000000  1
  Ru  Ru19  1  0.376081  0.185969  0.000000  1
  Ru  Ru20  1  0.199337  0.819726  0.000000  1
  Ru  Ru21  1  0.816148  0.629084  0.000000  1
  Ru  Ru22  1  0.125495  0.634118  0.500000  1
  Ru  Ru23  1  0.366501  0.491110  0.500000  1
  Ru  Ru24  1  0.508356  0.874879  0.500000  1
  Ru  Ru25  1  0.000454  0.000037  0.000000  1
  Ru  Ru26  1  0.718460  0.722450  0.500000  1
  Ru  Ru27  1  0.002875  0.280630  0.500000  1
  Ru  Ru28  1  0.453335  0.007078  0.000000  1
  Ru  Ru29  1  0.556709  0.545333  0.000000  1
  Ru  Ru30  1  0.990168  0.443187  0.000000  1
  Ru  Ru31  1  0.811184  0.183620  0.000000  1
  Ru  Ru32  1  0.282695  0.999744  0.500000  1
  Pt  Pt33  1  0.868966  0.507152  0.500000  1
  Pt  Pt34  1  0.493166  0.361419  0.500000  1
  Pt  Pt35  1  0.634769  0.133243  0.500000  1
