# generated using pymatgen
data_HoScCrB6
_symmetry_space_group_name_H-M   'P 1'
_cell_length_a   3.45767400
_cell_length_b   8.99346500
_cell_length_c   11.34620900
_cell_angle_alpha   90.00000000
_cell_angle_beta   90.00000000
_cell_angle_gamma   90.00000000
_symmetry_Int_Tables_number   1
_chemical_formula_structural   HoScCrB6
_chemical_formula_sum   'Ho4 Sc4 Cr4 B24'
_cell_volume   352.82704892
_cell_formula_units_Z   4
loop_
 _symmetry_equiv_pos_site_id
 _symmetry_equiv_pos_as_xyz
  1  'x, y, z'
loop_
 _atom_site_type_symbol
 _atom_site_label
 _atom_site_symmetry_multiplicity
 _atom_site_fract_x
 _atom_site_fract_y
 _atom_site_fract_z
 _atom_site_occupancy
  Ho  Ho0  1  0.000000  0.823065  0.085117  1
  Ho  Ho1  1  0.000000  0.176935  0.914883  1
  Ho  Ho2  1  0.000000  0.323065  0.414883  1
  Ho  Ho3  1  0.000000  0.676935  0.585117  1
  Sc  Sc4  1  0.000000  0.443145  0.130887  1
  Sc  Sc5  1  0.000000  0.556855  0.869113  1
  Sc  Sc6  1  0.000000  0.943145  0.369113  1
  Sc  Sc7  1  0.000000  0.056855  0.630887  1
  Cr  Cr8  1  0.000000  0.141738  0.182067  1
  Cr  Cr9  1  0.000000  0.858262  0.817933  1
  Cr  Cr10  1  0.000000  0.641738  0.317933  1
  Cr  Cr11  1  0.000000  0.358262  0.682067  1
  B  B12  1  0.500000  0.054744  0.067701  1
  B  B13  1  0.500000  0.945256  0.932299  1
  B  B14  1  0.500000  0.554744  0.432299  1
  B  B15  1  0.500000  0.445256  0.567701  1
  B  B16  1  0.500000  0.252989  0.082804  1
  B  B17  1  0.500000  0.747011  0.917196  1
  B  B18  1  0.500000  0.752989  0.417196  1
  B  B19  1  0.500000  0.247011  0.582804  1
  B  B20  1  0.500000  0.294511  0.235946  1
  B  B21  1  0.500000  0.705489  0.764054  1
  B  B22  1  0.500000  0.794511  0.264054  1
  B  B23  1  0.500000  0.205489  0.735946  1
  B  B24  1  0.500000  0.129818  0.316988  1
  B  B25  1  0.500000  0.870182  0.683012  1
  B  B26  1  0.500000  0.629818  0.183012  1
  B  B27  1  0.500000  0.370182  0.816988  1
  B  B28  1  0.500000  0.482551  0.286520  1
  B  B29  1  0.500000  0.517449  0.713480  1
  B  B30  1  0.500000  0.982551  0.213480  1
  B  B31  1  0.500000  0.017449  0.786520  1
  B  B32  1  0.500000  0.096230  0.474063  1
  B  B33  1  0.500000  0.903770  0.525937  1
  B  B34  1  0.500000  0.596230  0.025937  1
  B  B35  1  0.500000  0.403770  0.974063  1
