# generated using pymatgen
data_Zr6Ti4Al12Tc2Pt5
_symmetry_space_group_name_H-M   'P 1'
_cell_length_a   8.81410212
_cell_length_b   8.85492143
_cell_length_c   8.85492061
_cell_angle_alpha   59.76449216
_cell_angle_beta   60.15237384
_cell_angle_gamma   60.15237345
_symmetry_Int_Tables_number   1
_chemical_formula_structural   Zr6Ti4Al12Tc2Pt5
_chemical_formula_sum   'Zr6 Ti4 Al12 Tc2 Pt5'
_cell_volume   488.92968065
_cell_formula_units_Z   1
loop_
 _symmetry_equiv_pos_site_id
 _symmetry_equiv_pos_as_xyz
  1  'x, y, z'
loop_
 _atom_site_type_symbol
 _atom_site_label
 _atom_site_symmetry_multiplicity
 _atom_site_fract_x
 _atom_site_fract_y
 _atom_site_fract_z
 _atom_site_occupancy
  Zr  Zr0  1  0.692535  0.687524  0.312108  1
  Zr  Zr1  1  0.307834  0.687524  0.312108  1
  Zr  Zr2  1  0.698241  0.301759  0.301759  1
  Zr  Zr3  1  0.307834  0.312108  0.687524  1
  Zr  Zr4  1  0.692535  0.312108  0.687524  1
  Zr  Zr5  1  0.301521  0.698479  0.698479  1
  Ti  Ti6  1  0.884691  0.873053  0.357567  1
  Ti  Ti7  1  0.884691  0.357567  0.873053  1
  Ti  Ti8  1  0.355276  0.881629  0.881629  1
  Ti  Ti9  1  0.881467  0.881629  0.881629  1
  Al  Al10  1  0.116406  0.123962  0.643227  1
  Al  Al11  1  0.116406  0.643227  0.123962  1
  Al  Al12  1  0.645742  0.118966  0.118966  1
  Al  Al13  1  0.116325  0.118966  0.118966  1
  Al  Al14  1  0.663512  0.662154  0.010820  1
  Al  Al15  1  0.663512  0.010820  0.662154  1
  Al  Al16  1  0.006373  0.664696  0.664696  1
  Al  Al17  1  0.664234  0.664696  0.664696  1
  Al  Al18  1  0.336552  0.336584  0.990314  1
  Al  Al19  1  0.336552  0.990314  0.336584  1
  Al  Al20  1  0.995859  0.335278  0.335278  1
  Al  Al21  1  0.333588  0.335278  0.335278  1
  Tc  Tc22  1  0.001378  0.998622  0.998622  1
  Tc  Tc23  1  0.997508  0.502492  0.502492  1
  Pt  Pt24  1  0.999463  0.999164  0.501475  1
  Pt  Pt25  1  0.499899  0.999164  0.501475  1
  Pt  Pt26  1  0.499899  0.501475  0.999164  1
  Pt  Pt27  1  0.999463  0.501475  0.999164  1
  Pt  Pt28  1  0.500709  0.999291  0.999291  1
