# generated using pymatgen
data_Y11In9Rh3Au
_symmetry_space_group_name_H-M   'P 1'
_cell_length_a   13.16559891
_cell_length_b   13.18500707
_cell_length_c   3.69610000
_cell_angle_alpha   90.00000000
_cell_angle_beta   90.00000000
_cell_angle_gamma   111.12041120
_symmetry_Int_Tables_number   1
_chemical_formula_structural   Y11In9Rh3Au
_chemical_formula_sum   'Y11 In9 Rh3 Au1'
_cell_volume   598.50114220
_cell_formula_units_Z   1
loop_
 _symmetry_equiv_pos_site_id
 _symmetry_equiv_pos_as_xyz
  1  'x, y, z'
loop_
 _atom_site_type_symbol
 _atom_site_label
 _atom_site_symmetry_multiplicity
 _atom_site_fract_x
 _atom_site_fract_y
 _atom_site_fract_z
 _atom_site_occupancy
  Y  Y0  1  0.066313  0.415276  0.000000  1
  Y  Y1  1  0.920688  0.581010  0.000000  1
  Y  Y2  1  0.418252  0.075496  0.000000  1
  Y  Y3  1  0.583152  0.923170  0.000000  1
  Y  Y4  1  0.626983  0.374915  0.000000  1
  Y  Y5  1  0.383376  0.637778  0.000000  1
  Y  Y6  1  0.839400  0.159424  0.000000  1
  Y  Y7  1  0.160400  0.840751  0.000000  1
  Y  Y8  1  0.999855  0.999526  0.000000  1
  Y  Y9  1  0.317327  0.303450  0.000000  1
  Y  Y10  1  0.689041  0.688373  0.000000  1
  In  In11  1  0.838103  0.367612  0.500000  1
  In  In12  1  0.154164  0.633461  0.500000  1
  In  In13  1  0.367876  0.840758  0.500000  1
  In  In14  1  0.631988  0.159996  0.500000  1
  In  In15  1  0.070846  0.215488  0.500000  1
  In  In16  1  0.924792  0.781693  0.500000  1
  In  In17  1  0.218528  0.074921  0.500000  1
  In  In18  1  0.781679  0.924098  0.500000  1
  In  In19  1  0.501494  0.500345  0.500000  1
  Rh  Rh20  1  0.755419  0.552540  0.500000  1
  Rh  Rh21  1  0.448843  0.243396  0.500000  1
  Rh  Rh22  1  0.550925  0.754917  0.500000  1
  Au  Au23  1  0.250554  0.451606  0.500000  1
