# generated using pymatgen
data_TbDy7(Hf3Ge4)4
_symmetry_space_group_name_H-M   'P 1'
_cell_length_a   7.38085945
_cell_length_b   7.38041442
_cell_length_c   13.52706800
_cell_angle_alpha   89.98803688
_cell_angle_beta   89.98004196
_cell_angle_gamma   90.01518845
_symmetry_Int_Tables_number   1
_chemical_formula_structural   TbDy7(Hf3Ge4)4
_chemical_formula_sum   'Tb1 Dy7 Hf12 Ge16'
_cell_volume   736.87073048
_cell_formula_units_Z   1
loop_
 _symmetry_equiv_pos_site_id
 _symmetry_equiv_pos_as_xyz
  1  'x, y, z'
loop_
 _atom_site_type_symbol
 _atom_site_label
 _atom_site_symmetry_multiplicity
 _atom_site_fract_x
 _atom_site_fract_y
 _atom_site_fract_z
 _atom_site_occupancy
  Tb  Tb0  1  0.659828  0.001948  0.281879  1
  Dy  Dy1  1  0.998577  0.340408  0.218204  1
  Dy  Dy2  1  0.001634  0.659836  0.718359  1
  Dy  Dy3  1  0.159810  0.498613  0.468476  1
  Dy  Dy4  1  0.501425  0.840097  0.031508  1
  Dy  Dy5  1  0.840448  0.501513  0.968311  1
  Dy  Dy6  1  0.498495  0.159609  0.531708  1
  Dy  Dy7  1  0.340197  0.998381  0.781671  1
  Hf  Hf8  1  0.171721  0.171722  0.999870  1
  Hf  Hf9  1  0.828312  0.828293  0.500070  1
  Hf  Hf10  1  0.328440  0.671355  0.249988  1
  Hf  Hf11  1  0.671526  0.328546  0.750006  1
  Hf  Hf12  1  0.158077  0.996626  0.375695  1
  Hf  Hf13  1  0.842253  0.003484  0.875684  1
  Hf  Hf14  1  0.503385  0.657706  0.626153  1
  Hf  Hf15  1  0.342266  0.496603  0.874068  1
  Hf  Hf16  1  0.496220  0.341978  0.125560  1
  Hf  Hf17  1  0.657932  0.503523  0.374283  1
  Hf  Hf18  1  0.996584  0.157775  0.624487  1
  Hf  Hf19  1  0.003090  0.841856  0.124015  1
  Ge  Ge20  1  0.367221  0.300866  0.323250  1
  Ge  Ge21  1  0.632466  0.699910  0.823480  1
  Ge  Ge22  1  0.199784  0.867832  0.573323  1
  Ge  Ge23  1  0.132131  0.800171  0.926596  1
  Ge  Ge24  1  0.800525  0.132459  0.073153  1
  Ge  Ge25  1  0.868478  0.200312  0.427085  1
  Ge  Ge26  1  0.300210  0.367416  0.676531  1
  Ge  Ge27  1  0.699718  0.631870  0.176467  1
  Ge  Ge28  1  0.296495  0.035666  0.181114  1
  Ge  Ge29  1  0.702807  0.964170  0.681321  1
  Ge  Ge30  1  0.463486  0.796468  0.431807  1
  Ge  Ge31  1  0.203026  0.535942  0.068549  1
  Ge  Ge32  1  0.535977  0.202821  0.931311  1
  Ge  Ge33  1  0.797236  0.464164  0.568707  1
  Ge  Ge34  1  0.035853  0.297248  0.818657  1
  Ge  Ge35  1  0.964366  0.702813  0.318655  1
