# generated using pymatgen
data_Sr4Y4ErTm3Se16
_symmetry_space_group_name_H-M   'P 1'
_cell_length_a   4.12279000
_cell_length_b   12.65251800
_cell_length_c   14.90744100
_cell_angle_alpha   89.99933885
_cell_angle_beta   90.00000000
_cell_angle_gamma   90.00000000
_symmetry_Int_Tables_number   1
_chemical_formula_structural   Sr4Y4ErTm3Se16
_chemical_formula_sum   'Sr4 Y4 Er1 Tm3 Se16'
_cell_volume   777.62690271
_cell_formula_units_Z   1
loop_
 _symmetry_equiv_pos_site_id
 _symmetry_equiv_pos_as_xyz
  1  'x, y, z'
loop_
 _atom_site_type_symbol
 _atom_site_label
 _atom_site_symmetry_multiplicity
 _atom_site_fract_x
 _atom_site_fract_y
 _atom_site_fract_z
 _atom_site_occupancy
  Sr  Sr0  1  0.249998  0.759342  0.334241  1
  Sr  Sr1  1  0.250008  0.259638  0.165811  1
  Sr  Sr2  1  0.750020  0.240363  0.665758  1
  Sr  Sr3  1  0.749978  0.740453  0.834210  1
  Y  Y4  1  0.249986  0.438138  0.388788  1
  Y  Y5  1  0.250028  0.937879  0.111156  1
  Y  Y6  1  0.750008  0.561998  0.611374  1
  Y  Y7  1  0.749981  0.062061  0.888675  1
  Er  Er8  1  0.750076  0.083077  0.403069  1
  Tm  Tm9  1  0.249998  0.417051  0.903048  1
  Tm  Tm10  1  0.249994  0.917099  0.596980  1
  Tm  Tm11  1  0.750000  0.582830  0.097030  1
  Se  Se12  1  0.249989  0.206970  0.828350  1
  Se  Se13  1  0.249981  0.707066  0.671423  1
  Se  Se14  1  0.750000  0.792922  0.171665  1
  Se  Se15  1  0.750003  0.293629  0.328308  1
  Se  Se16  1  0.249992  0.127883  0.530756  1
  Se  Se17  1  0.249992  0.627546  0.969822  1
  Se  Se18  1  0.749998  0.871785  0.470034  1
  Se  Se19  1  0.749987  0.372375  0.030202  1
  Se  Se20  1  0.250016  0.028712  0.285467  1
  Se  Se21  1  0.249998  0.528672  0.213898  1
  Se  Se22  1  0.750012  0.971297  0.713852  1
  Se  Se23  1  0.749994  0.471221  0.786110  1
  Se  Se24  1  0.249988  0.408236  0.577723  1
  Se  Se25  1  0.249974  0.908273  0.922314  1
  Se  Se26  1  0.750013  0.591657  0.422332  1
  Se  Se27  1  0.749987  0.091828  0.077606  1
