# generated using pymatgen
data_Er4TiPt15
_symmetry_space_group_name_H-M   'P 1'
_cell_length_a   4.07298500
_cell_length_b   4.07298500
_cell_length_c   20.33461400
_cell_angle_alpha   90.00000000
_cell_angle_beta   90.00000000
_cell_angle_gamma   90.00000000
_symmetry_Int_Tables_number   1
_chemical_formula_structural   Er4TiPt15
_chemical_formula_sum   'Er4 Ti1 Pt15'
_cell_volume   337.33511705
_cell_formula_units_Z   1
loop_
 _symmetry_equiv_pos_site_id
 _symmetry_equiv_pos_as_xyz
  1  'x, y, z'
loop_
 _atom_site_type_symbol
 _atom_site_label
 _atom_site_symmetry_multiplicity
 _atom_site_fract_x
 _atom_site_fract_y
 _atom_site_fract_z
 _atom_site_occupancy
  Er  Er0  1  0.000000  0.000000  0.196400  1
  Er  Er1  1  0.000000  0.000000  0.398524  1
  Er  Er2  1  0.000000  0.000000  0.601476  1
  Er  Er3  1  0.000000  0.000000  0.803600  1
  Ti  Ti4  1  0.000000  0.000000  0.000000  1
  Pt  Pt5  1  0.500000  0.500000  0.000000  1
  Pt  Pt6  1  0.500000  0.500000  0.194208  1
  Pt  Pt7  1  0.500000  0.500000  0.398310  1
  Pt  Pt8  1  0.500000  0.500000  0.601690  1
  Pt  Pt9  1  0.500000  0.500000  0.805792  1
  Pt  Pt10  1  0.500000  0.000000  0.091704  1
  Pt  Pt11  1  0.500000  0.000000  0.296487  1
  Pt  Pt12  1  0.500000  0.000000  0.500000  1
  Pt  Pt13  1  0.500000  0.000000  0.703513  1
  Pt  Pt14  1  0.500000  0.000000  0.908296  1
  Pt  Pt15  1  0.000000  0.500000  0.091704  1
  Pt  Pt16  1  0.000000  0.500000  0.296487  1
  Pt  Pt17  1  0.000000  0.500000  0.500000  1
  Pt  Pt18  1  0.000000  0.500000  0.703513  1
  Pt  Pt19  1  0.000000  0.500000  0.908296  1
