# generated using pymatgen
data_Tb5Er3Sc12(Si3Ni)4
_symmetry_space_group_name_H-M   'P 1'
_cell_length_a   6.88809717
_cell_length_b   7.57328121
_cell_length_c   13.88564304
_cell_angle_alpha   89.99156875
_cell_angle_beta   89.99798969
_cell_angle_gamma   89.97453748
_symmetry_Int_Tables_number   1
_chemical_formula_structural   Tb5Er3Sc12(Si3Ni)4
_chemical_formula_sum   'Tb5 Er3 Sc12 Si12 Ni4'
_cell_volume   724.35138859
_cell_formula_units_Z   1
loop_
 _symmetry_equiv_pos_site_id
 _symmetry_equiv_pos_as_xyz
  1  'x, y, z'
loop_
 _atom_site_type_symbol
 _atom_site_label
 _atom_site_symmetry_multiplicity
 _atom_site_fract_x
 _atom_site_fract_y
 _atom_site_fract_z
 _atom_site_occupancy
  Tb  Tb0  1  0.994491  0.819598  0.591775  1
  Tb  Tb1  1  0.505349  0.319385  0.090401  1
  Tb  Tb2  1  0.005296  0.180215  0.408661  1
  Tb  Tb3  1  0.505286  0.319649  0.407985  1
  Tb  Tb4  1  0.494686  0.680390  0.591684  1
  Er  Er5  1  0.005408  0.181346  0.090508  1
  Er  Er6  1  0.994856  0.818436  0.908931  1
  Er  Er7  1  0.494500  0.682201  0.908619  1
  Sc  Sc8  1  0.178250  0.506569  0.750850  1
  Sc  Sc9  1  0.822420  0.493786  0.249430  1
  Sc  Sc10  1  0.321685  0.006378  0.249303  1
  Sc  Sc11  1  0.678014  0.993652  0.750764  1
  Sc  Sc12  1  0.320349  0.169737  0.630410  1
  Sc  Sc13  1  0.679593  0.830393  0.369668  1
  Sc  Sc14  1  0.179522  0.669785  0.369794  1
  Sc  Sc15  1  0.679913  0.830264  0.129231  1
  Sc  Sc16  1  0.820310  0.330462  0.630439  1
  Sc  Sc17  1  0.319504  0.169288  0.870500  1
  Sc  Sc18  1  0.820371  0.330368  0.870582  1
  Sc  Sc19  1  0.179620  0.670142  0.129512  1
  Si  Si20  1  0.278716  0.872163  0.751413  1
  Si  Si21  1  0.722278  0.127116  0.248718  1
  Si  Si22  1  0.219589  0.372250  0.249090  1
  Si  Si23  1  0.778753  0.627933  0.751465  1
  Si  Si24  1  0.159197  0.465291  0.539697  1
  Si  Si25  1  0.840457  0.534881  0.460555  1
  Si  Si26  1  0.340803  0.965293  0.460583  1
  Si  Si27  1  0.840639  0.534933  0.039083  1
  Si  Si28  1  0.659106  0.034802  0.539584  1
  Si  Si29  1  0.160557  0.466706  0.960099  1
  Si  Si30  1  0.661222  0.032815  0.960133  1
  Si  Si31  1  0.338634  0.965026  0.039026  1
  Ni  Ni32  1  0.031625  0.103362  0.750857  1
  Ni  Ni33  1  0.968518  0.896119  0.249253  1
  Ni  Ni34  1  0.468125  0.602827  0.250262  1
  Ni  Ni35  1  0.532358  0.396438  0.751136  1
