# generated using pymatgen
data_HoTm5Al24Ru7Rh
_symmetry_space_group_name_H-M   'P 1'
_cell_length_a   8.74591659
_cell_length_b   8.77656259
_cell_length_c   9.57294479
_cell_angle_alpha   90.00550939
_cell_angle_beta   89.84802457
_cell_angle_gamma   120.11029638
_symmetry_Int_Tables_number   1
_chemical_formula_structural   HoTm5Al24Ru7Rh
_chemical_formula_sum   'Ho1 Tm5 Al24 Ru7 Rh1'
_cell_volume   635.65320989
_cell_formula_units_Z   1
loop_
 _symmetry_equiv_pos_site_id
 _symmetry_equiv_pos_as_xyz
  1  'x, y, z'
loop_
 _atom_site_type_symbol
 _atom_site_label
 _atom_site_symmetry_multiplicity
 _atom_site_fract_x
 _atom_site_fract_y
 _atom_site_fract_z
 _atom_site_occupancy
  Ho  Ho0  1  0.805063  0.191581  0.748938  1
  Tm  Tm1  1  0.195416  0.807994  0.251162  1
  Tm  Tm2  1  0.388729  0.194442  0.749619  1
  Tm  Tm3  1  0.611294  0.805637  0.250382  1
  Tm  Tm4  1  0.804441  0.612536  0.748844  1
  Tm  Tm5  1  0.195454  0.387498  0.251160  1
  Al  Al6  1  0.665200  0.332858  0.979964  1
  Al  Al7  1  0.334629  0.667315  0.020248  1
  Al  Al8  1  0.333092  0.666546  0.480531  1
  Al  Al9  1  0.666741  0.333622  0.519228  1
  Al  Al10  1  0.837921  0.163355  0.421731  1
  Al  Al11  1  0.162113  0.836636  0.577940  1
  Al  Al12  1  0.326286  0.163114  0.422532  1
  Al  Al13  1  0.163690  0.838714  0.921957  1
  Al  Al14  1  0.673665  0.836676  0.577322  1
  Al  Al15  1  0.836355  0.161274  0.078357  1
  Al  Al16  1  0.837913  0.674509  0.421942  1
  Al  Al17  1  0.674386  0.837054  0.922302  1
  Al  Al18  1  0.162304  0.325563  0.577906  1
  Al  Al19  1  0.325533  0.162727  0.077847  1
  Al  Al20  1  0.163840  0.325049  0.921978  1
  Al  Al21  1  0.836346  0.675006  0.078177  1
  Al  Al22  1  0.437634  0.560947  0.750217  1
  Al  Al23  1  0.562417  0.439052  0.249778  1
  Al  Al24  1  0.122761  0.561645  0.749331  1
  Al  Al25  1  0.877622  0.438820  0.250653  1
  Al  Al26  1  0.437132  0.876235  0.750224  1
  Al  Al27  1  0.562409  0.123372  0.249781  1
  Al  Al28  1  0.000018  0.999755  0.749940  1
  Al  Al29  1  0.000149  0.000110  0.250060  1
  Ru  Ru30  1  0.499912  0.500086  0.000022  1
  Ru  Ru31  1  0.499898  0.500058  0.499981  1
  Ru  Ru32  1  0.499605  0.999794  0.000181  1
  Ru  Ru33  1  0.000215  0.500389  0.499803  1
  Ru  Ru34  1  0.499667  0.999836  0.499850  1
  Ru  Ru35  1  0.999988  0.999948  0.999919  1
  Ru  Ru36  1  0.999997  0.999960  0.500051  1
  Rh  Rh37  1  0.000165  0.500285  0.000144  1
