# generated using pymatgen
data_Zr16NbCo4Ir3
_symmetry_space_group_name_H-M   'P 1'
_cell_length_a   8.74290072
_cell_length_b   8.74233017
_cell_length_c   8.74286200
_cell_angle_alpha   59.79510469
_cell_angle_beta   59.80490166
_cell_angle_gamma   59.79894828
_symmetry_Int_Tables_number   1
_chemical_formula_structural   Zr16NbCo4Ir3
_chemical_formula_sum   'Zr16 Nb1 Co4 Ir3'
_cell_volume   470.37220851
_cell_formula_units_Z   1
loop_
 _symmetry_equiv_pos_site_id
 _symmetry_equiv_pos_as_xyz
  1  'x, y, z'
loop_
 _atom_site_type_symbol
 _atom_site_label
 _atom_site_symmetry_multiplicity
 _atom_site_fract_x
 _atom_site_fract_y
 _atom_site_fract_z
 _atom_site_occupancy
  Zr  Zr0  1  0.045777  0.651053  0.651081  1
  Zr  Zr1  1  0.651006  0.045810  0.651037  1
  Zr  Zr2  1  0.651058  0.651054  0.045773  1
  Zr  Zr3  1  0.646978  0.647075  0.647019  1
  Zr  Zr4  1  0.796805  0.796791  0.203084  1
  Zr  Zr5  1  0.197077  0.197025  0.801449  1
  Zr  Zr6  1  0.796750  0.203160  0.796758  1
  Zr  Zr7  1  0.197119  0.801434  0.197049  1
  Zr  Zr8  1  0.203094  0.796790  0.796854  1
  Zr  Zr9  1  0.801464  0.197068  0.197058  1
  Zr  Zr10  1  0.435217  0.435235  0.070381  1
  Zr  Zr11  1  0.064082  0.064014  0.436491  1
  Zr  Zr12  1  0.435189  0.070412  0.435203  1
  Zr  Zr13  1  0.064070  0.436429  0.064057  1
  Zr  Zr14  1  0.070384  0.435227  0.435196  1
  Zr  Zr15  1  0.436466  0.064021  0.064063  1
  Nb  Nb16  1  0.423863  0.423872  0.423875  1
  Co  Co17  1  0.420557  0.858891  0.858912  1
  Co  Co18  1  0.858907  0.420560  0.858896  1
  Co  Co19  1  0.858920  0.858896  0.420547  1
  Co  Co20  1  0.860215  0.860312  0.860227  1
  Ir  Ir21  1  0.754575  0.415191  0.415188  1
  Ir  Ir22  1  0.415226  0.754482  0.415237  1
  Ir  Ir23  1  0.415202  0.415198  0.754567  1
