# generated using pymatgen
data_Rb5SiHSe5
_symmetry_space_group_name_H-M   'P 1'
_cell_length_a   8.06535741
_cell_length_b   8.06535634
_cell_length_c   14.68987218
_cell_angle_alpha   81.31581213
_cell_angle_beta   81.31580888
_cell_angle_gamma   110.66009359
_symmetry_Int_Tables_number   1
_chemical_formula_structural   Rb5SiHSe5
_chemical_formula_sum   'Rb10 Si2 H2 Se10'
_cell_volume   862.05134749
_cell_formula_units_Z   2
loop_
 _symmetry_equiv_pos_site_id
 _symmetry_equiv_pos_as_xyz
  1  'x, y, z'
loop_
 _atom_site_type_symbol
 _atom_site_label
 _atom_site_symmetry_multiplicity
 _atom_site_fract_x
 _atom_site_fract_y
 _atom_site_fract_z
 _atom_site_occupancy
  Rb  Rb0  1  0.266768  0.266768  0.952976  1
  Rb  Rb1  1  0.598972  0.083224  0.803865  1
  Rb  Rb2  1  0.083224  0.598972  0.803865  1
  Rb  Rb3  1  0.813165  0.813165  0.601102  1
  Rb  Rb4  1  0.668448  0.331552  0.500000  1
  Rb  Rb5  1  0.331552  0.668448  0.500000  1
  Rb  Rb6  1  0.186835  0.186835  0.398898  1
  Rb  Rb7  1  0.916776  0.401028  0.196135  1
  Rb  Rb8  1  0.401028  0.916776  0.196135  1
  Rb  Rb9  1  0.733232  0.733232  0.047024  1
  Si  Si10  1  0.168693  0.168693  0.694700  1
  Si  Si11  1  0.831307  0.831307  0.305300  1
  H  H12  1  0.799547  0.200453  0.000000  1
  H  H13  1  0.200453  0.799547  0.000000  1
  Se  Se14  1  0.687790  0.312210  0.000000  1
  Se  Se15  1  0.312210  0.687790  0.000000  1
  Se  Se16  1  0.991879  0.991879  0.838052  1
  Se  Se17  1  0.414989  0.414989  0.708295  1
  Se  Se18  1  0.273510  0.986545  0.615653  1
  Se  Se19  1  0.986545  0.273510  0.615653  1
  Se  Se20  1  0.013455  0.726490  0.384347  1
  Se  Se21  1  0.726490  0.013455  0.384347  1
  Se  Se22  1  0.585011  0.585011  0.291705  1
  Se  Se23  1  0.008121  0.008121  0.161948  1
