# generated using pymatgen
data_Tb10Ho2InCuNi4
_symmetry_space_group_name_H-M   'P 1'
_cell_length_a   8.35798799
_cell_length_b   8.36805916
_cell_length_c   8.35798782
_cell_angle_alpha   112.43489057
_cell_angle_beta   109.41222784
_cell_angle_gamma   106.57084420
_symmetry_Int_Tables_number   1
_chemical_formula_structural   Tb10Ho2InCuNi4
_chemical_formula_sum   'Tb10 Ho2 In1 Cu1 Ni4'
_cell_volume   449.08492253
_cell_formula_units_Z   1
loop_
 _symmetry_equiv_pos_site_id
 _symmetry_equiv_pos_as_xyz
  1  'x, y, z'
loop_
 _atom_site_type_symbol
 _atom_site_label
 _atom_site_symmetry_multiplicity
 _atom_site_fract_x
 _atom_site_fract_y
 _atom_site_fract_z
 _atom_site_occupancy
  Tb  Tb0  1  0.414885  0.222069  0.191698  1
  Tb  Tb1  1  0.585115  0.777931  0.808302  1
  Tb  Tb2  1  0.030372  0.222069  0.807184  1
  Tb  Tb3  1  0.969628  0.777931  0.192816  1
  Tb  Tb4  1  0.179066  0.290312  0.470666  1
  Tb  Tb5  1  0.820934  0.709688  0.529334  1
  Tb  Tb6  1  0.180356  0.709688  0.888756  1
  Tb  Tb7  1  0.819644  0.290312  0.111244  1
  Tb  Tb8  1  0.323827  0.633392  0.309566  1
  Tb  Tb9  1  0.676173  0.366608  0.690434  1
  Ho  Ho10  1  0.324898  0.014718  0.689820  1
  Ho  Ho11  1  0.675102  0.985282  0.310180  1
  In  In12  1  0.500000  0.500000  0.000000  1
  Cu  Cu13  1  0.000000  0.000000  0.000000  1
  Ni  Ni14  1  0.354740  0.000000  0.354740  1
  Ni  Ni15  1  0.645260  0.000000  0.645260  1
  Ni  Ni16  1  0.123790  0.624617  0.500828  1
  Ni  Ni17  1  0.876210  0.375383  0.499172  1
