# generated using pymatgen
data_NdBr37
_symmetry_space_group_name_H-M   'P 1'
_cell_length_a   14.20848141
_cell_length_b   15.29732181
_cell_length_c   14.42416200
_cell_angle_alpha   103.00376457
_cell_angle_beta   48.80056783
_cell_angle_gamma   81.50743146
_symmetry_Int_Tables_number   1
_chemical_formula_structural   NdBr37
_chemical_formula_sum   'Nd1 Br37'
_cell_volume   2102.91272627
_cell_formula_units_Z   1
loop_
 _symmetry_equiv_pos_site_id
 _symmetry_equiv_pos_as_xyz
  1  'x, y, z'
loop_
 _atom_site_type_symbol
 _atom_site_label
 _atom_site_symmetry_multiplicity
 _atom_site_fract_x
 _atom_site_fract_y
 _atom_site_fract_z
 _atom_site_occupancy
  Nd  Nd0  1  0.500000  0.000000  0.000000  1
  Br  Br1  1  0.794455  0.301735  0.135853  1
  Br  Br2  1  0.205545  0.698265  0.864147  1
  Br  Br3  1  0.749361  0.083291  0.363198  1
  Br  Br4  1  0.250639  0.916709  0.636802  1
  Br  Br5  1  0.112170  0.349478  0.171092  1
  Br  Br6  1  0.887830  0.650522  0.828908  1
  Br  Br7  1  0.869069  0.536506  0.247719  1
  Br  Br8  1  0.130931  0.463494  0.752281  1
  Br  Br9  1  0.688979  0.276157  0.522239  1
  Br  Br10  1  0.311021  0.723843  0.477761  1
  Br  Br11  1  0.054610  0.148628  0.471115  1
  Br  Br12  1  0.945390  0.851372  0.528885  1
  Br  Br13  1  0.984327  0.004776  0.282690  1
  Br  Br14  1  0.015673  0.995224  0.717310  1
  Br  Br15  1  0.955842  0.343106  0.599276  1
  Br  Br16  1  0.044158  0.656894  0.400724  1
  Br  Br17  1  0.584002  0.428593  0.234852  1
  Br  Br18  1  0.415998  0.571407  0.765148  1
  Br  Br19  1  0.172988  0.475764  0.272012  1
  Br  Br20  1  0.827012  0.524236  0.727988  1
  Br  Br21  1  0.000000  0.500000  0.000000  1
  Br  Br22  1  0.575561  0.948718  0.137386  1
  Br  Br23  1  0.424439  0.051282  0.862614  1
  Br  Br24  1  0.315739  0.052083  0.306908  1
  Br  Br25  1  0.684261  0.947917  0.693092  1
  Br  Br26  1  0.537387  0.132853  0.412652  1
  Br  Br27  1  0.462613  0.867147  0.587348  1
  Br  Br28  1  0.090909  0.214902  0.068383  1
  Br  Br29  1  0.909091  0.785098  0.931617  1
  Br  Br30  1  0.662913  0.693686  0.402287  1
  Br  Br31  1  0.337087  0.306314  0.597713  1
  Br  Br32  1  0.901111  0.149632  0.924278  1
  Br  Br33  1  0.098889  0.850368  0.075722  1
  Br  Br34  1  0.521323  0.177338  0.049494  1
  Br  Br35  1  0.478677  0.822662  0.950506  1
  Br  Br36  1  0.647628  0.433313  0.651733  1
  Br  Br37  1  0.352372  0.566687  0.348267  1
