# generated using pymatgen
data_Be2Al3V12Ga3N4
_symmetry_space_group_name_H-M   'P 1'
_cell_length_a   6.54229123
_cell_length_b   6.53227578
_cell_length_c   6.53277412
_cell_angle_alpha   90.01605383
_cell_angle_beta   90.01516849
_cell_angle_gamma   90.06181969
_symmetry_Int_Tables_number   1
_chemical_formula_structural   Be2Al3V12Ga3N4
_chemical_formula_sum   'Be2 Al3 V12 Ga3 N4'
_cell_volume   279.18478158
_cell_formula_units_Z   1
loop_
 _symmetry_equiv_pos_site_id
 _symmetry_equiv_pos_as_xyz
  1  'x, y, z'
loop_
 _atom_site_type_symbol
 _atom_site_label
 _atom_site_symmetry_multiplicity
 _atom_site_fract_x
 _atom_site_fract_y
 _atom_site_fract_z
 _atom_site_occupancy
  Be  Be0  1  0.180491  0.826927  0.321504  1
  Be  Be1  1  0.318888  0.172469  0.821170  1
  Al  Al2  1  0.823000  0.320158  0.179002  1
  Al  Al3  1  0.677744  0.679834  0.678034  1
  Al  Al4  1  0.556921  0.416161  0.924509  1
  V  V5  1  0.793426  0.958344  0.374974  1
  V  V6  1  0.706428  0.041892  0.874191  1
  V  V7  1  0.207117  0.461161  0.126242  1
  V  V8  1  0.293269  0.538691  0.627213  1
  V  V9  1  0.960879  0.372522  0.792315  1
  V  V10  1  0.041727  0.876871  0.707226  1
  V  V11  1  0.459276  0.124550  0.207192  1
  V  V12  1  0.538087  0.626848  0.291424  1
  V  V13  1  0.373110  0.792513  0.961668  1
  V  V14  1  0.875769  0.708485  0.041609  1
  V  V15  1  0.126852  0.207056  0.461019  1
  V  V16  1  0.623434  0.291174  0.543056  1
  Ga  Ga17  1  0.414374  0.934857  0.570772  1
  Ga  Ga18  1  0.943942  0.583807  0.424766  1
  Ga  Ga19  1  0.085735  0.065145  0.071005  1
  N  N20  1  0.875233  0.125119  0.624646  1
  N  N21  1  0.624902  0.875329  0.124970  1
  N  N22  1  0.124589  0.624961  0.875536  1
  N  N23  1  0.374807  0.375126  0.375953  1
