# generated using pymatgen
data_PrCo2(B2Ru)2
_symmetry_space_group_name_H-M   'P 1'
_cell_length_a   7.32707600
_cell_length_b   7.32707600
_cell_length_c   3.91604500
_cell_angle_alpha   90.00000000
_cell_angle_beta   90.00000000
_cell_angle_gamma   90.00000000
_symmetry_Int_Tables_number   1
_chemical_formula_structural   PrCo2(B2Ru)2
_chemical_formula_sum   'Pr2 Co4 B8 Ru4'
_cell_volume   210.23695912
_cell_formula_units_Z   2
loop_
 _symmetry_equiv_pos_site_id
 _symmetry_equiv_pos_as_xyz
  1  'x, y, z'
loop_
 _atom_site_type_symbol
 _atom_site_label
 _atom_site_symmetry_multiplicity
 _atom_site_fract_x
 _atom_site_fract_y
 _atom_site_fract_z
 _atom_site_occupancy
  Pr  Pr0  1  0.000000  0.000000  0.078191  1
  Pr  Pr1  1  0.500000  0.500000  0.578191  1
  Co  Co2  1  0.623367  0.115379  0.378977  1
  Co  Co3  1  0.376633  0.884621  0.378977  1
  Co  Co4  1  0.615379  0.876633  0.878977  1
  Co  Co5  1  0.384621  0.123367  0.878977  1
  B  B6  1  0.341531  0.818996  0.881380  1
  B  B7  1  0.658469  0.181004  0.881380  1
  B  B8  1  0.318996  0.158469  0.381380  1
  B  B9  1  0.681004  0.841531  0.381380  1
  B  B10  1  0.173206  0.728495  0.598863  1
  B  B11  1  0.826794  0.271505  0.598863  1
  B  B12  1  0.228495  0.326794  0.098863  1
  B  B13  1  0.771505  0.673206  0.098863  1
  Ru  Ru14  1  0.841551  0.390554  0.101684  1
  Ru  Ru15  1  0.158449  0.609446  0.101684  1
  Ru  Ru16  1  0.890554  0.658449  0.601684  1
  Ru  Ru17  1  0.109446  0.341551  0.601684  1
