# generated using pymatgen
data_Er4Cd2Pd3Pt
_symmetry_space_group_name_H-M   'P 1'
_cell_length_a   7.78122869
_cell_length_b   7.78122869
_cell_length_c   3.60501100
_cell_angle_alpha   90.00000000
_cell_angle_beta   90.00000000
_cell_angle_gamma   89.95172599
_symmetry_Int_Tables_number   1
_chemical_formula_structural   Er4Cd2Pd3Pt
_chemical_formula_sum   'Er4 Cd2 Pd3 Pt1'
_cell_volume   218.27439791
_cell_formula_units_Z   1
loop_
 _symmetry_equiv_pos_site_id
 _symmetry_equiv_pos_as_xyz
  1  'x, y, z'
loop_
 _atom_site_type_symbol
 _atom_site_label
 _atom_site_symmetry_multiplicity
 _atom_site_fract_x
 _atom_site_fract_y
 _atom_site_fract_z
 _atom_site_occupancy
  Er  Er0  1  0.668766  0.168766  0.500000  1
  Er  Er1  1  0.326506  0.826506  0.500000  1
  Er  Er2  1  0.171277  0.334169  0.500000  1
  Er  Er3  1  0.834169  0.671277  0.500000  1
  Cd  Cd4  1  0.000268  0.002451  0.000000  1
  Cd  Cd5  1  0.502451  0.500268  0.000000  1
  Pd  Pd6  1  0.868717  0.368717  0.000000  1
  Pd  Pd7  1  0.628940  0.870910  0.000000  1
  Pd  Pd8  1  0.370910  0.128940  0.000000  1
  Pt  Pt9  1  0.127994  0.627994  0.000000  1
