# generated using pymatgen
data_YbEuFe(CN)2
_symmetry_space_group_name_H-M   'P 1'
_cell_length_a   6.75097181
_cell_length_b   6.50654416
_cell_length_c   6.50654501
_cell_angle_alpha   135.12609344
_cell_angle_beta   112.28239870
_cell_angle_gamma   84.35402009
_symmetry_Int_Tables_number   1
_chemical_formula_structural   YbEuFe(CN)2
_chemical_formula_sum   'Yb2 Eu2 Fe2 C4 N4'
_cell_volume   180.12862129
_cell_formula_units_Z   2
loop_
 _symmetry_equiv_pos_site_id
 _symmetry_equiv_pos_as_xyz
  1  'x, y, z'
loop_
 _atom_site_type_symbol
 _atom_site_label
 _atom_site_symmetry_multiplicity
 _atom_site_fract_x
 _atom_site_fract_y
 _atom_site_fract_z
 _atom_site_occupancy
  Yb  Yb0  1  0.520551  0.856735  0.663816  1
  Yb  Yb1  1  0.479449  0.143265  0.336184  1
  Eu  Eu2  1  0.196144  0.343818  0.852325  1
  Eu  Eu3  1  0.803856  0.656182  0.147675  1
  Fe  Fe4  1  0.000000  0.249577  0.249577  1
  Fe  Fe5  1  0.000000  0.750423  0.750423  1
  C  C6  1  0.899293  0.071971  0.827322  1
  C  C7  1  0.100707  0.928029  0.172678  1
  C  C8  1  0.236540  0.577303  0.659238  1
  C  C9  1  0.763460  0.422697  0.340762  1
  N  N10  1  0.772645  0.116696  0.655950  1
  N  N11  1  0.227355  0.883304  0.344050  1
  N  N12  1  0.449990  0.630276  0.819713  1
  N  N13  1  0.550010  0.369724  0.180287  1
