# generated using pymatgen
data_SrSmReH6
_symmetry_space_group_name_H-M   'P 1'
_cell_length_a   5.26909514
_cell_length_b   5.26909500
_cell_length_c   5.26909500
_cell_angle_alpha   59.99999374
_cell_angle_beta   59.99999461
_cell_angle_gamma   60.00000279
_symmetry_Int_Tables_number   1
_chemical_formula_structural   SrSmReH6
_chemical_formula_sum   'Sr1 Sm1 Re1 H6'
_cell_volume   103.44108601
_cell_formula_units_Z   1
loop_
 _symmetry_equiv_pos_site_id
 _symmetry_equiv_pos_as_xyz
  1  'x, y, z'
loop_
 _atom_site_type_symbol
 _atom_site_label
 _atom_site_symmetry_multiplicity
 _atom_site_fract_x
 _atom_site_fract_y
 _atom_site_fract_z
 _atom_site_occupancy
  Sr  Sr0  1  0.750000  0.750000  0.750000  1
  Sm  Sm1  1  0.250000  0.250000  0.250000  1
  Re  Re2  1  0.000000  0.000000  0.000000  1
  H  H3  1  0.759343  0.759343  0.240657  1
  H  H4  1  0.240657  0.759343  0.240657  1
  H  H5  1  0.759343  0.240657  0.240657  1
  H  H6  1  0.240657  0.240657  0.759343  1
  H  H7  1  0.759343  0.240657  0.759343  1
  H  H8  1  0.240657  0.759343  0.759343  1
