# generated using pymatgen
data_La4TbYU2O14
_symmetry_space_group_name_H-M   'P 1'
_cell_length_a   7.80957378
_cell_length_b   7.87617840
_cell_length_c   7.87617922
_cell_angle_alpha   60.87279230
_cell_angle_beta   60.27379903
_cell_angle_gamma   60.27379973
_symmetry_Int_Tables_number   1
_chemical_formula_structural   La4TbYU2O14
_chemical_formula_sum   'La4 Tb1 Y1 U2 O14'
_cell_volume   346.20657077
_cell_formula_units_Z   1
loop_
 _symmetry_equiv_pos_site_id
 _symmetry_equiv_pos_as_xyz
  1  'x, y, z'
loop_
 _atom_site_type_symbol
 _atom_site_label
 _atom_site_symmetry_multiplicity
 _atom_site_fract_x
 _atom_site_fract_y
 _atom_site_fract_z
 _atom_site_occupancy
  La  La0  1  0.625000  0.125000  0.125000  1
  La  La1  1  0.125000  0.125000  0.125000  1
  La  La2  1  0.125000  0.625000  0.125000  1
  La  La3  1  0.125000  0.125000  0.625000  1
  Tb  Tb4  1  0.625000  0.625000  0.625000  1
  Y  Y5  1  0.125000  0.625000  0.625000  1
  U  U6  1  0.625000  0.625000  0.125000  1
  U  U7  1  0.625000  0.125000  0.625000  1
  O  O8  1  0.708915  0.291114  0.291114  1
  O  O9  1  0.707721  0.722059  0.274980  1
  O  O10  1  0.296022  0.721482  0.276185  1
  O  O11  1  0.996027  0.004242  0.004242  1
  O  O12  1  0.707721  0.274980  0.722059  1
  O  O13  1  0.980176  0.520268  0.520268  1
  O  O14  1  0.269824  0.729732  0.729732  1
  O  O15  1  0.542279  0.975020  0.527941  1
  O  O16  1  0.253973  0.245758  0.245758  1
  O  O17  1  0.953978  0.528518  0.973815  1
  O  O18  1  0.542279  0.527941  0.975020  1
  O  O19  1  0.953978  0.973815  0.528518  1
  O  O20  1  0.541085  0.958886  0.958886  1
  O  O21  1  0.296022  0.276185  0.721482  1
