# generated using pymatgen
data_Pr2V3Co9P7
_symmetry_space_group_name_H-M   'P 1'
_cell_length_a   9.12696100
_cell_length_b   9.12696068
_cell_length_c   3.68693400
_cell_angle_alpha   90.00000000
_cell_angle_beta   90.00000000
_cell_angle_gamma   119.99999755
_symmetry_Int_Tables_number   1
_chemical_formula_structural   Pr2V3Co9P7
_chemical_formula_sum   'Pr2 V3 Co9 P7'
_cell_volume   265.97963144
_cell_formula_units_Z   1
loop_
 _symmetry_equiv_pos_site_id
 _symmetry_equiv_pos_as_xyz
  1  'x, y, z'
loop_
 _atom_site_type_symbol
 _atom_site_label
 _atom_site_symmetry_multiplicity
 _atom_site_fract_x
 _atom_site_fract_y
 _atom_site_fract_z
 _atom_site_occupancy
  Pr  Pr0  1  0.333333  0.666667  0.000000  1
  Pr  Pr1  1  0.666667  0.333333  0.500000  1
  V  V2  1  0.215972  0.115847  0.500000  1
  V  V3  1  0.884153  0.100126  0.500000  1
  V  V4  1  0.899874  0.784028  0.500000  1
  Co  Co5  1  0.429495  0.370868  0.000000  1
  Co  Co6  1  0.629132  0.058627  0.000000  1
  Co  Co7  1  0.941373  0.570505  0.000000  1
  Co  Co8  1  0.154290  0.879388  0.000000  1
  Co  Co9  1  0.120612  0.274901  0.000000  1
  Co  Co10  1  0.725099  0.845710  0.000000  1
  Co  Co11  1  0.383280  0.951617  0.500000  1
  Co  Co12  1  0.048383  0.431664  0.500000  1
  Co  Co13  1  0.568336  0.616720  0.500000  1
  P  P14  1  0.405934  0.105980  0.000000  1
  P  P15  1  0.894020  0.299954  0.000000  1
  P  P16  1  0.700046  0.594066  0.000000  1
  P  P17  1  0.108604  0.708054  0.500000  1
  P  P18  1  0.291946  0.400551  0.500000  1
  P  P19  1  0.599449  0.891396  0.500000  1
  P  P20  1  0.000000  0.000000  0.000000  1
