# generated using pymatgen
data_Dy12Ho4MgCo4Hg3
_symmetry_space_group_name_H-M   'P 1'
_cell_length_a   9.47741743
_cell_length_b   9.44979772
_cell_length_c   9.44744900
_cell_angle_alpha   60.00822502
_cell_angle_beta   60.10454950
_cell_angle_gamma   60.10244799
_symmetry_Int_Tables_number   1
_chemical_formula_structural   Dy12Ho4MgCo4Hg3
_chemical_formula_sum   'Dy12 Ho4 Mg1 Co4 Hg3'
_cell_volume   599.26206519
_cell_formula_units_Z   1
loop_
 _symmetry_equiv_pos_site_id
 _symmetry_equiv_pos_as_xyz
  1  'x, y, z'
loop_
 _atom_site_type_symbol
 _atom_site_label
 _atom_site_symmetry_multiplicity
 _atom_site_fract_x
 _atom_site_fract_y
 _atom_site_fract_z
 _atom_site_occupancy
  Dy  Dy0  1  0.185492  0.187403  0.813553  1
  Dy  Dy1  1  0.809783  0.811248  0.189484  1
  Dy  Dy2  1  0.938353  0.561551  0.561416  1
  Dy  Dy3  1  0.560874  0.939093  0.937778  1
  Dy  Dy4  1  0.560874  0.939093  0.562255  1
  Dy  Dy5  1  0.938353  0.561551  0.938679  1
  Dy  Dy6  1  0.561021  0.562445  0.938267  1
  Dy  Dy7  1  0.937933  0.939510  0.561278  1
  Dy  Dy8  1  0.347283  0.345749  0.344028  1
  Dy  Dy9  1  0.347283  0.345749  0.962940  1
  Dy  Dy10  1  0.347804  0.961364  0.345415  1
  Dy  Dy11  1  0.952115  0.349456  0.349214  1
  Ho  Ho12  1  0.809051  0.188803  0.190575  1
  Ho  Ho13  1  0.184799  0.812599  0.814001  1
  Ho  Ho14  1  0.184799  0.812599  0.188601  1
  Ho  Ho15  1  0.809051  0.188803  0.811570  1
  Mg  Mg16  1  0.282972  0.572072  0.572479  1
  Co  Co17  1  0.139156  0.142369  0.141043  1
  Co  Co18  1  0.139156  0.142369  0.577432  1
  Co  Co19  1  0.139706  0.577957  0.141169  1
  Co  Co20  1  0.577474  0.141941  0.140293  1
  Hg  Hg21  1  0.582021  0.585378  0.585895  1
  Hg  Hg22  1  0.582021  0.585378  0.246706  1
  Hg  Hg23  1  0.582625  0.245516  0.585930  1
