# generated using pymatgen
data_Ho2Er4Bi2Mo
_symmetry_space_group_name_H-M   'P 1'
_cell_length_a   8.25454800
_cell_length_b   8.25612522
_cell_length_c   4.35053000
_cell_angle_alpha   90.00000000
_cell_angle_beta   90.00000000
_cell_angle_gamma   119.99367276
_symmetry_Int_Tables_number   1
_chemical_formula_structural   Ho2Er4Bi2Mo
_chemical_formula_sum   'Ho2 Er4 Bi2 Mo1'
_cell_volume   256.78523826
_cell_formula_units_Z   1
loop_
 _symmetry_equiv_pos_site_id
 _symmetry_equiv_pos_as_xyz
  1  'x, y, z'
loop_
 _atom_site_type_symbol
 _atom_site_label
 _atom_site_symmetry_multiplicity
 _atom_site_fract_x
 _atom_site_fract_y
 _atom_site_fract_z
 _atom_site_occupancy
  Ho  Ho0  1  0.000015  0.610642  0.500000  1
  Ho  Ho1  1  0.389374  0.389358  0.500000  1
  Er  Er2  1  0.235509  0.000000  0.000000  1
  Er  Er3  1  0.764506  0.764590  0.000000  1
  Er  Er4  1  0.999916  0.235410  0.000000  1
  Er  Er5  1  0.610825  0.000000  0.500000  1
  Bi  Bi6  1  0.333415  0.666785  0.000000  1
  Bi  Bi7  1  0.666632  0.333215  0.000000  1
  Mo  Mo8  1  0.999808  0.000000  0.500000  1
