# generated using pymatgen
data_Dy9Y11Cd6IrRu
_symmetry_space_group_name_H-M   'P 1'
_cell_length_a   9.63982783
_cell_length_b   9.63982722
_cell_length_c   9.86035612
_cell_angle_alpha   89.95269016
_cell_angle_beta   90.04731104
_cell_angle_gamma   119.99657078
_symmetry_Int_Tables_number   1
_chemical_formula_structural   Dy9Y11Cd6IrRu
_chemical_formula_sum   'Dy9 Y11 Cd6 Ir1 Ru1'
_cell_volume   793.55415128
_cell_formula_units_Z   1
loop_
 _symmetry_equiv_pos_site_id
 _symmetry_equiv_pos_as_xyz
  1  'x, y, z'
loop_
 _atom_site_type_symbol
 _atom_site_label
 _atom_site_symmetry_multiplicity
 _atom_site_fract_x
 _atom_site_fract_y
 _atom_site_fract_z
 _atom_site_occupancy
  Dy  Dy0  1  0.999993  0.000007  0.499677  1
  Dy  Dy1  1  0.999777  0.000223  0.000452  1
  Dy  Dy2  1  0.209614  0.790386  0.440489  1
  Dy  Dy3  1  0.209547  0.419215  0.440561  1
  Dy  Dy4  1  0.580785  0.790453  0.440561  1
  Dy  Dy5  1  0.790362  0.209638  0.560465  1
  Dy  Dy6  1  0.790115  0.580362  0.560405  1
  Dy  Dy7  1  0.419638  0.209885  0.560405  1
  Dy  Dy8  1  0.790071  0.209929  0.939192  1
  Y  Y9  1  0.790622  0.581105  0.940074  1
  Y  Y10  1  0.418895  0.209378  0.940074  1
  Y  Y11  1  0.209259  0.790741  0.059326  1
  Y  Y12  1  0.209031  0.418527  0.059239  1
  Y  Y13  1  0.581473  0.790969  0.059239  1
  Y  Y14  1  0.541280  0.458720  0.250710  1
  Y  Y15  1  0.541414  0.082745  0.250499  1
  Y  Y16  1  0.917255  0.458586  0.250499  1
  Y  Y17  1  0.458660  0.541340  0.749443  1
  Y  Y18  1  0.458871  0.917599  0.749522  1
  Y  Y19  1  0.082401  0.541129  0.749522  1
  Cd  Cd20  1  0.885417  0.114583  0.249929  1
  Cd  Cd21  1  0.885424  0.770818  0.249891  1
  Cd  Cd22  1  0.229182  0.114576  0.249891  1
  Cd  Cd23  1  0.114605  0.885395  0.750233  1
  Cd  Cd24  1  0.114655  0.229253  0.750127  1
  Cd  Cd25  1  0.770747  0.885345  0.750127  1
  Ir  Ir26  1  0.333396  0.666604  0.251441  1
  Ru  Ru27  1  0.667516  0.332484  0.748004  1
