# generated using pymatgen
data_Sr2MnGaF10
_symmetry_space_group_name_H-M   'P 1'
_cell_length_a   5.74725524
_cell_length_b   5.79521413
_cell_length_c   8.11941678
_cell_angle_alpha   69.11171094
_cell_angle_beta   70.25096866
_cell_angle_gamma   70.95120965
_symmetry_Int_Tables_number   1
_chemical_formula_structural   Sr2MnGaF10
_chemical_formula_sum   'Sr2 Mn1 Ga1 F10'
_cell_volume   231.18504737
_cell_formula_units_Z   1
loop_
 _symmetry_equiv_pos_site_id
 _symmetry_equiv_pos_as_xyz
  1  'x, y, z'
loop_
 _atom_site_type_symbol
 _atom_site_label
 _atom_site_symmetry_multiplicity
 _atom_site_fract_x
 _atom_site_fract_y
 _atom_site_fract_z
 _atom_site_occupancy
  Sr  Sr0  1  0.543866  0.450421  0.256019  1
  Sr  Sr1  1  0.456134  0.549579  0.743981  1
  Mn  Mn2  1  0.000000  0.000000  0.000000  1
  Ga  Ga3  1  0.000000  0.000000  0.500000  1
  F  F4  1  0.071418  0.928566  0.737114  1
  F  F5  1  0.928582  0.071434  0.262886  1
  F  F6  1  0.205163  0.231389  0.891633  1
  F  F7  1  0.766729  0.793968  0.610699  1
  F  F8  1  0.722039  0.293695  0.532415  1
  F  F9  1  0.706725  0.275961  0.976382  1
  F  F10  1  0.277961  0.706305  0.467585  1
  F  F11  1  0.293275  0.724039  0.023618  1
  F  F12  1  0.233271  0.206032  0.389301  1
  F  F13  1  0.794837  0.768611  0.108367  1
