# generated using pymatgen
data_YbU7CuS17
_symmetry_space_group_name_H-M   'P 1'
_cell_length_a   7.79485490
_cell_length_b   7.79112236
_cell_length_c   10.33548538
_cell_angle_alpha   80.25222556
_cell_angle_beta   79.61397545
_cell_angle_gamma   64.25735828
_symmetry_Int_Tables_number   1
_chemical_formula_structural   YbU7CuS17
_chemical_formula_sum   'Yb1 U7 Cu1 S17'
_cell_volume   553.18075435
_cell_formula_units_Z   1
loop_
 _symmetry_equiv_pos_site_id
 _symmetry_equiv_pos_as_xyz
  1  'x, y, z'
loop_
 _atom_site_type_symbol
 _atom_site_label
 _atom_site_symmetry_multiplicity
 _atom_site_fract_x
 _atom_site_fract_y
 _atom_site_fract_z
 _atom_site_occupancy
  Yb  Yb0  1  0.813211  0.308157  0.296467  1
  U  U1  1  0.301203  0.820762  0.295570  1
  U  U2  1  0.181109  0.697797  0.701581  1
  U  U3  1  0.698171  0.180719  0.702982  1
  U  U4  1  0.800764  0.794927  0.454024  1
  U  U5  1  0.200298  0.201203  0.543747  1
  U  U6  1  0.314358  0.321832  0.016468  1
  U  U7  1  0.683101  0.676351  0.986210  1
  Cu  Cu8  1  0.998581  0.003560  0.003329  1
  S  S9  1  0.183585  0.563208  0.464763  1
  S  S10  1  0.569028  0.171083  0.474039  1
  S  S11  1  0.824172  0.432590  0.542929  1
  S  S12  1  0.434325  0.816889  0.534533  1
  S  S13  1  0.945849  0.330263  0.023164  1
  S  S14  1  0.331288  0.947176  0.030939  1
  S  S15  1  0.052961  0.675509  0.966212  1
  S  S16  1  0.669913  0.060502  0.965119  1
  S  S17  1  0.953926  0.931681  0.229281  1
  S  S18  1  0.056963  0.053873  0.774014  1
  S  S19  1  0.786035  0.786345  0.721678  1
  S  S20  1  0.226833  0.204267  0.279844  1
  S  S21  1  0.688891  0.713958  0.242573  1
  S  S22  1  0.299836  0.301398  0.755291  1
  S  S23  1  0.462360  0.494297  0.160339  1
  S  S24  1  0.518085  0.522090  0.828018  1
  S  S25  1  0.005155  0.989562  0.506886  1
