# generated using pymatgen
data_NpSi3Rh
_symmetry_space_group_name_H-M   'P 1'
_cell_length_a   5.73882177
_cell_length_b   5.73882113
_cell_length_c   5.73882098
_cell_angle_alpha   137.55149002
_cell_angle_beta   137.55147997
_cell_angle_gamma   61.59061314
_symmetry_Int_Tables_number   1
_chemical_formula_structural   NpSi3Rh
_chemical_formula_sum   'Np1 Si3 Rh1'
_cell_volume   85.11096943
_cell_formula_units_Z   1
loop_
 _symmetry_equiv_pos_site_id
 _symmetry_equiv_pos_as_xyz
  1  'x, y, z'
loop_
 _atom_site_type_symbol
 _atom_site_label
 _atom_site_symmetry_multiplicity
 _atom_site_fract_x
 _atom_site_fract_y
 _atom_site_fract_z
 _atom_site_occupancy
  Np  Np0  1  0.995411  0.995411  0.000000  1
  Si  Si1  1  0.416073  0.416073  0.000000  1
  Si  Si2  1  0.264822  0.764822  0.500000  1
  Si  Si3  1  0.764822  0.264822  0.500000  1
  Rh  Rh4  1  0.652872  0.652872  0.000000  1
