# generated using pymatgen
data_Lu4GePt3F28
_symmetry_space_group_name_H-M   'P 1'
_cell_length_a   5.42842047
_cell_length_b   8.71241854
_cell_length_c   11.74741497
_cell_angle_alpha   62.51293919
_cell_angle_beta   90.08227956
_cell_angle_gamma   90.04816827
_symmetry_Int_Tables_number   1
_chemical_formula_structural   Lu4GePt3F28
_chemical_formula_sum   'Lu4 Ge1 Pt3 F28'
_cell_volume   492.87186720
_cell_formula_units_Z   1
loop_
 _symmetry_equiv_pos_site_id
 _symmetry_equiv_pos_as_xyz
  1  'x, y, z'
loop_
 _atom_site_type_symbol
 _atom_site_label
 _atom_site_symmetry_multiplicity
 _atom_site_fract_x
 _atom_site_fract_y
 _atom_site_fract_z
 _atom_site_occupancy
  Lu  Lu0  1  0.260264  0.814916  0.260522  1
  Lu  Lu1  1  0.738393  0.180337  0.738735  1
  Lu  Lu2  1  0.761407  0.186266  0.235097  1
  Lu  Lu3  1  0.237157  0.813987  0.767910  1
  Ge  Ge4  1  0.758653  0.725041  0.044012  1
  Pt  Pt5  1  0.242036  0.272249  0.958006  1
  Pt  Pt6  1  0.259354  0.272953  0.456740  1
  Pt  Pt7  1  0.739468  0.726578  0.543660  1
  F  F8  1  0.934283  0.702638  0.411406  1
  F  F9  1  0.061827  0.297543  0.587272  1
  F  F10  1  0.439053  0.299547  0.087813  1
  F  F11  1  0.556932  0.708826  0.925467  1
  F  F12  1  0.491947  0.730490  0.137618  1
  F  F13  1  0.544656  0.269476  0.867557  1
  F  F14  1  0.959622  0.277361  0.360726  1
  F  F15  1  0.039776  0.723268  0.638982  1
  F  F16  1  0.957363  0.743632  0.164894  1
  F  F17  1  0.050359  0.253472  0.822606  1
  F  F18  1  0.451187  0.257283  0.320206  1
  F  F19  1  0.550504  0.743648  0.681185  1
  F  F20  1  0.773498  0.490405  0.136193  1
  F  F21  1  0.231776  0.525914  0.859501  1
  F  F22  1  0.272675  0.526739  0.353695  1
  F  F23  1  0.723689  0.472535  0.645000  1
  F  F24  1  0.932900  0.282612  0.042486  1
  F  F25  1  0.039173  0.719801  0.956103  1
  F  F26  1  0.432136  0.721671  0.455123  1
  F  F27  1  0.566982  0.277448  0.544587  1
  F  F28  1  0.744064  0.980688  0.447972  1
  F  F29  1  0.258858  0.019152  0.552901  1
  F  F30  1  0.242129  0.018415  0.050207  1
  F  F31  1  0.760562  0.961966  0.950816  1
  F  F32  1  0.582980  0.972518  0.230933  1
  F  F33  1  0.409030  0.031236  0.769867  1
  F  F34  1  0.083405  0.029744  0.265180  1
  F  F35  1  0.911902  0.969646  0.729026  1
