# generated using pymatgen
data_DyU11Te20
_symmetry_space_group_name_H-M   'P 1'
_cell_length_a   4.17867700
_cell_length_b   14.16672889
_cell_length_c   16.22354762
_cell_angle_alpha   90.06913523
_cell_angle_beta   90.00000000
_cell_angle_gamma   90.00000000
_symmetry_Int_Tables_number   1
_chemical_formula_structural   DyU11Te20
_chemical_formula_sum   'Dy1 U11 Te20'
_cell_volume   960.40386064
_cell_formula_units_Z   1
loop_
 _symmetry_equiv_pos_site_id
 _symmetry_equiv_pos_as_xyz
  1  'x, y, z'
loop_
 _atom_site_type_symbol
 _atom_site_label
 _atom_site_symmetry_multiplicity
 _atom_site_fract_x
 _atom_site_fract_y
 _atom_site_fract_z
 _atom_site_occupancy
  Dy  Dy0  1  0.250000  0.247059  0.880361  1
  U  U1  1  0.750000  0.751339  0.119879  1
  U  U2  1  0.750000  0.749101  0.619998  1
  U  U3  1  0.250000  0.250497  0.380147  1
  U  U4  1  0.250000  0.931094  0.861462  1
  U  U5  1  0.750000  0.069023  0.138560  1
  U  U6  1  0.750000  0.432344  0.638430  1
  U  U7  1  0.250000  0.569252  0.361585  1
  U  U8  1  0.250000  0.091482  0.627946  1
  U  U9  1  0.750000  0.909628  0.372887  1
  U  U10  1  0.750000  0.590033  0.873158  1
  U  U11  1  0.250000  0.409126  0.125444  1
  Te  Te12  1  0.250000  0.918426  0.074545  1
  Te  Te13  1  0.750000  0.080047  0.926394  1
  Te  Te14  1  0.750000  0.419516  0.425078  1
  Te  Te15  1  0.250000  0.581723  0.573716  1
  Te  Te16  1  0.250000  0.450874  0.786590  1
  Te  Te17  1  0.750000  0.545891  0.214917  1
  Te  Te18  1  0.750000  0.953574  0.714324  1
  Te  Te19  1  0.250000  0.046887  0.285902  1
  Te  Te20  1  0.250000  0.719962  0.764368  1
  Te  Te21  1  0.750000  0.277791  0.235209  1
  Te  Te22  1  0.750000  0.225368  0.734817  1
  Te  Te23  1  0.250000  0.778718  0.265187  1
  Te  Te24  1  0.250000  0.610228  0.025462  1
  Te  Te25  1  0.750000  0.390459  0.973910  1
  Te  Te26  1  0.750000  0.110338  0.475637  1
  Te  Te27  1  0.250000  0.889313  0.525416  1
  Te  Te28  1  0.250000  0.201532  0.066631  1
  Te  Te29  1  0.750000  0.797853  0.932033  1
  Te  Te30  1  0.750000  0.702651  0.432562  1
  Te  Te31  1  0.250000  0.298874  0.567446  1
