# generated using pymatgen
data_LiMg3(SiIr)4
_symmetry_space_group_name_H-M   'P 1'
_cell_length_a   6.60425636
_cell_length_b   4.01734200
_cell_length_c   6.96209700
_cell_angle_alpha   90.00000000
_cell_angle_beta   89.23324637
_cell_angle_gamma   90.00000000
_symmetry_Int_Tables_number   1
_chemical_formula_structural   LiMg3(SiIr)4
_chemical_formula_sum   'Li1 Mg3 Si4 Ir4'
_cell_volume   184.69872977
_cell_formula_units_Z   1
loop_
 _symmetry_equiv_pos_site_id
 _symmetry_equiv_pos_as_xyz
  1  'x, y, z'
loop_
 _atom_site_type_symbol
 _atom_site_label
 _atom_site_symmetry_multiplicity
 _atom_site_fract_x
 _atom_site_fract_y
 _atom_site_fract_z
 _atom_site_occupancy
  Li  Li0  1  0.987199  0.750000  0.171649  1
  Mg  Mg1  1  0.491909  0.750000  0.326975  1
  Mg  Mg2  1  0.515301  0.249999  0.667683  1
  Mg  Mg3  1  0.010128  0.249999  0.838762  1
  Si  Si4  1  0.286967  0.249999  0.128218  1
  Si  Si5  1  0.807112  0.249999  0.359898  1
  Si  Si6  1  0.202487  0.750000  0.630228  1
  Si  Si7  1  0.706021  0.750000  0.875600  1
  Ir  Ir8  1  0.650969  0.249999  0.052220  1
  Ir  Ir9  1  0.160678  0.249999  0.450389  1
  Ir  Ir10  1  0.840513  0.750000  0.551811  1
  Ir  Ir11  1  0.340718  0.750000  0.946572  1
