# generated using pymatgen
data_Dy2Ga4CuIr
_symmetry_space_group_name_H-M   'P 1'
_cell_length_a   5.51966896
_cell_length_b   5.51966833
_cell_length_c   6.68789800
_cell_angle_alpha   90.00000000
_cell_angle_beta   90.00000000
_cell_angle_gamma   134.56086586
_symmetry_Int_Tables_number   1
_chemical_formula_structural   Dy2Ga4CuIr
_chemical_formula_sum   'Dy2 Ga4 Cu1 Ir1'
_cell_volume   145.17901778
_cell_formula_units_Z   1
loop_
 _symmetry_equiv_pos_site_id
 _symmetry_equiv_pos_as_xyz
  1  'x, y, z'
loop_
 _atom_site_type_symbol
 _atom_site_label
 _atom_site_symmetry_multiplicity
 _atom_site_fract_x
 _atom_site_fract_y
 _atom_site_fract_z
 _atom_site_occupancy
  Dy  Dy0  1  0.580947  0.419053  0.250000  1
  Dy  Dy1  1  0.418828  0.581172  0.750000  1
  Ga  Ga2  1  0.866644  0.133356  0.442853  1
  Ga  Ga3  1  0.133625  0.866375  0.549798  1
  Ga  Ga4  1  0.866644  0.133356  0.057147  1
  Ga  Ga5  1  0.133625  0.866375  0.950202  1
  Cu  Cu6  1  0.293868  0.706132  0.250000  1
  Ir  Ir7  1  0.705818  0.294182  0.750000  1
