# generated using pymatgen
data_DyY7TiV3O20
_symmetry_space_group_name_H-M   'P 1'
_cell_length_a   3.73689500
_cell_length_b   10.40132480
_cell_length_c   11.29995911
_cell_angle_alpha   90.11465538
_cell_angle_beta   90.00000000
_cell_angle_gamma   90.00000000
_symmetry_Int_Tables_number   1
_chemical_formula_structural   DyY7TiV3O20
_chemical_formula_sum   'Dy1 Y7 Ti1 V3 O20'
_cell_volume   439.21337389
_cell_formula_units_Z   1
loop_
 _symmetry_equiv_pos_site_id
 _symmetry_equiv_pos_as_xyz
  1  'x, y, z'
loop_
 _atom_site_type_symbol
 _atom_site_label
 _atom_site_symmetry_multiplicity
 _atom_site_fract_x
 _atom_site_fract_y
 _atom_site_fract_z
 _atom_site_occupancy
  Dy  Dy0  1  0.750000  0.880254  0.725886  1
  Y  Y1  1  0.250000  0.136336  0.943645  1
  Y  Y2  1  0.250000  0.637441  0.554935  1
  Y  Y3  1  0.750000  0.862713  0.055574  1
  Y  Y4  1  0.750000  0.363584  0.445387  1
  Y  Y5  1  0.750000  0.381157  0.773440  1
  Y  Y6  1  0.250000  0.617653  0.224721  1
  Y  Y7  1  0.250000  0.117595  0.275317  1
  Ti  Ti8  1  0.750000  0.327016  0.118928  1
  V  V9  1  0.250000  0.169849  0.618158  1
  V  V10  1  0.250000  0.670910  0.881352  1
  V  V11  1  0.750000  0.829191  0.381878  1
  O  O12  1  0.250000  0.225561  0.457412  1
  O  O13  1  0.250000  0.726942  0.041987  1
  O  O14  1  0.750000  0.774206  0.543015  1
  O  O15  1  0.750000  0.275900  0.956548  1
  O  O16  1  0.250000  0.494439  0.394977  1
  O  O17  1  0.250000  0.995498  0.105509  1
  O  O18  1  0.750000  0.505683  0.605649  1
  O  O19  1  0.750000  0.005851  0.894343  1
  O  O20  1  0.250000  0.266552  0.116361  1
  O  O21  1  0.250000  0.766506  0.384453  1
  O  O22  1  0.750000  0.734092  0.883332  1
  O  O23  1  0.750000  0.232903  0.615668  1
  O  O24  1  0.250000  0.006990  0.654258  1
  O  O25  1  0.250000  0.507849  0.845725  1
  O  O26  1  0.750000  0.992339  0.346809  1
  O  O27  1  0.750000  0.493960  0.154257  1
  O  O28  1  0.250000  0.256932  0.768638  1
  O  O29  1  0.250000  0.757804  0.731018  1
  O  O30  1  0.750000  0.744335  0.230903  1
  O  O31  1  0.750000  0.241966  0.269914  1
