# generated using pymatgen
data_NdHo11(Si3Ir)4
_symmetry_space_group_name_H-M   'P 1'
_cell_length_a   4.24499100
_cell_length_b   10.62027191
_cell_length_c   12.29473407
_cell_angle_alpha   90.24668908
_cell_angle_beta   90.00000000
_cell_angle_gamma   90.00000000
_symmetry_Int_Tables_number   1
_chemical_formula_structural   NdHo11(Si3Ir)4
_chemical_formula_sum   'Nd1 Ho11 Si12 Ir4'
_cell_volume   554.27785046
_cell_formula_units_Z   1
loop_
 _symmetry_equiv_pos_site_id
 _symmetry_equiv_pos_as_xyz
  1  'x, y, z'
loop_
 _atom_site_type_symbol
 _atom_site_label
 _atom_site_symmetry_multiplicity
 _atom_site_fract_x
 _atom_site_fract_y
 _atom_site_fract_z
 _atom_site_occupancy
  Nd  Nd0  1  0.750000  0.155845  0.696578  1
  Ho  Ho1  1  0.250000  0.879309  0.022012  1
  Ho  Ho2  1  0.250000  0.620354  0.520592  1
  Ho  Ho3  1  0.750000  0.119673  0.980392  1
  Ho  Ho4  1  0.750000  0.381868  0.478155  1
  Ho  Ho5  1  0.250000  0.917299  0.603377  1
  Ho  Ho6  1  0.250000  0.581297  0.104252  1
  Ho  Ho7  1  0.750000  0.081641  0.395144  1
  Ho  Ho8  1  0.750000  0.419914  0.896750  1
  Ho  Ho9  1  0.250000  0.659805  0.800881  1
  Ho  Ho10  1  0.250000  0.840711  0.301135  1
  Ho  Ho11  1  0.750000  0.340724  0.199249  1
  Si  Si12  1  0.250000  0.006405  0.823538  1
  Si  Si13  1  0.250000  0.490018  0.320785  1
  Si  Si14  1  0.750000  0.989757  0.178448  1
  Si  Si15  1  0.750000  0.510699  0.679057  1
  Si  Si16  1  0.250000  0.248106  0.842572  1
  Si  Si17  1  0.250000  0.254425  0.339330  1
  Si  Si18  1  0.750000  0.753430  0.159698  1
  Si  Si19  1  0.750000  0.746743  0.659381  1
  Si  Si20  1  0.250000  0.203725  0.538538  1
  Si  Si21  1  0.250000  0.299713  0.044149  1
  Si  Si22  1  0.750000  0.799501  0.455910  1
  Si  Si23  1  0.750000  0.699716  0.957251  1
  Ir  Ir24  1  0.250000  0.392589  0.681475  1
  Ir  Ir25  1  0.250000  0.110874  0.180377  1
  Ir  Ir26  1  0.750000  0.610137  0.318713  1
  Ir  Ir27  1  0.750000  0.885721  0.822261  1
