# generated using pymatgen
data_Ce4Be7BRu10
_symmetry_space_group_name_H-M   'P 1'
_cell_length_a   3.23710900
_cell_length_b   8.86711244
_cell_length_c   10.53923106
_cell_angle_alpha   90.21226788
_cell_angle_beta   90.00000000
_cell_angle_gamma   90.00000000
_symmetry_Int_Tables_number   1
_chemical_formula_structural   Ce4Be7BRu10
_chemical_formula_sum   'Ce4 Be7 B1 Ru10'
_cell_volume   302.51400418
_cell_formula_units_Z   1
loop_
 _symmetry_equiv_pos_site_id
 _symmetry_equiv_pos_as_xyz
  1  'x, y, z'
loop_
 _atom_site_type_symbol
 _atom_site_label
 _atom_site_symmetry_multiplicity
 _atom_site_fract_x
 _atom_site_fract_y
 _atom_site_fract_z
 _atom_site_occupancy
  Ce  Ce0  1  0.500000  0.843416  0.179831  1
  Ce  Ce1  1  0.500000  0.157940  0.816910  1
  Ce  Ce2  1  0.500000  0.656175  0.679449  1
  Ce  Ce3  1  0.500000  0.340869  0.319717  1
  Be  Be4  1  0.500000  0.962629  0.590828  1
  Be  Be5  1  0.500000  0.033932  0.408585  1
  Be  Be6  1  0.500000  0.843346  0.904514  1
  Be  Be7  1  0.500000  0.159231  0.095731  1
  Be  Be8  1  0.500000  0.658313  0.403838  1
  Be  Be9  1  0.500000  0.340053  0.594837  1
  Be  Be10  1  0.500000  0.468230  0.912010  1
  B  B11  1  0.500000  0.534256  0.090542  1
  Ru  Ru12  1  0.000000  0.656614  0.963808  1
  Ru  Ru13  1  0.000000  0.351692  0.050198  1
  Ru  Ru14  1  0.000000  0.840434  0.451506  1
  Ru  Ru15  1  0.000000  0.155593  0.546534  1
  Ru  Ru16  1  0.000000  0.003174  0.000124  1
  Ru  Ru17  1  0.000000  0.403330  0.757628  1
  Ru  Ru18  1  0.000000  0.594033  0.235201  1
  Ru  Ru19  1  0.000000  0.498808  0.497545  1
  Ru  Ru20  1  0.000000  0.898845  0.744057  1
  Ru  Ru21  1  0.000000  0.099085  0.256607  1
