# generated using pymatgen
data_LaPr5Zn4IrPd12
_symmetry_space_group_name_H-M   'P 1'
_cell_length_a   8.41793568
_cell_length_b   8.41793578
_cell_length_c   8.41793694
_cell_angle_alpha   109.76112189
_cell_angle_beta   109.32646234
_cell_angle_gamma   109.32646712
_symmetry_Int_Tables_number   1
_chemical_formula_structural   LaPr5Zn4IrPd12
_chemical_formula_sum   'La1 Pr5 Zn4 Ir1 Pd12'
_cell_volume   459.18389241
_cell_formula_units_Z   1
loop_
 _symmetry_equiv_pos_site_id
 _symmetry_equiv_pos_as_xyz
  1  'x, y, z'
loop_
 _atom_site_type_symbol
 _atom_site_label
 _atom_site_symmetry_multiplicity
 _atom_site_fract_x
 _atom_site_fract_y
 _atom_site_fract_z
 _atom_site_occupancy
  La  La0  1  0.000000  0.704287  0.704287  1
  Pr  Pr1  1  0.702078  0.702416  0.000338  1
  Pr  Pr2  1  0.297922  0.000338  0.298260  1
  Pr  Pr3  1  0.000000  0.296036  0.296036  1
  Pr  Pr4  1  0.297922  0.298260  0.000338  1
  Pr  Pr5  1  0.702078  0.000338  0.702416  1
  Zn  Zn6  1  0.000000  0.000537  0.499394  1
  Zn  Zn7  1  0.000000  0.499394  0.000537  1
  Zn  Zn8  1  0.501143  0.000537  0.000537  1
  Zn  Zn9  1  0.498857  0.499394  0.499394  1
  Ir  Ir10  1  0.000000  0.998284  0.998284  1
  Pd  Pd11  1  0.331223  0.331274  0.662499  1
  Pd  Pd12  1  0.668777  0.000051  0.331274  1
  Pd  Pd13  1  0.000000  0.668900  0.331273  1
  Pd  Pd14  1  0.668777  0.331274  0.000051  1
  Pd  Pd15  1  0.331223  0.662499  0.331274  1
  Pd  Pd16  1  0.000000  0.331273  0.668900  1
  Pd  Pd17  1  0.331471  0.668685  0.000155  1
  Pd  Pd18  1  0.331471  0.000155  0.668685  1
  Pd  Pd19  1  0.662374  0.331273  0.331273  1
  Pd  Pd20  1  0.668529  0.668685  0.337213  1
  Pd  Pd21  1  0.668529  0.337213  0.668685  1
  Pd  Pd22  1  0.337626  0.668900  0.668900  1
