# generated using pymatgen
data_Y5Zn3P9Ir19
_symmetry_space_group_name_H-M   'P 1'
_cell_length_a   12.86665100
_cell_length_b   12.86665107
_cell_length_c   3.94854300
_cell_angle_alpha   90.00000000
_cell_angle_beta   90.00000000
_cell_angle_gamma   119.99999724
_symmetry_Int_Tables_number   1
_chemical_formula_structural   Y5Zn3P9Ir19
_chemical_formula_sum   'Y5 Zn3 P9 Ir19'
_cell_volume   566.10704608
_cell_formula_units_Z   1
loop_
 _symmetry_equiv_pos_site_id
 _symmetry_equiv_pos_as_xyz
  1  'x, y, z'
loop_
 _atom_site_type_symbol
 _atom_site_label
 _atom_site_symmetry_multiplicity
 _atom_site_fract_x
 _atom_site_fract_y
 _atom_site_fract_z
 _atom_site_occupancy
  Y  Y0  1  0.333333  0.666667  0.500000  1
  Y  Y1  1  0.666667  0.333333  0.500000  1
  Y  Y2  1  0.000000  0.815444  0.000000  1
  Y  Y3  1  0.184556  0.184556  0.000000  1
  Y  Y4  1  0.815444  0.000000  0.000000  1
  Zn  Zn5  1  0.000000  0.645140  0.500000  1
  Zn  Zn6  1  0.354860  0.354860  0.500000  1
  Zn  Zn7  1  0.645140  0.000000  0.500000  1
  P  P8  1  0.516684  0.692192  0.000000  1
  P  P9  1  0.307808  0.824492  0.000000  1
  P  P10  1  0.175508  0.483316  0.000000  1
  P  P11  1  0.483316  0.175508  0.000000  1
  P  P12  1  0.692192  0.516684  0.000000  1
  P  P13  1  0.824492  0.307808  0.000000  1
  P  P14  1  0.000000  0.179949  0.500000  1
  P  P15  1  0.820051  0.820051  0.500000  1
  P  P16  1  0.179949  0.000000  0.500000  1
  Ir  Ir17  1  0.502613  0.868125  0.000000  1
  Ir  Ir18  1  0.131875  0.634490  0.000000  1
  Ir  Ir19  1  0.365510  0.497387  0.000000  1
  Ir  Ir20  1  0.497387  0.365510  0.000000  1
  Ir  Ir21  1  0.868125  0.502613  0.000000  1
  Ir  Ir22  1  0.634490  0.131875  0.000000  1
  Ir  Ir23  1  0.000000  0.449749  0.500000  1
  Ir  Ir24  1  0.550251  0.550251  0.500000  1
  Ir  Ir25  1  0.449749  0.000000  0.500000  1
  Ir  Ir26  1  0.000000  0.282068  0.000000  1
  Ir  Ir27  1  0.717932  0.717932  0.000000  1
  Ir  Ir28  1  0.282068  0.000000  0.000000  1
  Ir  Ir29  1  0.616764  0.790340  0.500000  1
  Ir  Ir30  1  0.209660  0.826423  0.500000  1
  Ir  Ir31  1  0.173577  0.383236  0.500000  1
  Ir  Ir32  1  0.383236  0.173577  0.500000  1
  Ir  Ir33  1  0.790340  0.616764  0.500000  1
  Ir  Ir34  1  0.826423  0.209660  0.500000  1
  Ir  Ir35  1  0.000000  0.000000  0.500000  1
