# generated using pymatgen
data_Ac3InSe6
_symmetry_space_group_name_H-M   'P 1'
_cell_length_a   9.65951227
_cell_length_b   9.65951179
_cell_length_c   7.33366800
_cell_angle_alpha   90.00000000
_cell_angle_beta   90.00000000
_cell_angle_gamma   102.40066077
_symmetry_Int_Tables_number   1
_chemical_formula_structural   Ac3InSe6
_chemical_formula_sum   'Ac6 In2 Se12'
_cell_volume   668.31218662
_cell_formula_units_Z   2
loop_
 _symmetry_equiv_pos_site_id
 _symmetry_equiv_pos_as_xyz
  1  'x, y, z'
loop_
 _atom_site_type_symbol
 _atom_site_label
 _atom_site_symmetry_multiplicity
 _atom_site_fract_x
 _atom_site_fract_y
 _atom_site_fract_z
 _atom_site_occupancy
  Ac  Ac0  1  0.285465  0.085565  0.221602  1
  Ac  Ac1  1  0.914435  0.714535  0.221602  1
  Ac  Ac2  1  0.714535  0.914435  0.721602  1
  Ac  Ac3  1  0.085565  0.285465  0.721602  1
  Ac  Ac4  1  0.399872  0.600128  0.141169  1
  Ac  Ac5  1  0.600128  0.399872  0.641169  1
  In  In6  1  0.199544  0.800456  0.761703  1
  In  In7  1  0.800456  0.199544  0.261703  1
  Se  Se8  1  0.566568  0.098088  0.444256  1
  Se  Se9  1  0.901912  0.433432  0.444256  1
  Se  Se10  1  0.433432  0.901912  0.944256  1
  Se  Se11  1  0.098088  0.566568  0.944256  1
  Se  Se12  1  0.634601  0.687738  0.430718  1
  Se  Se13  1  0.312262  0.365399  0.430718  1
  Se  Se14  1  0.365399  0.312262  0.930718  1
  Se  Se15  1  0.687738  0.634601  0.930718  1
  Se  Se16  1  0.218956  0.781044  0.408357  1
  Se  Se17  1  0.781044  0.218956  0.908357  1
  Se  Se18  1  0.962940  0.037060  0.410616  1
  Se  Se19  1  0.037060  0.962940  0.910616  1
