# generated using pymatgen
data_InBi2SbO7
_symmetry_space_group_name_H-M   'P 1'
_cell_length_a   6.51185238
_cell_length_b   6.61518221
_cell_length_c   7.66563671
_cell_angle_alpha   106.87494133
_cell_angle_beta   89.56834594
_cell_angle_gamma   99.01778330
_symmetry_Int_Tables_number   1
_chemical_formula_structural   InBi2SbO7
_chemical_formula_sum   'In2 Bi4 Sb2 O14'
_cell_volume   311.83686497
_cell_formula_units_Z   2
loop_
 _symmetry_equiv_pos_site_id
 _symmetry_equiv_pos_as_xyz
  1  'x, y, z'
loop_
 _atom_site_type_symbol
 _atom_site_label
 _atom_site_symmetry_multiplicity
 _atom_site_fract_x
 _atom_site_fract_y
 _atom_site_fract_z
 _atom_site_occupancy
  In  In0  1  0.534536  0.996767  0.748320  1
  In  In1  1  0.465464  0.003233  0.251680  1
  Bi  Bi2  1  0.257181  0.531512  0.884019  1
  Bi  Bi3  1  0.742819  0.468488  0.115981  1
  Bi  Bi4  1  0.736248  0.463272  0.609857  1
  Bi  Bi5  1  0.263752  0.536728  0.390143  1
  Sb  Sb6  1  0.000000  0.000000  0.500000  1
  Sb  Sb7  1  0.000000  0.000000  0.000000  1
  O  O8  1  0.452214  0.666443  0.180662  1
  O  O9  1  0.547786  0.333557  0.819338  1
  O  O10  1  0.294723  0.950420  0.954908  1
  O  O11  1  0.705277  0.049580  0.045092  1
  O  O12  1  0.289277  0.928802  0.512046  1
  O  O13  1  0.710723  0.071198  0.487954  1
  O  O14  1  0.527072  0.340542  0.346563  1
  O  O15  1  0.472928  0.659458  0.653437  1
  O  O16  1  0.925639  0.679776  0.953333  1
  O  O17  1  0.074361  0.320224  0.046667  1
  O  O18  1  0.092617  0.315890  0.615891  1
  O  O19  1  0.907383  0.684110  0.384109  1
  O  O20  1  0.903342  0.944437  0.736238  1
  O  O21  1  0.096658  0.055563  0.263762  1
