# generated using pymatgen
data_BiNF34
_symmetry_space_group_name_H-M   'P 1'
_cell_length_a   8.83654061
_cell_length_b   8.47345324
_cell_length_c   9.68050523
_cell_angle_alpha   81.18103838
_cell_angle_beta   82.18622083
_cell_angle_gamma   67.51679047
_symmetry_Int_Tables_number   1
_chemical_formula_structural   BiNF34
_chemical_formula_sum   'Bi1 N1 F34'
_cell_volume   659.44845941
_cell_formula_units_Z   1
loop_
 _symmetry_equiv_pos_site_id
 _symmetry_equiv_pos_as_xyz
  1  'x, y, z'
loop_
 _atom_site_type_symbol
 _atom_site_label
 _atom_site_symmetry_multiplicity
 _atom_site_fract_x
 _atom_site_fract_y
 _atom_site_fract_z
 _atom_site_occupancy
  Bi  Bi0  1  0.122991  0.753768  0.253191  1
  N  N1  1  0.945368  0.154927  0.840735  1
  F  F2  1  0.606037  0.204485  0.480425  1
  F  F3  1  0.382822  0.794415  0.510798  1
  F  F4  1  0.822967  0.721186  0.715962  1
  F  F5  1  0.189638  0.304257  0.277291  1
  F  F6  1  0.094848  0.727520  0.876475  1
  F  F7  1  0.932190  0.220045  0.155034  1
  F  F8  1  0.563134  0.129517  0.376666  1
  F  F9  1  0.425722  0.865006  0.620846  1
  F  F10  1  0.618835  0.421925  0.643076  1
  F  F11  1  0.352210  0.682808  0.321277  1
  F  F12  1  0.940576  0.114527  0.712650  1
  F  F13  1  0.018198  0.941003  0.387332  1
  F  F14  1  0.761728  0.443433  0.568254  1
  F  F15  1  0.060717  0.594929  0.409972  1
  F  F16  1  0.877256  0.825419  0.604438  1
  F  F17  1  0.157986  0.168732  0.370733  1
  F  F18  1  0.861652  0.324578  0.845920  1
  F  F19  1  0.214875  0.555210  0.130252  1
  F  F20  1  0.202040  0.702370  0.750106  1
  F  F21  1  0.774182  0.339077  0.200596  1
  F  F22  1  0.911296  0.836175  0.151421  1
  F  F23  1  0.101093  0.117472  0.864290  1
  F  F24  1  0.876903  0.066198  0.937669  1
  F  F25  1  0.185201  0.922957  0.100422  1
  F  F26  1  0.524132  0.573738  0.967773  1
  F  F27  1  0.528902  0.401691  0.987874  1
  F  F28  1  0.449406  0.109728  0.861073  1
  F  F29  1  0.554499  0.920250  0.124179  1
  F  F30  1  0.254577  0.257321  0.607194  1
  F  F31  1  0.701331  0.759401  0.383038  1
  F  F32  1  0.246349  0.395854  0.679610  1
  F  F33  1  0.739150  0.618580  0.303635  1
  F  F34  1  0.558568  0.947166  0.818836  1
  F  F35  1  0.442622  0.084332  0.160957  1
