# generated using pymatgen
data_Li3Pr8Si12Hg
_symmetry_space_group_name_H-M   'P 1'
_cell_length_a   8.33773800
_cell_length_b   8.33773857
_cell_length_c   8.60989300
_cell_angle_alpha   90.00000000
_cell_angle_beta   90.00000000
_cell_angle_gamma   120.00000567
_symmetry_Int_Tables_number   1
_chemical_formula_structural   Li3Pr8Si12Hg
_chemical_formula_sum   'Li3 Pr8 Si12 Hg1'
_cell_volume   518.35211976
_cell_formula_units_Z   1
loop_
 _symmetry_equiv_pos_site_id
 _symmetry_equiv_pos_as_xyz
  1  'x, y, z'
loop_
 _atom_site_type_symbol
 _atom_site_label
 _atom_site_symmetry_multiplicity
 _atom_site_fract_x
 _atom_site_fract_y
 _atom_site_fract_z
 _atom_site_occupancy
  Li  Li0  1  0.333333  0.666667  0.001617  1
  Li  Li1  1  0.333333  0.666667  0.498441  1
  Li  Li2  1  0.666667  0.333333  0.501345  1
  Pr  Pr3  1  0.498541  0.501459  0.746196  1
  Pr  Pr4  1  0.499611  0.500389  0.253370  1
  Pr  Pr5  1  0.002917  0.501459  0.746196  1
  Pr  Pr6  1  0.000778  0.500389  0.253370  1
  Pr  Pr7  1  0.498541  0.997083  0.746196  1
  Pr  Pr8  1  0.499611  0.999222  0.253370  1
  Pr  Pr9  1  0.000000  0.000000  0.746778  1
  Pr  Pr10  1  0.000000  0.000000  0.253987  1
  Si  Si11  1  0.841985  0.158015  0.001960  1
  Si  Si12  1  0.168508  0.831492  0.999038  1
  Si  Si13  1  0.316030  0.158015  0.001960  1
  Si  Si14  1  0.165705  0.834295  0.499674  1
  Si  Si15  1  0.662985  0.831492  0.999038  1
  Si  Si16  1  0.833579  0.166421  0.500489  1
  Si  Si17  1  0.841985  0.683970  0.001960  1
  Si  Si18  1  0.668590  0.834295  0.499674  1
  Si  Si19  1  0.168508  0.337015  0.999038  1
  Si  Si20  1  0.332840  0.166421  0.500489  1
  Si  Si21  1  0.165705  0.331410  0.499674  1
  Si  Si22  1  0.833579  0.667160  0.500489  1
  Hg  Hg23  1  0.666667  0.333333  0.995648  1
