# generated using pymatgen
data_ScFe2MoP2
_symmetry_space_group_name_H-M   'P 1'
_cell_length_a   3.66181000
_cell_length_b   6.07636800
_cell_length_c   6.91981200
_cell_angle_alpha   90.00000000
_cell_angle_beta   90.00000000
_cell_angle_gamma   90.00000000
_symmetry_Int_Tables_number   1
_chemical_formula_structural   ScFe2MoP2
_chemical_formula_sum   'Sc2 Fe4 Mo2 P4'
_cell_volume   153.96931224
_cell_formula_units_Z   2
loop_
 _symmetry_equiv_pos_site_id
 _symmetry_equiv_pos_as_xyz
  1  'x, y, z'
loop_
 _atom_site_type_symbol
 _atom_site_label
 _atom_site_symmetry_multiplicity
 _atom_site_fract_x
 _atom_site_fract_y
 _atom_site_fract_z
 _atom_site_occupancy
  Sc  Sc0  1  0.250000  0.979178  0.318194  1
  Sc  Sc1  1  0.250000  0.479178  0.181806  1
  Fe  Fe2  1  0.250000  0.857217  0.931619  1
  Fe  Fe3  1  0.250000  0.357217  0.568381  1
  Fe  Fe4  1  0.750000  0.146206  0.053005  1
  Fe  Fe5  1  0.750000  0.646206  0.446995  1
  Mo  Mo6  1  0.750000  0.019108  0.677907  1
  Mo  Mo7  1  0.750000  0.519108  0.822093  1
  P  P8  1  0.250000  0.221929  0.875641  1
  P  P9  1  0.250000  0.721929  0.624359  1
  P  P10  1  0.750000  0.776361  0.110579  1
  P  P11  1  0.750000  0.276361  0.389421  1
