# generated using pymatgen
data_Ta4NbTcRu2
_symmetry_space_group_name_H-M   'P 1'
_cell_length_a   6.42506100
_cell_length_b   4.52221500
_cell_length_c   9.08647000
_cell_angle_alpha   90.00000000
_cell_angle_beta   89.99989605
_cell_angle_gamma   90.00000000
_symmetry_Int_Tables_number   1
_chemical_formula_structural   Ta4NbTcRu2
_chemical_formula_sum   'Ta8 Nb2 Tc2 Ru4'
_cell_volume   264.01199478
_cell_formula_units_Z   2
loop_
 _symmetry_equiv_pos_site_id
 _symmetry_equiv_pos_as_xyz
  1  'x, y, z'
loop_
 _atom_site_type_symbol
 _atom_site_label
 _atom_site_symmetry_multiplicity
 _atom_site_fract_x
 _atom_site_fract_y
 _atom_site_fract_z
 _atom_site_occupancy
  Ta  Ta0  1  0.498744  0.750001  0.124483  1
  Ta  Ta1  1  0.001262  0.750001  0.124481  1
  Ta  Ta2  1  0.501257  0.250000  0.375518  1
  Ta  Ta3  1  0.998739  0.250000  0.375518  1
  Ta  Ta4  1  0.998654  0.750001  0.624898  1
  Ta  Ta5  1  0.501357  0.750001  0.624898  1
  Ta  Ta6  1  0.001346  0.250000  0.875099  1
  Ta  Ta7  1  0.498642  0.250000  0.875103  1
  Nb  Nb8  1  0.749999  0.250000  0.123254  1
  Nb  Nb9  1  0.250002  0.750001  0.376742  1
  Tc  Tc10  1  0.749999  0.250000  0.626948  1
  Tc  Tc11  1  0.250000  0.750001  0.873056  1
  Ru  Ru12  1  0.250000  0.250000  0.120458  1
  Ru  Ru13  1  0.750000  0.750001  0.379544  1
  Ru  Ru14  1  0.250000  0.250000  0.629690  1
  Ru  Ru15  1  0.750002  0.750001  0.870308  1
