# generated using pymatgen
data_Na10NbInAs6
_symmetry_space_group_name_H-M   'P 1'
_cell_length_a   7.57526000
_cell_length_b   8.50874477
_cell_length_c   16.07615395
_cell_angle_alpha   58.83049496
_cell_angle_beta   90.00000000
_cell_angle_gamma   90.00000000
_symmetry_Int_Tables_number   1
_chemical_formula_structural   Na10NbInAs6
_chemical_formula_sum   'Na20 Nb2 In2 As12'
_cell_volume   886.61729924
_cell_formula_units_Z   2
loop_
 _symmetry_equiv_pos_site_id
 _symmetry_equiv_pos_as_xyz
  1  'x, y, z'
loop_
 _atom_site_type_symbol
 _atom_site_label
 _atom_site_symmetry_multiplicity
 _atom_site_fract_x
 _atom_site_fract_y
 _atom_site_fract_z
 _atom_site_occupancy
  Na  Na0  1  0.737403  0.937734  0.244559  1
  Na  Na1  1  0.262597  0.937734  0.744559  1
  Na  Na2  1  0.771663  0.056812  0.758749  1
  Na  Na3  1  0.228337  0.056812  0.258749  1
  Na  Na4  1  0.264765  0.249617  0.418922  1
  Na  Na5  1  0.735235  0.249617  0.918922  1
  Na  Na6  1  0.216472  0.750914  0.580489  1
  Na  Na7  1  0.783528  0.750914  0.080489  1
  Na  Na8  1  0.091273  0.343951  0.583946  1
  Na  Na9  1  0.908727  0.343951  0.083946  1
  Na  Na10  1  0.406050  0.654119  0.418817  1
  Na  Na11  1  0.593950  0.654119  0.918817  1
  Na  Na12  1  0.596860  0.335207  0.243085  1
  Na  Na13  1  0.403140  0.335207  0.743085  1
  Na  Na14  1  0.903865  0.666461  0.759061  1
  Na  Na15  1  0.096135  0.666461  0.259061  1
  Na  Na16  1  0.772036  0.420588  0.408998  1
  Na  Na17  1  0.227964  0.420588  0.908998  1
  Na  Na18  1  0.740424  0.580394  0.588594  1
  Na  Na19  1  0.259576  0.580394  0.088594  1
  Nb  Nb20  1  0.611614  0.988985  0.579431  1
  Nb  Nb21  1  0.388386  0.988985  0.079431  1
  In  In22  1  0.892169  0.013377  0.414484  1
  In  In23  1  0.107831  0.013377  0.914484  1
  As  As24  1  0.989183  0.336838  0.262890  1
  As  As25  1  0.010817  0.336838  0.762890  1
  As  As26  1  0.516636  0.692369  0.725241  1
  As  As27  1  0.483364  0.692369  0.225241  1
  As  As28  1  0.944833  0.020932  0.581084  1
  As  As29  1  0.055167  0.020932  0.081084  1
  As  As30  1  0.526857  0.978702  0.429905  1
  As  As31  1  0.473143  0.978702  0.929905  1
  As  As32  1  0.008058  0.709555  0.422026  1
  As  As33  1  0.991942  0.709555  0.922026  1
  As  As34  1  0.489231  0.263444  0.579719  1
  As  As35  1  0.510769  0.263444  0.079719  1
