# generated using pymatgen
data_Ac2Co7(NiP2)3
_symmetry_space_group_name_H-M   'P 1'
_cell_length_a   6.12088200
_cell_length_b   6.12088213
_cell_length_c   11.55450461
_cell_angle_alpha   90.39994341
_cell_angle_beta   89.60005661
_cell_angle_gamma   145.28231356
_symmetry_Int_Tables_number   1
_chemical_formula_structural   Ac2Co7(NiP2)3
_chemical_formula_sum   'Ac2 Co7 Ni3 P6'
_cell_volume   246.53969045
_cell_formula_units_Z   1
loop_
 _symmetry_equiv_pos_site_id
 _symmetry_equiv_pos_as_xyz
  1  'x, y, z'
loop_
 _atom_site_type_symbol
 _atom_site_label
 _atom_site_symmetry_multiplicity
 _atom_site_fract_x
 _atom_site_fract_y
 _atom_site_fract_z
 _atom_site_occupancy
  Ac  Ac0  1  0.337099  0.662901  0.250401  1
  Ac  Ac1  1  0.664093  0.335907  0.749518  1
  Co  Co2  1  0.052979  0.947021  0.358037  1
  Co  Co3  1  0.697350  0.302650  0.435108  1
  Co  Co4  1  0.302879  0.697121  0.566259  1
  Co  Co5  1  0.302689  0.697311  0.932862  1
  Co  Co6  1  0.695349  0.304651  0.066195  1
  Co  Co7  1  0.948186  0.051814  0.640682  1
  Co  Co8  1  0.949353  0.050647  0.857868  1
  Ni  Ni9  1  0.050551  0.949449  0.143215  1
  Ni  Ni10  1  0.499821  0.500179  0.499167  1
  Ni  Ni11  1  0.498340  0.501660  0.001070  1
  P  P12  1  0.612182  0.387818  0.253846  1
  P  P13  1  0.392701  0.607299  0.749147  1
  P  P14  1  0.119787  0.880213  0.534881  1
  P  P15  1  0.880199  0.119801  0.465711  1
  P  P16  1  0.876961  0.123039  0.031505  1
  P  P17  1  0.119482  0.880518  0.964529  1
