# generated using pymatgen
data_Zn22NiIrRu
_symmetry_space_group_name_H-M   'P 1'
_cell_length_a   7.76337193
_cell_length_b   7.76337301
_cell_length_c   7.77229768
_cell_angle_alpha   72.17132211
_cell_angle_beta   72.17131498
_cell_angle_gamma   57.97112137
_symmetry_Int_Tables_number   1
_chemical_formula_structural   Zn22NiIrRu
_chemical_formula_sum   'Zn22 Ni1 Ir1 Ru1'
_cell_volume   372.01036133
_cell_formula_units_Z   1
loop_
 _symmetry_equiv_pos_site_id
 _symmetry_equiv_pos_as_xyz
  1  'x, y, z'
loop_
 _atom_site_type_symbol
 _atom_site_label
 _atom_site_symmetry_multiplicity
 _atom_site_fract_x
 _atom_site_fract_y
 _atom_site_fract_z
 _atom_site_occupancy
  Zn  Zn0  1  0.342100  0.741282  0.316734  1
  Zn  Zn1  1  0.650768  0.259237  0.692264  1
  Zn  Zn2  1  0.259237  0.650768  0.692264  1
  Zn  Zn3  1  0.741282  0.342100  0.316734  1
  Zn  Zn4  1  0.676086  0.322158  0.998167  1
  Zn  Zn5  1  0.322158  0.676086  0.998167  1
  Zn  Zn6  1  0.830937  0.830937  0.781889  1
  Zn  Zn7  1  0.171244  0.171244  0.211711  1
  Zn  Zn8  1  0.974604  0.974604  0.175426  1
  Zn  Zn9  1  0.022887  0.022887  0.828505  1
  Zn  Zn10  1  0.351669  0.351669  0.272602  1
  Zn  Zn11  1  0.646734  0.646734  0.720847  1
  Zn  Zn12  1  0.690742  0.690742  0.373407  1
  Zn  Zn13  1  0.314608  0.314608  0.622453  1
  Zn  Zn14  1  0.657142  0.026907  0.461189  1
  Zn  Zn15  1  0.339322  0.975561  0.541665  1
  Zn  Zn16  1  0.975561  0.339322  0.541665  1
  Zn  Zn17  1  0.026907  0.657142  0.461189  1
  Zn  Zn18  1  0.611868  0.006496  0.100212  1
  Zn  Zn19  1  0.379084  0.008872  0.896444  1
  Zn  Zn20  1  0.008872  0.379084  0.896444  1
  Zn  Zn21  1  0.006496  0.611868  0.100212  1
  Ni  Ni22  1  0.342069  0.342069  0.945480  1
  Ir  Ir23  1  0.657016  0.657016  0.054663  1
  Ru  Ru24  1  0.000609  0.000609  0.499668  1
