# generated using pymatgen
data_Y12Tc2IrRu
_symmetry_space_group_name_H-M   'P 1'
_cell_length_a   6.33673404
_cell_length_b   7.42949639
_cell_length_c   9.20930900
_cell_angle_alpha   90.00000000
_cell_angle_beta   90.00000000
_cell_angle_gamma   89.93111255
_symmetry_Int_Tables_number   1
_chemical_formula_structural   Y12Tc2IrRu
_chemical_formula_sum   'Y12 Tc2 Ir1 Ru1'
_cell_volume   433.56237513
_cell_formula_units_Z   1
loop_
 _symmetry_equiv_pos_site_id
 _symmetry_equiv_pos_as_xyz
  1  'x, y, z'
loop_
 _atom_site_type_symbol
 _atom_site_label
 _atom_site_symmetry_multiplicity
 _atom_site_fract_x
 _atom_site_fract_y
 _atom_site_fract_z
 _atom_site_occupancy
  Y  Y0  1  0.633179  0.043766  0.250000  1
  Y  Y1  1  0.373469  0.958375  0.750000  1
  Y  Y2  1  0.125344  0.459857  0.750000  1
  Y  Y3  1  0.866740  0.540823  0.250000  1
  Y  Y4  1  0.165194  0.176694  0.061598  1
  Y  Y5  1  0.833447  0.824410  0.934865  1
  Y  Y6  1  0.664331  0.323775  0.935291  1
  Y  Y7  1  0.833447  0.824410  0.565135  1
  Y  Y8  1  0.335622  0.675100  0.062350  1
  Y  Y9  1  0.165194  0.176694  0.438402  1
  Y  Y10  1  0.335622  0.675100  0.437650  1
  Y  Y11  1  0.664331  0.323775  0.564709  1
  Tc  Tc12  1  0.538539  0.614861  0.750000  1
  Tc  Tc13  1  0.962546  0.114575  0.750000  1
  Ir  Ir14  1  0.042287  0.883937  0.250000  1
  Ru  Ru15  1  0.460707  0.383847  0.250000  1
