# generated using pymatgen
data_Sr2Ca(LuSi2)2
_symmetry_space_group_name_H-M   'P 1'
_cell_length_a   7.49357700
_cell_length_b   7.92364200
_cell_length_c   15.26566900
_cell_angle_alpha   90.00000000
_cell_angle_beta   90.00000000
_cell_angle_gamma   90.00000000
_symmetry_Int_Tables_number   1
_chemical_formula_structural   Sr2Ca(LuSi2)2
_chemical_formula_sum   'Sr8 Ca4 Lu8 Si16'
_cell_volume   906.42079622
_cell_formula_units_Z   4
loop_
 _symmetry_equiv_pos_site_id
 _symmetry_equiv_pos_as_xyz
  1  'x, y, z'
loop_
 _atom_site_type_symbol
 _atom_site_label
 _atom_site_symmetry_multiplicity
 _atom_site_fract_x
 _atom_site_fract_y
 _atom_site_fract_z
 _atom_site_occupancy
  Sr  Sr0  1  0.977658  0.822755  0.403794  1
  Sr  Sr1  1  0.477658  0.677245  0.096206  1
  Sr  Sr2  1  0.522342  0.322755  0.596206  1
  Sr  Sr3  1  0.022342  0.177245  0.903794  1
  Sr  Sr4  1  0.022342  0.177245  0.596206  1
  Sr  Sr5  1  0.522342  0.322755  0.903794  1
  Sr  Sr6  1  0.477658  0.677245  0.403794  1
  Sr  Sr7  1  0.977658  0.822755  0.096206  1
  Ca  Ca8  1  0.352109  0.014377  0.750000  1
  Ca  Ca9  1  0.852109  0.485623  0.750000  1
  Ca  Ca10  1  0.147891  0.514377  0.250000  1
  Ca  Ca11  1  0.647891  0.985623  0.250000  1
  Lu  Lu12  1  0.317105  0.177557  0.121764  1
  Lu  Lu13  1  0.817105  0.322443  0.378236  1
  Lu  Lu14  1  0.182895  0.677557  0.878236  1
  Lu  Lu15  1  0.682895  0.822443  0.621764  1
  Lu  Lu16  1  0.317105  0.177557  0.378236  1
  Lu  Lu17  1  0.817105  0.322443  0.121764  1
  Lu  Lu18  1  0.182895  0.677557  0.621764  1
  Lu  Lu19  1  0.682895  0.822443  0.878236  1
  Si  Si20  1  0.860313  0.537811  0.538357  1
  Si  Si21  1  0.360313  0.962189  0.961643  1
  Si  Si22  1  0.639687  0.037811  0.461643  1
  Si  Si23  1  0.139687  0.462189  0.038357  1
  Si  Si24  1  0.139687  0.462189  0.461643  1
  Si  Si25  1  0.639687  0.037811  0.038357  1
  Si  Si26  1  0.360313  0.962189  0.538357  1
  Si  Si27  1  0.860313  0.537811  0.961643  1
  Si  Si28  1  0.974171  0.871957  0.750000  1
  Si  Si29  1  0.474171  0.628043  0.750000  1
  Si  Si30  1  0.525829  0.371957  0.250000  1
  Si  Si31  1  0.025829  0.128043  0.250000  1
  Si  Si32  1  0.244635  0.407628  0.750000  1
  Si  Si33  1  0.744635  0.092372  0.750000  1
  Si  Si34  1  0.255365  0.907628  0.250000  1
  Si  Si35  1  0.755365  0.592372  0.250000  1
