# generated using pymatgen
data_Ti10CuSn6As
_symmetry_space_group_name_H-M   'P 1'
_cell_length_a   8.24662200
_cell_length_b   8.24662237
_cell_length_c   5.54044000
_cell_angle_alpha   90.00000000
_cell_angle_beta   90.00000000
_cell_angle_gamma   120.00000653
_symmetry_Int_Tables_number   1
_chemical_formula_structural   Ti10CuSn6As
_chemical_formula_sum   'Ti10 Cu1 Sn6 As1'
_cell_volume   326.30749958
_cell_formula_units_Z   1
loop_
 _symmetry_equiv_pos_site_id
 _symmetry_equiv_pos_as_xyz
  1  'x, y, z'
loop_
 _atom_site_type_symbol
 _atom_site_label
 _atom_site_symmetry_multiplicity
 _atom_site_fract_x
 _atom_site_fract_y
 _atom_site_fract_z
 _atom_site_occupancy
  Ti  Ti0  1  0.263787  0.000000  0.746095  1
  Ti  Ti1  1  0.736213  0.000000  0.253905  1
  Ti  Ti2  1  0.000000  0.263787  0.746095  1
  Ti  Ti3  1  0.000000  0.736213  0.253905  1
  Ti  Ti4  1  0.736213  0.736213  0.746095  1
  Ti  Ti5  1  0.263787  0.263787  0.253905  1
  Ti  Ti6  1  0.333333  0.666667  0.500000  1
  Ti  Ti7  1  0.666667  0.333333  0.500000  1
  Ti  Ti8  1  0.666667  0.333333  0.000000  1
  Ti  Ti9  1  0.333333  0.666667  0.000000  1
  Cu  Cu10  1  0.000000  0.000000  0.000000  1
  Sn  Sn11  1  0.610781  0.000000  0.754037  1
  Sn  Sn12  1  0.389219  0.000000  0.245963  1
  Sn  Sn13  1  0.000000  0.610781  0.754037  1
  Sn  Sn14  1  0.000000  0.389219  0.245963  1
  Sn  Sn15  1  0.389219  0.389219  0.754037  1
  Sn  Sn16  1  0.610781  0.610781  0.245963  1
  As  As17  1  0.000000  0.000000  0.500000  1
