# generated using pymatgen
data_TmSc19Bi11Pt
_symmetry_space_group_name_H-M   'P 1'
_cell_length_a   7.73077723
_cell_length_b   8.99760900
_cell_length_c   11.41454514
_cell_angle_alpha   90.00000000
_cell_angle_beta   89.79867018
_cell_angle_gamma   90.00000000
_symmetry_Int_Tables_number   1
_chemical_formula_structural   TmSc19Bi11Pt
_chemical_formula_sum   'Tm1 Sc19 Bi11 Pt1'
_cell_volume   793.97386027
_cell_formula_units_Z   1
loop_
 _symmetry_equiv_pos_site_id
 _symmetry_equiv_pos_as_xyz
  1  'x, y, z'
loop_
 _atom_site_type_symbol
 _atom_site_label
 _atom_site_symmetry_multiplicity
 _atom_site_fract_x
 _atom_site_fract_y
 _atom_site_fract_z
 _atom_site_occupancy
  Tm  Tm0  1  0.658671  0.250000  0.706190  1
  Sc  Sc1  1  0.044426  0.250000  0.508348  1
  Sc  Sc2  1  0.985281  0.750000  0.491519  1
  Sc  Sc3  1  0.478446  0.750000  0.012522  1
  Sc  Sc4  1  0.523201  0.250000  0.990874  1
  Sc  Sc5  1  0.356380  0.250000  0.298790  1
  Sc  Sc6  1  0.655803  0.750000  0.718139  1
  Sc  Sc7  1  0.147609  0.750000  0.780694  1
  Sc  Sc8  1  0.848245  0.250000  0.216072  1
  Sc  Sc9  1  0.200158  0.250000  0.775558  1
  Sc  Sc10  1  0.809293  0.750000  0.217717  1
  Sc  Sc11  1  0.313797  0.750000  0.279282  1
  Sc  Sc12  1  0.194898  0.067013  0.063796  1
  Sc  Sc13  1  0.804350  0.932796  0.940508  1
  Sc  Sc14  1  0.310874  0.961004  0.559577  1
  Sc  Sc15  1  0.804350  0.567204  0.940508  1
  Sc  Sc16  1  0.682969  0.074718  0.444614  1
  Sc  Sc17  1  0.194898  0.432987  0.063796  1
  Sc  Sc18  1  0.682969  0.425282  0.444614  1
  Sc  Sc19  1  0.310874  0.538996  0.559577  1
  Bi  Bi20  1  0.591675  0.750000  0.459737  1
  Bi  Bi21  1  0.094067  0.750000  0.040657  1
  Bi  Bi22  1  0.910513  0.250000  0.955258  1
  Bi  Bi23  1  0.059817  0.002136  0.324134  1
  Bi  Bi24  1  0.937163  0.997221  0.674093  1
  Bi  Bi25  1  0.432630  0.991480  0.828294  1
  Bi  Bi26  1  0.937163  0.502779  0.674093  1
  Bi  Bi27  1  0.564857  0.005694  0.174877  1
  Bi  Bi28  1  0.059817  0.497864  0.324134  1
  Bi  Bi29  1  0.564857  0.494306  0.174877  1
  Bi  Bi30  1  0.432630  0.508520  0.828294  1
  Pt  Pt31  1  0.407322  0.250000  0.528854  1
