# generated using pymatgen
data_Nd8Zn3Si12Ru
_symmetry_space_group_name_H-M   'P 1'
_cell_length_a   8.23959900
_cell_length_b   8.23959957
_cell_length_c   8.51417400
_cell_angle_alpha   90.00000000
_cell_angle_beta   90.00000000
_cell_angle_gamma   119.99999369
_symmetry_Int_Tables_number   1
_chemical_formula_structural   Nd8Zn3Si12Ru
_chemical_formula_sum   'Nd8 Zn3 Si12 Ru1'
_cell_volume   500.59368110
_cell_formula_units_Z   1
loop_
 _symmetry_equiv_pos_site_id
 _symmetry_equiv_pos_as_xyz
  1  'x, y, z'
loop_
 _atom_site_type_symbol
 _atom_site_label
 _atom_site_symmetry_multiplicity
 _atom_site_fract_x
 _atom_site_fract_y
 _atom_site_fract_z
 _atom_site_occupancy
  Nd  Nd0  1  0.500918  0.499082  0.747617  1
  Nd  Nd1  1  0.502021  0.497979  0.251963  1
  Nd  Nd2  1  0.998163  0.499082  0.747617  1
  Nd  Nd3  1  0.995957  0.497979  0.251963  1
  Nd  Nd4  1  0.500918  0.001837  0.747617  1
  Nd  Nd5  1  0.502021  0.004043  0.251963  1
  Nd  Nd6  1  0.000000  0.000000  0.750308  1
  Nd  Nd7  1  0.000000  0.000000  0.249965  1
  Zn  Zn8  1  0.666667  0.333333  0.995791  1
  Zn  Zn9  1  0.333333  0.666667  0.003411  1
  Zn  Zn10  1  0.333333  0.666667  0.497899  1
  Si  Si11  1  0.833470  0.166530  0.000947  1
  Si  Si12  1  0.165701  0.834299  0.999430  1
  Si  Si13  1  0.333060  0.166530  0.000947  1
  Si  Si14  1  0.162524  0.837476  0.499881  1
  Si  Si15  1  0.668598  0.834299  0.999430  1
  Si  Si16  1  0.829597  0.170403  0.500103  1
  Si  Si17  1  0.833470  0.666940  0.000947  1
  Si  Si18  1  0.674951  0.837476  0.499881  1
  Si  Si19  1  0.165701  0.331402  0.999430  1
  Si  Si20  1  0.340806  0.170403  0.500103  1
  Si  Si21  1  0.162524  0.325049  0.499881  1
  Si  Si22  1  0.829597  0.659194  0.500103  1
  Ru  Ru23  1  0.666667  0.333333  0.502804  1
