# generated using pymatgen
data_Rb6LuSe4Cl
_symmetry_space_group_name_H-M   'P 1'
_cell_length_a   11.20397100
_cell_length_b   11.20397081
_cell_length_c   8.28372300
_cell_angle_alpha   90.00000000
_cell_angle_beta   90.00000000
_cell_angle_gamma   120.00000352
_symmetry_Int_Tables_number   1
_chemical_formula_structural   Rb6LuSe4Cl
_chemical_formula_sum   'Rb12 Lu2 Se8 Cl2'
_cell_volume   900.53403032
_cell_formula_units_Z   2
loop_
 _symmetry_equiv_pos_site_id
 _symmetry_equiv_pos_as_xyz
  1  'x, y, z'
loop_
 _atom_site_type_symbol
 _atom_site_label
 _atom_site_symmetry_multiplicity
 _atom_site_fract_x
 _atom_site_fract_y
 _atom_site_fract_z
 _atom_site_occupancy
  Rb  Rb0  1  0.129655  0.870345  0.511442  1
  Rb  Rb1  1  0.740688  0.870345  0.511442  1
  Rb  Rb2  1  0.941883  0.470942  0.320444  1
  Rb  Rb3  1  0.529058  0.470942  0.320444  1
  Rb  Rb4  1  0.870345  0.740688  0.011442  1
  Rb  Rb5  1  0.259312  0.129655  0.011442  1
  Rb  Rb6  1  0.529058  0.058117  0.320444  1
  Rb  Rb7  1  0.129655  0.259312  0.511442  1
  Rb  Rb8  1  0.870345  0.129655  0.011442  1
  Rb  Rb9  1  0.058117  0.529058  0.820444  1
  Rb  Rb10  1  0.470942  0.941883  0.820444  1
  Rb  Rb11  1  0.470942  0.529058  0.820444  1
  Lu  Lu12  1  0.666667  0.333333  0.714247  1
  Lu  Lu13  1  0.333333  0.666667  0.214247  1
  Se  Se14  1  0.407263  0.203632  0.606627  1
  Se  Se15  1  0.592737  0.796368  0.106627  1
  Se  Se16  1  0.666667  0.333333  0.038570  1
  Se  Se17  1  0.796368  0.592737  0.606627  1
  Se  Se18  1  0.203632  0.407263  0.106627  1
  Se  Se19  1  0.333333  0.666667  0.538570  1
  Se  Se20  1  0.203632  0.796368  0.106627  1
  Se  Se21  1  0.796368  0.203632  0.606627  1
  Cl  Cl22  1  0.000000  0.000000  0.272244  1
  Cl  Cl23  1  0.000000  0.000000  0.772244  1
