# generated using pymatgen
data_Hg2PdRhO7
_symmetry_space_group_name_H-M   'P 1'
_cell_length_a   7.32766008
_cell_length_b   7.29611808
_cell_length_c   7.29611918
_cell_angle_alpha   59.74859155
_cell_angle_beta   59.85689418
_cell_angle_gamma   59.85689646
_symmetry_Int_Tables_number   1
_chemical_formula_structural   Hg2PdRhO7
_chemical_formula_sum   'Hg4 Pd2 Rh2 O14'
_cell_volume   274.70268907
_cell_formula_units_Z   2
loop_
 _symmetry_equiv_pos_site_id
 _symmetry_equiv_pos_as_xyz
  1  'x, y, z'
loop_
 _atom_site_type_symbol
 _atom_site_label
 _atom_site_symmetry_multiplicity
 _atom_site_fract_x
 _atom_site_fract_y
 _atom_site_fract_z
 _atom_site_occupancy
  Hg  Hg0  1  0.125000  0.125000  0.125000  1
  Hg  Hg1  1  0.625000  0.125000  0.125000  1
  Hg  Hg2  1  0.125000  0.625000  0.125000  1
  Hg  Hg3  1  0.125000  0.125000  0.625000  1
  Pd  Pd4  1  0.625000  0.625000  0.125000  1
  Pd  Pd5  1  0.625000  0.125000  0.625000  1
  Rh  Rh6  1  0.625000  0.625000  0.625000  1
  Rh  Rh7  1  0.125000  0.625000  0.625000  1
  O  O8  1  0.708149  0.291851  0.291851  1
  O  O9  1  0.702837  0.301788  0.700580  1
  O  O10  1  0.005477  0.994523  0.994523  1
  O  O11  1  0.294796  0.700580  0.301788  1
  O  O12  1  0.702837  0.700580  0.301788  1
  O  O13  1  0.945104  0.554896  0.554896  1
  O  O14  1  0.304896  0.695104  0.695104  1
  O  O15  1  0.244523  0.255477  0.255477  1
  O  O16  1  0.955204  0.549420  0.948212  1
  O  O17  1  0.547163  0.948212  0.549420  1
  O  O18  1  0.547163  0.549420  0.948212  1
  O  O19  1  0.955204  0.948212  0.549420  1
  O  O20  1  0.541851  0.958149  0.958149  1
  O  O21  1  0.294796  0.301788  0.700580  1
