# generated using pymatgen
data_Dy2TmIn3Ag2Ir
_symmetry_space_group_name_H-M   'P 1'
_cell_length_a   8.00482404
_cell_length_b   8.01186816
_cell_length_c   3.69882900
_cell_angle_alpha   90.00000000
_cell_angle_beta   90.00000000
_cell_angle_gamma   119.95914010
_symmetry_Int_Tables_number   1
_chemical_formula_structural   Dy2TmIn3Ag2Ir
_chemical_formula_sum   'Dy2 Tm1 In3 Ag2 Ir1'
_cell_volume   205.52238710
_cell_formula_units_Z   1
loop_
 _symmetry_equiv_pos_site_id
 _symmetry_equiv_pos_as_xyz
  1  'x, y, z'
loop_
 _atom_site_type_symbol
 _atom_site_label
 _atom_site_symmetry_multiplicity
 _atom_site_fract_x
 _atom_site_fract_y
 _atom_site_fract_z
 _atom_site_occupancy
  Dy  Dy0  1  0.386925  0.966281  0.000000  1
  Dy  Dy1  1  0.033475  0.419034  0.000000  1
  Tm  Tm2  1  0.578403  0.615071  0.000000  1
  In  In3  1  0.989719  0.721489  0.500000  1
  In  In4  1  0.278786  0.268736  0.500000  1
  In  In5  1  0.731576  0.009618  0.500000  1
  Ag  Ag6  1  0.999335  0.998729  0.000000  1
  Ag  Ag7  1  0.666282  0.335630  0.500000  1
  Ir  Ir8  1  0.335498  0.665415  0.500000  1
