# generated using pymatgen
data_Sm2ZnGa7Au4
_symmetry_space_group_name_H-M   'P 1'
_cell_length_a   4.51288300
_cell_length_b   6.76760308
_cell_length_c   17.58785819
_cell_angle_alpha   89.98302217
_cell_angle_beta   90.00000000
_cell_angle_gamma   90.00000000
_symmetry_Int_Tables_number   1
_chemical_formula_structural   Sm2ZnGa7Au4
_chemical_formula_sum   'Sm4 Zn2 Ga14 Au8'
_cell_volume   537.15780384
_cell_formula_units_Z   2
loop_
 _symmetry_equiv_pos_site_id
 _symmetry_equiv_pos_as_xyz
  1  'x, y, z'
loop_
 _atom_site_type_symbol
 _atom_site_label
 _atom_site_symmetry_multiplicity
 _atom_site_fract_x
 _atom_site_fract_y
 _atom_site_fract_z
 _atom_site_occupancy
  Sm  Sm0  1  0.750000  0.985825  0.641424  1
  Sm  Sm1  1  0.250000  0.483298  0.860174  1
  Sm  Sm2  1  0.750000  0.516404  0.139595  1
  Sm  Sm3  1  0.250000  0.014688  0.358694  1
  Zn  Zn4  1  0.250000  0.227987  0.185445  1
  Zn  Zn5  1  0.250000  0.471481  0.429800  1
  Ga  Ga6  1  0.250000  0.030119  0.931083  1
  Ga  Ga7  1  0.250000  0.833504  0.180582  1
  Ga  Ga8  1  0.250000  0.671764  0.680808  1
  Ga  Ga9  1  0.250000  0.269417  0.684612  1
  Ga  Ga10  1  0.250000  0.162670  0.537044  1
  Ga  Ga11  1  0.750000  0.976125  0.071282  1
  Ga  Ga12  1  0.750000  0.170248  0.819652  1
  Ga  Ga13  1  0.250000  0.341647  0.041487  1
  Ga  Ga14  1  0.750000  0.840919  0.461041  1
  Ga  Ga15  1  0.750000  0.657224  0.962329  1
  Ga  Ga16  1  0.750000  0.768730  0.815378  1
  Ga  Ga17  1  0.750000  0.526546  0.567881  1
  Ga  Ga18  1  0.750000  0.328702  0.317478  1
  Ga  Ga19  1  0.750000  0.726014  0.315562  1
  Au  Au20  1  0.250000  0.963985  0.781742  1
  Au  Au21  1  0.750000  0.031610  0.220103  1
  Au  Au22  1  0.250000  0.535064  0.280849  1
  Au  Au23  1  0.250000  0.757791  0.533125  1
  Au  Au24  1  0.250000  0.745619  0.032092  1
  Au  Au25  1  0.750000  0.242854  0.465727  1
  Au  Au26  1  0.750000  0.256369  0.967566  1
  Au  Au27  1  0.750000  0.463395  0.717445  1
