# generated using pymatgen
data_TbPa(Si2Ni)2
_symmetry_space_group_name_H-M   'P 1'
_cell_length_a   8.39184547
_cell_length_b   8.39184505
_cell_length_c   3.98202200
_cell_angle_alpha   90.00000000
_cell_angle_beta   90.00000000
_cell_angle_gamma   152.53470207
_symmetry_Int_Tables_number   1
_chemical_formula_structural   TbPa(Si2Ni)2
_chemical_formula_sum   'Tb1 Pa1 Si4 Ni2'
_cell_volume   129.33573204
_cell_formula_units_Z   1
loop_
 _symmetry_equiv_pos_site_id
 _symmetry_equiv_pos_as_xyz
  1  'x, y, z'
loop_
 _atom_site_type_symbol
 _atom_site_label
 _atom_site_symmetry_multiplicity
 _atom_site_fract_x
 _atom_site_fract_y
 _atom_site_fract_z
 _atom_site_occupancy
  Tb  Tb0  1  0.897388  0.102612  0.750000  1
  Pa  Pa1  1  0.106097  0.893903  0.250000  1
  Si  Si2  1  0.750317  0.249683  0.250000  1
  Si  Si3  1  0.250345  0.749655  0.750000  1
  Si  Si4  1  0.459993  0.540007  0.250000  1
  Si  Si5  1  0.538674  0.461326  0.750000  1
  Ni  Ni6  1  0.320926  0.679074  0.250000  1
  Ni  Ni7  1  0.676260  0.323740  0.750000  1
