# generated using pymatgen
data_Gd8HoEr(SiB4)4
_symmetry_space_group_name_H-M   'P 1'
_cell_length_a   7.24805100
_cell_length_b   7.24805100
_cell_length_c   8.19907800
_cell_angle_alpha   90.00000000
_cell_angle_beta   90.00000000
_cell_angle_gamma   90.00000000
_symmetry_Int_Tables_number   1
_chemical_formula_structural   Gd8HoEr(SiB4)4
_chemical_formula_sum   'Gd8 Ho1 Er1 Si4 B16'
_cell_volume   430.73235848
_cell_formula_units_Z   1
loop_
 _symmetry_equiv_pos_site_id
 _symmetry_equiv_pos_as_xyz
  1  'x, y, z'
loop_
 _atom_site_type_symbol
 _atom_site_label
 _atom_site_symmetry_multiplicity
 _atom_site_fract_x
 _atom_site_fract_y
 _atom_site_fract_z
 _atom_site_occupancy
  Gd  Gd0  1  0.680739  0.180598  0.225218  1
  Gd  Gd1  1  0.319261  0.819402  0.774782  1
  Gd  Gd2  1  0.319261  0.819402  0.225218  1
  Gd  Gd3  1  0.819402  0.680739  0.225218  1
  Gd  Gd4  1  0.819402  0.680739  0.774782  1
  Gd  Gd5  1  0.680739  0.180598  0.774782  1
  Gd  Gd6  1  0.180598  0.319261  0.774782  1
  Gd  Gd7  1  0.180598  0.319261  0.225218  1
  Ho  Ho8  1  0.500000  0.500000  0.500000  1
  Er  Er9  1  0.000000  0.000000  0.500000  1
  Si  Si10  1  0.114515  0.615599  0.500000  1
  Si  Si11  1  0.885485  0.384401  0.500000  1
  Si  Si12  1  0.384401  0.114515  0.500000  1
  Si  Si13  1  0.615599  0.885485  0.500000  1
  B  B14  1  0.172447  0.039355  0.000000  1
  B  B15  1  0.827553  0.960645  0.000000  1
  B  B16  1  0.960645  0.172447  0.000000  1
  B  B17  1  0.327574  0.539375  0.000000  1
  B  B18  1  0.039355  0.827553  0.000000  1
  B  B19  1  0.672426  0.460625  0.000000  1
  B  B20  1  0.539375  0.672426  0.000000  1
  B  B21  1  0.460625  0.327574  0.000000  1
  B  B22  1  0.090242  0.590221  0.000000  1
  B  B23  1  0.909758  0.409779  0.000000  1
  B  B24  1  0.409779  0.090242  0.000000  1
  B  B25  1  0.590221  0.909758  0.000000  1
  B  B26  1  0.000000  0.000000  0.159778  1
  B  B27  1  0.000000  0.000000  0.840222  1
  B  B28  1  0.500000  0.500000  0.840334  1
  B  B29  1  0.500000  0.500000  0.159666  1
