# generated using pymatgen
data_Rb8Gd2O7
_symmetry_space_group_name_H-M   'P 1'
_cell_length_a   7.35497850
_cell_length_b   19.06399700
_cell_length_c   7.29137405
_cell_angle_alpha   90.00000000
_cell_angle_beta   119.12529387
_cell_angle_gamma   90.00000000
_symmetry_Int_Tables_number   1
_chemical_formula_structural   Rb8Gd2O7
_chemical_formula_sum   'Rb16 Gd4 O14'
_cell_volume   893.09202941
_cell_formula_units_Z   2
loop_
 _symmetry_equiv_pos_site_id
 _symmetry_equiv_pos_as_xyz
  1  'x, y, z'
loop_
 _atom_site_type_symbol
 _atom_site_label
 _atom_site_symmetry_multiplicity
 _atom_site_fract_x
 _atom_site_fract_y
 _atom_site_fract_z
 _atom_site_occupancy
  Rb  Rb0  1  0.347604  0.907591  0.003460  1
  Rb  Rb1  1  0.759520  0.503486  0.024873  1
  Rb  Rb2  1  0.776073  0.703000  0.046878  1
  Rb  Rb3  1  0.788241  0.308110  0.049776  1
  Rb  Rb4  1  0.211759  0.808110  0.450225  1
  Rb  Rb5  1  0.223926  0.203000  0.453122  1
  Rb  Rb6  1  0.240479  0.003486  0.475127  1
  Rb  Rb7  1  0.652395  0.407591  0.496540  1
  Rb  Rb8  1  0.347604  0.592409  0.503461  1
  Rb  Rb9  1  0.759521  0.996514  0.524874  1
  Rb  Rb10  1  0.776073  0.797000  0.546877  1
  Rb  Rb11  1  0.788241  0.191890  0.549776  1
  Rb  Rb12  1  0.211758  0.691890  0.950224  1
  Rb  Rb13  1  0.223926  0.297000  0.953121  1
  Rb  Rb14  1  0.240479  0.496514  0.975126  1
  Rb  Rb15  1  0.652395  0.092409  0.996539  1
  Gd  Gd16  1  0.162581  0.098743  0.002148  1
  Gd  Gd17  1  0.837418  0.598743  0.497852  1
  Gd  Gd18  1  0.162581  0.401258  0.502147  1
  Gd  Gd19  1  0.837419  0.901258  0.997853  1
  O  O20  1  0.000000  0.000000  0.000000  1
  O  O21  1  0.963205  0.183858  0.001980  1
  O  O22  1  0.188209  0.393458  0.217925  1
  O  O23  1  0.534399  0.601769  0.217245  1
  O  O24  1  0.465600  0.101769  0.282754  1
  O  O25  1  0.811791  0.893458  0.282076  1
  O  O26  1  0.036795  0.683858  0.498021  1
  O  O27  1  0.000000  0.500000  0.500000  1
  O  O28  1  0.963205  0.316142  0.501980  1
  O  O29  1  0.188209  0.106542  0.717924  1
  O  O30  1  0.534399  0.898231  0.717245  1
  O  O31  1  0.465601  0.398231  0.782755  1
  O  O32  1  0.811791  0.606542  0.782076  1
  O  O33  1  0.036795  0.816142  0.998020  1
