# generated using pymatgen
data_NaAu5
_symmetry_space_group_name_H-M   'P 1'
_cell_length_a   5.57574300
_cell_length_b   5.57574427
_cell_length_c   4.74269200
_cell_angle_alpha   90.00000000
_cell_angle_beta   90.00000000
_cell_angle_gamma   59.99828026
_symmetry_Int_Tables_number   1
_chemical_formula_structural   NaAu5
_chemical_formula_sum   'Na1 Au5'
_cell_volume   127.68903999
_cell_formula_units_Z   1
loop_
 _symmetry_equiv_pos_site_id
 _symmetry_equiv_pos_as_xyz
  1  'x, y, z'
loop_
 _atom_site_type_symbol
 _atom_site_label
 _atom_site_symmetry_multiplicity
 _atom_site_fract_x
 _atom_site_fract_y
 _atom_site_fract_z
 _atom_site_occupancy
  Na  Na0  1  0.999997  0.000003  0.000000  1
  Au  Au1  1  0.333341  0.333361  0.000000  1
  Au  Au2  1  0.666638  0.666658  0.000000  1
  Au  Au3  1  0.502540  0.999993  0.499999  1
  Au  Au4  1  0.000007  0.497461  0.499999  1
  Au  Au5  1  0.497488  0.502510  0.499999  1
