# generated using pymatgen
data_Ho3Lu(Co4P3)2
_symmetry_space_group_name_H-M   'P 1'
_cell_length_a   3.73332800
_cell_length_b   10.70966400
_cell_length_c   12.42131800
_cell_angle_alpha   90.00000000
_cell_angle_beta   90.00000000
_cell_angle_gamma   90.00000000
_symmetry_Int_Tables_number   1
_chemical_formula_structural   Ho3Lu(Co4P3)2
_chemical_formula_sum   'Ho6 Lu2 Co16 P12'
_cell_volume   496.63768813
_cell_formula_units_Z   2
loop_
 _symmetry_equiv_pos_site_id
 _symmetry_equiv_pos_as_xyz
  1  'x, y, z'
loop_
 _atom_site_type_symbol
 _atom_site_label
 _atom_site_symmetry_multiplicity
 _atom_site_fract_x
 _atom_site_fract_y
 _atom_site_fract_z
 _atom_site_occupancy
  Ho  Ho0  1  0.000000  0.500000  0.529634  1
  Ho  Ho1  1  0.500000  0.000000  0.470366  1
  Ho  Ho2  1  0.500000  0.823345  0.206052  1
  Ho  Ho3  1  0.500000  0.176655  0.206052  1
  Ho  Ho4  1  0.000000  0.676655  0.793948  1
  Ho  Ho5  1  0.000000  0.323345  0.793948  1
  Lu  Lu6  1  0.500000  0.500000  0.159224  1
  Lu  Lu7  1  0.000000  0.000000  0.840776  1
  Co  Co8  1  0.000000  0.500000  0.985707  1
  Co  Co9  1  0.500000  0.000000  0.014293  1
  Co  Co10  1  0.500000  0.294847  0.433708  1
  Co  Co11  1  0.500000  0.705153  0.433708  1
  Co  Co12  1  0.000000  0.205153  0.566292  1
  Co  Co13  1  0.000000  0.794847  0.566292  1
  Co  Co14  1  0.500000  0.877091  0.699810  1
  Co  Co15  1  0.500000  0.122909  0.699810  1
  Co  Co16  1  0.000000  0.622909  0.300190  1
  Co  Co17  1  0.000000  0.377091  0.300190  1
  Co  Co18  1  0.500000  0.331532  0.993498  1
  Co  Co19  1  0.500000  0.668468  0.993498  1
  Co  Co20  1  0.000000  0.168468  0.006502  1
  Co  Co21  1  0.000000  0.831532  0.006502  1
  Co  Co22  1  0.500000  0.500000  0.704327  1
  Co  Co23  1  0.000000  0.000000  0.295673  1
  P  P24  1  0.500000  0.309879  0.615406  1
  P  P25  1  0.500000  0.690121  0.615406  1
  P  P26  1  0.000000  0.190121  0.384594  1
  P  P27  1  0.000000  0.809879  0.384594  1
  P  P28  1  0.500000  0.500000  0.884257  1
  P  P29  1  0.000000  0.000000  0.115743  1
  P  P30  1  0.500000  0.836590  0.894258  1
  P  P31  1  0.500000  0.163410  0.894258  1
  P  P32  1  0.000000  0.663410  0.105742  1
  P  P33  1  0.000000  0.336590  0.105742  1
  P  P34  1  0.500000  0.500000  0.365365  1
  P  P35  1  0.000000  0.000000  0.634635  1
