# generated using pymatgen
data_Si2Ni5(O4F)2
_symmetry_space_group_name_H-M   'P 1'
_cell_length_a   4.75124700
_cell_length_b   7.84678118
_cell_length_c   10.28957148
_cell_angle_alpha   70.47268468
_cell_angle_beta   90.00000000
_cell_angle_gamma   90.00000000
_symmetry_Int_Tables_number   1
_chemical_formula_structural   Si2Ni5(O4F)2
_chemical_formula_sum   'Si4 Ni10 O16 F4'
_cell_volume   361.55104057
_cell_formula_units_Z   2
loop_
 _symmetry_equiv_pos_site_id
 _symmetry_equiv_pos_as_xyz
  1  'x, y, z'
loop_
 _atom_site_type_symbol
 _atom_site_label
 _atom_site_symmetry_multiplicity
 _atom_site_fract_x
 _atom_site_fract_y
 _atom_site_fract_z
 _atom_site_occupancy
  Si  Si0  1  0.075067  0.795908  0.643837  1
  Si  Si1  1  0.575067  0.204092  0.856163  1
  Si  Si2  1  0.924933  0.204092  0.356163  1
  Si  Si3  1  0.424933  0.795908  0.143837  1
  Ni  Ni4  1  0.495339  0.416363  0.387175  1
  Ni  Ni5  1  0.995339  0.583637  0.112825  1
  Ni  Ni6  1  0.504661  0.583637  0.612825  1
  Ni  Ni7  1  0.004661  0.416363  0.887175  1
  Ni  Ni8  1  0.003617  0.195371  0.676299  1
  Ni  Ni9  1  0.503617  0.804629  0.823701  1
  Ni  Ni10  1  0.996383  0.804629  0.323701  1
  Ni  Ni11  1  0.496383  0.195371  0.176299  1
  Ni  Ni12  1  0.500000  0.000000  0.500000  1
  Ni  Ni13  1  0.000000  0.000000  0.000000  1
  O  O14  1  0.779129  0.206225  0.502644  1
  O  O15  1  0.279129  0.793775  0.997356  1
  O  O16  1  0.220871  0.793775  0.497356  1
  O  O17  1  0.720871  0.206225  0.002644  1
  O  O18  1  0.269732  0.622863  0.261269  1
  O  O19  1  0.769732  0.377137  0.238731  1
  O  O20  1  0.730268  0.377137  0.738731  1
  O  O21  1  0.230268  0.622863  0.761269  1
  O  O22  1  0.224474  0.974902  0.667506  1
  O  O23  1  0.724474  0.025098  0.832494  1
  O  O24  1  0.775526  0.025098  0.332494  1
  O  O25  1  0.275526  0.974902  0.167506  1
  O  O26  1  0.731744  0.794721  0.645917  1
  O  O27  1  0.231744  0.205279  0.854083  1
  O  O28  1  0.268256  0.205279  0.354083  1
  O  O29  1  0.768256  0.794721  0.145917  1
  F  F30  1  0.269100  0.396349  0.559704  1
  F  F31  1  0.769100  0.603651  0.940296  1
  F  F32  1  0.730900  0.603651  0.440296  1
  F  F33  1  0.230900  0.396349  0.059704  1
