# generated using pymatgen
data_Tb(TiZn2)2
_symmetry_space_group_name_H-M   'P 1'
_cell_length_a   5.52492898
_cell_length_b   5.52492945
_cell_length_c   5.52492863
_cell_angle_alpha   101.34934359
_cell_angle_beta   101.34934730
_cell_angle_gamma   127.33100571
_symmetry_Int_Tables_number   1
_chemical_formula_structural   Tb(TiZn2)2
_chemical_formula_sum   'Tb1 Ti2 Zn4'
_cell_volume   120.18245228
_cell_formula_units_Z   1
loop_
 _symmetry_equiv_pos_site_id
 _symmetry_equiv_pos_as_xyz
  1  'x, y, z'
loop_
 _atom_site_type_symbol
 _atom_site_label
 _atom_site_symmetry_multiplicity
 _atom_site_fract_x
 _atom_site_fract_y
 _atom_site_fract_z
 _atom_site_occupancy
  Tb  Tb0  1  0.000000  0.000000  0.000000  1
  Ti  Ti1  1  0.250000  0.750000  0.500000  1
  Ti  Ti2  1  0.750000  0.250000  0.500000  1
  Zn  Zn3  1  0.307172  0.307172  0.614343  1
  Zn  Zn4  1  0.692828  0.692828  0.385657  1
  Zn  Zn5  1  0.692828  0.307172  0.000000  1
  Zn  Zn6  1  0.307172  0.692828  0.000000  1
