# generated using pymatgen
data_La7Pr(RuO6)4
_symmetry_space_group_name_H-M   'P 1'
_cell_length_a   10.29303240
_cell_length_b   10.29303158
_cell_length_c   5.70129503
_cell_angle_alpha   75.17095474
_cell_angle_beta   75.17096228
_cell_angle_gamma   69.60134599
_symmetry_Int_Tables_number   1
_chemical_formula_structural   La7Pr(RuO6)4
_chemical_formula_sum   'La7 Pr1 Ru4 O24'
_cell_volume   537.95133405
_cell_formula_units_Z   1
loop_
 _symmetry_equiv_pos_site_id
 _symmetry_equiv_pos_as_xyz
  1  'x, y, z'
loop_
 _atom_site_type_symbol
 _atom_site_label
 _atom_site_symmetry_multiplicity
 _atom_site_fract_x
 _atom_site_fract_y
 _atom_site_fract_z
 _atom_site_occupancy
  La  La0  1  0.889921  0.110079  0.250000  1
  La  La1  1  0.068486  0.287953  0.621931  1
  La  La2  1  0.712047  0.931514  0.878069  1
  La  La3  1  0.932038  0.711814  0.377491  1
  La  La4  1  0.288186  0.067962  0.122509  1
  La  La5  1  0.632381  0.367619  0.750000  1
  La  La6  1  0.367193  0.632807  0.250000  1
  Pr  Pr7  1  0.109559  0.890441  0.750000  1
  Ru  Ru8  1  0.500546  0.798718  0.548833  1
  Ru  Ru9  1  0.201282  0.499454  0.951167  1
  Ru  Ru10  1  0.499311  0.201277  0.451501  1
  Ru  Ru11  1  0.798723  0.500689  0.048499  1
  O  O12  1  0.613638  0.169889  0.155343  1
  O  O13  1  0.830111  0.386362  0.344657  1
  O  O14  1  0.385798  0.830207  0.844305  1
  O  O15  1  0.169793  0.614202  0.655695  1
  O  O16  1  0.472525  0.072296  0.731655  1
  O  O17  1  0.927704  0.527475  0.768345  1
  O  O18  1  0.527390  0.927501  0.268269  1
  O  O19  1  0.072499  0.472610  0.231731  1
  O  O20  1  0.327925  0.215140  0.371102  1
  O  O21  1  0.784860  0.672075  0.128898  1
  O  O22  1  0.672055  0.784970  0.628864  1
  O  O23  1  0.215030  0.327945  0.871136  1
  O  O24  1  0.891271  0.921203  0.070721  1
  O  O25  1  0.078797  0.108729  0.429279  1
  O  O26  1  0.109389  0.077595  0.928523  1
  O  O27  1  0.922405  0.890611  0.571477  1
  O  O28  1  0.164218  0.687648  0.087773  1
  O  O29  1  0.312352  0.835782  0.412227  1
  O  O30  1  0.835825  0.313151  0.910566  1
  O  O31  1  0.686849  0.164175  0.589434  1
  O  O32  1  0.382441  0.457990  0.983419  1
  O  O33  1  0.542010  0.617559  0.516581  1
  O  O34  1  0.617466  0.542024  0.016690  1
  O  O35  1  0.457976  0.382534  0.483310  1
