# generated using pymatgen
data_Nd3Y(AsPt)4
_symmetry_space_group_name_H-M   'P 1'
_cell_length_a   4.33075700
_cell_length_b   4.33075625
_cell_length_c   16.01608400
_cell_angle_alpha   90.00000000
_cell_angle_beta   90.00000000
_cell_angle_gamma   119.99999811
_symmetry_Int_Tables_number   1
_chemical_formula_structural   Nd3Y(AsPt)4
_chemical_formula_sum   'Nd3 Y1 As4 Pt4'
_cell_volume   260.14443177
_cell_formula_units_Z   1
loop_
 _symmetry_equiv_pos_site_id
 _symmetry_equiv_pos_as_xyz
  1  'x, y, z'
loop_
 _atom_site_type_symbol
 _atom_site_label
 _atom_site_symmetry_multiplicity
 _atom_site_fract_x
 _atom_site_fract_y
 _atom_site_fract_z
 _atom_site_occupancy
  Nd  Nd0  1  0.000000  0.000000  0.996396  1
  Nd  Nd1  1  0.000000  0.000000  0.503604  1
  Nd  Nd2  1  0.000000  0.000000  0.250000  1
  Y  Y3  1  0.000000  0.000000  0.750000  1
  As  As4  1  0.333333  0.666667  0.878483  1
  As  As5  1  0.666667  0.333333  0.381341  1
  As  As6  1  0.666667  0.333333  0.118659  1
  As  As7  1  0.333333  0.666667  0.621517  1
  Pt  Pt8  1  0.333333  0.666667  0.371553  1
  Pt  Pt9  1  0.666667  0.333333  0.858446  1
  Pt  Pt10  1  0.666667  0.333333  0.641554  1
  Pt  Pt11  1  0.333333  0.666667  0.128447  1
