# generated using pymatgen
data_Cs2PrNd9Os2Br17
_symmetry_space_group_name_H-M   'P 1'
_cell_length_a   9.60141328
_cell_length_b   11.23895522
_cell_length_c   11.23893042
_cell_angle_alpha   107.70729376
_cell_angle_beta   93.66049464
_cell_angle_gamma   93.66029060
_symmetry_Int_Tables_number   1
_chemical_formula_structural   Cs2PrNd9Os2Br17
_chemical_formula_sum   'Cs2 Pr1 Nd9 Os2 Br17'
_cell_volume   1148.54544202
_cell_formula_units_Z   1
loop_
 _symmetry_equiv_pos_site_id
 _symmetry_equiv_pos_as_xyz
  1  'x, y, z'
loop_
 _atom_site_type_symbol
 _atom_site_label
 _atom_site_symmetry_multiplicity
 _atom_site_fract_x
 _atom_site_fract_y
 _atom_site_fract_z
 _atom_site_occupancy
  Cs  Cs0  1  0.000161  0.823692  0.176629  1
  Cs  Cs1  1  0.000161  0.176629  0.823693  1
  Pr  Pr2  1  0.439693  0.165447  0.165446  1
  Nd  Nd3  1  0.574844  0.513869  0.198171  1
  Nd  Nd4  1  0.825418  0.291345  0.291345  1
  Nd  Nd5  1  0.307621  0.431300  0.431309  1
  Nd  Nd6  1  0.425640  0.795564  0.491033  1
  Nd  Nd7  1  0.574849  0.198174  0.513870  1
  Nd  Nd8  1  0.694097  0.563113  0.563111  1
  Nd  Nd9  1  0.169466  0.710359  0.710359  1
  Nd  Nd10  1  0.425641  0.491032  0.795559  1
  Nd  Nd11  1  0.561695  0.836731  0.836733  1
  Os  Os12  1  0.569868  0.358937  0.358939  1
  Os  Os13  1  0.429378  0.641289  0.641284  1
  Br  Br14  1  0.578202  0.687939  0.019233  1
  Br  Br15  1  0.715810  0.067669  0.067669  1
  Br  Br16  1  0.855368  0.450348  0.120475  1
  Br  Br17  1  0.132028  0.206759  0.206760  1
  Br  Br18  1  0.285036  0.604303  0.255663  1
  Br  Br19  1  0.421725  0.978202  0.315932  1
  Br  Br20  1  0.715420  0.744560  0.395536  1
  Br  Br21  1  0.855370  0.120476  0.450349  1
  Br  Br22  1  0.999906  0.499719  0.499716  1
  Br  Br23  1  0.144843  0.879110  0.550911  1
  Br  Br24  1  0.285040  0.255656  0.604307  1
  Br  Br25  1  0.578206  0.019236  0.687940  1
  Br  Br26  1  0.715418  0.395545  0.744563  1
  Br  Br27  1  0.866537  0.794200  0.794202  1
  Br  Br28  1  0.144843  0.550913  0.879111  1
  Br  Br29  1  0.285993  0.931953  0.931954  1
  Br  Br30  1  0.421723  0.315931  0.978200  1
