# generated using pymatgen
data_Dy3Y4(HoBi2)3
_symmetry_space_group_name_H-M   'P 1'
_cell_length_a   8.26065800
_cell_length_b   9.52120900
_cell_length_c   12.08775300
_cell_angle_alpha   90.00002626
_cell_angle_beta   90.00000000
_cell_angle_gamma   90.00000000
_symmetry_Int_Tables_number   1
_chemical_formula_structural   Dy3Y4(HoBi2)3
_chemical_formula_sum   'Dy6 Y8 Ho6 Bi12'
_cell_volume   950.71931635
_cell_formula_units_Z   2
loop_
 _symmetry_equiv_pos_site_id
 _symmetry_equiv_pos_as_xyz
  1  'x, y, z'
loop_
 _atom_site_type_symbol
 _atom_site_label
 _atom_site_symmetry_multiplicity
 _atom_site_fract_x
 _atom_site_fract_y
 _atom_site_fract_z
 _atom_site_occupancy
  Dy  Dy0  1  0.306270  0.436655  0.940189  1
  Dy  Dy1  1  0.806270  0.063345  0.559811  1
  Dy  Dy2  1  0.693715  0.936729  0.059822  1
  Dy  Dy3  1  0.193715  0.563271  0.440178  1
  Dy  Dy4  1  0.693677  0.563285  0.059794  1
  Dy  Dy5  1  0.193677  0.936715  0.440206  1
  Y  Y6  1  0.186262  0.750002  0.719055  1
  Y  Y7  1  0.686262  0.749998  0.780945  1
  Y  Y8  1  0.813762  0.250036  0.280970  1
  Y  Y9  1  0.313762  0.249964  0.219030  1
  Y  Y10  1  0.353824  0.749988  0.215279  1
  Y  Y11  1  0.853824  0.750012  0.284721  1
  Y  Y12  1  0.646222  0.250015  0.784711  1
  Y  Y13  1  0.146222  0.249985  0.715289  1
  Ho  Ho14  1  0.026138  0.750035  0.988942  1
  Ho  Ho15  1  0.526138  0.749965  0.511058  1
  Ho  Ho16  1  0.974020  0.249962  0.011017  1
  Ho  Ho17  1  0.474020  0.250038  0.488983  1
  Ho  Ho18  1  0.306282  0.063419  0.940172  1
  Ho  Ho19  1  0.806282  0.436581  0.559828  1
  Bi  Bi20  1  0.433554  0.003762  0.673435  1
  Bi  Bi21  1  0.933554  0.496238  0.826565  1
  Bi  Bi22  1  0.566411  0.503759  0.326629  1
  Bi  Bi23  1  0.066411  0.996241  0.173371  1
  Bi  Bi24  1  0.566403  0.996253  0.326589  1
  Bi  Bi25  1  0.066403  0.503747  0.173411  1
  Bi  Bi26  1  0.433642  0.496234  0.673385  1
  Bi  Bi27  1  0.933642  0.003766  0.826615  1
  Bi  Bi28  1  0.409045  0.750291  0.958063  1
  Bi  Bi29  1  0.909045  0.749709  0.541937  1
  Bi  Bi30  1  0.590775  0.249896  0.041856  1
  Bi  Bi31  1  0.090775  0.250104  0.458144  1
