# generated using pymatgen
data_YHoGa5Ir3
_symmetry_space_group_name_H-M   'P 1'
_cell_length_a   8.59582292
_cell_length_b   8.60265320
_cell_length_c   8.60265434
_cell_angle_alpha   141.30107796
_cell_angle_beta   109.86036953
_cell_angle_gamma   83.10808402
_symmetry_Int_Tables_number   1
_chemical_formula_structural   YHoGa5Ir3
_chemical_formula_sum   'Y2 Ho2 Ga10 Ir6'
_cell_volume   362.50270991
_cell_formula_units_Z   2
loop_
 _symmetry_equiv_pos_site_id
 _symmetry_equiv_pos_as_xyz
  1  'x, y, z'
loop_
 _atom_site_type_symbol
 _atom_site_label
 _atom_site_symmetry_multiplicity
 _atom_site_fract_x
 _atom_site_fract_y
 _atom_site_fract_z
 _atom_site_occupancy
  Y  Y0  1  0.916363  0.143919  0.772446  1
  Y  Y1  1  0.083637  0.856081  0.227554  1
  Ho  Ho2  1  0.628469  0.355858  0.272611  1
  Ho  Ho3  1  0.371531  0.644142  0.727389  1
  Ga  Ga4  1  0.403357  0.084313  0.319043  1
  Ga  Ga5  1  0.596643  0.915687  0.680957  1
  Ga  Ga6  1  0.234868  0.415886  0.818982  1
  Ga  Ga7  1  0.765132  0.584114  0.181018  1
  Ga  Ga8  1  0.299464  0.549191  0.250063  1
  Ga  Ga9  1  0.700536  0.950599  0.249728  1
  Ga  Ga10  1  0.700536  0.450809  0.749937  1
  Ga  Ga11  1  0.299464  0.049401  0.750272  1
  Ga  Ga12  1  0.000000  0.250156  0.250156  1
  Ga  Ga13  1  0.000000  0.749844  0.749844  1
  Ir  Ir14  1  0.240476  0.152491  0.087986  1
  Ir  Ir15  1  0.759524  0.847509  0.912014  1
  Ir  Ir16  1  0.934775  0.347719  0.587057  1
  Ir  Ir17  1  0.065225  0.652281  0.412943  1
  Ir  Ir18  1  0.500000  0.249912  0.749912  1
  Ir  Ir19  1  0.500000  0.750088  0.250088  1
