# generated using pymatgen
data_La5Nd3(CdIr)2
_symmetry_space_group_name_H-M   'P 1'
_cell_length_a   10.08951585
_cell_length_b   10.08951592
_cell_length_c   10.08951500
_cell_angle_alpha   59.99999973
_cell_angle_beta   59.99999952
_cell_angle_gamma   59.99999610
_symmetry_Int_Tables_number   1
_chemical_formula_structural   La5Nd3(CdIr)2
_chemical_formula_sum   'La10 Nd6 Cd4 Ir4'
_cell_volume   726.26636950
_cell_formula_units_Z   2
loop_
 _symmetry_equiv_pos_site_id
 _symmetry_equiv_pos_as_xyz
  1  'x, y, z'
loop_
 _atom_site_type_symbol
 _atom_site_label
 _atom_site_symmetry_multiplicity
 _atom_site_fract_x
 _atom_site_fract_y
 _atom_site_fract_z
 _atom_site_occupancy
  La  La0  1  0.347271  0.347271  0.347271  1
  La  La1  1  0.347271  0.347271  0.958186  1
  La  La2  1  0.347271  0.958186  0.347271  1
  La  La3  1  0.958186  0.347271  0.347271  1
  La  La4  1  0.808596  0.191404  0.191404  1
  La  La5  1  0.191404  0.808596  0.808596  1
  La  La6  1  0.191404  0.808596  0.191404  1
  La  La7  1  0.808596  0.191404  0.808596  1
  La  La8  1  0.191404  0.191404  0.808596  1
  La  La9  1  0.808596  0.808596  0.191404  1
  Nd  Nd10  1  0.936232  0.563768  0.563768  1
  Nd  Nd11  1  0.563768  0.936232  0.936232  1
  Nd  Nd12  1  0.563768  0.936232  0.563768  1
  Nd  Nd13  1  0.936232  0.563768  0.936232  1
  Nd  Nd14  1  0.563768  0.563768  0.936232  1
  Nd  Nd15  1  0.936232  0.936232  0.563768  1
  Cd  Cd16  1  0.580405  0.580405  0.580405  1
  Cd  Cd17  1  0.580405  0.580405  0.258783  1
  Cd  Cd18  1  0.580405  0.258783  0.580405  1
  Cd  Cd19  1  0.258783  0.580405  0.580405  1
  Ir  Ir20  1  0.140946  0.140946  0.140946  1
  Ir  Ir21  1  0.140946  0.140946  0.577161  1
  Ir  Ir22  1  0.140946  0.577161  0.140946  1
  Ir  Ir23  1  0.577161  0.140946  0.140946  1
