# generated using pymatgen
data_Tm3Zr4NpF28
_symmetry_space_group_name_H-M   'P 1'
_cell_length_a   5.74594720
_cell_length_b   9.11121832
_cell_length_c   12.24854224
_cell_angle_alpha   62.38374181
_cell_angle_beta   89.94161838
_cell_angle_gamma   90.02859549
_symmetry_Int_Tables_number   1
_chemical_formula_structural   Tm3Zr4NpF28
_chemical_formula_sum   'Tm3 Zr4 Np1 F28'
_cell_volume   568.18668684
_cell_formula_units_Z   1
loop_
 _symmetry_equiv_pos_site_id
 _symmetry_equiv_pos_as_xyz
  1  'x, y, z'
loop_
 _atom_site_type_symbol
 _atom_site_label
 _atom_site_symmetry_multiplicity
 _atom_site_fract_x
 _atom_site_fract_y
 _atom_site_fract_z
 _atom_site_occupancy
  Tm  Tm0  1  0.744154  0.819517  0.265905  1
  Tm  Tm1  1  0.243671  0.183336  0.234211  1
  Tm  Tm2  1  0.257323  0.192229  0.733156  1
  Zr  Zr3  1  0.743333  0.279841  0.451150  1
  Zr  Zr4  1  0.245142  0.724421  0.051890  1
  Zr  Zr5  1  0.255141  0.725610  0.538995  1
  Zr  Zr6  1  0.755417  0.269201  0.957794  1
  Np  Np7  1  0.758581  0.819672  0.766936  1
  F  F8  1  0.457385  0.707037  0.925656  1
  F  F9  1  0.966907  0.288006  0.577769  1
  F  F10  1  0.529377  0.285579  0.080000  1
  F  F11  1  0.028396  0.711359  0.416567  1
  F  F12  1  0.454301  0.280440  0.550796  1
  F  F13  1  0.953631  0.713002  0.960181  1
  F  F14  1  0.549909  0.720846  0.445185  1
  F  F15  1  0.045931  0.276518  0.053845  1
  F  F16  1  0.769861  0.518298  0.860261  1
  F  F17  1  0.267468  0.472652  0.639714  1
  F  F18  1  0.235494  0.471391  0.145168  1
  F  F19  1  0.732539  0.530009  0.355600  1
  F  F20  1  0.759222  0.018220  0.061362  1
  F  F21  1  0.258672  0.977324  0.438260  1
  F  F22  1  0.239867  0.974518  0.941968  1
  F  F23  1  0.738239  0.028019  0.552030  1
  F  F24  1  0.983658  0.731073  0.643070  1
  F  F25  1  0.484162  0.264934  0.850650  1
  F  F26  1  0.012778  0.264650  0.347351  1
  F  F27  1  0.516893  0.736001  0.154797  1
  F  F28  1  0.029009  0.747959  0.176753  1
  F  F29  1  0.527652  0.253814  0.326352  1
  F  F30  1  0.969581  0.249780  0.828773  1
  F  F31  1  0.459649  0.740969  0.669510  1
  F  F32  1  0.434527  0.977095  0.236106  1
  F  F33  1  0.935572  0.024654  0.263914  1
  F  F34  1  0.566651  0.040389  0.765708  1
  F  F35  1  0.089909  0.981636  0.732622  1
