# generated using pymatgen
data_Ho5Al2GaC4
_symmetry_space_group_name_H-M   'P 1'
_cell_length_a   10.80780600
_cell_length_b   10.80780600
_cell_length_c   3.49812000
_cell_angle_alpha   90.00000000
_cell_angle_beta   90.00000000
_cell_angle_gamma   90.00000000
_symmetry_Int_Tables_number   1
_chemical_formula_structural   Ho5Al2GaC4
_chemical_formula_sum   'Ho10 Al4 Ga2 C8'
_cell_volume   408.61074657
_cell_formula_units_Z   2
loop_
 _symmetry_equiv_pos_site_id
 _symmetry_equiv_pos_as_xyz
  1  'x, y, z'
loop_
 _atom_site_type_symbol
 _atom_site_label
 _atom_site_symmetry_multiplicity
 _atom_site_fract_x
 _atom_site_fract_y
 _atom_site_fract_z
 _atom_site_occupancy
  Ho  Ho0  1  0.550358  0.728410  0.500000  1
  Ho  Ho1  1  0.449642  0.271590  0.500000  1
  Ho  Ho2  1  0.050358  0.771590  0.500000  1
  Ho  Ho3  1  0.949642  0.228410  0.500000  1
  Ho  Ho4  1  0.271590  0.550358  0.500000  1
  Ho  Ho5  1  0.728410  0.449642  0.500000  1
  Ho  Ho6  1  0.228410  0.050358  0.500000  1
  Ho  Ho7  1  0.771590  0.949642  0.500000  1
  Ho  Ho8  1  0.500000  0.000000  0.000000  1
  Ho  Ho9  1  0.000000  0.500000  0.000000  1
  Al  Al10  1  0.703870  0.203870  0.000000  1
  Al  Al11  1  0.296130  0.796130  0.000000  1
  Al  Al12  1  0.203870  0.296130  0.000000  1
  Al  Al13  1  0.796130  0.703870  0.000000  1
  Ga  Ga14  1  0.500000  0.500000  0.000000  1
  Ga  Ga15  1  0.000000  0.000000  0.000000  1
  C  C16  1  0.632490  0.132490  0.500000  1
  C  C17  1  0.367510  0.867510  0.500000  1
  C  C18  1  0.132490  0.367510  0.500000  1
  C  C19  1  0.867510  0.632490  0.500000  1
  C  C20  1  0.162114  0.662114  0.000000  1
  C  C21  1  0.837886  0.337886  0.000000  1
  C  C22  1  0.662114  0.837886  0.000000  1
  C  C23  1  0.337886  0.162114  0.000000  1
