# generated using pymatgen
data_Dy3Lu2(ReN4)3
_symmetry_space_group_name_H-M   'P 1'
_cell_length_a   11.05667474
_cell_length_b   11.05667481
_cell_length_c   11.05667500
_cell_angle_alpha   109.47121914
_cell_angle_beta   109.47121928
_cell_angle_gamma   109.47122444
_symmetry_Int_Tables_number   1
_chemical_formula_structural   Dy3Lu2(ReN4)3
_chemical_formula_sum   'Dy12 Lu8 Re12 N48'
_cell_volume   1040.52308262
_cell_formula_units_Z   4
loop_
 _symmetry_equiv_pos_site_id
 _symmetry_equiv_pos_as_xyz
  1  'x, y, z'
loop_
 _atom_site_type_symbol
 _atom_site_label
 _atom_site_symmetry_multiplicity
 _atom_site_fract_x
 _atom_site_fract_y
 _atom_site_fract_z
 _atom_site_occupancy
  Dy  Dy0  1  0.250001  0.375000  0.124996  1
  Dy  Dy1  1  0.374990  0.749990  0.124992  1
  Dy  Dy2  1  0.375005  0.125007  0.250001  1
  Dy  Dy3  1  0.874993  0.624999  0.249995  1
  Dy  Dy4  1  0.750005  0.125009  0.375003  1
  Dy  Dy5  1  0.124999  0.250000  0.374999  1
  Dy  Dy6  1  0.875001  0.749999  0.624999  1
  Dy  Dy7  1  0.250001  0.874996  0.625003  1
  Dy  Dy8  1  0.125002  0.375003  0.750005  1
  Dy  Dy9  1  0.624998  0.874994  0.750001  1
  Dy  Dy10  1  0.625000  0.250001  0.874997  1
  Dy  Dy11  1  0.749997  0.625001  0.875002  1
  Lu  Lu12  1  0.999995  0.999994  0.999992  1
  Lu  Lu13  1  0.499994  0.999988  0.999995  1
  Lu  Lu14  1  0.999989  0.499997  0.999987  1
  Lu  Lu15  1  0.499999  0.500010  0.000007  1
  Lu  Lu16  1  0.000003  0.999998  0.500000  1
  Lu  Lu17  1  0.500000  0.999997  0.500004  1
  Lu  Lu18  1  0.999998  0.500008  0.500003  1
  Lu  Lu19  1  0.500012  0.499994  0.500006  1
  Re  Re20  1  0.874997  0.249995  0.124993  1
  Re  Re21  1  0.750013  0.875006  0.124999  1
  Re  Re22  1  0.624993  0.374993  0.250007  1
  Re  Re23  1  0.124999  0.875001  0.249994  1
  Re  Re24  1  0.250015  0.625003  0.375006  1
  Re  Re25  1  0.624994  0.749992  0.375002  1
  Re  Re26  1  0.375011  0.250008  0.625000  1
  Re  Re27  1  0.749996  0.375005  0.624998  1
  Re  Re28  1  0.874997  0.124995  0.750006  1
  Re  Re29  1  0.375009  0.625007  0.749994  1
  Re  Re30  1  0.249996  0.125002  0.875010  1
  Re  Re31  1  0.125002  0.750006  0.875004  1
  N  N32  1  0.306254  0.902648  0.028353  1
  N  N33  1  0.222100  0.125710  0.028371  1
  N  N34  1  0.874302  0.402664  0.096394  1
  N  N35  1  0.722085  0.693723  0.096380  1
  N  N36  1  0.625708  0.403621  0.097347  1
  N  N37  1  0.971646  0.693748  0.097348  1
  N  N38  1  0.597348  0.903618  0.125710  1
  N  N39  1  0.028372  0.222090  0.125710  1
  N  N40  1  0.222090  0.596380  0.193729  1
  N  N41  1  0.471643  0.597346  0.193743  1
  N  N42  1  0.125705  0.028360  0.222093  1
  N  N43  1  0.596385  0.193738  0.222091  1
  N  N44  1  0.471637  0.374294  0.277906  1
  N  N45  1  0.306258  0.903620  0.277899  1
  N  N46  1  0.902642  0.028354  0.306248  1
  N  N47  1  0.903622  0.277918  0.306276  1
  N  N48  1  0.277903  0.471634  0.374288  1
  N  N49  1  0.596394  0.902653  0.374294  1
  N  N50  1  0.806258  0.528356  0.402648  1
  N  N51  1  0.096384  0.874287  0.402658  1
  N  N52  1  0.097332  0.625706  0.403604  1
  N  N53  1  0.806274  0.777914  0.403627  1
  N  N54  1  0.597349  0.193746  0.471644  1
  N  N55  1  0.374298  0.277905  0.471629  1
  N  N56  1  0.625714  0.722097  0.528372  1
  N  N57  1  0.402651  0.806253  0.528358  1
  N  N58  1  0.193721  0.222090  0.596377  1
  N  N59  1  0.902662  0.374296  0.596393  1
  N  N60  1  0.903609  0.125711  0.597345  1
  N  N61  1  0.193746  0.471641  0.597344  1
  N  N62  1  0.403607  0.097345  0.625708  1
  N  N63  1  0.722097  0.528370  0.625718  1
  N  N64  1  0.096384  0.722088  0.693730  1
  N  N65  1  0.097350  0.971645  0.693757  1
  N  N66  1  0.693733  0.096384  0.722093  1
  N  N67  1  0.528364  0.625703  0.722098  1
  N  N68  1  0.403621  0.806265  0.777903  1
  N  N69  1  0.874287  0.971633  0.777898  1
  N  N70  1  0.528352  0.402644  0.806248  1
  N  N71  1  0.777911  0.403619  0.806273  1
  N  N72  1  0.402651  0.096381  0.874291  1
  N  N73  1  0.971632  0.777905  0.874287  1
  N  N74  1  0.028359  0.306257  0.902653  1
  N  N75  1  0.374286  0.596389  0.902657  1
  N  N76  1  0.277912  0.306268  0.903620  1
  N  N77  1  0.125701  0.597337  0.903607  1
  N  N78  1  0.693747  0.097353  0.971645  1
  N  N79  1  0.777904  0.874289  0.971627  1
