# generated using pymatgen
data_LaTc3As4Rh3
_symmetry_space_group_name_H-M   'P 1'
_cell_length_a   7.22609400
_cell_length_b   7.22609402
_cell_length_c   3.95531800
_cell_angle_alpha   90.00000000
_cell_angle_beta   90.00000000
_cell_angle_gamma   119.99999990
_symmetry_Int_Tables_number   1
_chemical_formula_structural   LaTc3As4Rh3
_chemical_formula_sum   'La1 Tc3 As4 Rh3'
_cell_volume   178.86248187
_cell_formula_units_Z   1
loop_
 _symmetry_equiv_pos_site_id
 _symmetry_equiv_pos_as_xyz
  1  'x, y, z'
loop_
 _atom_site_type_symbol
 _atom_site_label
 _atom_site_symmetry_multiplicity
 _atom_site_fract_x
 _atom_site_fract_y
 _atom_site_fract_z
 _atom_site_occupancy
  La  La0  1  0.000000  0.000000  0.000000  1
  Tc  Tc1  1  0.536029  0.072059  0.000000  1
  Tc  Tc2  1  0.927941  0.463971  0.000000  1
  Tc  Tc3  1  0.536029  0.463971  0.000000  1
  As  As4  1  0.805907  0.194093  0.500000  1
  As  As5  1  0.388185  0.194093  0.500000  1
  As  As6  1  0.333333  0.666667  0.000000  1
  As  As7  1  0.805907  0.611815  0.500000  1
  Rh  Rh8  1  0.199204  0.800796  0.500000  1
  Rh  Rh9  1  0.199204  0.398408  0.500000  1
  Rh  Rh10  1  0.601592  0.800796  0.500000  1
