# generated using pymatgen
data_Li4CaAc2ThSi8
_symmetry_space_group_name_H-M   'P 1'
_cell_length_a   3.93195200
_cell_length_b   7.91825697
_cell_length_c   10.78028748
_cell_angle_alpha   90.20882024
_cell_angle_beta   90.00000000
_cell_angle_gamma   90.00000000
_symmetry_Int_Tables_number   1
_chemical_formula_structural   Li4CaAc2ThSi8
_chemical_formula_sum   'Li4 Ca1 Ac2 Th1 Si8'
_cell_volume   335.63346554
_cell_formula_units_Z   1
loop_
 _symmetry_equiv_pos_site_id
 _symmetry_equiv_pos_as_xyz
  1  'x, y, z'
loop_
 _atom_site_type_symbol
 _atom_site_label
 _atom_site_symmetry_multiplicity
 _atom_site_fract_x
 _atom_site_fract_y
 _atom_site_fract_z
 _atom_site_occupancy
  Li  Li0  1  0.250000  0.998060  0.394650  1
  Li  Li1  1  0.750000  0.011467  0.605913  1
  Li  Li2  1  0.250000  0.493333  0.114608  1
  Li  Li3  1  0.750000  0.501777  0.891951  1
  Ca  Ca4  1  0.750000  0.366089  0.367078  1
  Ac  Ac5  1  0.250000  0.138260  0.864110  1
  Ac  Ac6  1  0.750000  0.856803  0.134675  1
  Th  Th7  1  0.250000  0.633324  0.631297  1
  Si  Si8  1  0.750000  0.279302  0.079591  1
  Si  Si9  1  0.250000  0.716457  0.916854  1
  Si  Si10  1  0.750000  0.768123  0.435338  1
  Si  Si11  1  0.250000  0.241362  0.567433  1
  Si  Si12  1  0.750000  0.821531  0.810137  1
  Si  Si13  1  0.250000  0.168200  0.180955  1
  Si  Si14  1  0.750000  0.343838  0.674562  1
  Si  Si15  1  0.250000  0.662076  0.330849  1
