# generated using pymatgen
data_CsMgSc(H6Ir)2
_symmetry_space_group_name_H-M   'P 1'
_cell_length_a   4.78652800
_cell_length_b   4.78652900
_cell_length_c   9.45929400
_cell_angle_alpha   90.00000000
_cell_angle_beta   90.00000000
_cell_angle_gamma   119.99999308
_symmetry_Int_Tables_number   1
_chemical_formula_structural   CsMgSc(H6Ir)2
_chemical_formula_sum   'Cs1 Mg1 Sc1 H12 Ir2'
_cell_volume   187.68548378
_cell_formula_units_Z   1
loop_
 _symmetry_equiv_pos_site_id
 _symmetry_equiv_pos_as_xyz
  1  'x, y, z'
loop_
 _atom_site_type_symbol
 _atom_site_label
 _atom_site_symmetry_multiplicity
 _atom_site_fract_x
 _atom_site_fract_y
 _atom_site_fract_z
 _atom_site_occupancy
  Cs  Cs0  1  0.000000  0.000000  0.993233  1
  Mg  Mg1  1  0.333333  0.666667  0.630194  1
  Sc  Sc2  1  0.666667  0.333333  0.391655  1
  H  H3  1  0.160157  0.839843  0.401937  1
  H  H4  1  0.679685  0.839843  0.401937  1
  H  H5  1  0.160157  0.320315  0.401937  1
  H  H6  1  0.837605  0.162395  0.591652  1
  H  H7  1  0.324791  0.162395  0.591652  1
  H  H8  1  0.837605  0.675209  0.591652  1
  H  H9  1  0.510734  0.021468  0.796266  1
  H  H10  1  0.510734  0.489266  0.796266  1
  H  H11  1  0.978532  0.489266  0.796266  1
  H  H12  1  0.496491  0.992981  0.206520  1
  H  H13  1  0.496491  0.503509  0.206520  1
  H  H14  1  0.007019  0.503509  0.206520  1
  Ir  Ir15  1  0.666667  0.333333  0.684246  1
  Ir  Ir16  1  0.333333  0.666667  0.311545  1
