# generated using pymatgen
data_Y6Tm10Cd4TcNi3
_symmetry_space_group_name_H-M   'P 1'
_cell_length_a   9.54283237
_cell_length_b   9.54283335
_cell_length_c   9.54283300
_cell_angle_alpha   59.41213474
_cell_angle_beta   59.41213971
_cell_angle_gamma   59.41213454
_symmetry_Int_Tables_number   1
_chemical_formula_structural   Y6Tm10Cd4TcNi3
_chemical_formula_sum   'Y6 Tm10 Cd4 Tc1 Ni3'
_cell_volume   606.27313919
_cell_formula_units_Z   1
loop_
 _symmetry_equiv_pos_site_id
 _symmetry_equiv_pos_as_xyz
  1  'x, y, z'
loop_
 _atom_site_type_symbol
 _atom_site_label
 _atom_site_symmetry_multiplicity
 _atom_site_fract_x
 _atom_site_fract_y
 _atom_site_fract_z
 _atom_site_occupancy
  Y  Y0  1  0.187109  0.813689  0.813689  1
  Y  Y1  1  0.804491  0.190767  0.190767  1
  Y  Y2  1  0.813689  0.187109  0.813689  1
  Y  Y3  1  0.190767  0.804491  0.190767  1
  Y  Y4  1  0.813689  0.813689  0.187109  1
  Y  Y5  1  0.190767  0.190767  0.804491  1
  Tm  Tm6  1  0.596719  0.596719  0.596719  1
  Tm  Tm7  1  0.601932  0.601932  0.205043  1
  Tm  Tm8  1  0.601932  0.205043  0.601932  1
  Tm  Tm9  1  0.205043  0.601932  0.601932  1
  Tm  Tm10  1  0.062180  0.436279  0.436279  1
  Tm  Tm11  1  0.435027  0.062213  0.062213  1
  Tm  Tm12  1  0.436279  0.062180  0.436279  1
  Tm  Tm13  1  0.062213  0.435027  0.062213  1
  Tm  Tm14  1  0.436279  0.436279  0.062180  1
  Tm  Tm15  1  0.062213  0.062213  0.435027  1
  Cd  Cd16  1  0.829320  0.829320  0.829320  1
  Cd  Cd17  1  0.829304  0.829304  0.507113  1
  Cd  Cd18  1  0.829304  0.507113  0.829304  1
  Cd  Cd19  1  0.507113  0.829304  0.829304  1
  Tc  Tc20  1  0.394605  0.394605  0.394605  1
  Ni  Ni21  1  0.392155  0.392155  0.825711  1
  Ni  Ni22  1  0.392155  0.825711  0.392155  1
  Ni  Ni23  1  0.825711  0.392155  0.392155  1
