# generated using pymatgen
data_Th10Al2BiPb5
_symmetry_space_group_name_H-M   'P 1'
_cell_length_a   9.73797809
_cell_length_b   9.73797774
_cell_length_c   6.59377400
_cell_angle_alpha   90.00000000
_cell_angle_beta   90.00000000
_cell_angle_gamma   119.99327641
_symmetry_Int_Tables_number   1
_chemical_formula_structural   Th10Al2BiPb5
_chemical_formula_sum   'Th10 Al2 Bi1 Pb5'
_cell_volume   541.54142064
_cell_formula_units_Z   1
loop_
 _symmetry_equiv_pos_site_id
 _symmetry_equiv_pos_as_xyz
  1  'x, y, z'
loop_
 _atom_site_type_symbol
 _atom_site_label
 _atom_site_symmetry_multiplicity
 _atom_site_fract_x
 _atom_site_fract_y
 _atom_site_fract_z
 _atom_site_occupancy
  Th  Th0  1  0.667453  0.333224  0.000459  1
  Th  Th1  1  0.333224  0.667453  0.000459  1
  Th  Th2  1  0.333224  0.667453  0.499541  1
  Th  Th3  1  0.667453  0.333224  0.499541  1
  Th  Th4  1  0.732418  0.732418  0.750000  1
  Th  Th5  1  0.266438  0.999950  0.750000  1
  Th  Th6  1  0.999950  0.266438  0.750000  1
  Th  Th7  1  0.266674  0.266674  0.250000  1
  Th  Th8  1  0.732901  0.000137  0.250000  1
  Th  Th9  1  0.000137  0.732901  0.250000  1
  Al  Al10  1  0.999850  0.999850  0.000070  1
  Al  Al11  1  0.999850  0.999850  0.499930  1
  Bi  Bi12  1  0.382403  0.382403  0.750000  1
  Pb  Pb13  1  0.618860  0.999660  0.750000  1
  Pb  Pb14  1  0.999660  0.618860  0.750000  1
  Pb  Pb15  1  0.618938  0.618938  0.250000  1
  Pb  Pb16  1  0.380943  0.999626  0.250000  1
  Pb  Pb17  1  0.999626  0.380943  0.250000  1
