# generated using pymatgen
data_Tb3Lu2(OsO6)2
_symmetry_space_group_name_H-M   'P 1'
_cell_length_a   6.83674979
_cell_length_b   6.83675167
_cell_length_c   7.43053739
_cell_angle_alpha   74.08705829
_cell_angle_beta   74.08705352
_cell_angle_gamma   48.80193314
_symmetry_Int_Tables_number   1
_chemical_formula_structural   Tb3Lu2(OsO6)2
_chemical_formula_sum   'Tb3 Lu2 Os2 O12'
_cell_volume   249.20528980
_cell_formula_units_Z   1
loop_
 _symmetry_equiv_pos_site_id
 _symmetry_equiv_pos_as_xyz
  1  'x, y, z'
loop_
 _atom_site_type_symbol
 _atom_site_label
 _atom_site_symmetry_multiplicity
 _atom_site_fract_x
 _atom_site_fract_y
 _atom_site_fract_z
 _atom_site_occupancy
  Tb  Tb0  1  0.699117  0.699117  0.643856  1
  Tb  Tb1  1  0.300736  0.300736  0.359334  1
  Tb  Tb2  1  0.687011  0.687011  0.171293  1
  Lu  Lu3  1  0.312847  0.312847  0.827477  1
  Lu  Lu4  1  0.999736  0.999736  0.500968  1
  Os  Os5  1  0.781304  0.218821  0.999036  1
  Os  Os6  1  0.218821  0.781304  0.999036  1
  O  O7  1  0.000835  0.000835  0.206380  1
  O  O8  1  0.999006  0.999006  0.793453  1
  O  O9  1  0.577731  0.088787  0.082260  1
  O  O10  1  0.415795  0.919806  0.912191  1
  O  O11  1  0.919806  0.415795  0.912191  1
  O  O12  1  0.088787  0.577731  0.082260  1
  O  O13  1  0.498914  0.498914  0.173233  1
  O  O14  1  0.499020  0.499020  0.824194  1
  O  O15  1  0.398204  0.900967  0.429989  1
  O  O16  1  0.599011  0.102353  0.576430  1
  O  O17  1  0.102353  0.599011  0.576430  1
  O  O18  1  0.900967  0.398204  0.429989  1
