# generated using pymatgen
data_Yb3DyB16Os3W
_symmetry_space_group_name_H-M   'P 1'
_cell_length_a   3.54321200
_cell_length_b   5.99232952
_cell_length_c   11.58790431
_cell_angle_alpha   89.90898501
_cell_angle_beta   90.00000000
_cell_angle_gamma   90.00000000
_symmetry_Int_Tables_number   1
_chemical_formula_structural   Yb3DyB16Os3W
_chemical_formula_sum   'Yb3 Dy1 B16 Os3 W1'
_cell_volume   246.03516153
_cell_formula_units_Z   1
loop_
 _symmetry_equiv_pos_site_id
 _symmetry_equiv_pos_as_xyz
  1  'x, y, z'
loop_
 _atom_site_type_symbol
 _atom_site_label
 _atom_site_symmetry_multiplicity
 _atom_site_fract_x
 _atom_site_fract_y
 _atom_site_fract_z
 _atom_site_occupancy
  Yb  Yb0  1  0.000000  0.869886  0.351193  1
  Yb  Yb1  1  0.000000  0.629241  0.847690  1
  Yb  Yb2  1  0.000000  0.373814  0.152969  1
  Dy  Dy3  1  0.000000  0.128332  0.646866  1
  B  B4  1  0.500000  0.475765  0.690183  1
  B  B5  1  0.500000  0.526917  0.308972  1
  B  B6  1  0.500000  0.972609  0.806379  1
  B  B7  1  0.500000  0.021995  0.193682  1
  B  B8  1  0.500000  0.290854  0.812664  1
  B  B9  1  0.500000  0.714744  0.185427  1
  B  B10  1  0.500000  0.784093  0.684065  1
  B  B11  1  0.500000  0.213982  0.314345  1
  B  B12  1  0.500000  0.368947  0.970083  1
  B  B13  1  0.500000  0.635376  0.033801  1
  B  B14  1  0.500000  0.862643  0.529243  1
  B  B15  1  0.500000  0.136435  0.469464  1
  B  B16  1  0.500000  0.388435  0.546024  1
  B  B17  1  0.500000  0.613522  0.452005  1
  B  B18  1  0.500000  0.880435  0.954448  1
  B  B19  1  0.500000  0.112396  0.050834  1
  Os  Os20  1  0.000000  0.869444  0.085710  1
  Os  Os21  1  0.000000  0.639858  0.589365  1
  Os  Os22  1  0.000000  0.357602  0.409092  1
  W  W23  1  0.000000  0.132678  0.915496  1
