# generated using pymatgen
data_TbHo3(PaGa5)2
_symmetry_space_group_name_H-M   'P 1'
_cell_length_a   6.08436350
_cell_length_b   9.54652228
_cell_length_c   11.66352600
_cell_angle_alpha   90.00000000
_cell_angle_beta   90.00000000
_cell_angle_gamma   89.96949922
_symmetry_Int_Tables_number   1
_chemical_formula_structural   TbHo3(PaGa5)2
_chemical_formula_sum   'Tb2 Ho6 Pa4 Ga20'
_cell_volume   677.47011654
_cell_formula_units_Z   2
loop_
 _symmetry_equiv_pos_site_id
 _symmetry_equiv_pos_as_xyz
  1  'x, y, z'
loop_
 _atom_site_type_symbol
 _atom_site_label
 _atom_site_symmetry_multiplicity
 _atom_site_fract_x
 _atom_site_fract_y
 _atom_site_fract_z
 _atom_site_occupancy
  Tb  Tb0  1  0.882053  0.503833  0.351169  1
  Tb  Tb1  1  0.617947  0.996167  0.851169  1
  Ho  Ho2  1  0.859628  0.749417  0.074073  1
  Ho  Ho3  1  0.640372  0.750583  0.574073  1
  Ho  Ho4  1  0.143977  0.248149  0.927436  1
  Ho  Ho5  1  0.356023  0.251851  0.427436  1
  Ho  Ho6  1  0.882451  0.997622  0.350291  1
  Ho  Ho7  1  0.617549  0.502378  0.850291  1
  Pa  Pa8  1  0.117170  0.002707  0.647957  1
  Pa  Pa9  1  0.382830  0.497293  0.147957  1
  Pa  Pa10  1  0.117434  0.497239  0.647601  1
  Pa  Pa11  1  0.382566  0.002761  0.147601  1
  Ga  Ga12  1  0.872397  0.052742  0.092314  1
  Ga  Ga13  1  0.627603  0.447258  0.592314  1
  Ga  Ga14  1  0.133546  0.551877  0.908928  1
  Ga  Ga15  1  0.366454  0.948123  0.408928  1
  Ga  Ga16  1  0.131493  0.944297  0.909100  1
  Ga  Ga17  1  0.368507  0.555703  0.409100  1
  Ga  Ga18  1  0.872997  0.446696  0.091734  1
  Ga  Ga19  1  0.627003  0.053304  0.591734  1
  Ga  Ga20  1  0.161780  0.751082  0.262289  1
  Ga  Ga21  1  0.338220  0.748918  0.762289  1
  Ga  Ga22  1  0.843850  0.250260  0.737161  1
  Ga  Ga23  1  0.656150  0.249740  0.237161  1
  Ga  Ga24  1  0.390784  0.748986  0.998254  1
  Ga  Ga25  1  0.109216  0.751014  0.498254  1
  Ga  Ga26  1  0.611548  0.250248  0.004715  1
  Ga  Ga27  1  0.888452  0.249752  0.504715  1
  Ga  Ga28  1  0.595687  0.751861  0.293815  1
  Ga  Ga29  1  0.904313  0.748139  0.793815  1
  Ga  Ga30  1  0.397441  0.249786  0.703163  1
  Ga  Ga31  1  0.102559  0.250214  0.203163  1
