# generated using pymatgen
data_YHo5Si4(GeRu2)2
_symmetry_space_group_name_H-M   'P 1'
_cell_length_a   5.74027537
_cell_length_b   5.74027612
_cell_length_c   13.87182600
_cell_angle_alpha   90.00000000
_cell_angle_beta   90.00000000
_cell_angle_gamma   137.28513830
_symmetry_Int_Tables_number   1
_chemical_formula_structural   YHo5Si4(GeRu2)2
_chemical_formula_sum   'Y1 Ho5 Si4 Ge2 Ru4'
_cell_volume   310.06528653
_cell_formula_units_Z   1
loop_
 _symmetry_equiv_pos_site_id
 _symmetry_equiv_pos_as_xyz
  1  'x, y, z'
loop_
 _atom_site_type_symbol
 _atom_site_label
 _atom_site_symmetry_multiplicity
 _atom_site_fract_x
 _atom_site_fract_y
 _atom_site_fract_z
 _atom_site_occupancy
  Y  Y0  1  0.855691  0.144309  0.250000  1
  Ho  Ho1  1  0.144669  0.855331  0.750000  1
  Ho  Ho2  1  0.424377  0.575623  0.887128  1
  Ho  Ho3  1  0.575672  0.424328  0.112712  1
  Ho  Ho4  1  0.575672  0.424328  0.387288  1
  Ho  Ho5  1  0.424377  0.575623  0.612872  1
  Si  Si6  1  0.117460  0.882540  0.538977  1
  Si  Si7  1  0.882546  0.117454  0.461217  1
  Si  Si8  1  0.882546  0.117454  0.038783  1
  Si  Si9  1  0.117460  0.882540  0.961023  1
  Ge  Ge10  1  0.162438  0.837562  0.250000  1
  Ge  Ge11  1  0.837302  0.162698  0.750000  1
  Ru  Ru12  1  0.711743  0.288257  0.578836  1
  Ru  Ru13  1  0.288152  0.711848  0.421410  1
  Ru  Ru14  1  0.288152  0.711848  0.078590  1
  Ru  Ru15  1  0.711743  0.288257  0.921164  1
