# generated using pymatgen
data_TbY3Al4(Ga7Ir3)2
_symmetry_space_group_name_H-M   'P 1'
_cell_length_a   7.57815901
_cell_length_b   7.57829531
_cell_length_c   9.53275600
_cell_angle_alpha   90.00000000
_cell_angle_beta   90.00000000
_cell_angle_gamma   119.73838485
_symmetry_Int_Tables_number   1
_chemical_formula_structural   TbY3Al4(Ga7Ir3)2
_chemical_formula_sum   'Tb1 Y3 Al4 Ga14 Ir6'
_cell_volume   475.36063229
_cell_formula_units_Z   1
loop_
 _symmetry_equiv_pos_site_id
 _symmetry_equiv_pos_as_xyz
  1  'x, y, z'
loop_
 _atom_site_type_symbol
 _atom_site_label
 _atom_site_symmetry_multiplicity
 _atom_site_fract_x
 _atom_site_fract_y
 _atom_site_fract_z
 _atom_site_occupancy
  Tb  Tb0  1  0.000751  0.669706  0.250000  1
  Y  Y1  1  0.999273  0.330301  0.750000  1
  Y  Y2  1  0.669699  0.000732  0.250000  1
  Y  Y3  1  0.330296  0.999266  0.750000  1
  Al  Al4  1  0.331875  0.331877  0.553124  1
  Al  Al5  1  0.668111  0.668123  0.446874  1
  Al  Al6  1  0.668111  0.668123  0.053126  1
  Al  Al7  1  0.331875  0.331877  0.946876  1
  Ga  Ga8  1  0.127274  0.127258  0.250000  1
  Ga  Ga9  1  0.872750  0.872749  0.750000  1
  Ga  Ga10  1  0.000329  0.335182  0.079375  1
  Ga  Ga11  1  0.999661  0.664801  0.920629  1
  Ga  Ga12  1  0.999661  0.664801  0.579371  1
  Ga  Ga13  1  0.335216  0.000343  0.420624  1
  Ga  Ga14  1  0.000329  0.335182  0.420625  1
  Ga  Ga15  1  0.664801  0.999673  0.579368  1
  Ga  Ga16  1  0.664801  0.999673  0.920632  1
  Ga  Ga17  1  0.335216  0.000343  0.079376  1
  Ga  Ga18  1  0.346436  0.549440  0.250000  1
  Ga  Ga19  1  0.653560  0.450544  0.750000  1
  Ga  Ga20  1  0.549455  0.346462  0.250000  1
  Ga  Ga21  1  0.450547  0.653558  0.750000  1
  Ir  Ir22  1  0.669342  0.330648  0.999993  1
  Ir  Ir23  1  0.330645  0.669342  0.000000  1
  Ir  Ir24  1  0.330645  0.669342  0.500000  1
  Ir  Ir25  1  0.669342  0.330648  0.500007  1
  Ir  Ir26  1  0.000001  0.000002  0.000000  1
  Ir  Ir27  1  0.000001  0.000002  0.500000  1
