# generated using pymatgen
data_TbEuDy5PtI12
_symmetry_space_group_name_H-M   'P 1'
_cell_length_a   9.82029485
_cell_length_b   9.82432126
_cell_length_c   9.82163782
_cell_angle_alpha   106.70483084
_cell_angle_beta   106.69676381
_cell_angle_gamma   106.70746776
_symmetry_Int_Tables_number   1
_chemical_formula_structural   TbEuDy5PtI12
_chemical_formula_sum   'Tb1 Eu1 Dy5 Pt1 I12'
_cell_volume   795.45128888
_cell_formula_units_Z   1
loop_
 _symmetry_equiv_pos_site_id
 _symmetry_equiv_pos_as_xyz
  1  'x, y, z'
loop_
 _atom_site_type_symbol
 _atom_site_label
 _atom_site_symmetry_multiplicity
 _atom_site_fract_x
 _atom_site_fract_y
 _atom_site_fract_z
 _atom_site_occupancy
  Tb  Tb0  1  0.974812  0.699253  0.902715  1
  Eu  Eu1  1  0.500019  0.499986  0.499976  1
  Dy  Dy2  1  0.096963  0.025326  0.299947  1
  Dy  Dy3  1  0.299964  0.097171  0.025252  1
  Dy  Dy4  1  0.025172  0.299899  0.096966  1
  Dy  Dy5  1  0.903038  0.974958  0.700150  1
  Dy  Dy6  1  0.700088  0.903185  0.974862  1
  Pt  Pt7  1  0.000047  0.000308  0.000112  1
  I  I8  1  0.073812  0.678071  0.223806  1
  I  I9  1  0.223170  0.073630  0.677979  1
  I  I10  1  0.677931  0.223164  0.073626  1
  I  I11  1  0.926310  0.321608  0.776685  1
  I  I12  1  0.776834  0.926373  0.322017  1
  I  I13  1  0.322485  0.777084  0.926454  1
  I  I14  1  0.455085  0.142121  0.376061  1
  I  I15  1  0.376091  0.455109  0.142117  1
  I  I16  1  0.142105  0.376070  0.455106  1
  I  I17  1  0.544911  0.857879  0.623936  1
  I  I18  1  0.623468  0.544859  0.857857  1
  I  I19  1  0.857695  0.623946  0.544374  1
