# generated using pymatgen
data_TmU3(BRu)16
_symmetry_space_group_name_H-M   'P 1'
_cell_length_a   9.20114011
_cell_length_b   7.47615410
_cell_length_c   7.47615360
_cell_angle_alpha   89.92506363
_cell_angle_beta   114.00357944
_cell_angle_gamma   114.00358370
_symmetry_Int_Tables_number   1
_chemical_formula_structural   TmU3(BRu)16
_chemical_formula_sum   'Tm1 U3 B16 Ru16'
_cell_volume   420.78794433
_cell_formula_units_Z   1
loop_
 _symmetry_equiv_pos_site_id
 _symmetry_equiv_pos_as_xyz
  1  'x, y, z'
loop_
 _atom_site_type_symbol
 _atom_site_label
 _atom_site_symmetry_multiplicity
 _atom_site_fract_x
 _atom_site_fract_y
 _atom_site_fract_z
 _atom_site_occupancy
  Tm  Tm0  1  0.749999  0.875000  0.125000  1
  U  U1  1  0.250000  0.625000  0.375000  1
  U  U2  1  0.749999  0.375000  0.625000  1
  U  U3  1  0.250000  0.125000  0.875000  1
  B  B4  1  0.913413  0.625410  0.064740  1
  B  B5  1  0.417242  0.849528  0.127455  1
  B  B6  1  0.082757  0.872545  0.150472  1
  B  B7  1  0.584649  0.430791  0.210663  1
  B  B8  1  0.415106  0.348215  0.287943  1
  B  B9  1  0.913413  0.288002  0.348673  1
  B  B10  1  0.586587  0.935260  0.374590  1
  B  B11  1  0.082757  0.210213  0.432286  1
  B  B12  1  0.915351  0.789337  0.569209  1
  B  B13  1  0.415106  0.066890  0.627164  1
  B  B14  1  0.084893  0.712057  0.651785  1
  B  B15  1  0.586587  0.651327  0.711997  1
  B  B16  1  0.417242  0.567714  0.789787  1
  B  B17  1  0.915351  0.126013  0.846142  1
  B  B18  1  0.584649  0.153858  0.873987  1
  B  B19  1  0.084893  0.372836  0.933110  1
  Ru  Ru20  1  0.875152  0.323955  0.035525  1
  Ru  Ru21  1  0.372118  0.532804  0.048970  1
  Ru  Ru22  1  0.127882  0.176853  0.160687  1
  Ru  Ru23  1  0.626376  0.164397  0.178322  1
  Ru  Ru24  1  0.372436  0.033285  0.322419  1
  Ru  Ru25  1  0.875152  0.551196  0.339626  1
  Ru  Ru26  1  0.624848  0.660374  0.448804  1
  Ru  Ru27  1  0.127882  0.951030  0.467195  1
  Ru  Ru28  1  0.873624  0.051946  0.538021  1
  Ru  Ru29  1  0.372436  0.339150  0.550017  1
  Ru  Ru30  1  0.127564  0.449983  0.660849  1
  Ru  Ru31  1  0.624848  0.964475  0.676045  1
  Ru  Ru32  1  0.372118  0.839312  0.823147  1
  Ru  Ru33  1  0.873624  0.821678  0.835603  1
  Ru  Ru34  1  0.626376  0.461979  0.948054  1
  Ru  Ru35  1  0.127564  0.677581  0.966714  1
