# generated using pymatgen
data_Gd4Er4Re(B8Ru)3
_symmetry_space_group_name_H-M   'P 1'
_cell_length_a   3.66742200
_cell_length_b   9.14250036
_cell_length_c   11.54243722
_cell_angle_alpha   89.90191297
_cell_angle_beta   90.00000000
_cell_angle_gamma   90.00000000
_symmetry_Int_Tables_number   1
_chemical_formula_structural   Gd4Er4Re(B8Ru)3
_chemical_formula_sum   'Gd4 Er4 Re1 B24 Ru3'
_cell_volume   387.01050752
_cell_formula_units_Z   1
loop_
 _symmetry_equiv_pos_site_id
 _symmetry_equiv_pos_as_xyz
  1  'x, y, z'
loop_
 _atom_site_type_symbol
 _atom_site_label
 _atom_site_symmetry_multiplicity
 _atom_site_fract_x
 _atom_site_fract_y
 _atom_site_fract_z
 _atom_site_occupancy
  Gd  Gd0  1  0.000000  0.323991  0.413240  1
  Gd  Gd1  1  0.000000  0.677005  0.583689  1
  Gd  Gd2  1  0.000000  0.820775  0.087852  1
  Gd  Gd3  1  0.000000  0.176757  0.914905  1
  Er  Er4  1  0.000000  0.944363  0.372466  1
  Er  Er5  1  0.000000  0.056914  0.628452  1
  Er  Er6  1  0.000000  0.444201  0.127750  1
  Er  Er7  1  0.000000  0.556400  0.871108  1
  Re  Re8  1  0.000000  0.638549  0.320530  1
  B  B9  1  0.500000  0.553601  0.432588  1
  B  B10  1  0.500000  0.445405  0.568228  1
  B  B11  1  0.500000  0.054681  0.067844  1
  B  B12  1  0.500000  0.945301  0.932343  1
  B  B13  1  0.500000  0.749386  0.418828  1
  B  B14  1  0.500000  0.251110  0.581281  1
  B  B15  1  0.500000  0.249032  0.081002  1
  B  B16  1  0.500000  0.750878  0.918873  1
  B  B17  1  0.500000  0.792283  0.266058  1
  B  B18  1  0.500000  0.208602  0.733925  1
  B  B19  1  0.500000  0.291257  0.233206  1
  B  B20  1  0.500000  0.709023  0.766100  1
  B  B21  1  0.500000  0.631506  0.185177  1
  B  B22  1  0.500000  0.368119  0.815174  1
  B  B23  1  0.500000  0.131605  0.314612  1
  B  B24  1  0.500000  0.868809  0.685030  1
  B  B25  1  0.500000  0.984260  0.213178  1
  B  B26  1  0.500000  0.015856  0.787215  1
  B  B27  1  0.500000  0.482978  0.286827  1
  B  B28  1  0.500000  0.515575  0.713102  1
  B  B29  1  0.500000  0.604878  0.028127  1
  B  B30  1  0.500000  0.394516  0.970610  1
  B  B31  1  0.500000  0.105592  0.471416  1
  B  B32  1  0.500000  0.895985  0.529429  1
  Ru  Ru33  1  0.000000  0.360846  0.680363  1
  Ru  Ru34  1  0.000000  0.138755  0.179303  1
  Ru  Ru35  1  0.000000  0.861207  0.820171  1
