# generated using pymatgen
data_Pr6CuSn2Sb13
_symmetry_space_group_name_H-M   'P 1'
_cell_length_a   12.57152985
_cell_length_b   12.57152766
_cell_length_c   4.27759500
_cell_angle_alpha   80.24823798
_cell_angle_beta   80.24823969
_cell_angle_gamma   102.06969468
_symmetry_Int_Tables_number   1
_chemical_formula_structural   Pr6CuSn2Sb13
_chemical_formula_sum   'Pr6 Cu1 Sn2 Sb13'
_cell_volume   636.66806835
_cell_formula_units_Z   1
loop_
 _symmetry_equiv_pos_site_id
 _symmetry_equiv_pos_as_xyz
  1  'x, y, z'
loop_
 _atom_site_type_symbol
 _atom_site_label
 _atom_site_symmetry_multiplicity
 _atom_site_fract_x
 _atom_site_fract_y
 _atom_site_fract_z
 _atom_site_occupancy
  Pr  Pr0  1  0.323972  0.677878  0.930136  1
  Pr  Pr1  1  0.677878  0.323972  0.930136  1
  Pr  Pr2  1  0.269392  0.005814  0.796030  1
  Pr  Pr3  1  0.726234  0.995227  0.072642  1
  Pr  Pr4  1  0.995227  0.726234  0.072642  1
  Pr  Pr5  1  0.005814  0.269392  0.796030  1
  Cu  Cu6  1  0.266725  0.266725  0.677032  1
  Sn  Sn7  1  0.399470  0.399470  0.033767  1
  Sn  Sn8  1  0.594847  0.594847  0.833888  1
  Sb  Sb9  1  0.470318  0.247983  0.569735  1
  Sb  Sb10  1  0.543455  0.747504  0.287868  1
  Sb  Sb11  1  0.747504  0.543455  0.287868  1
  Sb  Sb12  1  0.247983  0.470318  0.569735  1
  Sb  Sb13  1  0.511136  0.914354  0.718757  1
  Sb  Sb14  1  0.487008  0.079537  0.148830  1
  Sb  Sb15  1  0.079537  0.487008  0.148830  1
  Sb  Sb16  1  0.914354  0.511136  0.718757  1
  Sb  Sb17  1  0.158324  0.158324  0.281195  1
  Sb  Sb18  1  0.849725  0.849725  0.583915  1
  Sb  Sb19  1  0.198666  0.800934  0.432767  1
  Sb  Sb20  1  0.800934  0.198666  0.432767  1
  Sb  Sb21  1  0.992100  0.992100  0.943970  1
