# generated using pymatgen
data_Dy4SnHgAu4
_symmetry_space_group_name_H-M   'P 1'
_cell_length_a   8.02865700
_cell_length_b   8.02865700
_cell_length_c   7.34930600
_cell_angle_alpha   90.00000000
_cell_angle_beta   90.00000000
_cell_angle_gamma   90.00000000
_symmetry_Int_Tables_number   1
_chemical_formula_structural   Dy4SnHgAu4
_chemical_formula_sum   'Dy8 Sn2 Hg2 Au8'
_cell_volume   473.73136442
_cell_formula_units_Z   2
loop_
 _symmetry_equiv_pos_site_id
 _symmetry_equiv_pos_as_xyz
  1  'x, y, z'
loop_
 _atom_site_type_symbol
 _atom_site_label
 _atom_site_symmetry_multiplicity
 _atom_site_fract_x
 _atom_site_fract_y
 _atom_site_fract_z
 _atom_site_occupancy
  Dy  Dy0  1  0.841537  0.158463  0.500000  1
  Dy  Dy1  1  0.158463  0.841537  0.500000  1
  Dy  Dy2  1  0.341537  0.341537  0.000000  1
  Dy  Dy3  1  0.658463  0.658463  0.000000  1
  Dy  Dy4  1  0.684179  0.684179  0.500000  1
  Dy  Dy5  1  0.315821  0.315821  0.500000  1
  Dy  Dy6  1  0.184179  0.815821  0.000000  1
  Dy  Dy7  1  0.815821  0.184179  0.000000  1
  Sn  Sn8  1  0.500000  0.000000  0.750000  1
  Sn  Sn9  1  0.000000  0.500000  0.250000  1
  Hg  Hg10  1  0.500000  0.000000  0.250000  1
  Hg  Hg11  1  0.000000  0.500000  0.750000  1
  Au  Au12  1  0.627084  0.372078  0.275804  1
  Au  Au13  1  0.372916  0.627922  0.275804  1
  Au  Au14  1  0.127084  0.127922  0.775804  1
  Au  Au15  1  0.872916  0.872078  0.775804  1
  Au  Au16  1  0.372078  0.627084  0.724196  1
  Au  Au17  1  0.627922  0.372916  0.724196  1
  Au  Au18  1  0.872078  0.872916  0.224196  1
  Au  Au19  1  0.127922  0.127084  0.224196  1
