# generated using pymatgen
data_Dy8NiAg2Ru
_symmetry_space_group_name_H-M   'P 1'
_cell_length_a   9.48020989
_cell_length_b   9.48021000
_cell_length_c   9.54943400
_cell_angle_alpha   59.75815110
_cell_angle_beta   59.75815072
_cell_angle_gamma   59.71012048
_symmetry_Int_Tables_number   1
_chemical_formula_structural   Dy8NiAg2Ru
_chemical_formula_sum   'Dy16 Ni2 Ag4 Ru2'
_cell_volume   603.32004609
_cell_formula_units_Z   2
loop_
 _symmetry_equiv_pos_site_id
 _symmetry_equiv_pos_as_xyz
  1  'x, y, z'
loop_
 _atom_site_type_symbol
 _atom_site_label
 _atom_site_symmetry_multiplicity
 _atom_site_fract_x
 _atom_site_fract_y
 _atom_site_fract_z
 _atom_site_occupancy
  Dy  Dy0  1  0.602277  0.602277  0.594276  1
  Dy  Dy1  1  0.602277  0.602277  0.201170  1
  Dy  Dy2  1  0.605034  0.197789  0.598589  1
  Dy  Dy3  1  0.197789  0.605034  0.598589  1
  Dy  Dy4  1  0.061005  0.436489  0.438889  1
  Dy  Dy5  1  0.436489  0.061005  0.063615  1
  Dy  Dy6  1  0.436489  0.061005  0.438889  1
  Dy  Dy7  1  0.061005  0.436489  0.063615  1
  Dy  Dy8  1  0.436742  0.436742  0.063258  1
  Dy  Dy9  1  0.060282  0.060282  0.439718  1
  Dy  Dy10  1  0.186764  0.809715  0.816271  1
  Dy  Dy11  1  0.809715  0.186764  0.187249  1
  Dy  Dy12  1  0.809715  0.186764  0.816271  1
  Dy  Dy13  1  0.186764  0.809715  0.187249  1
  Dy  Dy14  1  0.814745  0.814745  0.185255  1
  Dy  Dy15  1  0.188082  0.188082  0.811918  1
  Ni  Ni16  1  0.395273  0.823238  0.390744  1
  Ni  Ni17  1  0.823238  0.395273  0.390744  1
  Ag  Ag18  1  0.831216  0.831216  0.832926  1
  Ag  Ag19  1  0.831216  0.831216  0.504643  1
  Ag  Ag20  1  0.830635  0.504825  0.832270  1
  Ag  Ag21  1  0.504825  0.830635  0.832270  1
  Ru  Ru22  1  0.394210  0.394210  0.389550  1
  Ru  Ru23  1  0.394210  0.394210  0.822029  1
