# generated using pymatgen
data_Ho2Sc3Ga4
_symmetry_space_group_name_H-M   'P 1'
_cell_length_a   7.27211200
_cell_length_b   7.57820900
_cell_length_c   14.46948100
_cell_angle_alpha   90.00000000
_cell_angle_beta   90.00000000
_cell_angle_gamma   90.00000000
_symmetry_Int_Tables_number   1
_chemical_formula_structural   Ho2Sc3Ga4
_chemical_formula_sum   'Ho8 Sc12 Ga16'
_cell_volume   797.40708739
_cell_formula_units_Z   4
loop_
 _symmetry_equiv_pos_site_id
 _symmetry_equiv_pos_as_xyz
  1  'x, y, z'
loop_
 _atom_site_type_symbol
 _atom_site_label
 _atom_site_symmetry_multiplicity
 _atom_site_fract_x
 _atom_site_fract_y
 _atom_site_fract_z
 _atom_site_occupancy
  Ho  Ho0  1  0.010936  0.180237  0.094419  1
  Ho  Ho1  1  0.989064  0.819763  0.905581  1
  Ho  Ho2  1  0.489064  0.680237  0.905581  1
  Ho  Ho3  1  0.989064  0.819763  0.594419  1
  Ho  Ho4  1  0.510936  0.319763  0.094419  1
  Ho  Ho5  1  0.010936  0.180237  0.405581  1
  Ho  Ho6  1  0.510936  0.319763  0.405581  1
  Ho  Ho7  1  0.489064  0.680237  0.594419  1
  Sc  Sc8  1  0.162367  0.503315  0.750000  1
  Sc  Sc9  1  0.837633  0.496685  0.250000  1
  Sc  Sc10  1  0.337633  0.003315  0.250000  1
  Sc  Sc11  1  0.662367  0.996685  0.750000  1
  Sc  Sc12  1  0.329686  0.172181  0.624553  1
  Sc  Sc13  1  0.670314  0.827819  0.375447  1
  Sc  Sc14  1  0.170314  0.672181  0.375447  1
  Sc  Sc15  1  0.670314  0.827819  0.124553  1
  Sc  Sc16  1  0.829686  0.327819  0.624553  1
  Sc  Sc17  1  0.329686  0.172181  0.875447  1
  Sc  Sc18  1  0.829686  0.327819  0.875447  1
  Sc  Sc19  1  0.170314  0.672181  0.124553  1
  Ga  Ga20  1  0.030140  0.116212  0.750000  1
  Ga  Ga21  1  0.969860  0.883788  0.250000  1
  Ga  Ga22  1  0.469860  0.616212  0.250000  1
  Ga  Ga23  1  0.530140  0.383788  0.750000  1
  Ga  Ga24  1  0.283043  0.870786  0.750000  1
  Ga  Ga25  1  0.716957  0.129214  0.250000  1
  Ga  Ga26  1  0.216957  0.370786  0.250000  1
  Ga  Ga27  1  0.783043  0.629214  0.750000  1
  Ga  Ga28  1  0.162133  0.465004  0.540506  1
  Ga  Ga29  1  0.837867  0.534996  0.459494  1
  Ga  Ga30  1  0.337867  0.965004  0.459494  1
  Ga  Ga31  1  0.837867  0.534996  0.040506  1
  Ga  Ga32  1  0.662133  0.034996  0.540506  1
  Ga  Ga33  1  0.162133  0.465004  0.959494  1
  Ga  Ga34  1  0.662133  0.034996  0.959494  1
  Ga  Ga35  1  0.337867  0.965004  0.040506  1
