# generated using pymatgen
data_Y2Er6Cd2OsPt
_symmetry_space_group_name_H-M   'P 1'
_cell_length_a   9.61169545
_cell_length_b   9.60328607
_cell_length_c   9.67481877
_cell_angle_alpha   59.81036316
_cell_angle_beta   59.72351452
_cell_angle_gamma   59.52720686
_symmetry_Int_Tables_number   1
_chemical_formula_structural   Y2Er6Cd2OsPt
_chemical_formula_sum   'Y4 Er12 Cd4 Os2 Pt2'
_cell_volume   626.96509819
_cell_formula_units_Z   2
loop_
 _symmetry_equiv_pos_site_id
 _symmetry_equiv_pos_as_xyz
  1  'x, y, z'
loop_
 _atom_site_type_symbol
 _atom_site_label
 _atom_site_symmetry_multiplicity
 _atom_site_fract_x
 _atom_site_fract_y
 _atom_site_fract_z
 _atom_site_occupancy
  Y  Y0  1  0.556812  0.938222  0.566689  1
  Y  Y1  1  0.938227  0.556825  0.938256  1
  Y  Y2  1  0.563709  0.563696  0.936300  1
  Y  Y3  1  0.939291  0.939298  0.560701  1
  Er  Er4  1  0.350495  0.350233  0.350843  1
  Er  Er5  1  0.350235  0.350500  0.948437  1
  Er  Er6  1  0.346182  0.955521  0.349630  1
  Er  Er7  1  0.955525  0.346186  0.348690  1
  Er  Er8  1  0.815056  0.187020  0.190613  1
  Er  Er9  1  0.187019  0.815056  0.807310  1
  Er  Er10  1  0.187322  0.814402  0.190983  1
  Er  Er11  1  0.814401  0.187326  0.807276  1
  Er  Er12  1  0.188053  0.188062  0.811936  1
  Er  Er13  1  0.808345  0.808343  0.191647  1
  Er  Er14  1  0.940547  0.553334  0.565169  1
  Er  Er15  1  0.553312  0.940552  0.940968  1
  Cd  Cd16  1  0.580050  0.579452  0.581091  1
  Cd  Cd17  1  0.579457  0.580045  0.259404  1
  Cd  Cd18  1  0.580781  0.255666  0.582035  1
  Cd  Cd19  1  0.255674  0.580773  0.581520  1
  Os  Os20  1  0.146604  0.143577  0.136041  1
  Os  Os21  1  0.143586  0.146591  0.573782  1
  Pt  Pt22  1  0.144078  0.575244  0.140684  1
  Pt  Pt23  1  0.575241  0.144077  0.139999  1
