# generated using pymatgen
data_Ac2DyPa3N8
_symmetry_space_group_name_H-M   'P 1'
_cell_length_a   7.18576037
_cell_length_b   7.18575930
_cell_length_c   7.07558842
_cell_angle_alpha   120.51145729
_cell_angle_beta   90.00898639
_cell_angle_gamma   119.99477634
_symmetry_Int_Tables_number   1
_chemical_formula_structural   Ac2DyPa3N8
_chemical_formula_sum   'Ac2 Dy1 Pa3 N8'
_cell_volume   256.32540172
_cell_formula_units_Z   1
loop_
 _symmetry_equiv_pos_site_id
 _symmetry_equiv_pos_as_xyz
  1  'x, y, z'
loop_
 _atom_site_type_symbol
 _atom_site_label
 _atom_site_symmetry_multiplicity
 _atom_site_fract_x
 _atom_site_fract_y
 _atom_site_fract_z
 _atom_site_occupancy
  Ac  Ac0  1  0.995545  0.991094  0.986638  1
  Ac  Ac1  1  0.754456  0.508906  0.263362  1
  Dy  Dy2  1  0.375000  0.750000  0.125000  1
  Pa  Pa3  1  0.375000  0.750000  0.624999  1
  Pa  Pa4  1  0.375000  0.249999  0.624999  1
  Pa  Pa5  1  0.874999  0.249999  0.625000  1
  N  N6  1  0.612979  0.226013  0.411326  1
  N  N7  1  0.185314  0.798348  0.411327  1
  N  N8  1  0.613033  0.798353  0.411385  1
  N  N9  1  0.144710  0.289475  0.434184  1
  N  N10  1  0.605289  0.210526  0.815816  1
  N  N11  1  0.136967  0.701646  0.838613  1
  N  N12  1  0.137022  0.273988  0.838674  1
  N  N13  1  0.564686  0.701651  0.838673  1
