# generated using pymatgen
data_Tb4VRe2B16W
_symmetry_space_group_name_H-M   'P 1'
_cell_length_a   3.59326100
_cell_length_b   6.00548101
_cell_length_c   11.62369746
_cell_angle_alpha   90.11205687
_cell_angle_beta   90.00000000
_cell_angle_gamma   90.00000000
_symmetry_Int_Tables_number   1
_chemical_formula_structural   Tb4VRe2B16W
_chemical_formula_sum   'Tb4 V1 Re2 B16 W1'
_cell_volume   250.83031798
_cell_formula_units_Z   1
loop_
 _symmetry_equiv_pos_site_id
 _symmetry_equiv_pos_as_xyz
  1  'x, y, z'
loop_
 _atom_site_type_symbol
 _atom_site_label
 _atom_site_symmetry_multiplicity
 _atom_site_fract_x
 _atom_site_fract_y
 _atom_site_fract_z
 _atom_site_occupancy
  Tb  Tb0  1  0.000000  0.125714  0.147742  1
  Tb  Tb1  1  0.000000  0.875466  0.851522  1
  Tb  Tb2  1  0.000000  0.627158  0.348148  1
  Tb  Tb3  1  0.000000  0.373485  0.653451  1
  V  V4  1  0.000000  0.372252  0.916988  1
  Re  Re5  1  0.000000  0.869607  0.585006  1
  Re  Re6  1  0.000000  0.626516  0.082947  1
  B  B7  1  0.500000  0.476570  0.190926  1
  B  B8  1  0.500000  0.524005  0.808306  1
  B  B9  1  0.500000  0.973524  0.306374  1
  B  B10  1  0.500000  0.024164  0.693360  1
  B  B11  1  0.500000  0.287238  0.312788  1
  B  B12  1  0.500000  0.715151  0.685748  1
  B  B13  1  0.500000  0.783955  0.183552  1
  B  B14  1  0.500000  0.215369  0.815732  1
  B  B15  1  0.500000  0.366527  0.468880  1
  B  B16  1  0.500000  0.635697  0.532977  1
  B  B17  1  0.500000  0.863680  0.031817  1
  B  B18  1  0.500000  0.135869  0.967423  1
  B  B19  1  0.500000  0.386210  0.046306  1
  B  B20  1  0.500000  0.613399  0.952910  1
  B  B21  1  0.500000  0.883835  0.453821  1
  B  B22  1  0.500000  0.113399  0.548852  1
  W  W23  1  0.000000  0.131208  0.414423  1
