# generated using pymatgen
data_SrPuCrO6
_symmetry_space_group_name_H-M   'P 1'
_cell_length_a   5.36486500
_cell_length_b   5.36488205
_cell_length_c   5.56010600
_cell_angle_alpha   90.00035243
_cell_angle_beta   89.99985048
_cell_angle_gamma   119.99882819
_symmetry_Int_Tables_number   1
_chemical_formula_structural   SrPuCrO6
_chemical_formula_sum   'Sr1 Pu1 Cr1 O6'
_cell_volume   138.59188661
_cell_formula_units_Z   1
loop_
 _symmetry_equiv_pos_site_id
 _symmetry_equiv_pos_as_xyz
  1  'x, y, z'
loop_
 _atom_site_type_symbol
 _atom_site_label
 _atom_site_symmetry_multiplicity
 _atom_site_fract_x
 _atom_site_fract_y
 _atom_site_fract_z
 _atom_site_occupancy
  Sr  Sr0  1  0.000041  0.999998  0.000020  1
  Pu  Pu1  1  0.666663  0.333362  0.500011  1
  Cr  Cr2  1  0.333167  0.666714  0.499925  1
  O  O3  1  0.368570  0.001240  0.698193  1
  O  O4  1  0.998805  0.367329  0.698186  1
  O  O5  1  0.632675  0.631383  0.698117  1
  O  O6  1  0.998787  0.631440  0.301832  1
  O  O7  1  0.632676  0.001217  0.301849  1
  O  O8  1  0.368616  0.367317  0.301865  1
