# generated using pymatgen
data_BaAc3(USe5)2
_symmetry_space_group_name_H-M   'P 1'
_cell_length_a   8.02487400
_cell_length_b   8.66065241
_cell_length_c   12.64954200
_cell_angle_alpha   90.00000000
_cell_angle_beta   90.00000000
_cell_angle_gamma   90.78864256
_symmetry_Int_Tables_number   1
_chemical_formula_structural   BaAc3(USe5)2
_chemical_formula_sum   'Ba2 Ac6 U4 Se20'
_cell_volume   879.06803908
_cell_formula_units_Z   2
loop_
 _symmetry_equiv_pos_site_id
 _symmetry_equiv_pos_as_xyz
  1  'x, y, z'
loop_
 _atom_site_type_symbol
 _atom_site_label
 _atom_site_symmetry_multiplicity
 _atom_site_fract_x
 _atom_site_fract_y
 _atom_site_fract_z
 _atom_site_occupancy
  Ba  Ba0  1  0.550545  0.503957  0.327114  1
  Ba  Ba1  1  0.949455  0.996043  0.827114  1
  Ac  Ac2  1  0.453015  0.002662  0.677440  1
  Ac  Ac3  1  0.046985  0.497338  0.177440  1
  Ac  Ac4  1  0.450893  0.497509  0.668410  1
  Ac  Ac5  1  0.049107  0.002491  0.168410  1
  Ac  Ac6  1  0.546306  0.998067  0.326997  1
  Ac  Ac7  1  0.953694  0.501933  0.826997  1
  U  U8  1  0.059200  0.754207  0.494101  1
  U  U9  1  0.440800  0.745793  0.994101  1
  U  U10  1  0.935679  0.249664  0.507244  1
  U  U11  1  0.564321  0.250336  0.007244  1
  Se  Se12  1  0.823376  0.955578  0.577527  1
  Se  Se13  1  0.676624  0.544422  0.077527  1
  Se  Se14  1  0.167030  0.465672  0.421425  1
  Se  Se15  1  0.332970  0.034328  0.921425  1
  Se  Se16  1  0.171276  0.041932  0.417676  1
  Se  Se17  1  0.328724  0.458068  0.917676  1
  Se  Se18  1  0.826090  0.541800  0.583827  1
  Se  Se19  1  0.673910  0.958200  0.083827  1
  Se  Se20  1  0.858092  0.757126  0.309349  1
  Se  Se21  1  0.641908  0.742874  0.809349  1
  Se  Se22  1  0.154055  0.254340  0.686365  1
  Se  Se23  1  0.345945  0.245660  0.186365  1
  Se  Se24  1  0.442365  0.759189  0.498276  1
  Se  Se25  1  0.057635  0.740811  0.998276  1
  Se  Se26  1  0.556142  0.242739  0.506431  1
  Se  Se27  1  0.943858  0.257261  0.006431  1
  Se  Se28  1  0.174029  0.744668  0.707386  1
  Se  Se29  1  0.325971  0.755332  0.207386  1
  Se  Se30  1  0.831624  0.242230  0.290431  1
  Se  Se31  1  0.668376  0.257770  0.790431  1
