# generated using pymatgen
data_Tb8HfZr10Si16Mo
_symmetry_space_group_name_H-M   'P 1'
_cell_length_a   7.31446675
_cell_length_b   7.31408991
_cell_length_c   13.43859957
_cell_angle_alpha   89.97046092
_cell_angle_beta   89.97798311
_cell_angle_gamma   90.02123541
_symmetry_Int_Tables_number   1
_chemical_formula_structural   Tb8HfZr10Si16Mo
_chemical_formula_sum   'Tb8 Hf1 Zr10 Si16 Mo1'
_cell_volume   718.94697094
_cell_formula_units_Z   1
loop_
 _symmetry_equiv_pos_site_id
 _symmetry_equiv_pos_as_xyz
  1  'x, y, z'
loop_
 _atom_site_type_symbol
 _atom_site_label
 _atom_site_symmetry_multiplicity
 _atom_site_fract_x
 _atom_site_fract_y
 _atom_site_fract_z
 _atom_site_occupancy
  Tb  Tb0  1  0.998816  0.343778  0.211271  1
  Tb  Tb1  1  0.004173  0.655230  0.716127  1
  Tb  Tb2  1  0.155044  0.495810  0.464136  1
  Tb  Tb3  1  0.501389  0.847337  0.035023  1
  Tb  Tb4  1  0.847307  0.501044  0.965238  1
  Tb  Tb5  1  0.495642  0.155195  0.535684  1
  Tb  Tb6  1  0.344326  0.998621  0.788941  1
  Tb  Tb7  1  0.655301  0.004463  0.283592  1
  Hf  Hf8  1  0.005732  0.854672  0.122232  1
  Zr  Zr9  1  0.825009  0.824942  0.499813  1
  Zr  Zr10  1  0.324188  0.675496  0.248277  1
  Zr  Zr11  1  0.675200  0.323979  0.751555  1
  Zr  Zr12  1  0.146240  0.996956  0.373034  1
  Zr  Zr13  1  0.854110  0.004825  0.878099  1
  Zr  Zr14  1  0.503877  0.647088  0.625201  1
  Zr  Zr15  1  0.350354  0.493747  0.877129  1
  Zr  Zr16  1  0.493721  0.350750  0.123240  1
  Zr  Zr17  1  0.647346  0.504217  0.374457  1
  Zr  Zr18  1  0.997094  0.146540  0.626665  1
  Si  Si19  1  0.361304  0.294230  0.315449  1
  Si  Si20  1  0.638451  0.705753  0.817514  1
  Si  Si21  1  0.206007  0.861506  0.566285  1
  Si  Si22  1  0.138532  0.797157  0.934375  1
  Si  Si23  1  0.797518  0.137702  0.066833  1
  Si  Si24  1  0.861474  0.206305  0.433434  1
  Si  Si25  1  0.294244  0.361180  0.684690  1
  Si  Si26  1  0.707158  0.639078  0.181964  1
  Si  Si27  1  0.292898  0.052929  0.182102  1
  Si  Si28  1  0.703978  0.949685  0.687665  1
  Si  Si29  1  0.448461  0.795869  0.436098  1
  Si  Si30  1  0.203364  0.548286  0.063081  1
  Si  Si31  1  0.546849  0.203745  0.937423  1
  Si  Si32  1  0.795871  0.448533  0.563702  1
  Si  Si33  1  0.053411  0.293586  0.817647  1
  Si  Si34  1  0.950031  0.704436  0.311650  1
  Mo  Mo35  1  0.175582  0.175332  0.000377  1
