# generated using pymatgen
data_Na2SrTb(Al3Pd)6
_symmetry_space_group_name_H-M   'P 1'
_cell_length_a   7.70711100
_cell_length_b   7.70321405
_cell_length_c   9.61892900
_cell_angle_alpha   90.00000000
_cell_angle_beta   90.00000000
_cell_angle_gamma   119.46401918
_symmetry_Int_Tables_number   1
_chemical_formula_structural   Na2SrTb(Al3Pd)6
_chemical_formula_sum   'Na2 Sr1 Tb1 Al18 Pd6'
_cell_volume   497.21161442
_cell_formula_units_Z   1
loop_
 _symmetry_equiv_pos_site_id
 _symmetry_equiv_pos_as_xyz
  1  'x, y, z'
loop_
 _atom_site_type_symbol
 _atom_site_label
 _atom_site_symmetry_multiplicity
 _atom_site_fract_x
 _atom_site_fract_y
 _atom_site_fract_z
 _atom_site_occupancy
  Na  Na0  1  0.990037  0.673011  0.250000  1
  Na  Na1  1  0.673544  0.991714  0.250000  1
  Sr  Sr2  1  0.003388  0.332152  0.750000  1
  Tb  Tb3  1  0.331435  0.000194  0.750000  1
  Al  Al4  1  0.130812  0.130490  0.250000  1
  Al  Al5  1  0.871232  0.863814  0.750000  1
  Al  Al6  1  0.996825  0.335459  0.084478  1
  Al  Al7  1  0.998337  0.667743  0.936484  1
  Al  Al8  1  0.998337  0.667743  0.563516  1
  Al  Al9  1  0.335193  0.996358  0.416689  1
  Al  Al10  1  0.996825  0.335459  0.415522  1
  Al  Al11  1  0.664407  0.996729  0.564073  1
  Al  Al12  1  0.664407  0.996729  0.935927  1
  Al  Al13  1  0.335193  0.996358  0.083311  1
  Al  Al14  1  0.334200  0.331918  0.543385  1
  Al  Al15  1  0.667397  0.667531  0.443841  1
  Al  Al16  1  0.667397  0.667531  0.056159  1
  Al  Al17  1  0.334200  0.331918  0.956615  1
  Al  Al18  1  0.341791  0.551040  0.250000  1
  Al  Al19  1  0.654354  0.456099  0.750000  1
  Al  Al20  1  0.547891  0.341434  0.250000  1
  Al  Al21  1  0.465405  0.671922  0.750000  1
  Pd  Pd22  1  0.667437  0.327048  0.999348  1
  Pd  Pd23  1  0.328254  0.669399  0.999035  1
  Pd  Pd24  1  0.328254  0.669399  0.500965  1
  Pd  Pd25  1  0.667437  0.327048  0.500652  1
  Pd  Pd26  1  0.003006  0.001879  0.999561  1
  Pd  Pd27  1  0.003006  0.001879  0.500439  1
