# generated using pymatgen
data_Ba4LuIn(CoO5)2
_symmetry_space_group_name_H-M   'P 1'
_cell_length_a   6.05157000
_cell_length_b   7.92919636
_cell_length_c   12.34338111
_cell_angle_alpha   91.55333531
_cell_angle_beta   90.00000000
_cell_angle_gamma   90.00000000
_symmetry_Int_Tables_number   1
_chemical_formula_structural   Ba4LuIn(CoO5)2
_chemical_formula_sum   'Ba8 Lu2 In2 Co4 O20'
_cell_volume   592.06822030
_cell_formula_units_Z   2
loop_
 _symmetry_equiv_pos_site_id
 _symmetry_equiv_pos_as_xyz
  1  'x, y, z'
loop_
 _atom_site_type_symbol
 _atom_site_label
 _atom_site_symmetry_multiplicity
 _atom_site_fract_x
 _atom_site_fract_y
 _atom_site_fract_z
 _atom_site_occupancy
  Ba  Ba0  1  0.759017  0.495009  0.362898  1
  Ba  Ba1  1  0.740983  0.995009  0.862898  1
  Ba  Ba2  1  0.243247  0.505847  0.638552  1
  Ba  Ba3  1  0.256753  0.005847  0.138552  1
  Ba  Ba4  1  0.756473  0.992267  0.382698  1
  Ba  Ba5  1  0.743527  0.492267  0.882698  1
  Ba  Ba6  1  0.245475  0.006605  0.616428  1
  Ba  Ba7  1  0.254525  0.506605  0.116428  1
  Lu  Lu8  1  0.748299  0.260681  0.630545  1
  Lu  Lu9  1  0.751701  0.760681  0.130545  1
  In  In10  1  0.252907  0.737833  0.370034  1
  In  In11  1  0.247093  0.237833  0.870034  1
  Co  Co12  1  0.741850  0.746536  0.590711  1
  Co  Co13  1  0.758150  0.246536  0.090711  1
  Co  Co14  1  0.257741  0.254703  0.409266  1
  Co  Co15  1  0.242259  0.754703  0.909266  1
  O  O16  1  0.754150  0.972268  0.631641  1
  O  O17  1  0.745850  0.472268  0.131641  1
  O  O18  1  0.244332  0.032104  0.364114  1
  O  O19  1  0.255668  0.532104  0.864114  1
  O  O20  1  0.741908  0.049607  0.164175  1
  O  O21  1  0.758092  0.549607  0.664175  1
  O  O22  1  0.260082  0.945281  0.830037  1
  O  O23  1  0.239918  0.445281  0.330037  1
  O  O24  1  0.531185  0.747492  0.266446  1
  O  O25  1  0.968815  0.247492  0.766446  1
  O  O26  1  0.472503  0.251972  0.737799  1
  O  O27  1  0.027497  0.751972  0.237799  1
  O  O28  1  0.520949  0.231891  0.986508  1
  O  O29  1  0.979051  0.731891  0.486508  1
  O  O30  1  0.476979  0.768539  0.014183  1
  O  O31  1  0.023021  0.268539  0.514183  1
  O  O32  1  0.032824  0.234943  0.014033  1
  O  O33  1  0.467176  0.734943  0.514033  1
  O  O34  1  0.973063  0.766421  0.989932  1
  O  O35  1  0.526937  0.266421  0.489932  1
