# generated using pymatgen
data_EuDy3Ho(ReO6)2
_symmetry_space_group_name_H-M   'P 1'
_cell_length_a   6.93700496
_cell_length_b   6.93700546
_cell_length_c   7.67959476
_cell_angle_alpha   73.48155966
_cell_angle_beta   73.48156131
_cell_angle_gamma   48.88110273
_symmetry_Int_Tables_number   1
_chemical_formula_structural   EuDy3Ho(ReO6)2
_chemical_formula_sum   'Eu1 Dy3 Ho1 Re2 O12'
_cell_volume   264.47934907
_cell_formula_units_Z   1
loop_
 _symmetry_equiv_pos_site_id
 _symmetry_equiv_pos_as_xyz
  1  'x, y, z'
loop_
 _atom_site_type_symbol
 _atom_site_label
 _atom_site_symmetry_multiplicity
 _atom_site_fract_x
 _atom_site_fract_y
 _atom_site_fract_z
 _atom_site_occupancy
  Eu  Eu0  1  0.316696  0.316696  0.822683  1
  Dy  Dy1  1  0.684306  0.684306  0.180312  1
  Dy  Dy2  1  0.696658  0.696658  0.636200  1
  Dy  Dy3  1  0.302980  0.302980  0.359391  1
  Ho  Ho4  1  0.997518  0.997518  0.498210  1
  Re  Re5  1  0.215027  0.786121  0.000360  1
  Re  Re6  1  0.786121  0.215027  0.000360  1
  O  O7  1  0.498768  0.498768  0.175640  1
  O  O8  1  0.504937  0.504937  0.827802  1
  O  O9  1  0.004377  0.004377  0.202831  1
  O  O10  1  0.998249  0.998249  0.795465  1
  O  O11  1  0.905800  0.415812  0.921053  1
  O  O12  1  0.593984  0.083300  0.092299  1
  O  O13  1  0.083300  0.593984  0.092299  1
  O  O14  1  0.600317  0.090716  0.561767  1
  O  O15  1  0.900285  0.404149  0.425253  1
  O  O16  1  0.404149  0.900285  0.425253  1
  O  O17  1  0.090716  0.600317  0.561767  1
  O  O18  1  0.415812  0.905800  0.921053  1
