# generated using pymatgen
data_Tb3Tm13(HgRh)4
_symmetry_space_group_name_H-M   'P 1'
_cell_length_a   9.50112533
_cell_length_b   9.48349220
_cell_length_c   9.49638044
_cell_angle_alpha   59.85035336
_cell_angle_beta   59.82591984
_cell_angle_gamma   59.80582464
_symmetry_Int_Tables_number   1
_chemical_formula_structural   Tb3Tm13(HgRh)4
_chemical_formula_sum   'Tb3 Tm13 Hg4 Rh4'
_cell_volume   602.67237521
_cell_formula_units_Z   1
loop_
 _symmetry_equiv_pos_site_id
 _symmetry_equiv_pos_as_xyz
  1  'x, y, z'
loop_
 _atom_site_type_symbol
 _atom_site_label
 _atom_site_symmetry_multiplicity
 _atom_site_fract_x
 _atom_site_fract_y
 _atom_site_fract_z
 _atom_site_occupancy
  Tb  Tb0  1  0.062621  0.062570  0.437894  1
  Tb  Tb1  1  0.437135  0.062688  0.435946  1
  Tb  Tb2  1  0.063526  0.437937  0.062504  1
  Tm  Tm3  1  0.054801  0.647095  0.647556  1
  Tm  Tm4  1  0.437482  0.437598  0.061416  1
  Tm  Tm5  1  0.647198  0.054243  0.648301  1
  Tm  Tm6  1  0.188509  0.812388  0.187887  1
  Tm  Tm7  1  0.188225  0.188125  0.812839  1
  Tm  Tm8  1  0.811769  0.811904  0.189284  1
  Tm  Tm9  1  0.438860  0.062537  0.061494  1
  Tm  Tm10  1  0.812212  0.188257  0.187852  1
  Tm  Tm11  1  0.061649  0.438633  0.437564  1
  Tm  Tm12  1  0.811278  0.189414  0.812334  1
  Tm  Tm13  1  0.189411  0.811540  0.812484  1
  Tm  Tm14  1  0.646979  0.647551  0.054747  1
  Tm  Tm15  1  0.649042  0.648741  0.649295  1
  Hg  Hg16  1  0.414789  0.417295  0.415147  1
  Hg  Hg17  1  0.753603  0.416159  0.416399  1
  Hg  Hg18  1  0.416379  0.753495  0.414610  1
  Hg  Hg19  1  0.416362  0.414430  0.755260  1
  Rh  Rh20  1  0.856719  0.855320  0.429363  1
  Rh  Rh21  1  0.856042  0.857089  0.857003  1
  Rh  Rh22  1  0.429729  0.855362  0.856909  1
  Rh  Rh23  1  0.855681  0.429629  0.855915  1
