# generated using pymatgen
data_La5Pr7Os2I17
_symmetry_space_group_name_H-M   'P 1'
_cell_length_a   10.22056951
_cell_length_b   12.20617082
_cell_length_c   12.24040480
_cell_angle_alpha   92.92157737
_cell_angle_beta   105.27551339
_cell_angle_gamma   114.34510403
_symmetry_Int_Tables_number   1
_chemical_formula_structural   La5Pr7Os2I17
_chemical_formula_sum   'La5 Pr7 Os2 I17'
_cell_volume   1319.79381343
_cell_formula_units_Z   1
loop_
 _symmetry_equiv_pos_site_id
 _symmetry_equiv_pos_as_xyz
  1  'x, y, z'
loop_
 _atom_site_type_symbol
 _atom_site_label
 _atom_site_symmetry_multiplicity
 _atom_site_fract_x
 _atom_site_fract_y
 _atom_site_fract_z
 _atom_site_occupancy
  La  La0  1  0.059653  0.513490  0.323037  1
  La  La1  1  0.991405  0.808184  0.587122  1
  La  La2  1  0.643341  0.240066  0.284351  1
  La  La3  1  0.013101  0.188510  0.420924  1
  La  La4  1  0.220678  0.671275  0.984202  1
  Pr  Pr5  1  0.262530  0.991500  0.894668  1
  Pr  Pr6  1  0.360844  0.760962  0.714690  1
  Pr  Pr7  1  0.939270  0.484319  0.676316  1
  Pr  Pr8  1  0.742034  0.014075  0.108041  1
  Pr  Pr9  1  0.148561  0.285791  0.149567  1
  Pr  Pr10  1  0.774555  0.329637  0.008473  1
  Pr  Pr11  1  0.843816  0.711905  0.850553  1
  Os  Os12  1  0.104721  0.738725  0.785866  1
  Os  Os13  1  0.895660  0.262690  0.216244  1
  I  I14  1  0.786744  0.528235  0.420073  1
  I  I15  1  0.641880  0.420318  0.757796  1
  I  I16  1  0.842335  0.893051  0.324725  1
  I  I17  1  0.326317  0.212889  0.367984  1
  I  I18  1  0.158931  0.105743  0.677546  1
  I  I19  1  0.585392  0.052543  0.844024  1
  I  I20  1  0.756361  0.183387  0.540363  1
  I  I21  1  0.549721  0.708721  0.952474  1
  I  I22  1  0.357920  0.578210  0.238144  1
  I  I23  1  0.215031  0.472672  0.584668  1
  I  I24  1  0.051749  0.366990  0.896298  1
  I  I25  1  0.450627  0.293631  0.043788  1
  I  I26  1  0.000121  0.000083  0.999726  1
  I  I27  1  0.246741  0.816895  0.463527  1
  I  I28  1  0.414280  0.947048  0.153487  1
  I  I29  1  0.674129  0.787699  0.631902  1
  I  I30  1  0.941554  0.630758  0.099420  1
