# generated using pymatgen
data_ErTm7Sc12Si15Bi
_symmetry_space_group_name_H-M   'P 1'
_cell_length_a   7.13054495
_cell_length_b   7.36352334
_cell_length_c   13.96268090
_cell_angle_alpha   90.06431816
_cell_angle_beta   88.59140235
_cell_angle_gamma   90.16460985
_symmetry_Int_Tables_number   1
_chemical_formula_structural   ErTm7Sc12Si15Bi
_chemical_formula_sum   'Er1 Tm7 Sc12 Si15 Bi1'
_cell_volume   732.89863291
_cell_formula_units_Z   1
loop_
 _symmetry_equiv_pos_site_id
 _symmetry_equiv_pos_as_xyz
  1  'x, y, z'
loop_
 _atom_site_type_symbol
 _atom_site_label
 _atom_site_symmetry_multiplicity
 _atom_site_fract_x
 _atom_site_fract_y
 _atom_site_fract_z
 _atom_site_occupancy
  Er  Er0  1  0.012153  0.177505  0.095976  1
  Tm  Tm1  1  0.987784  0.823582  0.904204  1
  Tm  Tm2  1  0.489008  0.676490  0.904153  1
  Tm  Tm3  1  0.993326  0.831341  0.598271  1
  Tm  Tm4  1  0.511486  0.323561  0.097191  1
  Tm  Tm5  1  0.998427  0.170414  0.399101  1
  Tm  Tm6  1  0.511563  0.315744  0.397641  1
  Tm  Tm7  1  0.513321  0.687763  0.601173  1
  Sc  Sc8  1  0.165006  0.501188  0.755996  1
  Sc  Sc9  1  0.833907  0.498258  0.251622  1
  Sc  Sc10  1  0.334081  0.002415  0.250322  1
  Sc  Sc11  1  0.667883  0.998176  0.751156  1
  Sc  Sc12  1  0.350029  0.155446  0.631716  1
  Sc  Sc13  1  0.657506  0.827439  0.372664  1
  Sc  Sc14  1  0.153138  0.683278  0.368983  1
  Sc  Sc15  1  0.666899  0.822393  0.123835  1
  Sc  Sc16  1  0.827872  0.326594  0.625906  1
  Sc  Sc17  1  0.331088  0.175801  0.875538  1
  Sc  Sc18  1  0.831424  0.323654  0.875687  1
  Sc  Sc19  1  0.168358  0.676471  0.124796  1
  Si  Si20  1  0.037175  0.117343  0.751387  1
  Si  Si21  1  0.960328  0.886573  0.245929  1
  Si  Si22  1  0.460773  0.614539  0.247662  1
  Si  Si23  1  0.536045  0.386506  0.752875  1
  Si  Si24  1  0.289595  0.865440  0.753231  1
  Si  Si25  1  0.710241  0.128297  0.246369  1
  Si  Si26  1  0.209403  0.371324  0.248994  1
  Si  Si27  1  0.793676  0.630722  0.751866  1
  Si  Si28  1  0.810117  0.540361  0.456978  1
  Si  Si29  1  0.326643  0.963769  0.459845  1
  Si  Si30  1  0.842191  0.534179  0.039763  1
  Si  Si31  1  0.674570  0.038654  0.538535  1
  Si  Si32  1  0.156739  0.466291  0.961243  1
  Si  Si33  1  0.656501  0.034089  0.960268  1
  Si  Si34  1  0.342643  0.966367  0.040193  1
  Bi  Bi35  1  0.189095  0.458034  0.538929  1
