# generated using pymatgen
data_KMn2P3O11
_symmetry_space_group_name_H-M   'P 1'
_cell_length_a   7.50277456
_cell_length_b   7.50277415
_cell_length_c   8.84810876
_cell_angle_alpha   72.52190866
_cell_angle_beta   72.52190690
_cell_angle_gamma   68.88242638
_symmetry_Int_Tables_number   1
_chemical_formula_structural   KMn2P3O11
_chemical_formula_sum   'K2 Mn4 P6 O22'
_cell_volume   432.71892429
_cell_formula_units_Z   2
loop_
 _symmetry_equiv_pos_site_id
 _symmetry_equiv_pos_as_xyz
  1  'x, y, z'
loop_
 _atom_site_type_symbol
 _atom_site_label
 _atom_site_symmetry_multiplicity
 _atom_site_fract_x
 _atom_site_fract_y
 _atom_site_fract_z
 _atom_site_occupancy
  K  K0  1  0.007207  0.491255  0.748321  1
  K  K1  1  0.508745  0.992793  0.251679  1
  Mn  Mn2  1  0.128417  0.640303  0.283116  1
  Mn  Mn3  1  0.873582  0.359450  0.216588  1
  Mn  Mn4  1  0.359697  0.871583  0.716884  1
  Mn  Mn5  1  0.640550  0.126418  0.783412  1
  P  P6  1  0.334848  0.450831  0.969470  1
  P  P7  1  0.452528  0.333578  0.468871  1
  P  P8  1  0.666422  0.547472  0.531129  1
  P  P9  1  0.549169  0.665152  0.030530  1
  P  P10  1  0.034211  0.965789  0.500000  1
  P  P11  1  0.966504  0.033496  0.000000  1
  O  O12  1  0.137344  0.016408  0.851394  1
  O  O13  1  0.388564  0.727859  0.172925  1
  O  O14  1  0.401639  0.243034  0.939232  1
  O  O15  1  0.613496  0.270719  0.326853  1
  O  O16  1  0.599055  0.755155  0.561663  1
  O  O17  1  0.272141  0.611436  0.827075  1
  O  O18  1  0.177510  0.463722  0.130220  1
  O  O19  1  0.983592  0.862656  0.148606  1
  O  O20  1  0.228454  0.948707  0.541040  1
  O  O21  1  0.051293  0.771546  0.458960  1
  O  O22  1  0.823284  0.535943  0.369934  1
  O  O23  1  0.729281  0.386504  0.673147  1
  O  O24  1  0.863374  0.983271  0.648554  1
  O  O25  1  0.475247  0.524753  0.500000  1
  O  O26  1  0.536278  0.822490  0.869780  1
  O  O27  1  0.756966  0.598361  0.060768  1
  O  O28  1  0.526186  0.473814  0.000000  1
  O  O29  1  0.772458  0.050703  0.958777  1
  O  O30  1  0.244845  0.400945  0.438337  1
  O  O31  1  0.949297  0.227542  0.041223  1
  O  O32  1  0.016729  0.136626  0.351446  1
  O  O33  1  0.464057  0.176716  0.630066  1
