# generated using pymatgen
data_Ta3Ti5Re2(Si3C)2
_symmetry_space_group_name_H-M   'P 1'
_cell_length_a   7.43185434
_cell_length_b   7.42708743
_cell_length_c   5.18085771
_cell_angle_alpha   90.01204218
_cell_angle_beta   90.04491877
_cell_angle_gamma   120.09791724
_symmetry_Int_Tables_number   1
_chemical_formula_structural   Ta3Ti5Re2(Si3C)2
_chemical_formula_sum   'Ta3 Ti5 Re2 Si6 C2'
_cell_volume   247.41067150
_cell_formula_units_Z   1
loop_
 _symmetry_equiv_pos_site_id
 _symmetry_equiv_pos_as_xyz
  1  'x, y, z'
loop_
 _atom_site_type_symbol
 _atom_site_label
 _atom_site_symmetry_multiplicity
 _atom_site_fract_x
 _atom_site_fract_y
 _atom_site_fract_z
 _atom_site_occupancy
  Ta  Ta0  1  0.234355  0.999488  0.254194  1
  Ta  Ta1  1  0.765789  0.999034  0.746474  1
  Ta  Ta2  1  0.000335  0.236906  0.253749  1
  Ti  Ti3  1  0.666453  0.332465  0.500686  1
  Ti  Ti4  1  0.333263  0.666564  0.500762  1
  Ti  Ti5  1  0.999710  0.766509  0.746332  1
  Ti  Ti6  1  0.764610  0.763959  0.253963  1
  Ti  Ti7  1  0.235729  0.235255  0.746643  1
  Re  Re8  1  0.333448  0.666586  0.999142  1
  Re  Re9  1  0.666551  0.332968  0.999076  1
  Si  Si10  1  0.590450  0.997404  0.241604  1
  Si  Si11  1  0.406536  0.999528  0.757802  1
  Si  Si12  1  0.997687  0.591797  0.241512  1
  Si  Si13  1  0.001832  0.413249  0.759383  1
  Si  Si14  1  0.412793  0.412445  0.239848  1
  Si  Si15  1  0.590143  0.587833  0.759311  1
  C  C16  1  0.000133  0.998646  0.999129  1
  C  C17  1  0.000186  0.999367  0.500390  1
