# generated using pymatgen
data_K3Lu(IO3)6
_symmetry_space_group_name_H-M   'P 1'
_cell_length_a   7.11506101
_cell_length_b   7.12209471
_cell_length_c   10.81248991
_cell_angle_alpha   87.54439037
_cell_angle_beta   107.73982717
_cell_angle_gamma   107.64360888
_symmetry_Int_Tables_number   1
_chemical_formula_structural   K3Lu(IO3)6
_chemical_formula_sum   'K3 Lu1 I6 O18'
_cell_volume   496.57179094
_cell_formula_units_Z   1
loop_
 _symmetry_equiv_pos_site_id
 _symmetry_equiv_pos_as_xyz
  1  'x, y, z'
loop_
 _atom_site_type_symbol
 _atom_site_label
 _atom_site_symmetry_multiplicity
 _atom_site_fract_x
 _atom_site_fract_y
 _atom_site_fract_z
 _atom_site_occupancy
  K  K0  1  0.000000  0.000000  0.000000  1
  K  K1  1  0.825789  0.028626  0.602422  1
  K  K2  1  0.174211  0.971374  0.397578  1
  Lu  Lu3  1  0.500000  0.500000  0.000000  1
  I  I4  1  0.038242  0.475855  0.190542  1
  I  I5  1  0.961758  0.524145  0.809458  1
  I  I6  1  0.562218  0.966564  0.194064  1
  I  I7  1  0.437782  0.033436  0.805936  1
  I  I8  1  0.406704  0.551092  0.631290  1
  I  I9  1  0.593296  0.448908  0.368710  1
  O  O10  1  0.837049  0.541198  0.052583  1
  O  O11  1  0.162951  0.458802  0.947417  1
  O  O12  1  0.961625  0.550309  0.322754  1
  O  O13  1  0.038375  0.449691  0.677246  1
  O  O14  1  0.929413  0.205739  0.182183  1
  O  O15  1  0.070587  0.794261  0.817817  1
  O  O16  1  0.571913  0.817239  0.059039  1
  O  O17  1  0.428087  0.182761  0.940961  1
  O  O18  1  0.289967  0.857465  0.187958  1
  O  O19  1  0.710033  0.142535  0.812042  1
  O  O20  1  0.695451  0.846509  0.331082  1
  O  O21  1  0.304549  0.153491  0.668918  1
  O  O22  1  0.517467  0.596562  0.810510  1
  O  O23  1  0.482533  0.403438  0.189490  1
  O  O24  1  0.662986  0.571991  0.611355  1
  O  O25  1  0.337014  0.428009  0.388645  1
  O  O26  1  0.405673  0.804161  0.596512  1
  O  O27  1  0.594327  0.195839  0.403488  1
