# generated using pymatgen
data_CaLu2AsS2
_symmetry_space_group_name_H-M   'P 1'
_cell_length_a   3.92342100
_cell_length_b   3.92342189
_cell_length_c   9.67299800
_cell_angle_alpha   90.00000000
_cell_angle_beta   90.00000000
_cell_angle_gamma   120.00000089
_symmetry_Int_Tables_number   1
_chemical_formula_structural   CaLu2AsS2
_chemical_formula_sum   'Ca1 Lu2 As1 S2'
_cell_volume   128.95008995
_cell_formula_units_Z   1
loop_
 _symmetry_equiv_pos_site_id
 _symmetry_equiv_pos_as_xyz
  1  'x, y, z'
loop_
 _atom_site_type_symbol
 _atom_site_label
 _atom_site_symmetry_multiplicity
 _atom_site_fract_x
 _atom_site_fract_y
 _atom_site_fract_z
 _atom_site_occupancy
  Ca  Ca0  1  0.000000  0.000000  0.000000  1
  Lu  Lu1  1  0.333333  0.666667  0.664445  1
  Lu  Lu2  1  0.666667  0.333333  0.335555  1
  As  As3  1  0.000000  0.000000  0.500000  1
  S  S4  1  0.333333  0.666667  0.172855  1
  S  S5  1  0.666667  0.333333  0.827145  1
