# generated using pymatgen
data_Dy2ErU5(ReB6)4
_symmetry_space_group_name_H-M   'P 1'
_cell_length_a   3.63672700
_cell_length_b   9.29931842
_cell_length_c   11.40671415
_cell_angle_alpha   89.95900235
_cell_angle_beta   90.00000000
_cell_angle_gamma   90.00000000
_symmetry_Int_Tables_number   1
_chemical_formula_structural   Dy2ErU5(ReB6)4
_chemical_formula_sum   'Dy2 Er1 U5 Re4 B24'
_cell_volume   385.76450670
_cell_formula_units_Z   1
loop_
 _symmetry_equiv_pos_site_id
 _symmetry_equiv_pos_as_xyz
  1  'x, y, z'
loop_
 _atom_site_type_symbol
 _atom_site_label
 _atom_site_symmetry_multiplicity
 _atom_site_fract_x
 _atom_site_fract_y
 _atom_site_fract_z
 _atom_site_occupancy
  Dy  Dy0  1  0.000000  0.663238  0.591849  1
  Dy  Dy1  1  0.000000  0.835608  0.093014  1
  Er  Er2  1  0.000000  0.336824  0.407700  1
  U  U3  1  0.000000  0.163370  0.907221  1
  U  U4  1  0.000000  0.956473  0.396922  1
  U  U5  1  0.000000  0.042857  0.603260  1
  U  U6  1  0.000000  0.457714  0.103989  1
  U  U7  1  0.000000  0.543631  0.896997  1
  Re  Re8  1  0.000000  0.645222  0.319027  1
  Re  Re9  1  0.000000  0.352304  0.683440  1
  Re  Re10  1  0.000000  0.146313  0.178268  1
  Re  Re11  1  0.000000  0.857246  0.819502  1
  B  B12  1  0.500000  0.551068  0.431383  1
  B  B13  1  0.500000  0.447581  0.569364  1
  B  B14  1  0.500000  0.052517  0.067587  1
  B  B15  1  0.500000  0.950199  0.930511  1
  B  B16  1  0.500000  0.742890  0.423244  1
  B  B17  1  0.500000  0.257116  0.576468  1
  B  B18  1  0.500000  0.242907  0.075895  1
  B  B19  1  0.500000  0.756528  0.922765  1
  B  B20  1  0.500000  0.802271  0.275101  1
  B  B21  1  0.500000  0.196449  0.726370  1
  B  B22  1  0.500000  0.302569  0.225208  1
  B  B23  1  0.500000  0.697905  0.774773  1
  B  B24  1  0.500000  0.643884  0.188745  1
  B  B25  1  0.500000  0.354766  0.812118  1
  B  B26  1  0.500000  0.144614  0.311130  1
  B  B27  1  0.500000  0.855228  0.688315  1
  B  B28  1  0.500000  0.989313  0.219497  1
  B  B29  1  0.500000  0.013102  0.781054  1
  B  B30  1  0.500000  0.488236  0.281032  1
  B  B31  1  0.500000  0.511228  0.719520  1
  B  B32  1  0.500000  0.640768  0.038747  1
  B  B33  1  0.500000  0.357323  0.960468  1
  B  B34  1  0.500000  0.140809  0.460667  1
  B  B35  1  0.500000  0.859929  0.538851  1
