# generated using pymatgen
data_TbSm7(Si4Mo3)4
_symmetry_space_group_name_H-M   'P 1'
_cell_length_a   6.86404123
_cell_length_b   7.02789756
_cell_length_c   13.03367341
_cell_angle_alpha   89.94430794
_cell_angle_beta   89.99148352
_cell_angle_gamma   89.92147995
_symmetry_Int_Tables_number   1
_chemical_formula_structural   TbSm7(Si4Mo3)4
_chemical_formula_sum   'Tb1 Sm7 Si16 Mo12'
_cell_volume   628.74062561
_cell_formula_units_Z   1
loop_
 _symmetry_equiv_pos_site_id
 _symmetry_equiv_pos_as_xyz
  1  'x, y, z'
loop_
 _atom_site_type_symbol
 _atom_site_label
 _atom_site_symmetry_multiplicity
 _atom_site_fract_x
 _atom_site_fract_y
 _atom_site_fract_z
 _atom_site_occupancy
  Tb  Tb0  1  0.996871  0.166128  0.094593  1
  Sm  Sm1  1  0.497181  0.334644  0.094167  1
  Sm  Sm2  1  0.997519  0.165227  0.405931  1
  Sm  Sm3  1  0.502950  0.665251  0.594275  1
  Sm  Sm4  1  0.002019  0.834186  0.906336  1
  Sm  Sm5  1  0.502468  0.665808  0.906403  1
  Sm  Sm6  1  0.002384  0.834678  0.594277  1
  Sm  Sm7  1  0.497096  0.334646  0.405032  1
  Si  Si8  1  0.655802  0.045267  0.548722  1
  Si  Si9  1  0.156189  0.454401  0.952183  1
  Si  Si10  1  0.341752  0.956576  0.048846  1
  Si  Si11  1  0.843799  0.544796  0.451067  1
  Si  Si12  1  0.344413  0.954613  0.450740  1
  Si  Si13  1  0.844282  0.542601  0.048886  1
  Si  Si14  1  0.656652  0.044894  0.952273  1
  Si  Si15  1  0.156232  0.455539  0.548607  1
  Si  Si16  1  0.535842  0.360796  0.750560  1
  Si  Si17  1  0.036117  0.138449  0.750242  1
  Si  Si18  1  0.464561  0.639775  0.249439  1
  Si  Si19  1  0.964549  0.862808  0.249035  1
  Si  Si20  1  0.805165  0.622209  0.750503  1
  Si  Si21  1  0.304922  0.876491  0.750333  1
  Si  Si22  1  0.193685  0.375888  0.249184  1
  Si  Si23  1  0.696423  0.123903  0.249166  1
  Mo  Mo24  1  0.831896  0.334494  0.626414  1
  Mo  Mo25  1  0.330529  0.164384  0.874461  1
  Mo  Mo26  1  0.168184  0.665433  0.125985  1
  Mo  Mo27  1  0.669760  0.835695  0.373273  1
  Mo  Mo28  1  0.167924  0.665431  0.373002  1
  Mo  Mo29  1  0.669696  0.836128  0.125569  1
  Mo  Mo30  1  0.832248  0.333606  0.874526  1
  Mo  Mo31  1  0.331051  0.164575  0.626220  1
  Mo  Mo32  1  0.664940  0.002923  0.750477  1
  Mo  Mo33  1  0.165145  0.496913  0.750379  1
  Mo  Mo34  1  0.334682  0.998250  0.249350  1
  Mo  Mo35  1  0.835072  0.502592  0.249550  1
