# generated using pymatgen
data_PrNd3Al18(Ir2Pt)2
_symmetry_space_group_name_H-M   'P 1'
_cell_length_a   7.64945338
_cell_length_b   7.65019897
_cell_length_c   9.60275201
_cell_angle_alpha   89.97137481
_cell_angle_beta   89.96299796
_cell_angle_gamma   119.60099060
_symmetry_Int_Tables_number   1
_chemical_formula_structural   PrNd3Al18(Ir2Pt)2
_chemical_formula_sum   'Pr1 Nd3 Al18 Ir4 Pt2'
_cell_volume   488.60887537
_cell_formula_units_Z   1
loop_
 _symmetry_equiv_pos_site_id
 _symmetry_equiv_pos_as_xyz
  1  'x, y, z'
loop_
 _atom_site_type_symbol
 _atom_site_label
 _atom_site_symmetry_multiplicity
 _atom_site_fract_x
 _atom_site_fract_y
 _atom_site_fract_z
 _atom_site_occupancy
  Pr  Pr0  1  0.995098  0.669166  0.250126  1
  Nd  Nd1  1  0.004715  0.330653  0.749814  1
  Nd  Nd2  1  0.669259  0.995192  0.250174  1
  Nd  Nd3  1  0.330623  0.004731  0.749807  1
  Al  Al4  1  0.128677  0.128958  0.250715  1
  Al  Al5  1  0.871595  0.871608  0.749274  1
  Al  Al6  1  0.002673  0.330638  0.075430  1
  Al  Al7  1  0.997349  0.669038  0.924201  1
  Al  Al8  1  0.998923  0.665457  0.572683  1
  Al  Al9  1  0.334893  0.001421  0.427744  1
  Al  Al10  1  0.001095  0.334212  0.427731  1
  Al  Al11  1  0.665455  0.998926  0.572366  1
  Al  Al12  1  0.669039  0.997360  0.924484  1
  Al  Al13  1  0.331296  0.003007  0.075407  1
  Al  Al14  1  0.333268  0.333269  0.546953  1
  Al  Al15  1  0.666411  0.666681  0.453116  1
  Al  Al16  1  0.667487  0.667773  0.053747  1
  Al  Al17  1  0.332163  0.332159  0.946208  1
  Al  Al18  1  0.340529  0.544850  0.253575  1
  Al  Al19  1  0.659839  0.455091  0.746402  1
  Al  Al20  1  0.544515  0.339951  0.253572  1
  Al  Al21  1  0.455127  0.659862  0.746399  1
  Ir  Ir22  1  0.328970  0.671043  0.500235  1
  Ir  Ir23  1  0.670944  0.328734  0.500235  1
  Ir  Ir24  1  0.000002  0.000160  0.999833  1
  Ir  Ir25  1  0.000031  0.000163  0.500140  1
  Pt  Pt26  1  0.671274  0.328534  0.999816  1
  Pt  Pt27  1  0.328752  0.671364  0.999817  1
