# generated using pymatgen
data_Ho3Tm13In6CuRe
_symmetry_space_group_name_H-M   'P 1'
_cell_length_a   10.33594100
_cell_length_b   10.33594170
_cell_length_c   6.91386200
_cell_angle_alpha   90.00000000
_cell_angle_beta   90.00000000
_cell_angle_gamma   120.00000095
_symmetry_Int_Tables_number   1
_chemical_formula_structural   Ho3Tm13In6CuRe
_chemical_formula_sum   'Ho3 Tm13 In6 Cu1 Re1'
_cell_volume   639.66325993
_cell_formula_units_Z   1
loop_
 _symmetry_equiv_pos_site_id
 _symmetry_equiv_pos_as_xyz
  1  'x, y, z'
loop_
 _atom_site_type_symbol
 _atom_site_label
 _atom_site_symmetry_multiplicity
 _atom_site_fract_x
 _atom_site_fract_y
 _atom_site_fract_z
 _atom_site_occupancy
  Ho  Ho0  1  0.524676  0.049355  0.520563  1
  Ho  Ho1  1  0.950645  0.475324  0.520563  1
  Ho  Ho2  1  0.524676  0.475324  0.520563  1
  Tm  Tm3  1  0.466867  0.933732  0.015433  1
  Tm  Tm4  1  0.066268  0.533133  0.015433  1
  Tm  Tm5  1  0.466867  0.533133  0.015433  1
  Tm  Tm6  1  0.175184  0.350368  0.724746  1
  Tm  Tm7  1  0.649632  0.824816  0.724746  1
  Tm  Tm8  1  0.175184  0.824816  0.724746  1
  Tm  Tm9  1  0.823405  0.646810  0.223078  1
  Tm  Tm10  1  0.353190  0.176595  0.223078  1
  Tm  Tm11  1  0.823405  0.176595  0.223078  1
  Tm  Tm12  1  0.666667  0.333333  0.893974  1
  Tm  Tm13  1  0.333333  0.666667  0.381452  1
  Tm  Tm14  1  0.000000  0.000000  0.496317  1
  Tm  Tm15  1  0.000000  0.000000  0.004338  1
  In  In16  1  0.834939  0.669878  0.759593  1
  In  In17  1  0.330122  0.165061  0.759593  1
  In  In18  1  0.834939  0.165061  0.759593  1
  In  In19  1  0.161236  0.322473  0.258996  1
  In  In20  1  0.677527  0.838764  0.258996  1
  In  In21  1  0.161236  0.838764  0.258996  1
  Cu  Cu22  1  0.666667  0.333333  0.293723  1
  Re  Re23  1  0.333333  0.666667  0.780973  1
