# generated using pymatgen
data_CaYb4GeBi2
_symmetry_space_group_name_H-M   'P 1'
_cell_length_a   8.10036797
_cell_length_b   9.55132600
_cell_length_c   12.89093550
_cell_angle_alpha   90.00000000
_cell_angle_beta   90.05565739
_cell_angle_gamma   90.00000000
_symmetry_Int_Tables_number   1
_chemical_formula_structural   CaYb4GeBi2
_chemical_formula_sum   'Ca4 Yb16 Ge4 Bi8'
_cell_volume   997.36160773
_cell_formula_units_Z   4
loop_
 _symmetry_equiv_pos_site_id
 _symmetry_equiv_pos_as_xyz
  1  'x, y, z'
loop_
 _atom_site_type_symbol
 _atom_site_label
 _atom_site_symmetry_multiplicity
 _atom_site_fract_x
 _atom_site_fract_y
 _atom_site_fract_z
 _atom_site_occupancy
  Ca  Ca0  1  0.829022  0.250000  0.782688  1
  Ca  Ca1  1  0.053919  0.750000  0.499544  1
  Ca  Ca2  1  0.356431  0.250000  0.695829  1
  Ca  Ca3  1  0.553664  0.250000  0.000160  1
  Yb  Yb4  1  0.827548  0.528635  0.074641  1
  Yb  Yb5  1  0.172889  0.027578  0.926494  1
  Yb  Yb6  1  0.858908  0.750000  0.804296  1
  Yb  Yb7  1  0.330319  0.750000  0.715370  1
  Yb  Yb8  1  0.327613  0.471368  0.425468  1
  Yb  Yb9  1  0.670322  0.250000  0.284156  1
  Yb  Yb10  1  0.440242  0.750000  0.001100  1
  Yb  Yb11  1  0.673471  0.528006  0.574192  1
  Yb  Yb12  1  0.941247  0.250000  0.498285  1
  Yb  Yb13  1  0.142968  0.250000  0.197084  1
  Yb  Yb14  1  0.169993  0.750000  0.215198  1
  Yb  Yb15  1  0.172889  0.472422  0.926494  1
  Yb  Yb16  1  0.827548  0.971365  0.074641  1
  Yb  Yb17  1  0.673471  0.971994  0.574192  1
  Yb  Yb18  1  0.327613  0.028632  0.425468  1
  Yb  Yb19  1  0.641878  0.750000  0.303658  1
  Ge  Ge20  1  0.441873  0.750000  0.491425  1
  Ge  Ge21  1  0.563451  0.250000  0.507888  1
  Ge  Ge22  1  0.061359  0.750000  0.991191  1
  Ge  Ge23  1  0.942598  0.250000  0.010161  1
  Bi  Bi24  1  0.059904  0.007601  0.668619  1
  Bi  Bi25  1  0.939618  0.991600  0.330898  1
  Bi  Bi26  1  0.059904  0.492399  0.668619  1
  Bi  Bi27  1  0.560495  0.991006  0.831705  1
  Bi  Bi28  1  0.439363  0.007763  0.168965  1
  Bi  Bi29  1  0.439363  0.492237  0.168965  1
  Bi  Bi30  1  0.560495  0.508994  0.831705  1
  Bi  Bi31  1  0.939618  0.508400  0.330898  1
