# generated using pymatgen
data_Eu2PaRu2
_symmetry_space_group_name_H-M   'P 1'
_cell_length_a   6.07384309
_cell_length_b   6.07384352
_cell_length_c   6.07384400
_cell_angle_alpha   138.78945475
_cell_angle_beta   120.60303924
_cell_angle_gamma   74.84798893
_symmetry_Int_Tables_number   1
_chemical_formula_structural   Eu2PaRu2
_chemical_formula_sum   'Eu2 Pa1 Ru2'
_cell_volume   124.10797848
_cell_formula_units_Z   1
loop_
 _symmetry_equiv_pos_site_id
 _symmetry_equiv_pos_as_xyz
  1  'x, y, z'
loop_
 _atom_site_type_symbol
 _atom_site_label
 _atom_site_symmetry_multiplicity
 _atom_site_fract_x
 _atom_site_fract_y
 _atom_site_fract_z
 _atom_site_occupancy
  Eu  Eu0  1  0.694855  0.194855  0.500000  1
  Eu  Eu1  1  0.305145  0.805146  0.500001  1
  Pa  Pa2  1  0.000000  0.000000  0.000000  1
  Ru  Ru3  1  0.757662  0.499999  0.257662  1
  Ru  Ru4  1  0.242337  0.500001  0.742338  1
