# generated using pymatgen
data_Ho19LuSn16
_symmetry_space_group_name_H-M   'P 1'
_cell_length_a   8.00048764
_cell_length_b   8.14490465
_cell_length_c   15.39698100
_cell_angle_alpha   90.00000000
_cell_angle_beta   90.00000000
_cell_angle_gamma   89.95429943
_symmetry_Int_Tables_number   1
_chemical_formula_structural   Ho19LuSn16
_chemical_formula_sum   'Ho19 Lu1 Sn16'
_cell_volume   1003.31637068
_cell_formula_units_Z   1
loop_
 _symmetry_equiv_pos_site_id
 _symmetry_equiv_pos_as_xyz
  1  'x, y, z'
loop_
 _atom_site_type_symbol
 _atom_site_label
 _atom_site_symmetry_multiplicity
 _atom_site_fract_x
 _atom_site_fract_y
 _atom_site_fract_z
 _atom_site_occupancy
  Ho  Ho0  1  0.367984  0.836073  0.878313  1
  Ho  Ho1  1  0.868549  0.663499  0.621699  1
  Ho  Ho2  1  0.631818  0.163724  0.378340  1
  Ho  Ho3  1  0.131822  0.336269  0.121556  1
  Ho  Ho4  1  0.631818  0.163724  0.121660  1
  Ho  Ho5  1  0.131822  0.336269  0.378444  1
  Ho  Ho6  1  0.367984  0.836073  0.621687  1
  Ho  Ho7  1  0.868549  0.663499  0.878301  1
  Ho  Ho8  1  0.520071  0.319552  0.901846  1
  Ho  Ho9  1  0.020366  0.180757  0.598131  1
  Ho  Ho10  1  0.479801  0.680626  0.401931  1
  Ho  Ho11  1  0.979750  0.819417  0.098123  1
  Ho  Ho12  1  0.479801  0.680626  0.098069  1
  Ho  Ho13  1  0.979750  0.819417  0.401877  1
  Ho  Ho14  1  0.520071  0.319552  0.598154  1
  Ho  Ho15  1  0.020366  0.180757  0.901869  1
  Ho  Ho16  1  0.698189  0.997266  0.750000  1
  Ho  Ho17  1  0.801693  0.497183  0.250000  1
  Ho  Ho18  1  0.301705  0.002868  0.250000  1
  Lu  Lu19  1  0.198612  0.502934  0.750000  1
  Sn  Sn20  1  0.291372  0.035116  0.041835  1
  Sn  Sn21  1  0.791356  0.464794  0.458165  1
  Sn  Sn22  1  0.708635  0.964889  0.541915  1
  Sn  Sn23  1  0.208610  0.535005  0.957712  1
  Sn  Sn24  1  0.708635  0.964889  0.958085  1
  Sn  Sn25  1  0.208610  0.535005  0.542288  1
  Sn  Sn26  1  0.291372  0.035116  0.458165  1
  Sn  Sn27  1  0.791356  0.464794  0.041835  1
  Sn  Sn28  1  0.564247  0.619585  0.750000  1
  Sn  Sn29  1  0.065331  0.879653  0.750000  1
  Sn  Sn30  1  0.434734  0.380118  0.250000  1
  Sn  Sn31  1  0.934927  0.119994  0.250000  1
  Sn  Sn32  1  0.327799  0.147426  0.750000  1
  Sn  Sn33  1  0.828157  0.353754  0.750000  1
  Sn  Sn34  1  0.672074  0.853455  0.250000  1
  Sn  Sn35  1  0.172261  0.646315  0.250000  1
