# generated using pymatgen
data_Y4Tm4B24Ir3Ru
_symmetry_space_group_name_H-M   'P 1'
_cell_length_a   3.63227900
_cell_length_b   9.14754307
_cell_length_c   11.49276609
_cell_angle_alpha   90.01403046
_cell_angle_beta   90.00000000
_cell_angle_gamma   90.00000000
_symmetry_Int_Tables_number   1
_chemical_formula_structural   Y4Tm4B24Ir3Ru
_chemical_formula_sum   'Y4 Tm4 B24 Ir3 Ru1'
_cell_volume   381.86356021
_cell_formula_units_Z   1
loop_
 _symmetry_equiv_pos_site_id
 _symmetry_equiv_pos_as_xyz
  1  'x, y, z'
loop_
 _atom_site_type_symbol
 _atom_site_label
 _atom_site_symmetry_multiplicity
 _atom_site_fract_x
 _atom_site_fract_y
 _atom_site_fract_z
 _atom_site_occupancy
  Y  Y0  1  0.000000  0.320200  0.413652  1
  Y  Y1  1  0.000000  0.680769  0.587526  1
  Y  Y2  1  0.000000  0.820386  0.084816  1
  Y  Y3  1  0.000000  0.177937  0.913304  1
  Tm  Tm4  1  0.000000  0.944019  0.373599  1
  Tm  Tm5  1  0.000000  0.054371  0.627343  1
  Tm  Tm6  1  0.000000  0.444028  0.126220  1
  Tm  Tm7  1  0.000000  0.557771  0.873729  1
  B  B8  1  0.500000  0.554378  0.434200  1
  B  B9  1  0.500000  0.445738  0.565918  1
  B  B10  1  0.500000  0.054090  0.066045  1
  B  B11  1  0.500000  0.945254  0.933186  1
  B  B12  1  0.500000  0.750652  0.420305  1
  B  B13  1  0.500000  0.249388  0.579838  1
  B  B14  1  0.500000  0.250296  0.079764  1
  B  B15  1  0.500000  0.750849  0.919248  1
  B  B16  1  0.500000  0.793114  0.264826  1
  B  B17  1  0.500000  0.207018  0.734581  1
  B  B18  1  0.500000  0.293469  0.235226  1
  B  B19  1  0.500000  0.707867  0.765600  1
  B  B20  1  0.500000  0.631070  0.183531  1
  B  B21  1  0.500000  0.369028  0.816402  1
  B  B22  1  0.500000  0.131568  0.316423  1
  B  B23  1  0.500000  0.868932  0.684752  1
  B  B24  1  0.500000  0.981936  0.213918  1
  B  B25  1  0.500000  0.016660  0.786043  1
  B  B26  1  0.500000  0.482048  0.285883  1
  B  B27  1  0.500000  0.517946  0.714411  1
  B  B28  1  0.500000  0.606692  0.029407  1
  B  B29  1  0.500000  0.392899  0.970937  1
  B  B30  1  0.500000  0.106864  0.470831  1
  B  B31  1  0.500000  0.893179  0.528816  1
  Ir  Ir32  1  0.000000  0.638585  0.320763  1
  Ir  Ir33  1  0.000000  0.361628  0.679518  1
  Ir  Ir34  1  0.000000  0.138041  0.179077  1
  Ru  Ru35  1  0.000000  0.861331  0.820364  1
