# generated using pymatgen
data_Zr10Bi6Sb
_symmetry_space_group_name_H-M   'P 1'
_cell_length_a   6.01472900
_cell_length_b   8.83782596
_cell_length_c   8.83817601
_cell_angle_alpha   120.00548821
_cell_angle_beta   90.00072585
_cell_angle_gamma   89.99863709
_symmetry_Int_Tables_number   1
_chemical_formula_structural   Zr10Bi6Sb
_chemical_formula_sum   'Zr10 Bi6 Sb1'
_cell_volume   406.84667094
_cell_formula_units_Z   1
loop_
 _symmetry_equiv_pos_site_id
 _symmetry_equiv_pos_as_xyz
  1  'x, y, z'
loop_
 _atom_site_type_symbol
 _atom_site_label
 _atom_site_symmetry_multiplicity
 _atom_site_fract_x
 _atom_site_fract_y
 _atom_site_fract_z
 _atom_site_occupancy
  Zr  Zr0  1  0.500001  0.333339  0.666653  1
  Zr  Zr1  1  0.499999  0.666661  0.333348  1
  Zr  Zr2  1  0.999999  0.666642  0.333359  1
  Zr  Zr3  1  0.000003  0.333356  0.666641  1
  Zr  Zr4  1  0.774725  0.263713  0.000011  1
  Zr  Zr5  1  0.774838  0.736299  0.736290  1
  Zr  Zr6  1  0.774724  0.000016  0.263701  1
  Zr  Zr7  1  0.225281  0.736289  0.999993  1
  Zr  Zr8  1  0.225157  0.263703  0.263708  1
  Zr  Zr9  1  0.225272  0.999983  0.736294  1
  Bi  Bi10  1  0.745170  0.611494  0.999971  1
  Bi  Bi11  1  0.745119  0.388529  0.388533  1
  Bi  Bi12  1  0.745159  0.999977  0.611489  1
  Bi  Bi13  1  0.254837  0.388507  0.000024  1
  Bi  Bi14  1  0.254878  0.611468  0.611476  1
  Bi  Bi15  1  0.254840  0.000027  0.388511  1
  Sb  Sb16  1  0.500001  0.999999  0.999999  1
