# generated using pymatgen
data_PrSmTc17C3
_symmetry_space_group_name_H-M   'P 1'
_cell_length_a   7.01271622
_cell_length_b   7.01271563
_cell_length_c   7.01271500
_cell_angle_alpha   82.96237848
_cell_angle_beta   82.96238868
_cell_angle_gamma   82.96238743
_symmetry_Int_Tables_number   1
_chemical_formula_structural   PrSmTc17C3
_chemical_formula_sum   'Pr1 Sm1 Tc17 C3'
_cell_volume   337.66607175
_cell_formula_units_Z   1
loop_
 _symmetry_equiv_pos_site_id
 _symmetry_equiv_pos_as_xyz
  1  'x, y, z'
loop_
 _atom_site_type_symbol
 _atom_site_label
 _atom_site_symmetry_multiplicity
 _atom_site_fract_x
 _atom_site_fract_y
 _atom_site_fract_z
 _atom_site_occupancy
  Pr  Pr0  1  0.350698  0.350698  0.350698  1
  Sm  Sm1  1  0.650264  0.650264  0.650264  1
  Tc  Tc2  1  0.999692  0.999692  0.499907  1
  Tc  Tc3  1  0.499907  0.999692  0.999692  1
  Tc  Tc4  1  0.999692  0.499907  0.999692  1
  Tc  Tc5  1  0.721925  0.278588  0.999321  1
  Tc  Tc6  1  0.999321  0.721925  0.278588  1
  Tc  Tc7  1  0.278588  0.999321  0.721925  1
  Tc  Tc8  1  0.999321  0.278588  0.721925  1
  Tc  Tc9  1  0.721925  0.999321  0.278588  1
  Tc  Tc10  1  0.278588  0.721925  0.999321  1
  Tc  Tc11  1  0.348102  0.348102  0.864874  1
  Tc  Tc12  1  0.864874  0.348102  0.348102  1
  Tc  Tc13  1  0.348102  0.864874  0.348102  1
  Tc  Tc14  1  0.652893  0.652893  0.133735  1
  Tc  Tc15  1  0.133735  0.652893  0.652893  1
  Tc  Tc16  1  0.652893  0.133735  0.652893  1
  Tc  Tc17  1  0.902635  0.902635  0.902635  1
  Tc  Tc18  1  0.097165  0.097165  0.097165  1
  C  C19  1  0.501370  0.501370  0.996941  1
  C  C20  1  0.996941  0.501370  0.501370  1
  C  C21  1  0.501370  0.996941  0.501370  1
