# generated using pymatgen
data_CaSmNi5C3
_symmetry_space_group_name_H-M   'P 1'
_cell_length_a   8.24424120
_cell_length_b   8.24424120
_cell_length_c   3.90017100
_cell_angle_alpha   90.00000000
_cell_angle_beta   90.00000000
_cell_angle_gamma   89.93821633
_symmetry_Int_Tables_number   1
_chemical_formula_structural   CaSmNi5C3
_chemical_formula_sum   'Ca2 Sm2 Ni10 C6'
_cell_volume   265.08476877
_cell_formula_units_Z   2
loop_
 _symmetry_equiv_pos_site_id
 _symmetry_equiv_pos_as_xyz
  1  'x, y, z'
loop_
 _atom_site_type_symbol
 _atom_site_label
 _atom_site_symmetry_multiplicity
 _atom_site_fract_x
 _atom_site_fract_y
 _atom_site_fract_z
 _atom_site_occupancy
  Ca  Ca0  1  0.155066  0.344934  0.000000  1
  Ca  Ca1  1  0.844934  0.655066  0.000000  1
  Sm  Sm2  1  0.341519  0.841519  0.000000  1
  Sm  Sm3  1  0.658481  0.158481  0.000000  1
  Ni  Ni4  1  0.575750  0.712426  0.500000  1
  Ni  Ni5  1  0.424250  0.287574  0.500000  1
  Ni  Ni6  1  0.921273  0.212780  0.500000  1
  Ni  Ni7  1  0.078727  0.787220  0.500000  1
  Ni  Ni8  1  0.712780  0.421273  0.500000  1
  Ni  Ni9  1  0.287220  0.578727  0.500000  1
  Ni  Ni10  1  0.212426  0.075750  0.500000  1
  Ni  Ni11  1  0.787574  0.924250  0.500000  1
  Ni  Ni12  1  0.500000  0.500000  0.000000  1
  Ni  Ni13  1  0.000000  0.000000  0.000000  1
  C  C14  1  0.500000  0.500000  0.500000  1
  C  C15  1  0.000000  0.000000  0.500000  1
  C  C16  1  0.057611  0.557611  0.500000  1
  C  C17  1  0.942389  0.442389  0.500000  1
  C  C18  1  0.441628  0.058372  0.500000  1
  C  C19  1  0.558372  0.941628  0.500000  1
