# generated using pymatgen
data_LaPr7(YIr2)2
_symmetry_space_group_name_H-M   'P 1'
_cell_length_a   6.71925165
_cell_length_b   7.30382615
_cell_length_c   9.00246974
_cell_angle_alpha   95.97106755
_cell_angle_beta   111.92440930
_cell_angle_gamma   90.44226478
_symmetry_Int_Tables_number   1
_chemical_formula_structural   LaPr7(YIr2)2
_chemical_formula_sum   'La1 Pr7 Y2 Ir4'
_cell_volume   407.11167904
_cell_formula_units_Z   1
loop_
 _symmetry_equiv_pos_site_id
 _symmetry_equiv_pos_as_xyz
  1  'x, y, z'
loop_
 _atom_site_type_symbol
 _atom_site_label
 _atom_site_symmetry_multiplicity
 _atom_site_fract_x
 _atom_site_fract_y
 _atom_site_fract_z
 _atom_site_occupancy
  La  La0  1  0.978772  0.919056  0.181290  1
  Pr  Pr1  1  0.794125  0.576713  0.816768  1
  Pr  Pr2  1  0.022967  0.078277  0.818503  1
  Pr  Pr3  1  0.205786  0.422581  0.182078  1
  Pr  Pr4  1  0.646321  0.812065  0.431028  1
  Pr  Pr5  1  0.216270  0.686502  0.569224  1
  Pr  Pr6  1  0.353464  0.187761  0.570374  1
  Pr  Pr7  1  0.783496  0.313400  0.431703  1
  Y  Y8  1  0.436673  0.749879  0.999695  1
  Y  Y9  1  0.562267  0.250243  0.999547  1
  Ir  Ir10  1  0.813780  0.574637  0.212602  1
  Ir  Ir11  1  0.600027  0.929539  0.788460  1
  Ir  Ir12  1  0.188372  0.428935  0.787310  1
  Ir  Ir13  1  0.397681  0.070411  0.211418  1
