# generated using pymatgen
data_Tb16Nd4Si15Au
_symmetry_space_group_name_H-M   'P 1'
_cell_length_a   7.52775180
_cell_length_b   7.78145902
_cell_length_c   14.82733691
_cell_angle_alpha   90.16464922
_cell_angle_beta   89.32505380
_cell_angle_gamma   89.78248258
_symmetry_Int_Tables_number   1
_chemical_formula_structural   Tb16Nd4Si15Au
_chemical_formula_sum   'Tb16 Nd4 Si15 Au1'
_cell_volume   868.46909505
_cell_formula_units_Z   1
loop_
 _symmetry_equiv_pos_site_id
 _symmetry_equiv_pos_as_xyz
  1  'x, y, z'
loop_
 _atom_site_type_symbol
 _atom_site_label
 _atom_site_symmetry_multiplicity
 _atom_site_fract_x
 _atom_site_fract_y
 _atom_site_fract_z
 _atom_site_occupancy
  Tb  Tb0  1  0.921056  0.677161  0.626525  1
  Tb  Tb1  1  0.428783  0.819833  0.372045  1
  Tb  Tb2  1  0.570189  0.321716  0.126116  1
  Tb  Tb3  1  0.074812  0.172455  0.874663  1
  Tb  Tb4  1  0.577294  0.320542  0.873787  1
  Tb  Tb5  1  0.072216  0.180233  0.128446  1
  Tb  Tb6  1  0.928897  0.680060  0.370916  1
  Tb  Tb7  1  0.426507  0.823514  0.628310  1
  Tb  Tb8  1  0.093360  0.012009  0.500815  1
  Tb  Tb9  1  0.594200  0.488080  0.499850  1
  Tb  Tb10  1  0.403879  0.988481  0.998953  1
  Tb  Tb11  1  0.903379  0.507150  0.999215  1
  Tb  Tb12  1  0.279044  0.317821  0.350082  1
  Tb  Tb13  1  0.769312  0.182799  0.648571  1
  Tb  Tb14  1  0.229160  0.677735  0.852941  1
  Tb  Tb15  1  0.721905  0.816023  0.149378  1
  Nd  Nd16  1  0.224132  0.681343  0.152065  1
  Nd  Nd17  1  0.730112  0.818655  0.849658  1
  Nd  Nd18  1  0.272855  0.325381  0.652424  1
  Nd  Nd19  1  0.774599  0.181696  0.345966  1
  Si  Si20  1  0.601427  0.532992  0.287269  1
  Si  Si21  1  0.400592  0.034001  0.212113  1
  Si  Si22  1  0.905253  0.465990  0.789481  1
  Si  Si23  1  0.407645  0.029154  0.792356  1
  Si  Si24  1  0.890358  0.474193  0.207769  1
  Si  Si25  1  0.110345  0.974126  0.290303  1
  Si  Si26  1  0.602756  0.529845  0.711706  1
  Si  Si27  1  0.980318  0.379100  0.497886  1
  Si  Si28  1  0.478930  0.122990  0.497466  1
  Si  Si29  1  0.520371  0.623792  0.001203  1
  Si  Si30  1  0.019702  0.873436  0.002710  1
  Si  Si31  1  0.219998  0.609942  0.497556  1
  Si  Si32  1  0.719108  0.892772  0.497778  1
  Si  Si33  1  0.277415  0.391344  0.000422  1
  Si  Si34  1  0.778524  0.104736  0.003061  1
  Au  Au35  1  0.091571  0.968900  0.710198  1
