# generated using pymatgen
data_Na2H6PtAu
_symmetry_space_group_name_H-M   'P 1'
_cell_length_a   5.29904424
_cell_length_b   5.29904339
_cell_length_c   5.29904400
_cell_angle_alpha   120.00000381
_cell_angle_beta   119.99999849
_cell_angle_gamma   60.00001011
_symmetry_Int_Tables_number   1
_chemical_formula_structural   Na2H6PtAu
_chemical_formula_sum   'Na2 H6 Pt1 Au1'
_cell_volume   105.21497945
_cell_formula_units_Z   1
loop_
 _symmetry_equiv_pos_site_id
 _symmetry_equiv_pos_as_xyz
  1  'x, y, z'
loop_
 _atom_site_type_symbol
 _atom_site_label
 _atom_site_symmetry_multiplicity
 _atom_site_fract_x
 _atom_site_fract_y
 _atom_site_fract_z
 _atom_site_occupancy
  Na  Na0  1  0.750000  0.750000  0.250001  1
  Na  Na1  1  0.249999  0.249999  0.750001  1
  H  H2  1  0.231220  0.231220  0.231220  1
  H  H3  1  0.768780  0.231220  0.231220  1
  H  H4  1  0.231220  0.768780  0.231220  1
  H  H5  1  0.768780  0.231220  0.768781  1
  H  H6  1  0.231220  0.768780  0.768781  1
  H  H7  1  0.768781  0.768781  0.768781  1
  Pt  Pt8  1  0.000000  0.000000  0.000000  1
  Au  Au9  1  0.500000  0.500000  0.500000  1
