# generated using pymatgen
data_Th4ZnSi6Ni
_symmetry_space_group_name_H-M   'P 1'
_cell_length_a   8.25306300
_cell_length_b   8.25306343
_cell_length_c   8.47331200
_cell_angle_alpha   90.00000000
_cell_angle_beta   90.00000000
_cell_angle_gamma   119.99999428
_symmetry_Int_Tables_number   1
_chemical_formula_structural   Th4ZnSi6Ni
_chemical_formula_sum   'Th8 Zn2 Si12 Ni2'
_cell_volume   499.82065348
_cell_formula_units_Z   2
loop_
 _symmetry_equiv_pos_site_id
 _symmetry_equiv_pos_as_xyz
  1  'x, y, z'
loop_
 _atom_site_type_symbol
 _atom_site_label
 _atom_site_symmetry_multiplicity
 _atom_site_fract_x
 _atom_site_fract_y
 _atom_site_fract_z
 _atom_site_occupancy
  Th  Th0  1  0.499933  0.500067  0.749315  1
  Th  Th1  1  0.500067  0.499933  0.250685  1
  Th  Th2  1  0.000132  0.500067  0.749315  1
  Th  Th3  1  0.999868  0.499933  0.250685  1
  Th  Th4  1  0.499933  0.999868  0.749315  1
  Th  Th5  1  0.500067  0.000132  0.250685  1
  Th  Th6  1  0.000000  0.000000  0.748951  1
  Th  Th7  1  0.000000  0.000000  0.251049  1
  Zn  Zn8  1  0.666667  0.333333  0.999774  1
  Zn  Zn9  1  0.333333  0.666667  0.000226  1
  Si  Si10  1  0.833428  0.166572  0.999945  1
  Si  Si11  1  0.166572  0.833428  0.000055  1
  Si  Si12  1  0.333146  0.166572  0.999945  1
  Si  Si13  1  0.171038  0.828962  0.499860  1
  Si  Si14  1  0.666854  0.833428  0.000055  1
  Si  Si15  1  0.828962  0.171038  0.500140  1
  Si  Si16  1  0.833428  0.666854  0.999945  1
  Si  Si17  1  0.657923  0.828962  0.499860  1
  Si  Si18  1  0.166572  0.333146  0.000055  1
  Si  Si19  1  0.342077  0.171038  0.500140  1
  Si  Si20  1  0.171038  0.342077  0.499860  1
  Si  Si21  1  0.828962  0.657923  0.500140  1
  Ni  Ni22  1  0.333333  0.666667  0.499817  1
  Ni  Ni23  1  0.666667  0.333333  0.500183  1
