# generated using pymatgen
data_PuPa5P8
_symmetry_space_group_name_H-M   'P 1'
_cell_length_a   7.17354273
_cell_length_b   7.17354188
_cell_length_c   7.17354292
_cell_angle_alpha   109.74050487
_cell_angle_beta   109.33674542
_cell_angle_gamma   109.33674508
_symmetry_Int_Tables_number   1
_chemical_formula_structural   PuPa5P8
_chemical_formula_sum   'Pu1 Pa5 P8'
_cell_volume   284.16589470
_cell_formula_units_Z   1
loop_
 _symmetry_equiv_pos_site_id
 _symmetry_equiv_pos_as_xyz
  1  'x, y, z'
loop_
 _atom_site_type_symbol
 _atom_site_label
 _atom_site_symmetry_multiplicity
 _atom_site_fract_x
 _atom_site_fract_y
 _atom_site_fract_z
 _atom_site_occupancy
  Pu  Pu0  1  0.750000  0.875000  0.125000  1
  Pa  Pa1  1  0.375605  0.253761  0.627547  1
  Pa  Pa2  1  0.250000  0.625000  0.375000  1
  Pa  Pa3  1  0.873786  0.121844  0.746239  1
  Pa  Pa4  1  0.626214  0.372453  0.248058  1
  Pa  Pa5  1  0.124395  0.751942  0.878156  1
  P  P6  1  0.658907  0.658856  0.656083  1
  P  P7  1  0.841093  0.497176  0.999948  1
  P  P8  1  0.496778  0.998471  0.838573  1
  P  P9  1  0.340102  0.498306  0.001529  1
  P  P10  1  0.003222  0.841795  0.501694  1
  P  P11  1  0.002772  0.343917  0.502824  1
  P  P12  1  0.497228  0.000052  0.341144  1
  P  P13  1  0.159898  0.161427  0.158205  1
