# generated using pymatgen
data_HfSc(ZnPt)2
_symmetry_space_group_name_H-M   'P 1'
_cell_length_a   5.05373624
_cell_length_b   5.05373599
_cell_length_c   5.25936000
_cell_angle_alpha   90.00000000
_cell_angle_beta   90.00000000
_cell_angle_gamma   129.04163474
_symmetry_Int_Tables_number   1
_chemical_formula_structural   HfSc(ZnPt)2
_chemical_formula_sum   'Hf1 Sc1 Zn2 Pt2'
_cell_volume   104.32895800
_cell_formula_units_Z   1
loop_
 _symmetry_equiv_pos_site_id
 _symmetry_equiv_pos_as_xyz
  1  'x, y, z'
loop_
 _atom_site_type_symbol
 _atom_site_label
 _atom_site_symmetry_multiplicity
 _atom_site_fract_x
 _atom_site_fract_y
 _atom_site_fract_z
 _atom_site_occupancy
  Hf  Hf0  1  0.706348  0.293652  0.250000  1
  Sc  Sc1  1  0.293409  0.706591  0.750000  1
  Zn  Zn2  1  0.003266  0.996734  0.498747  1
  Zn  Zn3  1  0.003266  0.996734  0.001253  1
  Pt  Pt4  1  0.391742  0.608258  0.250000  1
  Pt  Pt5  1  0.601969  0.398031  0.750000  1
