# generated using pymatgen
data_Nd(Ho3Au5)2
_symmetry_space_group_name_H-M   'P 1'
_cell_length_a   8.74049248
_cell_length_b   8.74048878
_cell_length_c   10.42554001
_cell_angle_alpha   89.92654924
_cell_angle_beta   89.92661525
_cell_angle_gamma   107.01035070
_symmetry_Int_Tables_number   1
_chemical_formula_structural   Nd(Ho3Au5)2
_chemical_formula_sum   'Nd2 Ho12 Au20'
_cell_volume   761.62553426
_cell_formula_units_Z   2
loop_
 _symmetry_equiv_pos_site_id
 _symmetry_equiv_pos_as_xyz
  1  'x, y, z'
loop_
 _atom_site_type_symbol
 _atom_site_label
 _atom_site_symmetry_multiplicity
 _atom_site_fract_x
 _atom_site_fract_y
 _atom_site_fract_z
 _atom_site_occupancy
  Nd  Nd0  1  0.189940  0.189939  0.691066  1
  Nd  Nd1  1  0.810060  0.810061  0.308934  1
  Ho  Ho2  1  0.693715  0.306288  0.000000  1
  Ho  Ho3  1  0.306285  0.693712  0.000000  1
  Ho  Ho4  1  0.805666  0.194332  0.500000  1
  Ho  Ho5  1  0.194334  0.805668  0.500000  1
  Ho  Ho6  1  0.000000  0.000000  0.000000  1
  Ho  Ho7  1  0.500000  0.500000  0.500000  1
  Ho  Ho8  1  0.003397  0.503220  0.249474  1
  Ho  Ho9  1  0.996603  0.496780  0.750526  1
  Ho  Ho10  1  0.496781  0.996604  0.750527  1
  Ho  Ho11  1  0.503219  0.003396  0.249473  1
  Ho  Ho12  1  0.312785  0.312785  0.188400  1
  Ho  Ho13  1  0.687215  0.687215  0.811600  1
  Au  Au14  1  0.860336  0.154306  0.207876  1
  Au  Au15  1  0.139664  0.845694  0.792124  1
  Au  Au16  1  0.639172  0.350549  0.710008  1
  Au  Au17  1  0.649450  0.360828  0.289992  1
  Au  Au18  1  0.360828  0.649451  0.289992  1
  Au  Au19  1  0.350550  0.639172  0.710008  1
  Au  Au20  1  0.845695  0.139663  0.792125  1
  Au  Au21  1  0.154305  0.860337  0.207875  1
  Au  Au22  1  0.936984  0.644826  0.002885  1
  Au  Au23  1  0.063016  0.355174  0.997115  1
  Au  Au24  1  0.559065  0.855454  0.504353  1
  Au  Au25  1  0.144546  0.440936  0.495646  1
  Au  Au26  1  0.440935  0.144546  0.495647  1
  Au  Au27  1  0.855454  0.559064  0.504354  1
  Au  Au28  1  0.355176  0.063017  0.997115  1
  Au  Au29  1  0.644824  0.936983  0.002885  1
  Au  Au30  1  0.106962  0.106961  0.396020  1
  Au  Au31  1  0.893038  0.893039  0.603980  1
  Au  Au32  1  0.398257  0.398257  0.901739  1
  Au  Au33  1  0.601743  0.601743  0.098261  1
