# generated using pymatgen
data_Ta6VH16
_symmetry_space_group_name_H-M   'P 1'
_cell_length_a   6.29489030
_cell_length_b   6.29489062
_cell_length_c   6.29489000
_cell_angle_alpha   60.00000326
_cell_angle_beta   60.00000157
_cell_angle_gamma   60.00000577
_symmetry_Int_Tables_number   1
_chemical_formula_structural   Ta6VH16
_chemical_formula_sum   'Ta6 V1 H16'
_cell_volume   176.38008064
_cell_formula_units_Z   1
loop_
 _symmetry_equiv_pos_site_id
 _symmetry_equiv_pos_as_xyz
  1  'x, y, z'
loop_
 _atom_site_type_symbol
 _atom_site_label
 _atom_site_symmetry_multiplicity
 _atom_site_fract_x
 _atom_site_fract_y
 _atom_site_fract_z
 _atom_site_occupancy
  Ta  Ta0  1  0.000000  0.000000  0.500000  1
  Ta  Ta1  1  0.500000  0.000000  0.500000  1
  Ta  Ta2  1  0.000000  0.500000  0.500000  1
  Ta  Ta3  1  0.500000  0.500000  0.000000  1
  Ta  Ta4  1  0.000000  0.500000  0.000000  1
  Ta  Ta5  1  0.500000  0.000000  0.000000  1
  V  V6  1  0.000000  0.000000  0.000000  1
  H  H7  1  0.880361  0.880361  0.358916  1
  H  H8  1  0.880361  0.358916  0.880361  1
  H  H9  1  0.358916  0.880361  0.880361  1
  H  H10  1  0.880361  0.880361  0.880361  1
  H  H11  1  0.119639  0.119639  0.641084  1
  H  H12  1  0.119639  0.641084  0.119639  1
  H  H13  1  0.641084  0.119639  0.119639  1
  H  H14  1  0.119639  0.119639  0.119639  1
  H  H15  1  0.619477  0.619477  0.141569  1
  H  H16  1  0.619477  0.141569  0.619477  1
  H  H17  1  0.141569  0.619477  0.619477  1
  H  H18  1  0.619477  0.619477  0.619477  1
  H  H19  1  0.380523  0.380523  0.858431  1
  H  H20  1  0.380523  0.858431  0.380523  1
  H  H21  1  0.858431  0.380523  0.380523  1
  H  H22  1  0.380523  0.380523  0.380523  1
