# generated using pymatgen
data_Sc12Al2FeNi3
_symmetry_space_group_name_H-M   'P 1'
_cell_length_a   7.75053032
_cell_length_b   7.75052817
_cell_length_c   7.75052923
_cell_angle_alpha   112.01032420
_cell_angle_beta   110.61919244
_cell_angle_gamma   105.84710101
_symmetry_Int_Tables_number   1
_chemical_formula_structural   Sc12Al2FeNi3
_chemical_formula_sum   'Sc12 Al2 Fe1 Ni3'
_cell_volume   357.28036689
_cell_formula_units_Z   1
loop_
 _symmetry_equiv_pos_site_id
 _symmetry_equiv_pos_as_xyz
  1  'x, y, z'
loop_
 _atom_site_type_symbol
 _atom_site_label
 _atom_site_symmetry_multiplicity
 _atom_site_fract_x
 _atom_site_fract_y
 _atom_site_fract_z
 _atom_site_occupancy
  Sc  Sc0  1  0.439735  0.237721  0.202013  1
  Sc  Sc1  1  0.560107  0.762388  0.797720  1
  Sc  Sc2  1  0.035333  0.237612  0.797720  1
  Sc  Sc3  1  0.964292  0.762279  0.202013  1
  Sc  Sc4  1  0.188718  0.275863  0.464579  1
  Sc  Sc5  1  0.817115  0.716841  0.533956  1
  Sc  Sc6  1  0.188718  0.724137  0.912855  1
  Sc  Sc7  1  0.817115  0.283159  0.100274  1
  Sc  Sc8  1  0.322648  0.626585  0.297629  1
  Sc  Sc9  1  0.671045  0.373415  0.696064  1
  Sc  Sc10  1  0.322648  0.025020  0.696064  1
  Sc  Sc11  1  0.671045  0.974980  0.297629  1
  Al  Al12  1  0.500370  0.500000  0.000370  1
  Al  Al13  1  0.002193  0.000000  0.002193  1
  Fe  Fe14  1  0.341565  0.000000  0.341565  1
  Ni  Ni15  1  0.656178  0.000000  0.656178  1
  Ni  Ni16  1  0.125164  0.624576  0.500588  1
  Ni  Ni17  1  0.876012  0.375424  0.500588  1
