# generated using pymatgen
data_Tb2InAgRh
_symmetry_space_group_name_H-M   'P 1'
_cell_length_a   7.80375901
_cell_length_b   7.80375935
_cell_length_c   3.80703900
_cell_angle_alpha   90.00000000
_cell_angle_beta   90.00000000
_cell_angle_gamma   89.55409881
_symmetry_Int_Tables_number   1
_chemical_formula_structural   Tb2InAgRh
_chemical_formula_sum   'Tb4 In2 Ag2 Rh2'
_cell_volume   231.83654264
_cell_formula_units_Z   2
loop_
 _symmetry_equiv_pos_site_id
 _symmetry_equiv_pos_as_xyz
  1  'x, y, z'
loop_
 _atom_site_type_symbol
 _atom_site_label
 _atom_site_symmetry_multiplicity
 _atom_site_fract_x
 _atom_site_fract_y
 _atom_site_fract_z
 _atom_site_occupancy
  Tb  Tb0  1  0.657463  0.157463  0.500000  1
  Tb  Tb1  1  0.342537  0.842537  0.500000  1
  Tb  Tb2  1  0.190330  0.309670  0.500000  1
  Tb  Tb3  1  0.809670  0.690330  0.500000  1
  In  In4  1  0.000000  0.000000  0.000000  1
  In  In5  1  0.500000  0.500000  0.000000  1
  Ag  Ag6  1  0.126840  0.626840  0.000000  1
  Ag  Ag7  1  0.873160  0.373160  0.000000  1
  Rh  Rh8  1  0.629792  0.870208  0.000000  1
  Rh  Rh9  1  0.370208  0.129792  0.000000  1
