# generated using pymatgen
data_Tb18Tm2CoBi8Ru3
_symmetry_space_group_name_H-M   'P 1'
_cell_length_a   8.02279661
_cell_length_b   9.01299117
_cell_length_c   12.48155435
_cell_angle_alpha   89.95507938
_cell_angle_beta   90.39806302
_cell_angle_gamma   89.91517176
_symmetry_Int_Tables_number   1
_chemical_formula_structural   Tb18Tm2CoBi8Ru3
_chemical_formula_sum   'Tb18 Tm2 Co1 Bi8 Ru3'
_cell_volume   902.51058786
_cell_formula_units_Z   1
loop_
 _symmetry_equiv_pos_site_id
 _symmetry_equiv_pos_as_xyz
  1  'x, y, z'
loop_
 _atom_site_type_symbol
 _atom_site_label
 _atom_site_symmetry_multiplicity
 _atom_site_fract_x
 _atom_site_fract_y
 _atom_site_fract_z
 _atom_site_occupancy
  Tb  Tb0  1  0.845739  0.750268  0.799754  1
  Tb  Tb1  1  0.155626  0.249716  0.205194  1
  Tb  Tb2  1  0.345058  0.249532  0.706089  1
  Tb  Tb3  1  0.654020  0.750500  0.295163  1
  Tb  Tb4  1  0.377534  0.750893  0.693894  1
  Tb  Tb5  1  0.621108  0.249079  0.307042  1
  Tb  Tb6  1  0.877300  0.249726  0.807212  1
  Tb  Tb7  1  0.119826  0.750218  0.189272  1
  Tb  Tb8  1  0.946162  0.750828  0.504604  1
  Tb  Tb9  1  0.053571  0.249185  0.496090  1
  Tb  Tb10  1  0.449878  0.249956  0.996525  1
  Tb  Tb11  1  0.549955  0.750083  0.003466  1
  Tb  Tb12  1  0.177324  0.957711  0.935507  1
  Tb  Tb13  1  0.322734  0.542006  0.435289  1
  Tb  Tb14  1  0.823766  0.035810  0.063066  1
  Tb  Tb15  1  0.676676  0.458858  0.564676  1
  Tb  Tb16  1  0.823818  0.464157  0.062971  1
  Tb  Tb17  1  0.177344  0.542327  0.935643  1
  Tm  Tm18  1  0.673102  0.041213  0.563973  1
  Tm  Tm19  1  0.326163  0.957935  0.436026  1
  Co  Co20  1  0.932820  0.749932  0.009417  1
  Bi  Bi21  1  0.572191  0.492624  0.827335  1
  Bi  Bi22  1  0.428733  0.507521  0.172540  1
  Bi  Bi23  1  0.070743  0.507473  0.673192  1
  Bi  Bi24  1  0.428433  0.992466  0.172813  1
  Bi  Bi25  1  0.928578  0.492991  0.326684  1
  Bi  Bi26  1  0.572435  0.007404  0.827048  1
  Bi  Bi27  1  0.929707  0.006871  0.326891  1
  Bi  Bi28  1  0.069588  0.992646  0.672922  1
  Ru  Ru29  1  0.572314  0.751938  0.511327  1
  Ru  Ru30  1  0.426472  0.248038  0.488780  1
  Ru  Ru31  1  0.071283  0.250095  0.989590  1
