# generated using pymatgen
data_Lu5Os2
_symmetry_space_group_name_H-M   'P 1'
_cell_length_a   6.19341243
_cell_length_b   7.28457488
_cell_length_c   8.21270322
_cell_angle_alpha   97.02087378
_cell_angle_beta   112.15186913
_cell_angle_gamma   89.99999694
_symmetry_Int_Tables_number   1
_chemical_formula_structural   Lu5Os2
_chemical_formula_sum   'Lu10 Os4'
_cell_volume   340.17628767
_cell_formula_units_Z   2
loop_
 _symmetry_equiv_pos_site_id
 _symmetry_equiv_pos_as_xyz
  1  'x, y, z'
loop_
 _atom_site_type_symbol
 _atom_site_label
 _atom_site_symmetry_multiplicity
 _atom_site_fract_x
 _atom_site_fract_y
 _atom_site_fract_z
 _atom_site_occupancy
  Lu  Lu0  1  0.527696  0.082595  0.819002  1
  Lu  Lu1  1  0.472304  0.917405  0.180998  1
  Lu  Lu2  1  0.708693  0.417405  0.180998  1
  Lu  Lu3  1  0.291307  0.582595  0.819002  1
  Lu  Lu4  1  0.297088  0.318766  0.437175  1
  Lu  Lu5  1  0.702912  0.681234  0.562825  1
  Lu  Lu6  1  0.859913  0.181234  0.562825  1
  Lu  Lu7  1  0.140087  0.818766  0.437175  1
  Lu  Lu8  1  0.081912  0.250000  0.000000  1
  Lu  Lu9  1  0.918088  0.750000  0.000000  1
  Os  Os10  1  0.321260  0.579285  0.219218  1
  Os  Os11  1  0.678740  0.420715  0.780782  1
  Os  Os12  1  0.102042  0.920715  0.780782  1
  Os  Os13  1  0.897958  0.079285  0.219218  1
