# generated using pymatgen
data_Ti4Ir2O
_symmetry_space_group_name_H-M   'P 1'
_cell_length_a   8.25081600
_cell_length_b   8.25084322
_cell_length_c   8.25076100
_cell_angle_alpha   120.00130195
_cell_angle_beta   89.99820838
_cell_angle_gamma   120.00060212
_symmetry_Int_Tables_number   1
_chemical_formula_structural   Ti4Ir2O
_chemical_formula_sum   'Ti16 Ir8 O4'
_cell_volume   397.16277567
_cell_formula_units_Z   4
loop_
 _symmetry_equiv_pos_site_id
 _symmetry_equiv_pos_as_xyz
  1  'x, y, z'
loop_
 _atom_site_type_symbol
 _atom_site_label
 _atom_site_symmetry_multiplicity
 _atom_site_fract_x
 _atom_site_fract_y
 _atom_site_fract_z
 _atom_site_occupancy
  Ti  Ti0  1  0.000002  0.499993  0.000016  1
  Ti  Ti1  1  0.808368  0.749997  0.058361  1
  Ti  Ti2  1  0.808392  0.116787  0.058407  1
  Ti  Ti3  1  0.441622  0.750017  0.058403  1
  Ti  Ti4  1  0.191599  0.249966  0.308371  1
  Ti  Ti5  1  0.558401  0.249998  0.308401  1
  Ti  Ti6  1  0.558393  0.616749  0.308362  1
  Ti  Ti7  1  0.499999  0.000054  0.499975  1
  Ti  Ti8  1  0.000030  0.000014  0.500017  1
  Ti  Ti9  1  0.999923  0.499954  0.499954  1
  Ti  Ti10  1  0.441630  0.383225  0.691615  1
  Ti  Ti11  1  0.441633  0.750005  0.691642  1
  Ti  Ti12  1  0.808386  0.749986  0.691625  1
  Ti  Ti13  1  0.191595  0.249994  0.941592  1
  Ti  Ti14  1  0.558407  0.250029  0.941625  1
  Ti  Ti15  1  0.191608  0.883247  0.941640  1
  Ir  Ir16  1  0.216234  0.567470  0.283729  1
  Ir  Ir17  1  0.851189  0.567431  0.283724  1
  Ir  Ir18  1  0.216291  0.932555  0.283743  1
  Ir  Ir19  1  0.783737  0.067471  0.351190  1
  Ir  Ir20  1  0.216267  0.932536  0.648787  1
  Ir  Ir21  1  0.783765  0.067499  0.716280  1
  Ir  Ir22  1  0.148780  0.432502  0.716264  1
  Ir  Ir23  1  0.783719  0.432540  0.716269  1
  O  O24  1  0.999988  0.000000  0.999985  1
  O  O25  1  0.500030  0.000037  0.000047  1
  O  O26  1  0.499987  0.499978  0.999966  1
  O  O27  1  0.500024  0.499969  0.500011  1
