# generated using pymatgen
data_Ho3Lu5(HgRh)2
_symmetry_space_group_name_H-M   'P 1'
_cell_length_a   9.48163408
_cell_length_b   9.48163422
_cell_length_c   9.48163400
_cell_angle_alpha   60.00000076
_cell_angle_beta   60.00000026
_cell_angle_gamma   60.00000068
_symmetry_Int_Tables_number   1
_chemical_formula_structural   Ho3Lu5(HgRh)2
_chemical_formula_sum   'Ho6 Lu10 Hg4 Rh4'
_cell_volume   602.74634090
_cell_formula_units_Z   2
loop_
 _symmetry_equiv_pos_site_id
 _symmetry_equiv_pos_as_xyz
  1  'x, y, z'
loop_
 _atom_site_type_symbol
 _atom_site_label
 _atom_site_symmetry_multiplicity
 _atom_site_fract_x
 _atom_site_fract_y
 _atom_site_fract_z
 _atom_site_occupancy
  Ho  Ho0  1  0.188445  0.811555  0.811555  1
  Ho  Ho1  1  0.811555  0.188445  0.188445  1
  Ho  Ho2  1  0.811555  0.188445  0.811555  1
  Ho  Ho3  1  0.188445  0.811555  0.188445  1
  Ho  Ho4  1  0.811555  0.811555  0.188445  1
  Ho  Ho5  1  0.188445  0.188445  0.811555  1
  Lu  Lu6  1  0.601071  0.601071  0.601071  1
  Lu  Lu7  1  0.601071  0.601071  0.196788  1
  Lu  Lu8  1  0.601071  0.196788  0.601071  1
  Lu  Lu9  1  0.196788  0.601071  0.601071  1
  Lu  Lu10  1  0.063083  0.436917  0.436917  1
  Lu  Lu11  1  0.436917  0.063083  0.063083  1
  Lu  Lu12  1  0.436917  0.063083  0.436917  1
  Lu  Lu13  1  0.063083  0.436917  0.063083  1
  Lu  Lu14  1  0.436917  0.436917  0.063083  1
  Lu  Lu15  1  0.063083  0.063083  0.436917  1
  Hg  Hg16  1  0.834202  0.834202  0.834202  1
  Hg  Hg17  1  0.834202  0.834202  0.497393  1
  Hg  Hg18  1  0.834202  0.497393  0.834202  1
  Hg  Hg19  1  0.497393  0.834202  0.834202  1
  Rh  Rh20  1  0.393443  0.393443  0.393443  1
  Rh  Rh21  1  0.393443  0.393443  0.819673  1
  Rh  Rh22  1  0.393443  0.819673  0.393443  1
  Rh  Rh23  1  0.819673  0.393443  0.393443  1
