# generated using pymatgen
data_Dy2YCu2(AgSn2)2
_symmetry_space_group_name_H-M   'P 1'
_cell_length_a   4.51005419
_cell_length_b   7.21386609
_cell_length_c   8.64594463
_cell_angle_alpha   115.39823463
_cell_angle_beta   105.11866193
_cell_angle_gamma   90.00000222
_symmetry_Int_Tables_number   1
_chemical_formula_structural   Dy2YCu2(AgSn2)2
_chemical_formula_sum   'Dy2 Y1 Cu2 Ag2 Sn4'
_cell_volume   243.28569046
_cell_formula_units_Z   1
loop_
 _symmetry_equiv_pos_site_id
 _symmetry_equiv_pos_as_xyz
  1  'x, y, z'
loop_
 _atom_site_type_symbol
 _atom_site_label
 _atom_site_symmetry_multiplicity
 _atom_site_fract_x
 _atom_site_fract_y
 _atom_site_fract_z
 _atom_site_occupancy
  Dy  Dy0  1  0.871485  0.347696  0.742970  1
  Dy  Dy1  1  0.128515  0.652304  0.257030  1
  Y  Y2  1  0.000000  0.000000  0.000000  1
  Cu  Cu3  1  0.340816  0.027548  0.681632  1
  Cu  Cu4  1  0.659184  0.972452  0.318368  1
  Ag  Ag5  1  0.317584  0.621842  0.635167  1
  Ag  Ag6  1  0.682416  0.378158  0.364833  1
  Sn  Sn7  1  0.217376  0.178159  0.434752  1
  Sn  Sn8  1  0.782624  0.821841  0.565248  1
  Sn  Sn9  1  0.505456  0.306971  0.010912  1
  Sn  Sn10  1  0.494544  0.693029  0.989088  1
