# generated using pymatgen
data_TbYHo2(ReB6)2
_symmetry_space_group_name_H-M   'P 1'
_cell_length_a   3.68427700
_cell_length_b   9.18120210
_cell_length_c   11.57241600
_cell_angle_alpha   89.99323365
_cell_angle_beta   90.00000000
_cell_angle_gamma   90.00000000
_symmetry_Int_Tables_number   1
_chemical_formula_structural   TbYHo2(ReB6)2
_chemical_formula_sum   'Tb2 Y2 Ho4 Re4 B24'
_cell_volume   391.44960258
_cell_formula_units_Z   2
loop_
 _symmetry_equiv_pos_site_id
 _symmetry_equiv_pos_as_xyz
  1  'x, y, z'
loop_
 _atom_site_type_symbol
 _atom_site_label
 _atom_site_symmetry_multiplicity
 _atom_site_fract_x
 _atom_site_fract_y
 _atom_site_fract_z
 _atom_site_occupancy
  Tb  Tb0  1  0.000000  0.323380  0.413828  1
  Tb  Tb1  1  0.000000  0.676620  0.586172  1
  Y  Y2  1  0.000000  0.823458  0.085973  1
  Y  Y3  1  0.000000  0.176542  0.914027  1
  Ho  Ho4  1  0.000000  0.943067  0.369809  1
  Ho  Ho5  1  0.000000  0.056933  0.630191  1
  Ho  Ho6  1  0.000000  0.443007  0.129782  1
  Ho  Ho7  1  0.000000  0.556993  0.870218  1
  Re  Re8  1  0.000000  0.638857  0.320296  1
  Re  Re9  1  0.000000  0.361143  0.679704  1
  Re  Re10  1  0.000000  0.138581  0.179146  1
  Re  Re11  1  0.000000  0.861419  0.820854  1
  B  B12  1  0.500000  0.553559  0.432407  1
  B  B13  1  0.500000  0.446441  0.567593  1
  B  B14  1  0.500000  0.053318  0.067090  1
  B  B15  1  0.500000  0.946682  0.932910  1
  B  B16  1  0.500000  0.749368  0.417971  1
  B  B17  1  0.500000  0.250632  0.582029  1
  B  B18  1  0.500000  0.249193  0.081424  1
  B  B19  1  0.500000  0.750807  0.918576  1
  B  B20  1  0.500000  0.792171  0.265232  1
  B  B21  1  0.500000  0.207829  0.734768  1
  B  B22  1  0.500000  0.291856  0.234076  1
  B  B23  1  0.500000  0.708144  0.765924  1
  B  B24  1  0.500000  0.630741  0.185324  1
  B  B25  1  0.500000  0.369259  0.814676  1
  B  B26  1  0.500000  0.130494  0.314011  1
  B  B27  1  0.500000  0.869506  0.685989  1
  B  B28  1  0.500000  0.982280  0.211829  1
  B  B29  1  0.500000  0.017720  0.788171  1
  B  B30  1  0.500000  0.482543  0.287568  1
  B  B31  1  0.500000  0.517457  0.712432  1
  B  B32  1  0.500000  0.599861  0.027891  1
  B  B33  1  0.500000  0.400139  0.972109  1
  B  B34  1  0.500000  0.099147  0.472260  1
  B  B35  1  0.500000  0.900853  0.527740  1
