# generated using pymatgen
data_LiLu16In3Pt4
_symmetry_space_group_name_H-M   'P 1'
_cell_length_a   9.54862126
_cell_length_b   9.54862343
_cell_length_c   9.54862400
_cell_angle_alpha   59.58986562
_cell_angle_beta   59.58985830
_cell_angle_gamma   59.58986533
_symmetry_Int_Tables_number   1
_chemical_formula_structural   LiLu16In3Pt4
_chemical_formula_sum   'Li1 Lu16 In3 Pt4'
_cell_volume   609.87316291
_cell_formula_units_Z   1
loop_
 _symmetry_equiv_pos_site_id
 _symmetry_equiv_pos_as_xyz
  1  'x, y, z'
loop_
 _atom_site_type_symbol
 _atom_site_label
 _atom_site_symmetry_multiplicity
 _atom_site_fract_x
 _atom_site_fract_y
 _atom_site_fract_z
 _atom_site_occupancy
  Li  Li0  1  0.822753  0.822753  0.822753  1
  Lu  Lu1  1  0.601276  0.601276  0.601276  1
  Lu  Lu2  1  0.601062  0.601062  0.195525  1
  Lu  Lu3  1  0.601062  0.195525  0.601062  1
  Lu  Lu4  1  0.195525  0.601062  0.601062  1
  Lu  Lu5  1  0.060373  0.441166  0.441166  1
  Lu  Lu6  1  0.440294  0.061912  0.061912  1
  Lu  Lu7  1  0.441166  0.060373  0.441166  1
  Lu  Lu8  1  0.061912  0.440294  0.061912  1
  Lu  Lu9  1  0.441166  0.441166  0.060373  1
  Lu  Lu10  1  0.061912  0.061912  0.440294  1
  Lu  Lu11  1  0.184822  0.814759  0.814759  1
  Lu  Lu12  1  0.810976  0.187579  0.187579  1
  Lu  Lu13  1  0.814759  0.184822  0.814759  1
  Lu  Lu14  1  0.187579  0.810976  0.187579  1
  Lu  Lu15  1  0.814759  0.814759  0.184822  1
  Lu  Lu16  1  0.187579  0.187579  0.810976  1
  In  In17  1  0.834101  0.834101  0.501375  1
  In  In18  1  0.834101  0.501375  0.834101  1
  In  In19  1  0.501375  0.834101  0.834101  1
  Pt  Pt20  1  0.393199  0.393199  0.393199  1
  Pt  Pt21  1  0.393018  0.393018  0.822221  1
  Pt  Pt22  1  0.393018  0.822221  0.393018  1
  Pt  Pt23  1  0.822221  0.393018  0.393018  1
