# generated using pymatgen
data_TbEr3Al18AgIr5
_symmetry_space_group_name_H-M   'P 1'
_cell_length_a   7.55632602
_cell_length_b   7.55518676
_cell_length_c   9.42383700
_cell_angle_alpha   90.12154301
_cell_angle_beta   90.10220446
_cell_angle_gamma   119.71011643
_symmetry_Int_Tables_number   1
_chemical_formula_structural   TbEr3Al18AgIr5
_chemical_formula_sum   'Tb1 Er3 Al18 Ag1 Ir5'
_cell_volume   467.27462904
_cell_formula_units_Z   1
loop_
 _symmetry_equiv_pos_site_id
 _symmetry_equiv_pos_as_xyz
  1  'x, y, z'
loop_
 _atom_site_type_symbol
 _atom_site_label
 _atom_site_symmetry_multiplicity
 _atom_site_fract_x
 _atom_site_fract_y
 _atom_site_fract_z
 _atom_site_occupancy
  Tb  Tb0  1  0.327208  0.004666  0.749006  1
  Er  Er1  1  0.995270  0.672794  0.251343  1
  Er  Er2  1  0.004561  0.327253  0.748596  1
  Er  Er3  1  0.673103  0.995397  0.251387  1
  Al  Al4  1  0.133828  0.134048  0.255883  1
  Al  Al5  1  0.865608  0.866044  0.743979  1
  Al  Al6  1  0.001104  0.343813  0.080336  1
  Al  Al7  1  0.998329  0.655659  0.920565  1
  Al  Al8  1  0.000013  0.664203  0.573603  1
  Al  Al9  1  0.335372  0.999404  0.424734  1
  Al  Al10  1  0.999424  0.335383  0.425436  1
  Al  Al11  1  0.665178  0.000516  0.573656  1
  Al  Al12  1  0.656700  0.998696  0.920637  1
  Al  Al13  1  0.343852  0.001102  0.080955  1
  Al  Al14  1  0.332901  0.333301  0.552034  1
  Al  Al15  1  0.667037  0.667059  0.446608  1
  Al  Al16  1  0.658879  0.658899  0.060033  1
  Al  Al17  1  0.341126  0.341555  0.941366  1
  Al  Al18  1  0.339304  0.550279  0.251229  1
  Al  Al19  1  0.661338  0.450558  0.748735  1
  Al  Al20  1  0.550385  0.339542  0.251257  1
  Al  Al21  1  0.449901  0.660075  0.748714  1
  Ag  Ag22  1  0.999608  0.999750  0.000332  1
  Ir  Ir23  1  0.671876  0.328187  0.000301  1
  Ir  Ir24  1  0.328204  0.671868  0.000211  1
  Ir  Ir25  1  0.328128  0.672015  0.499787  1
  Ir  Ir26  1  0.672024  0.328115  0.499673  1
  Ir  Ir27  1  0.999738  0.999821  0.499602  1
