# generated using pymatgen
data_Sn(S4Cl)4
_symmetry_space_group_name_H-M   'P 1'
_cell_length_a   12.03182272
_cell_length_b   12.85141381
_cell_length_c   13.18026952
_cell_angle_alpha   102.33705489
_cell_angle_beta   62.84281838
_cell_angle_gamma   117.91186757
_symmetry_Int_Tables_number   1
_chemical_formula_structural   Sn(S4Cl)4
_chemical_formula_sum   'Sn2 S32 Cl8'
_cell_volume   1602.38863961
_cell_formula_units_Z   2
loop_
 _symmetry_equiv_pos_site_id
 _symmetry_equiv_pos_as_xyz
  1  'x, y, z'
loop_
 _atom_site_type_symbol
 _atom_site_label
 _atom_site_symmetry_multiplicity
 _atom_site_fract_x
 _atom_site_fract_y
 _atom_site_fract_z
 _atom_site_occupancy
  Sn  Sn0  1  0.002075  0.000000  0.000000  1
  Sn  Sn1  1  0.252074  0.500000  0.500001  1
  S  S2  1  0.472857  0.216723  0.003408  1
  S  S3  1  0.389455  0.326000  0.005247  1
  S  S4  1  0.657954  0.317269  0.017796  1
  S  S5  1  0.327977  0.652905  0.142373  1
  S  S6  1  0.919518  0.639127  0.159869  1
  S  S7  1  0.543656  0.009038  0.194432  1
  S  S8  1  0.167365  0.489632  0.200639  1
  S  S9  1  0.877495  0.479505  0.212171  1
  S  S10  1  0.339667  0.979505  0.287829  1
  S  S11  1  0.618004  0.989632  0.299361  1
  S  S12  1  0.988090  0.509039  0.305568  1
  S  S13  1  0.329386  0.139126  0.340131  1
  S  S14  1  0.720353  0.152906  0.357627  1
  S  S15  1  0.925751  0.817270  0.482204  1
  S  S16  1  0.644701  0.825999  0.494754  1
  S  S17  1  0.726266  0.716723  0.496592  1
  S  S18  1  0.506136  0.283277  0.503408  1
  S  S19  1  0.313455  0.174000  0.505246  1
  S  S20  1  0.590685  0.182730  0.517796  1
  S  S21  1  0.925073  0.847095  0.642373  1
  S  S22  1  0.530391  0.860873  0.659868  1
  S  S23  1  0.784619  0.490962  0.694432  1
  S  S24  1  0.927735  0.010368  0.700638  1
  S  S25  1  0.647989  0.020494  0.712172  1
  S  S26  1  0.610162  0.520495  0.787829  1
  S  S27  1  0.878372  0.510368  0.799361  1
  S  S28  1  0.729050  0.990962  0.805568  1
  S  S29  1  0.440260  0.360874  0.840131  1
  S  S30  1  0.817446  0.347094  0.857627  1
  S  S31  1  0.358481  0.682730  0.982204  1
  S  S32  1  0.068702  0.674000  0.994754  1
  S  S33  1  0.259542  0.783277  0.996592  1
  Cl  Cl34  1  0.808174  0.832429  0.999559  1
  Cl  Cl35  1  0.031070  0.999652  0.162262  1
  Cl  Cl36  1  0.443331  0.499652  0.337739  1
  Cl  Cl37  1  0.057733  0.332429  0.500442  1
  Cl  Cl38  1  0.225744  0.667571  0.499559  1
  Cl  Cl39  1  0.281418  0.500348  0.662261  1
  Cl  Cl40  1  0.193680  0.000348  0.837739  1
  Cl  Cl41  1  0.975305  0.167571  0.000441  1
