# generated using pymatgen
data_V16AsP11
_symmetry_space_group_name_H-M   'P 1'
_cell_length_a   6.86321285
_cell_length_b   6.86321220
_cell_length_c   17.22163600
_cell_angle_alpha   90.00000000
_cell_angle_beta   90.00000000
_cell_angle_gamma   27.45665071
_symmetry_Int_Tables_number   1
_chemical_formula_structural   V16AsP11
_chemical_formula_sum   'V16 As1 P11'
_cell_volume   374.02714011
_cell_formula_units_Z   1
loop_
 _symmetry_equiv_pos_site_id
 _symmetry_equiv_pos_as_xyz
  1  'x, y, z'
loop_
 _atom_site_type_symbol
 _atom_site_label
 _atom_site_symmetry_multiplicity
 _atom_site_fract_x
 _atom_site_fract_y
 _atom_site_fract_z
 _atom_site_occupancy
  V  V0  1  0.000128  0.000128  0.001120  1
  V  V1  1  0.000128  0.000128  0.498880  1
  V  V2  1  0.941350  0.941350  0.250000  1
  V  V3  1  0.064539  0.064539  0.750000  1
  V  V4  1  0.262161  0.262161  0.843213  1
  V  V5  1  0.735735  0.735735  0.338841  1
  V  V6  1  0.735735  0.735735  0.161159  1
  V  V7  1  0.262161  0.262161  0.656787  1
  V  V8  1  0.467725  0.467725  0.884982  1
  V  V9  1  0.533027  0.533027  0.380129  1
  V  V10  1  0.533027  0.533027  0.119871  1
  V  V11  1  0.467725  0.467725  0.615018  1
  V  V12  1  0.331116  0.331116  0.027194  1
  V  V13  1  0.667952  0.667952  0.526096  1
  V  V14  1  0.667952  0.667952  0.973905  1
  V  V15  1  0.331116  0.331116  0.472806  1
  As  As16  1  0.416734  0.416734  0.750000  1
  P  P17  1  0.097121  0.097121  0.884239  1
  P  P18  1  0.901779  0.901779  0.382901  1
  P  P19  1  0.901779  0.901779  0.117099  1
  P  P20  1  0.097121  0.097121  0.615761  1
  P  P21  1  0.303392  0.303392  0.250000  1
  P  P22  1  0.698921  0.698921  0.750000  1
  P  P23  1  0.581934  0.581934  0.250000  1
  P  P24  1  0.157222  0.157222  0.077138  1
  P  P25  1  0.842601  0.842601  0.575438  1
  P  P26  1  0.842601  0.842601  0.924562  1
  P  P27  1  0.157222  0.157222  0.422862  1
