# generated using pymatgen
data_Th3Sc(Co4P3)2
_symmetry_space_group_name_H-M   'P 1'
_cell_length_a   3.83104800
_cell_length_b   10.82901300
_cell_length_c   12.63562100
_cell_angle_alpha   90.00000000
_cell_angle_beta   90.00000000
_cell_angle_gamma   90.00000000
_symmetry_Int_Tables_number   1
_chemical_formula_structural   Th3Sc(Co4P3)2
_chemical_formula_sum   'Th6 Sc2 Co16 P12'
_cell_volume   524.20729380
_cell_formula_units_Z   2
loop_
 _symmetry_equiv_pos_site_id
 _symmetry_equiv_pos_as_xyz
  1  'x, y, z'
loop_
 _atom_site_type_symbol
 _atom_site_label
 _atom_site_symmetry_multiplicity
 _atom_site_fract_x
 _atom_site_fract_y
 _atom_site_fract_z
 _atom_site_occupancy
  Th  Th0  1  0.000000  0.500000  0.526942  1
  Th  Th1  1  0.500000  0.000000  0.473058  1
  Th  Th2  1  0.500000  0.819655  0.206280  1
  Th  Th3  1  0.500000  0.180345  0.206280  1
  Th  Th4  1  0.000000  0.680345  0.793720  1
  Th  Th5  1  0.000000  0.319655  0.793720  1
  Sc  Sc6  1  0.500000  0.500000  0.151174  1
  Sc  Sc7  1  0.000000  0.000000  0.848826  1
  Co  Co8  1  0.500000  0.500000  0.702902  1
  Co  Co9  1  0.000000  0.000000  0.297098  1
  Co  Co10  1  0.000000  0.500000  0.985304  1
  Co  Co11  1  0.500000  0.000000  0.014696  1
  Co  Co12  1  0.500000  0.331928  0.993562  1
  Co  Co13  1  0.500000  0.668072  0.993562  1
  Co  Co14  1  0.000000  0.168072  0.006438  1
  Co  Co15  1  0.000000  0.831928  0.006438  1
  Co  Co16  1  0.500000  0.297209  0.433410  1
  Co  Co17  1  0.500000  0.702791  0.433410  1
  Co  Co18  1  0.000000  0.202791  0.566590  1
  Co  Co19  1  0.000000  0.797209  0.566590  1
  Co  Co20  1  0.500000  0.878250  0.704451  1
  Co  Co21  1  0.500000  0.121750  0.704451  1
  Co  Co22  1  0.000000  0.621750  0.295549  1
  Co  Co23  1  0.000000  0.378250  0.295549  1
  P  P24  1  0.500000  0.500000  0.888037  1
  P  P25  1  0.000000  0.000000  0.111963  1
  P  P26  1  0.500000  0.500000  0.352603  1
  P  P27  1  0.000000  0.000000  0.647397  1
  P  P28  1  0.500000  0.305290  0.613353  1
  P  P29  1  0.500000  0.694710  0.613353  1
  P  P30  1  0.000000  0.194710  0.386647  1
  P  P31  1  0.000000  0.805290  0.386647  1
  P  P32  1  0.500000  0.842355  0.899436  1
  P  P33  1  0.500000  0.157645  0.899436  1
  P  P34  1  0.000000  0.657645  0.100564  1
  P  P35  1  0.000000  0.342355  0.100564  1
