# generated using pymatgen
data_Th6SiGeAu6
_symmetry_space_group_name_H-M   'P 1'
_cell_length_a   8.25219973
_cell_length_b   8.25219973
_cell_length_c   8.25219968
_cell_angle_alpha   113.83123463
_cell_angle_beta   113.83124392
_cell_angle_gamma   113.83121103
_symmetry_Int_Tables_number   1
_chemical_formula_structural   Th6SiGeAu6
_chemical_formula_sum   'Th6 Si1 Ge1 Au6'
_cell_volume   345.65359229
_cell_formula_units_Z   1
loop_
 _symmetry_equiv_pos_site_id
 _symmetry_equiv_pos_as_xyz
  1  'x, y, z'
loop_
 _atom_site_type_symbol
 _atom_site_label
 _atom_site_symmetry_multiplicity
 _atom_site_fract_x
 _atom_site_fract_y
 _atom_site_fract_z
 _atom_site_occupancy
  Th  Th0  1  0.036306  0.398271  0.281138  1
  Th  Th1  1  0.398271  0.281138  0.036306  1
  Th  Th2  1  0.718862  0.963694  0.601729  1
  Th  Th3  1  0.281138  0.036306  0.398271  1
  Th  Th4  1  0.601729  0.718862  0.963694  1
  Th  Th5  1  0.963694  0.601729  0.718862  1
  Si  Si6  1  0.000000  0.000000  0.000000  1
  Ge  Ge7  1  0.500000  0.500000  0.500000  1
  Au  Au8  1  0.436468  0.934641  0.769518  1
  Au  Au9  1  0.934641  0.769518  0.436468  1
  Au  Au10  1  0.230482  0.563532  0.065359  1
  Au  Au11  1  0.769518  0.436468  0.934641  1
  Au  Au12  1  0.065359  0.230482  0.563532  1
  Au  Au13  1  0.563532  0.065359  0.230482  1
