# generated using pymatgen
data_Ta4V4SiP3
_symmetry_space_group_name_H-M   'P 1'
_cell_length_a   3.41978500
_cell_length_b   6.43634768
_cell_length_c   7.74292883
_cell_angle_alpha   89.94722743
_cell_angle_beta   90.00000000
_cell_angle_gamma   90.00000000
_symmetry_Int_Tables_number   1
_chemical_formula_structural   Ta4V4SiP3
_chemical_formula_sum   'Ta4 V4 Si1 P3'
_cell_volume   170.42895528
_cell_formula_units_Z   1
loop_
 _symmetry_equiv_pos_site_id
 _symmetry_equiv_pos_as_xyz
  1  'x, y, z'
loop_
 _atom_site_type_symbol
 _atom_site_label
 _atom_site_symmetry_multiplicity
 _atom_site_fract_x
 _atom_site_fract_y
 _atom_site_fract_z
 _atom_site_occupancy
  Ta  Ta0  1  0.250000  0.537744  0.167731  1
  Ta  Ta1  1  0.750000  0.456118  0.831301  1
  Ta  Ta2  1  0.750000  0.966083  0.665896  1
  Ta  Ta3  1  0.250000  0.035830  0.331260  1
  V  V4  1  0.250000  0.634611  0.554537  1
  V  V5  1  0.750000  0.362606  0.441945  1
  V  V6  1  0.750000  0.867176  0.062851  1
  V  V7  1  0.250000  0.140043  0.942951  1
  Si  Si8  1  0.250000  0.759843  0.859780  1
  P  P9  1  0.750000  0.241165  0.141613  1
  P  P10  1  0.750000  0.737809  0.360492  1
  P  P11  1  0.250000  0.260972  0.639644  1
