# generated using pymatgen
data_Tb3Dy11Rh6
_symmetry_space_group_name_H-M   'P 1'
_cell_length_a   9.81396500
_cell_length_b   9.81396388
_cell_length_c   6.19482400
_cell_angle_alpha   90.00000000
_cell_angle_beta   90.00000000
_cell_angle_gamma   120.00000040
_symmetry_Int_Tables_number   1
_chemical_formula_structural   Tb3Dy11Rh6
_chemical_formula_sum   'Tb3 Dy11 Rh6'
_cell_volume   516.71201751
_cell_formula_units_Z   1
loop_
 _symmetry_equiv_pos_site_id
 _symmetry_equiv_pos_as_xyz
  1  'x, y, z'
loop_
 _atom_site_type_symbol
 _atom_site_label
 _atom_site_symmetry_multiplicity
 _atom_site_fract_x
 _atom_site_fract_y
 _atom_site_fract_z
 _atom_site_occupancy
  Tb  Tb0  1  0.459503  0.540497  0.945261  1
  Tb  Tb1  1  0.080994  0.540497  0.945261  1
  Tb  Tb2  1  0.459503  0.919006  0.945261  1
  Dy  Dy3  1  0.333333  0.666667  0.456535  1
  Dy  Dy4  1  0.666667  0.333333  0.956847  1
  Dy  Dy5  1  0.123812  0.876188  0.253990  1
  Dy  Dy6  1  0.752377  0.876188  0.253990  1
  Dy  Dy7  1  0.123812  0.247623  0.253990  1
  Dy  Dy8  1  0.876157  0.123843  0.753915  1
  Dy  Dy9  1  0.247687  0.123843  0.753915  1
  Dy  Dy10  1  0.876157  0.752313  0.753915  1
  Dy  Dy11  1  0.540756  0.459244  0.445041  1
  Dy  Dy12  1  0.918488  0.459244  0.445041  1
  Dy  Dy13  1  0.540756  0.081512  0.445041  1
  Rh  Rh14  1  0.810094  0.189906  0.179973  1
  Rh  Rh15  1  0.379814  0.189906  0.179973  1
  Rh  Rh16  1  0.810094  0.620186  0.179973  1
  Rh  Rh17  1  0.189800  0.810200  0.679547  1
  Rh  Rh18  1  0.620400  0.810200  0.679547  1
  Rh  Rh19  1  0.189800  0.379600  0.679547  1
