# generated using pymatgen
data_Li6PRh12Pb5
_symmetry_space_group_name_H-M   'P 1'
_cell_length_a   4.39951201
_cell_length_b   6.31183800
_cell_length_c   13.23191202
_cell_angle_alpha   90.00000000
_cell_angle_beta   89.99321033
_cell_angle_gamma   90.00000000
_symmetry_Int_Tables_number   1
_chemical_formula_structural   Li6PRh12Pb5
_chemical_formula_sum   'Li6 P1 Rh12 Pb5'
_cell_volume   367.43705597
_cell_formula_units_Z   1
loop_
 _symmetry_equiv_pos_site_id
 _symmetry_equiv_pos_as_xyz
  1  'x, y, z'
loop_
 _atom_site_type_symbol
 _atom_site_label
 _atom_site_symmetry_multiplicity
 _atom_site_fract_x
 _atom_site_fract_y
 _atom_site_fract_z
 _atom_site_occupancy
  Li  Li0  1  0.000000  0.000000  0.000000  1
  Li  Li1  1  0.499532  0.500000  0.169656  1
  Li  Li2  1  0.000816  0.000000  0.326740  1
  Li  Li3  1  0.500000  0.500000  0.500000  1
  Li  Li4  1  0.999184  0.000000  0.673261  1
  Li  Li5  1  0.500468  0.500000  0.830345  1
  P  P6  1  0.000000  0.500000  0.000000  1
  Rh  Rh7  1  0.500000  0.284718  0.000000  1
  Rh  Rh8  1  0.500000  0.715281  0.000000  1
  Rh  Rh9  1  0.999531  0.272119  0.146227  1
  Rh  Rh10  1  0.999531  0.727880  0.146227  1
  Rh  Rh11  1  0.500965  0.246972  0.328938  1
  Rh  Rh12  1  0.500965  0.753028  0.328938  1
  Rh  Rh13  1  0.000000  0.251932  0.500000  1
  Rh  Rh14  1  0.000000  0.748067  0.500000  1
  Rh  Rh15  1  0.499035  0.246972  0.671062  1
  Rh  Rh16  1  0.499035  0.753028  0.671062  1
  Rh  Rh17  1  0.000469  0.272119  0.853773  1
  Rh  Rh18  1  0.000469  0.727880  0.853773  1
  Pb  Pb19  1  0.499588  0.000000  0.159569  1
  Pb  Pb20  1  0.000992  0.500000  0.328608  1
  Pb  Pb21  1  0.500000  0.000000  0.500000  1
  Pb  Pb22  1  0.999008  0.500000  0.671393  1
  Pb  Pb23  1  0.500412  0.000000  0.840431  1
