# generated using pymatgen
data_Tm2MoOs3
_symmetry_space_group_name_H-M   'P 1'
_cell_length_a   5.43919015
_cell_length_b   5.43918892
_cell_length_c   8.54956000
_cell_angle_alpha   90.00000000
_cell_angle_beta   90.00000000
_cell_angle_gamma   120.01683895
_symmetry_Int_Tables_number   1
_chemical_formula_structural   Tm2MoOs3
_chemical_formula_sum   'Tm4 Mo2 Os6'
_cell_volume   219.01258212
_cell_formula_units_Z   2
loop_
 _symmetry_equiv_pos_site_id
 _symmetry_equiv_pos_as_xyz
  1  'x, y, z'
loop_
 _atom_site_type_symbol
 _atom_site_label
 _atom_site_symmetry_multiplicity
 _atom_site_fract_x
 _atom_site_fract_y
 _atom_site_fract_z
 _atom_site_occupancy
  Tm  Tm0  1  0.666668  0.333332  0.564828  1
  Tm  Tm1  1  0.333332  0.666668  0.435172  1
  Tm  Tm2  1  0.333332  0.666668  0.064828  1
  Tm  Tm3  1  0.666668  0.333332  0.935172  1
  Mo  Mo4  1  0.000000  0.000000  0.500000  1
  Mo  Mo5  1  0.000000  0.000000  0.000000  1
  Os  Os6  1  0.173252  0.346493  0.750000  1
  Os  Os7  1  0.173213  0.826787  0.750000  1
  Os  Os8  1  0.653507  0.826748  0.750000  1
  Os  Os9  1  0.826748  0.653507  0.250000  1
  Os  Os10  1  0.826787  0.173213  0.250000  1
  Os  Os11  1  0.346493  0.173252  0.250000  1
