# generated using pymatgen
data_Nb4VSiB2
_symmetry_space_group_name_H-M   'P 1'
_cell_length_a   7.26007747
_cell_length_b   7.26007726
_cell_length_c   7.26007765
_cell_angle_alpha   129.91822532
_cell_angle_beta   129.91822350
_cell_angle_gamma   73.53752974
_symmetry_Int_Tables_number   1
_chemical_formula_structural   Nb4VSiB2
_chemical_formula_sum   'Nb8 V2 Si2 B4'
_cell_volume   219.67071590
_cell_formula_units_Z   2
loop_
 _symmetry_equiv_pos_site_id
 _symmetry_equiv_pos_as_xyz
  1  'x, y, z'
loop_
 _atom_site_type_symbol
 _atom_site_label
 _atom_site_symmetry_multiplicity
 _atom_site_fract_x
 _atom_site_fract_y
 _atom_site_fract_z
 _atom_site_occupancy
  Nb  Nb0  1  0.806333  0.306333  0.841654  1
  Nb  Nb1  1  0.193667  0.693667  0.158346  1
  Nb  Nb2  1  0.464679  0.964679  0.158346  1
  Nb  Nb3  1  0.306333  0.464679  0.500000  1
  Nb  Nb4  1  0.035321  0.193667  0.500000  1
  Nb  Nb5  1  0.535321  0.035321  0.841654  1
  Nb  Nb6  1  0.693667  0.535321  0.500000  1
  Nb  Nb7  1  0.964679  0.806333  0.500000  1
  V  V8  1  0.000000  0.000000  0.000000  1
  V  V9  1  0.500000  0.500000  0.000000  1
  Si  Si10  1  0.250000  0.250000  0.000000  1
  Si  Si11  1  0.750000  0.750000  0.000000  1
  B  B12  1  0.117098  0.617098  0.734196  1
  B  B13  1  0.882902  0.382902  0.265804  1
  B  B14  1  0.617098  0.882902  0.500000  1
  B  B15  1  0.382902  0.117098  0.500000  1
