# generated using pymatgen
data_Dy10SiGeBi4
_symmetry_space_group_name_H-M   'P 1'
_cell_length_a   8.07429700
_cell_length_b   9.20809500
_cell_length_c   12.07719900
_cell_angle_alpha   90.00000000
_cell_angle_beta   90.00000000
_cell_angle_gamma   90.00000000
_symmetry_Int_Tables_number   1
_chemical_formula_structural   Dy10SiGeBi4
_chemical_formula_sum   'Dy20 Si2 Ge2 Bi8'
_cell_volume   897.92638627
_cell_formula_units_Z   2
loop_
 _symmetry_equiv_pos_site_id
 _symmetry_equiv_pos_as_xyz
  1  'x, y, z'
loop_
 _atom_site_type_symbol
 _atom_site_label
 _atom_site_symmetry_multiplicity
 _atom_site_fract_x
 _atom_site_fract_y
 _atom_site_fract_z
 _atom_site_occupancy
  Dy  Dy0  1  0.819263  0.551236  0.063263  1
  Dy  Dy1  1  0.680737  0.948764  0.563263  1
  Dy  Dy2  1  0.179562  0.054955  0.936975  1
  Dy  Dy3  1  0.320438  0.445045  0.436975  1
  Dy  Dy4  1  0.179562  0.445045  0.936975  1
  Dy  Dy5  1  0.320438  0.054955  0.436975  1
  Dy  Dy6  1  0.819263  0.948764  0.063263  1
  Dy  Dy7  1  0.680737  0.551236  0.563263  1
  Dy  Dy8  1  0.166592  0.750000  0.213726  1
  Dy  Dy9  1  0.333408  0.750000  0.713726  1
  Dy  Dy10  1  0.834088  0.250000  0.788010  1
  Dy  Dy11  1  0.665912  0.250000  0.288010  1
  Dy  Dy12  1  0.463300  0.750000  0.001725  1
  Dy  Dy13  1  0.036700  0.750000  0.501725  1
  Dy  Dy14  1  0.539134  0.250000  0.998663  1
  Dy  Dy15  1  0.960866  0.250000  0.498663  1
  Dy  Dy16  1  0.638512  0.750000  0.294016  1
  Dy  Dy17  1  0.861488  0.750000  0.794016  1
  Dy  Dy18  1  0.363469  0.250000  0.704378  1
  Dy  Dy19  1  0.136531  0.250000  0.204378  1
  Si  Si20  1  0.587392  0.250000  0.520446  1
  Si  Si21  1  0.912608  0.250000  0.020446  1
  Ge  Ge22  1  0.411251  0.750000  0.478201  1
  Ge  Ge23  1  0.088749  0.750000  0.978201  1
  Bi  Bi24  1  0.932682  0.510800  0.325695  1
  Bi  Bi25  1  0.567318  0.989200  0.825695  1
  Bi  Bi26  1  0.067427  0.010665  0.674483  1
  Bi  Bi27  1  0.432573  0.489335  0.174483  1
  Bi  Bi28  1  0.067427  0.489335  0.674483  1
  Bi  Bi29  1  0.432573  0.010665  0.174483  1
  Bi  Bi30  1  0.932682  0.989200  0.325695  1
  Bi  Bi31  1  0.567318  0.510800  0.825695  1
