# generated using pymatgen
data_SrHoLuGa8Ag3
_symmetry_space_group_name_H-M   'P 1'
_cell_length_a   4.37978384
_cell_length_b   8.46135970
_cell_length_c   8.46135916
_cell_angle_alpha   69.03324018
_cell_angle_beta   75.00048053
_cell_angle_gamma   75.00048201
_symmetry_Int_Tables_number   1
_chemical_formula_structural   SrHoLuGa8Ag3
_chemical_formula_sum   'Sr1 Ho1 Lu1 Ga8 Ag3'
_cell_volume   277.98740222
_cell_formula_units_Z   1
loop_
 _symmetry_equiv_pos_site_id
 _symmetry_equiv_pos_as_xyz
  1  'x, y, z'
loop_
 _atom_site_type_symbol
 _atom_site_label
 _atom_site_symmetry_multiplicity
 _atom_site_fract_x
 _atom_site_fract_y
 _atom_site_fract_z
 _atom_site_occupancy
  Sr  Sr0  1  0.499800  0.500200  0.500200  1
  Ho  Ho1  1  0.799248  0.200752  0.200752  1
  Lu  Lu2  1  0.200355  0.799645  0.799645  1
  Ga  Ga3  1  0.353663  0.362785  0.929888  1
  Ga  Ga4  1  0.646441  0.637847  0.069273  1
  Ga  Ga5  1  0.353663  0.929888  0.362785  1
  Ga  Ga6  1  0.646441  0.069273  0.637847  1
  Ga  Ga7  1  0.162651  0.470613  0.204086  1
  Ga  Ga8  1  0.836953  0.530101  0.795992  1
  Ga  Ga9  1  0.162651  0.204086  0.470613  1
  Ga  Ga10  1  0.836953  0.795992  0.530101  1
  Ag  Ag11  1  0.500371  0.999629  0.999629  1
  Ag  Ag12  1  0.000406  0.809233  0.189956  1
  Ag  Ag13  1  0.000406  0.189956  0.809233  1
