# generated using pymatgen
data_Na2NbFe2Ni9As7
_symmetry_space_group_name_H-M   'P 1'
_cell_length_a   9.51144278
_cell_length_b   9.46729862
_cell_length_c   3.78833500
_cell_angle_alpha   90.00000000
_cell_angle_beta   90.00000000
_cell_angle_gamma   119.73619962
_symmetry_Int_Tables_number   1
_chemical_formula_structural   Na2NbFe2Ni9As7
_chemical_formula_sum   'Na2 Nb1 Fe2 Ni9 As7'
_cell_volume   296.21006431
_cell_formula_units_Z   1
loop_
 _symmetry_equiv_pos_site_id
 _symmetry_equiv_pos_as_xyz
  1  'x, y, z'
loop_
 _atom_site_type_symbol
 _atom_site_label
 _atom_site_symmetry_multiplicity
 _atom_site_fract_x
 _atom_site_fract_y
 _atom_site_fract_z
 _atom_site_occupancy
  Na  Na0  1  0.337493  0.666370  0.000000  1
  Na  Na1  1  0.665724  0.331680  0.500000  1
  Nb  Nb2  1  0.903587  0.783588  0.500000  1
  Fe  Fe3  1  0.219841  0.120924  0.500000  1
  Fe  Fe4  1  0.878895  0.098363  0.500000  1
  Ni  Ni5  1  0.122147  0.284894  0.000000  1
  Ni  Ni6  1  0.718678  0.844340  0.000000  1
  Ni  Ni7  1  0.162495  0.878372  0.000000  1
  Ni  Ni8  1  0.426249  0.371035  0.000000  1
  Ni  Ni9  1  0.623166  0.055209  0.000000  1
  Ni  Ni10  1  0.944626  0.569950  0.000000  1
  Ni  Ni11  1  0.045503  0.427549  0.500000  1
  Ni  Ni12  1  0.564183  0.616914  0.500000  1
  Ni  Ni13  1  0.383162  0.952835  0.500000  1
  As  As14  1  0.291682  0.408564  0.500000  1
  As  As15  1  0.592528  0.884669  0.500000  1
  As  As16  1  0.126914  0.704831  0.500000  1
  As  As17  1  0.412562  0.119302  0.000000  1
  As  As18  1  0.877916  0.291038  0.000000  1
  As  As19  1  0.698134  0.580955  0.000000  1
  As  As20  1  0.004515  0.008617  0.000000  1
