# generated using pymatgen
data_Hf9Ta3ReGe
_symmetry_space_group_name_H-M   'P 1'
_cell_length_a   8.74400200
_cell_length_b   8.74400212
_cell_length_c   8.84418000
_cell_angle_alpha   90.00000000
_cell_angle_beta   90.00000000
_cell_angle_gamma   119.99999955
_symmetry_Int_Tables_number   1
_chemical_formula_structural   Hf9Ta3ReGe
_chemical_formula_sum   'Hf18 Ta6 Re2 Ge2'
_cell_volume   585.61030315
_cell_formula_units_Z   2
loop_
 _symmetry_equiv_pos_site_id
 _symmetry_equiv_pos_as_xyz
  1  'x, y, z'
loop_
 _atom_site_type_symbol
 _atom_site_label
 _atom_site_symmetry_multiplicity
 _atom_site_fract_x
 _atom_site_fract_y
 _atom_site_fract_z
 _atom_site_occupancy
  Hf  Hf0  1  0.196891  0.803109  0.453029  1
  Hf  Hf1  1  0.196891  0.393783  0.453029  1
  Hf  Hf2  1  0.606217  0.803109  0.453029  1
  Hf  Hf3  1  0.803109  0.196891  0.546971  1
  Hf  Hf4  1  0.803109  0.606217  0.546971  1
  Hf  Hf5  1  0.393783  0.196891  0.546971  1
  Hf  Hf6  1  0.803109  0.196891  0.953029  1
  Hf  Hf7  1  0.803109  0.606217  0.953029  1
  Hf  Hf8  1  0.393783  0.196891  0.953029  1
  Hf  Hf9  1  0.196891  0.803109  0.046971  1
  Hf  Hf10  1  0.196891  0.393783  0.046971  1
  Hf  Hf11  1  0.606217  0.803109  0.046971  1
  Hf  Hf12  1  0.538273  0.461727  0.250000  1
  Hf  Hf13  1  0.538273  0.076545  0.250000  1
  Hf  Hf14  1  0.923455  0.461727  0.250000  1
  Hf  Hf15  1  0.461727  0.538273  0.750000  1
  Hf  Hf16  1  0.461727  0.923455  0.750000  1
  Hf  Hf17  1  0.076545  0.538273  0.750000  1
  Ta  Ta18  1  0.889508  0.110492  0.250000  1
  Ta  Ta19  1  0.889508  0.779018  0.250000  1
  Ta  Ta20  1  0.220982  0.110492  0.250000  1
  Ta  Ta21  1  0.110492  0.889508  0.750000  1
  Ta  Ta22  1  0.110492  0.220982  0.750000  1
  Ta  Ta23  1  0.779018  0.889508  0.750000  1
  Re  Re24  1  0.000000  0.000000  0.500000  1
  Re  Re25  1  0.000000  0.000000  0.000000  1
  Ge  Ge26  1  0.333333  0.666667  0.250000  1
  Ge  Ge27  1  0.666667  0.333333  0.750000  1
