# generated using pymatgen
data_NdNp2Ni3Bi4
_symmetry_space_group_name_H-M   'P 1'
_cell_length_a   8.47641160
_cell_length_b   8.47641232
_cell_length_c   8.47641100
_cell_angle_alpha   109.98271015
_cell_angle_beta   109.21608341
_cell_angle_gamma   109.21607818
_symmetry_Int_Tables_number   1
_chemical_formula_structural   NdNp2Ni3Bi4
_chemical_formula_sum   'Nd2 Np4 Ni6 Bi8'
_cell_volume   468.80071241
_cell_formula_units_Z   2
loop_
 _symmetry_equiv_pos_site_id
 _symmetry_equiv_pos_as_xyz
  1  'x, y, z'
loop_
 _atom_site_type_symbol
 _atom_site_label
 _atom_site_symmetry_multiplicity
 _atom_site_fract_x
 _atom_site_fract_y
 _atom_site_fract_z
 _atom_site_occupancy
  Nd  Nd0  1  0.250000  0.125000  0.875000  1
  Nd  Nd1  1  0.750000  0.375000  0.625000  1
  Np  Np2  1  0.127228  0.877228  0.250000  1
  Np  Np3  1  0.372772  0.622772  0.750000  1
  Np  Np4  1  0.872772  0.250000  0.122772  1
  Np  Np5  1  0.627228  0.750000  0.377228  1
  Ni  Ni6  1  0.628146  0.378146  0.250000  1
  Ni  Ni7  1  0.871854  0.121854  0.750000  1
  Ni  Ni8  1  0.371854  0.250000  0.621854  1
  Ni  Ni9  1  0.128146  0.750000  0.878146  1
  Ni  Ni10  1  0.250000  0.625000  0.375000  1
  Ni  Ni11  1  0.750000  0.875000  0.125000  1
  Bi  Bi12  1  0.337021  0.339607  0.339660  1
  Bi  Bi13  1  0.162979  0.502639  0.002585  1
  Bi  Bi14  1  0.000055  0.160393  0.497415  1
  Bi  Bi15  1  0.837021  0.839660  0.839607  1
  Bi  Bi16  1  0.499945  0.997361  0.160340  1
  Bi  Bi17  1  0.662979  0.502585  0.002639  1
  Bi  Bi18  1  0.500055  0.997415  0.660393  1
  Bi  Bi19  1  0.999945  0.660340  0.497361  1
