# generated using pymatgen
data_Li3Ca6Th2Si12Pd
_symmetry_space_group_name_H-M   'P 1'
_cell_length_a   8.33315900
_cell_length_b   8.33316015
_cell_length_c   8.39811300
_cell_angle_alpha   90.00000000
_cell_angle_beta   90.00000000
_cell_angle_gamma   119.99999148
_symmetry_Int_Tables_number   1
_chemical_formula_structural   Li3Ca6Th2Si12Pd
_chemical_formula_sum   'Li3 Ca6 Th2 Si12 Pd1'
_cell_volume   505.04698113
_cell_formula_units_Z   1
loop_
 _symmetry_equiv_pos_site_id
 _symmetry_equiv_pos_as_xyz
  1  'x, y, z'
loop_
 _atom_site_type_symbol
 _atom_site_label
 _atom_site_symmetry_multiplicity
 _atom_site_fract_x
 _atom_site_fract_y
 _atom_site_fract_z
 _atom_site_occupancy
  Li  Li0  1  0.666667  0.333333  0.999472  1
  Li  Li1  1  0.333333  0.666667  0.001021  1
  Li  Li2  1  0.333333  0.666667  0.499446  1
  Ca  Ca3  1  0.501792  0.498208  0.748229  1
  Ca  Ca4  1  0.502177  0.497823  0.251748  1
  Ca  Ca5  1  0.996416  0.498208  0.748229  1
  Ca  Ca6  1  0.995645  0.497823  0.251748  1
  Ca  Ca7  1  0.501792  0.003584  0.748229  1
  Ca  Ca8  1  0.502177  0.004355  0.251748  1
  Th  Th9  1  0.000000  0.000000  0.750224  1
  Th  Th10  1  0.000000  0.000000  0.249770  1
  Si  Si11  1  0.835899  0.164101  0.000029  1
  Si  Si12  1  0.164830  0.835170  0.999909  1
  Si  Si13  1  0.328203  0.164101  0.000029  1
  Si  Si14  1  0.162754  0.837246  0.499995  1
  Si  Si15  1  0.670341  0.835170  0.999909  1
  Si  Si16  1  0.833449  0.166551  0.500069  1
  Si  Si17  1  0.835899  0.671797  0.000029  1
  Si  Si18  1  0.674492  0.837246  0.499995  1
  Si  Si19  1  0.164830  0.329659  0.999909  1
  Si  Si20  1  0.333101  0.166551  0.500069  1
  Si  Si21  1  0.162754  0.325508  0.499995  1
  Si  Si22  1  0.833449  0.666899  0.500069  1
  Pd  Pd23  1  0.666667  0.333333  0.500131  1
