# generated using pymatgen
data_Y3SiPt5
_symmetry_space_group_name_H-M   'P 1'
_cell_length_a   8.23085083
_cell_length_b   8.23085119
_cell_length_c   8.23085003
_cell_angle_alpha   127.37233063
_cell_angle_beta   125.95401469
_cell_angle_gamma   78.80621827
_symmetry_Int_Tables_number   1
_chemical_formula_structural   Y3SiPt5
_chemical_formula_sum   'Y6 Si2 Pt10'
_cell_volume   347.11937187
_cell_formula_units_Z   2
loop_
 _symmetry_equiv_pos_site_id
 _symmetry_equiv_pos_as_xyz
  1  'x, y, z'
loop_
 _atom_site_type_symbol
 _atom_site_label
 _atom_site_symmetry_multiplicity
 _atom_site_fract_x
 _atom_site_fract_y
 _atom_site_fract_z
 _atom_site_occupancy
  Y  Y0  1  0.828009  0.548849  0.279161  1
  Y  Y1  1  0.611598  0.250000  0.361598  1
  Y  Y2  1  0.171991  0.451151  0.720839  1
  Y  Y3  1  0.388402  0.750000  0.638402  1
  Y  Y4  1  0.230312  0.951151  0.279161  1
  Y  Y5  1  0.769688  0.048849  0.720839  1
  Si  Si6  1  0.219587  0.250000  0.969587  1
  Si  Si7  1  0.780413  0.750000  0.030413  1
  Pt  Pt8  1  0.169509  0.900306  0.856557  1
  Pt  Pt9  1  0.830491  0.099694  0.143443  1
  Pt  Pt10  1  0.456251  0.187048  0.856557  1
  Pt  Pt11  1  0.543749  0.400306  0.730797  1
  Pt  Pt12  1  0.830491  0.687048  0.730797  1
  Pt  Pt13  1  0.456251  0.599694  0.269203  1
  Pt  Pt14  1  0.543749  0.812952  0.143443  1
  Pt  Pt15  1  0.169509  0.312952  0.269203  1
  Pt  Pt16  1  0.000000  0.000000  0.500000  1
  Pt  Pt17  1  0.000000  0.500000  0.000000  1
