# generated using pymatgen
data_Ce5Nd2Ho(Ti3Si4)4
_symmetry_space_group_name_H-M   'P 1'
_cell_length_a   7.11478523
_cell_length_b   7.11000629
_cell_length_c   13.13550655
_cell_angle_alpha   90.16786104
_cell_angle_beta   89.87186201
_cell_angle_gamma   90.20085873
_symmetry_Int_Tables_number   1
_chemical_formula_structural   Ce5Nd2Ho(Ti3Si4)4
_chemical_formula_sum   'Ce5 Nd2 Ho1 Ti12 Si16'
_cell_volume   664.46635606
_cell_formula_units_Z   1
loop_
 _symmetry_equiv_pos_site_id
 _symmetry_equiv_pos_as_xyz
  1  'x, y, z'
loop_
 _atom_site_type_symbol
 _atom_site_label
 _atom_site_symmetry_multiplicity
 _atom_site_fract_x
 _atom_site_fract_y
 _atom_site_fract_z
 _atom_site_occupancy
  Ce  Ce0  1  0.336910  0.004762  0.466682  1
  Ce  Ce1  1  0.488974  0.831628  0.717979  1
  Ce  Ce2  1  0.510374  0.167301  0.216942  1
  Ce  Ce3  1  0.833461  0.490727  0.282502  1
  Ce  Ce4  1  0.167635  0.510938  0.782387  1
  Nd  Nd5  1  0.661918  0.996261  0.968138  1
  Nd  Nd6  1  0.006103  0.334734  0.531686  1
  Ho  Ho7  1  0.999899  0.660418  0.032551  1
  Ti  Ti8  1  0.326265  0.327814  0.000256  1
  Ti  Ti9  1  0.174444  0.826817  0.250544  1
  Ti  Ti10  1  0.826542  0.173392  0.750879  1
  Ti  Ti11  1  0.670567  0.674484  0.499793  1
  Ti  Ti12  1  0.154783  0.009926  0.878346  1
  Ti  Ti13  1  0.492923  0.655944  0.127237  1
  Ti  Ti14  1  0.508397  0.342276  0.627387  1
  Ti  Ti15  1  0.656177  0.494678  0.873271  1
  Ti  Ti16  1  0.343262  0.508399  0.371168  1
  Ti  Ti17  1  0.842114  0.990771  0.376005  1
  Ti  Ti18  1  0.008478  0.156430  0.122294  1
  Ti  Ti19  1  0.993012  0.842300  0.623099  1
  Si  Si20  1  0.200557  0.126690  0.689571  1
  Si  Si21  1  0.369580  0.698680  0.939182  1
  Si  Si22  1  0.624244  0.299613  0.438192  1
  Si  Si23  1  0.703468  0.377957  0.062214  1
  Si  Si24  1  0.301521  0.627358  0.561070  1
  Si  Si25  1  0.802741  0.869174  0.186348  1
  Si  Si26  1  0.128171  0.198180  0.310534  1
  Si  Si27  1  0.872417  0.798675  0.813229  1
  Si  Si28  1  0.287871  0.953158  0.067512  1
  Si  Si29  1  0.545399  0.790900  0.314545  1
  Si  Si30  1  0.454348  0.210821  0.815190  1
  Si  Si31  1  0.790431  0.545376  0.685352  1
  Si  Si32  1  0.208300  0.456616  0.183685  1
  Si  Si33  1  0.707404  0.041026  0.567510  1
  Si  Si34  1  0.956985  0.295374  0.933479  1
  Si  Si35  1  0.044325  0.710404  0.433239  1
