# generated using pymatgen
data_Tb2Tm3(CoB3)2
_symmetry_space_group_name_H-M   'P 1'
_cell_length_a   5.39168165
_cell_length_b   5.39168132
_cell_length_c   8.25805819
_cell_angle_alpha   70.94658168
_cell_angle_beta   70.94657145
_cell_angle_gamma   59.99998840
_symmetry_Int_Tables_number   1
_chemical_formula_structural   Tb2Tm3(CoB3)2
_chemical_formula_sum   'Tb2 Tm3 Co2 B6'
_cell_volume   192.56493985
_cell_formula_units_Z   1
loop_
 _symmetry_equiv_pos_site_id
 _symmetry_equiv_pos_as_xyz
  1  'x, y, z'
loop_
 _atom_site_type_symbol
 _atom_site_label
 _atom_site_symmetry_multiplicity
 _atom_site_fract_x
 _atom_site_fract_y
 _atom_site_fract_z
 _atom_site_occupancy
  Tb  Tb0  1  0.253403  0.253403  0.239791  1
  Tb  Tb1  1  0.746597  0.746597  0.760209  1
  Tm  Tm2  1  0.000000  0.000000  0.000000  1
  Tm  Tm3  1  0.416925  0.416925  0.749224  1
  Tm  Tm4  1  0.583075  0.583075  0.250776  1
  Co  Co5  1  0.119264  0.119264  0.642207  1
  Co  Co6  1  0.880736  0.880736  0.357793  1
  B  B7  1  0.168801  0.831199  0.500000  1
  B  B8  1  0.831199  0.500000  0.500000  1
  B  B9  1  0.500000  0.168801  0.500000  1
  B  B10  1  0.168801  0.500000  0.500000  1
  B  B11  1  0.500000  0.831199  0.500000  1
  B  B12  1  0.831199  0.168801  0.500000  1
