# generated using pymatgen
data_DyV6InO18
_symmetry_space_group_name_H-M   'P 1'
_cell_length_a   7.37083387
_cell_length_b   8.37004312
_cell_length_c   9.46588827
_cell_angle_alpha   106.00685148
_cell_angle_beta   112.98898386
_cell_angle_gamma   64.02609350
_symmetry_Int_Tables_number   1
_chemical_formula_structural   DyV6InO18
_chemical_formula_sum   'Dy1 V6 In1 O18'
_cell_volume   479.42418181
_cell_formula_units_Z   1
loop_
 _symmetry_equiv_pos_site_id
 _symmetry_equiv_pos_as_xyz
  1  'x, y, z'
loop_
 _atom_site_type_symbol
 _atom_site_label
 _atom_site_symmetry_multiplicity
 _atom_site_fract_x
 _atom_site_fract_y
 _atom_site_fract_z
 _atom_site_occupancy
  Dy  Dy0  1  0.201195  0.857103  0.742336  1
  V  V1  1  0.749625  0.604603  0.011877  1
  V  V2  1  0.984523  0.914282  0.075865  1
  V  V3  1  0.423545  0.804137  0.415225  1
  V  V4  1  0.651293  0.110380  0.500850  1
  V  V5  1  0.167729  0.405232  0.569654  1
  V  V6  1  0.200971  0.308073  0.923247  1
  In  In7  1  0.681965  0.358626  0.243976  1
  O  O8  1  0.375047  0.390012  0.066861  1
  O  O9  1  0.827871  0.134242  0.092830  1
  O  O10  1  0.856999  0.778198  0.084845  1
  O  O11  1  0.690194  0.562973  0.149861  1
  O  O12  1  0.222394  0.875563  0.237593  1
  O  O13  1  0.645174  0.177711  0.345614  1
  O  O14  1  0.992775  0.339583  0.411529  1
  O  O15  1  0.535651  0.577824  0.399182  1
  O  O16  1  0.614619  0.900365  0.448457  1
  O  O17  1  0.317129  0.880678  0.561300  1
  O  O18  1  0.120512  0.624386  0.582551  1
  O  O19  1  0.437929  0.273678  0.571725  1
  O  O20  1  0.889064  0.076548  0.639069  1
  O  O21  1  0.147619  0.374093  0.741849  1
  O  O22  1  0.529940  0.668489  0.858019  1
  O  O23  1  0.049563  0.855212  0.910906  1
  O  O24  1  0.294809  0.082705  0.906933  1
  O  O25  1  0.948659  0.401908  0.958048  1
