# generated using pymatgen
data_Er4Co3Si4Ru
_symmetry_space_group_name_H-M   'P 1'
_cell_length_a   4.19988400
_cell_length_b   6.82881903
_cell_length_c   6.98297732
_cell_angle_alpha   90.20611965
_cell_angle_beta   90.00000000
_cell_angle_gamma   90.00000000
_symmetry_Int_Tables_number   1
_chemical_formula_structural   Er4Co3Si4Ru
_chemical_formula_sum   'Er4 Co3 Si4 Ru1'
_cell_volume   200.27222368
_cell_formula_units_Z   1
loop_
 _symmetry_equiv_pos_site_id
 _symmetry_equiv_pos_as_xyz
  1  'x, y, z'
loop_
 _atom_site_type_symbol
 _atom_site_label
 _atom_site_symmetry_multiplicity
 _atom_site_fract_x
 _atom_site_fract_y
 _atom_site_fract_z
 _atom_site_occupancy
  Er  Er0  1  0.250000  0.986688  0.805645  1
  Er  Er1  1  0.750000  0.012667  0.192925  1
  Er  Er2  1  0.250000  0.482013  0.686326  1
  Er  Er3  1  0.750000  0.511594  0.314748  1
  Co  Co4  1  0.750000  0.852092  0.567883  1
  Co  Co5  1  0.250000  0.154437  0.435759  1
  Co  Co6  1  0.750000  0.349347  0.933093  1
  Si  Si7  1  0.250000  0.298649  0.103509  1
  Si  Si8  1  0.750000  0.696662  0.888316  1
  Si  Si9  1  0.250000  0.805759  0.398839  1
  Si  Si10  1  0.750000  0.195745  0.606507  1
  Ru  Ru11  1  0.250000  0.654347  0.066449  1
