# generated using pymatgen
data_Y2Lu18Cd6NiRh
_symmetry_space_group_name_H-M   'P 1'
_cell_length_a   9.46628235
_cell_length_b   9.46628242
_cell_length_c   9.54498100
_cell_angle_alpha   90.00000000
_cell_angle_beta   90.00000000
_cell_angle_gamma   120.08069981
_symmetry_Int_Tables_number   1
_chemical_formula_structural   Y2Lu18Cd6NiRh
_chemical_formula_sum   'Y2 Lu18 Cd6 Ni1 Rh1'
_cell_volume   740.13488535
_cell_formula_units_Z   1
loop_
 _symmetry_equiv_pos_site_id
 _symmetry_equiv_pos_as_xyz
  1  'x, y, z'
loop_
 _atom_site_type_symbol
 _atom_site_label
 _atom_site_symmetry_multiplicity
 _atom_site_fract_x
 _atom_site_fract_y
 _atom_site_fract_z
 _atom_site_occupancy
  Y  Y0  1  0.541937  0.084732  0.250000  1
  Y  Y1  1  0.915268  0.458063  0.250000  1
  Lu  Lu2  1  0.000128  0.999872  0.499824  1
  Lu  Lu3  1  0.000128  0.999872  0.000176  1
  Lu  Lu4  1  0.541782  0.458218  0.250000  1
  Lu  Lu5  1  0.456932  0.543068  0.750000  1
  Lu  Lu6  1  0.456965  0.914147  0.750000  1
  Lu  Lu7  1  0.085853  0.543035  0.750000  1
  Lu  Lu8  1  0.209047  0.790953  0.441104  1
  Lu  Lu9  1  0.209824  0.417962  0.440899  1
  Lu  Lu10  1  0.582038  0.790176  0.440899  1
  Lu  Lu11  1  0.789417  0.210583  0.564064  1
  Lu  Lu12  1  0.788853  0.578629  0.563425  1
  Lu  Lu13  1  0.421371  0.211147  0.563425  1
  Lu  Lu14  1  0.789417  0.210583  0.935936  1
  Lu  Lu15  1  0.788853  0.578629  0.936575  1
  Lu  Lu16  1  0.421371  0.211147  0.936575  1
  Lu  Lu17  1  0.209047  0.790953  0.058896  1
  Lu  Lu18  1  0.209824  0.417962  0.059101  1
  Lu  Lu19  1  0.582038  0.790176  0.059101  1
  Cd  Cd20  1  0.885619  0.114381  0.250000  1
  Cd  Cd21  1  0.884616  0.770334  0.250000  1
  Cd  Cd22  1  0.229666  0.115384  0.250000  1
  Cd  Cd23  1  0.115459  0.884541  0.750000  1
  Cd  Cd24  1  0.115562  0.230929  0.750000  1
  Cd  Cd25  1  0.769071  0.884438  0.750000  1
  Ni  Ni26  1  0.666673  0.333327  0.750000  1
  Rh  Rh27  1  0.333242  0.666758  0.250000  1
