# generated using pymatgen
data_Lu5BeCoTe2
_symmetry_space_group_name_H-M   'P 1'
_cell_length_a   7.66325946
_cell_length_b   7.66325880
_cell_length_c   14.60563000
_cell_angle_alpha   90.00000000
_cell_angle_beta   90.00000000
_cell_angle_gamma   150.59665631
_symmetry_Int_Tables_number   1
_chemical_formula_structural   Lu5BeCoTe2
_chemical_formula_sum   'Lu10 Be2 Co2 Te4'
_cell_volume   421.10330153
_cell_formula_units_Z   2
loop_
 _symmetry_equiv_pos_site_id
 _symmetry_equiv_pos_as_xyz
  1  'x, y, z'
loop_
 _atom_site_type_symbol
 _atom_site_label
 _atom_site_symmetry_multiplicity
 _atom_site_fract_x
 _atom_site_fract_y
 _atom_site_fract_z
 _atom_site_occupancy
  Lu  Lu0  1  0.959813  0.040187  0.123105  1
  Lu  Lu1  1  0.040188  0.959812  0.876895  1
  Lu  Lu2  1  0.040187  0.959813  0.623105  1
  Lu  Lu3  1  0.959812  0.040188  0.376895  1
  Lu  Lu4  1  0.740501  0.259499  0.632290  1
  Lu  Lu5  1  0.259499  0.740501  0.367710  1
  Lu  Lu6  1  0.259499  0.740501  0.132290  1
  Lu  Lu7  1  0.740501  0.259499  0.867710  1
  Lu  Lu8  1  0.605013  0.394987  0.250000  1
  Lu  Lu9  1  0.394987  0.605013  0.750000  1
  Be  Be10  1  0.406459  0.593541  0.250000  1
  Be  Be11  1  0.593541  0.406459  0.750000  1
  Co  Co12  1  0.827130  0.172870  0.250000  1
  Co  Co13  1  0.172870  0.827130  0.750000  1
  Te  Te14  1  0.615075  0.384925  0.039549  1
  Te  Te15  1  0.384925  0.615075  0.960451  1
  Te  Te16  1  0.384925  0.615075  0.539549  1
  Te  Te17  1  0.615075  0.384925  0.460451  1
