# generated using pymatgen
data_Ce2DyBi(MoO4)6
_symmetry_space_group_name_H-M   'P 1'
_cell_length_a   7.61519305
_cell_length_b   7.61009716
_cell_length_c   10.90323461
_cell_angle_alpha   89.96932055
_cell_angle_beta   90.21478474
_cell_angle_gamma   89.83310875
_symmetry_Int_Tables_number   1
_chemical_formula_structural   Ce2DyBi(MoO4)6
_chemical_formula_sum   'Ce2 Dy1 Bi1 Mo6 O24'
_cell_volume   631.86095224
_cell_formula_units_Z   1
loop_
 _symmetry_equiv_pos_site_id
 _symmetry_equiv_pos_as_xyz
  1  'x, y, z'
loop_
 _atom_site_type_symbol
 _atom_site_label
 _atom_site_symmetry_multiplicity
 _atom_site_fract_x
 _atom_site_fract_y
 _atom_site_fract_z
 _atom_site_occupancy
  Ce  Ce0  1  0.188449  0.689188  0.737151  1
  Ce  Ce1  1  0.686582  0.813383  0.260259  1
  Dy  Dy2  1  0.308224  0.191924  0.265139  1
  Bi  Bi3  1  0.806387  0.305979  0.739269  1
  Mo  Mo4  1  0.209415  0.707122  0.353133  1
  Mo  Mo5  1  0.793033  0.290480  0.353110  1
  Mo  Mo6  1  0.707521  0.793921  0.646508  1
  Mo  Mo7  1  0.293184  0.208212  0.639510  1
  Mo  Mo8  1  0.004556  0.005652  0.002723  1
  Mo  Mo9  1  0.496332  0.493197  0.002603  1
  O  O10  1  0.003699  0.221913  0.297528  1
  O  O11  1  0.998826  0.767380  0.295195  1
  O  O12  1  0.226777  0.000106  0.698413  1
  O  O13  1  0.500365  0.726287  0.705476  1
  O  O14  1  0.774386  0.001891  0.708024  1
  O  O15  1  0.501573  0.273379  0.700682  1
  O  O16  1  0.277788  0.496439  0.297509  1
  O  O17  1  0.732697  0.501278  0.295032  1
  O  O18  1  0.185766  0.054180  0.102070  1
  O  O19  1  0.814495  0.957242  0.093229  1
  O  O20  1  0.055865  0.818883  0.909471  1
  O  O21  1  0.311324  0.537436  0.905802  1
  O  O22  1  0.959683  0.190943  0.905223  1
  O  O23  1  0.683249  0.441102  0.908716  1
  O  O24  1  0.446188  0.313517  0.102443  1
  O  O25  1  0.543154  0.684665  0.093109  1
  O  O26  1  0.621820  0.133457  0.305908  1
  O  O27  1  0.365949  0.877990  0.306452  1
  O  O28  1  0.130400  0.371632  0.685857  1
  O  O29  1  0.872030  0.630512  0.692682  1
  O  O30  1  0.199294  0.698109  0.516519  1
  O  O31  1  0.801581  0.300796  0.515978  1
  O  O32  1  0.695033  0.805659  0.483280  1
  O  O33  1  0.304379  0.196144  0.475998  1
