# generated using pymatgen
data_YbPr(PaPt2)2
_symmetry_space_group_name_H-M   'P 1'
_cell_length_a   4.50858000
_cell_length_b   5.69764122
_cell_length_c   7.23279536
_cell_angle_alpha   90.46238783
_cell_angle_beta   90.00000000
_cell_angle_gamma   90.00000000
_symmetry_Int_Tables_number   1
_chemical_formula_structural   YbPr(PaPt2)2
_chemical_formula_sum   'Yb1 Pr1 Pa2 Pt4'
_cell_volume   185.79195875
_cell_formula_units_Z   1
loop_
 _symmetry_equiv_pos_site_id
 _symmetry_equiv_pos_as_xyz
  1  'x, y, z'
loop_
 _atom_site_type_symbol
 _atom_site_label
 _atom_site_symmetry_multiplicity
 _atom_site_fract_x
 _atom_site_fract_y
 _atom_site_fract_z
 _atom_site_occupancy
  Yb  Yb0  1  0.250000  0.351742  0.684460  1
  Pr  Pr1  1  0.750000  0.846275  0.811692  1
  Pa  Pa2  1  0.250000  0.149373  0.180320  1
  Pa  Pa3  1  0.750000  0.647122  0.321195  1
  Pt  Pt4  1  0.250000  0.843268  0.520194  1
  Pt  Pt5  1  0.250000  0.662449  0.074556  1
  Pt  Pt6  1  0.750000  0.168090  0.429954  1
  Pt  Pt7  1  0.750000  0.331681  0.977629  1
