# generated using pymatgen
data_Sc3Ti3SiBi2
_symmetry_space_group_name_H-M   'P 1'
_cell_length_a   7.36529700
_cell_length_b   7.36529635
_cell_length_c   4.02786600
_cell_angle_alpha   90.00000000
_cell_angle_beta   90.00000000
_cell_angle_gamma   119.99998047
_symmetry_Int_Tables_number   1
_chemical_formula_structural   Sc3Ti3SiBi2
_chemical_formula_sum   'Sc3 Ti3 Si1 Bi2'
_cell_volume   189.22835804
_cell_formula_units_Z   1
loop_
 _symmetry_equiv_pos_site_id
 _symmetry_equiv_pos_as_xyz
  1  'x, y, z'
loop_
 _atom_site_type_symbol
 _atom_site_label
 _atom_site_symmetry_multiplicity
 _atom_site_fract_x
 _atom_site_fract_y
 _atom_site_fract_z
 _atom_site_occupancy
  Sc  Sc0  1  0.382004  0.382004  0.500000  1
  Sc  Sc1  1  0.617996  0.000000  0.500000  1
  Sc  Sc2  1  0.000000  0.617996  0.500000  1
  Ti  Ti3  1  0.782020  0.782020  0.000000  1
  Ti  Ti4  1  0.217980  0.000000  0.000000  1
  Ti  Ti5  1  0.000000  0.217980  0.000000  1
  Si  Si6  1  0.000000  0.000000  0.500000  1
  Bi  Bi7  1  0.666667  0.333333  0.000000  1
  Bi  Bi8  1  0.333333  0.666667  0.000000  1
