# generated using pymatgen
data_Cs5AgBi2
_symmetry_space_group_name_H-M   'P 1'
_cell_length_a   11.22155103
_cell_length_b   11.22155095
_cell_length_c   11.22155184
_cell_angle_alpha   34.61181831
_cell_angle_beta   34.61181745
_cell_angle_gamma   34.61181597
_symmetry_Int_Tables_number   1
_chemical_formula_structural   Cs5AgBi2
_chemical_formula_sum   'Cs5 Ag1 Bi2'
_cell_volume   406.80177883
_cell_formula_units_Z   1
loop_
 _symmetry_equiv_pos_site_id
 _symmetry_equiv_pos_as_xyz
  1  'x, y, z'
loop_
 _atom_site_type_symbol
 _atom_site_label
 _atom_site_symmetry_multiplicity
 _atom_site_fract_x
 _atom_site_fract_y
 _atom_site_fract_z
 _atom_site_occupancy
  Cs  Cs0  1  0.217610  0.217610  0.217610  1
  Cs  Cs1  1  0.367224  0.367224  0.367224  1
  Cs  Cs2  1  0.500000  0.500000  0.500000  1
  Cs  Cs3  1  0.632776  0.632776  0.632776  1
  Cs  Cs4  1  0.782390  0.782390  0.782390  1
  Ag  Ag5  1  0.000000  0.000000  0.000000  1
  Bi  Bi6  1  0.089019  0.089019  0.089019  1
  Bi  Bi7  1  0.910981  0.910981  0.910981  1
