# generated using pymatgen
data_Tb8Nd4ZnGaCo4
_symmetry_space_group_name_H-M   'P 1'
_cell_length_a   8.39830816
_cell_length_b   8.39830093
_cell_length_c   8.39830838
_cell_angle_alpha   112.61619700
_cell_angle_beta   108.70146689
_cell_angle_gamma   107.14598141
_symmetry_Int_Tables_number   1
_chemical_formula_structural   Tb8Nd4ZnGaCo4
_chemical_formula_sum   'Tb8 Nd4 Zn1 Ga1 Co4'
_cell_volume   454.87178708
_cell_formula_units_Z   1
loop_
 _symmetry_equiv_pos_site_id
 _symmetry_equiv_pos_as_xyz
  1  'x, y, z'
loop_
 _atom_site_type_symbol
 _atom_site_label
 _atom_site_symmetry_multiplicity
 _atom_site_fract_x
 _atom_site_fract_y
 _atom_site_fract_z
 _atom_site_occupancy
  Tb  Tb0  1  0.671073  0.858009  0.186936  1
  Tb  Tb1  1  0.328927  0.515863  0.186936  1
  Tb  Tb2  1  0.328927  0.141991  0.813064  1
  Tb  Tb3  1  0.671073  0.484137  0.813064  1
  Tb  Tb4  1  0.176546  0.218310  0.394856  1
  Tb  Tb5  1  0.823454  0.218310  0.041764  1
  Tb  Tb6  1  0.176546  0.781690  0.958236  1
  Tb  Tb7  1  0.823454  0.781690  0.605144  1
  Nd  Nd8  1  0.040231  0.737809  0.302422  1
  Nd  Nd9  1  0.959769  0.262191  0.697578  1
  Nd  Nd10  1  0.564612  0.262191  0.302421  1
  Nd  Nd11  1  0.435388  0.737809  0.697579  1
  Zn  Zn12  1  0.000000  0.500000  0.500000  1
  Ga  Ga13  1  0.500000  0.000000  0.500000  1
  Co  Co14  1  0.662270  0.500000  0.162270  1
  Co  Co15  1  0.337730  0.500000  0.837730  1
  Co  Co16  1  0.886255  0.886256  0.000000  1
  Co  Co17  1  0.113745  0.113744  0.000000  1
