# generated using pymatgen
data_NbV3Co2NiSe12
_symmetry_space_group_name_H-M   'P 1'
_cell_length_a   7.13726182
_cell_length_b   7.13726186
_cell_length_c   18.90705579
_cell_angle_alpha   69.85561841
_cell_angle_beta   69.85561923
_cell_angle_gamma   27.06592923
_symmetry_Int_Tables_number   1
_chemical_formula_structural   NbV3Co2NiSe12
_chemical_formula_sum   'Nb1 V3 Co2 Ni1 Se12'
_cell_volume   409.82637916
_cell_formula_units_Z   1
loop_
 _symmetry_equiv_pos_site_id
 _symmetry_equiv_pos_as_xyz
  1  'x, y, z'
loop_
 _atom_site_type_symbol
 _atom_site_label
 _atom_site_symmetry_multiplicity
 _atom_site_fract_x
 _atom_site_fract_y
 _atom_site_fract_z
 _atom_site_occupancy
  Nb  Nb0  1  0.383392  0.383392  0.146860  1
  V  V1  1  0.741360  0.741360  0.595547  1
  V  V2  1  0.256742  0.256742  0.407020  1
  V  V3  1  0.619267  0.619267  0.849551  1
  Co  Co4  1  0.772315  0.772315  0.282922  1
  Co  Co5  1  0.225692  0.225692  0.719202  1
  Ni  Ni6  1  0.001252  0.001252  0.998632  1
  Se  Se7  1  0.856952  0.856952  0.454760  1
  Se  Se8  1  0.037592  0.037592  0.110241  1
  Se  Se9  1  0.799860  0.799860  0.770565  1
  Se  Se10  1  0.395691  0.395691  0.283905  1
  Se  Se11  1  0.175414  0.175414  0.926750  1
  Se  Se12  1  0.602641  0.602641  0.720232  1
  Se  Se13  1  0.141198  0.141198  0.548282  1
  Se  Se14  1  0.822992  0.822992  0.065106  1
  Se  Se15  1  0.365646  0.365646  0.606413  1
  Se  Se16  1  0.974993  0.974993  0.884652  1
  Se  Se17  1  0.194325  0.194325  0.233129  1
  Se  Se18  1  0.632677  0.632677  0.396230  1
