# generated using pymatgen
data_Y3Ti2(Co2Si5)2
_symmetry_space_group_name_H-M   'P 1'
_cell_length_a   12.12630200
_cell_length_b   12.12630200
_cell_length_c   3.97604400
_cell_angle_alpha   90.00000000
_cell_angle_beta   90.00000000
_cell_angle_gamma   90.00000000
_symmetry_Int_Tables_number   1
_chemical_formula_structural   Y3Ti2(Co2Si5)2
_chemical_formula_sum   'Y6 Ti4 Co8 Si20'
_cell_volume   584.66613805
_cell_formula_units_Z   2
loop_
 _symmetry_equiv_pos_site_id
 _symmetry_equiv_pos_as_xyz
  1  'x, y, z'
loop_
 _atom_site_type_symbol
 _atom_site_label
 _atom_site_symmetry_multiplicity
 _atom_site_fract_x
 _atom_site_fract_y
 _atom_site_fract_z
 _atom_site_occupancy
  Y  Y0  1  0.000000  0.000000  0.000000  1
  Y  Y1  1  0.500000  0.500000  0.000000  1
  Y  Y2  1  0.885968  0.385968  0.500000  1
  Y  Y3  1  0.385968  0.114032  0.500000  1
  Y  Y4  1  0.614032  0.885968  0.500000  1
  Y  Y5  1  0.114032  0.614032  0.500000  1
  Ti  Ti6  1  0.673896  0.173896  0.500000  1
  Ti  Ti7  1  0.173896  0.326104  0.500000  1
  Ti  Ti8  1  0.826104  0.673896  0.500000  1
  Ti  Ti9  1  0.326104  0.826104  0.500000  1
  Co  Co10  1  0.522651  0.253282  0.000000  1
  Co  Co11  1  0.253282  0.477349  0.000000  1
  Co  Co12  1  0.746718  0.522651  0.000000  1
  Co  Co13  1  0.477349  0.746718  0.000000  1
  Co  Co14  1  0.977349  0.753282  0.000000  1
  Co  Co15  1  0.022651  0.246718  0.000000  1
  Co  Co16  1  0.753282  0.022651  0.000000  1
  Co  Co17  1  0.246718  0.977349  0.000000  1
  Si  Si18  1  0.571011  0.071011  0.000000  1
  Si  Si19  1  0.071011  0.428989  0.000000  1
  Si  Si20  1  0.928989  0.571011  0.000000  1
  Si  Si21  1  0.428989  0.928989  0.000000  1
  Si  Si22  1  0.195136  0.161857  0.000000  1
  Si  Si23  1  0.161857  0.804864  0.000000  1
  Si  Si24  1  0.838143  0.195136  0.000000  1
  Si  Si25  1  0.804864  0.838143  0.000000  1
  Si  Si26  1  0.304864  0.661857  0.000000  1
  Si  Si27  1  0.695136  0.338143  0.000000  1
  Si  Si28  1  0.661857  0.695136  0.000000  1
  Si  Si29  1  0.338143  0.304864  0.000000  1
  Si  Si30  1  0.015640  0.168287  0.500000  1
  Si  Si31  1  0.168287  0.984360  0.500000  1
  Si  Si32  1  0.831713  0.015640  0.500000  1
  Si  Si33  1  0.984360  0.831713  0.500000  1
  Si  Si34  1  0.484360  0.668287  0.500000  1
  Si  Si35  1  0.515640  0.331713  0.500000  1
  Si  Si36  1  0.668287  0.515640  0.500000  1
  Si  Si37  1  0.331713  0.484360  0.500000  1
