# generated using pymatgen
data_Ho2U(InIr)3
_symmetry_space_group_name_H-M   'P 1'
_cell_length_a   7.47681067
_cell_length_b   7.47681098
_cell_length_c   3.84610100
_cell_angle_alpha   90.00000000
_cell_angle_beta   90.00000000
_cell_angle_gamma   117.44620064
_symmetry_Int_Tables_number   1
_chemical_formula_structural   Ho2U(InIr)3
_chemical_formula_sum   'Ho2 U1 In3 Ir3'
_cell_volume   190.80705727
_cell_formula_units_Z   1
loop_
 _symmetry_equiv_pos_site_id
 _symmetry_equiv_pos_as_xyz
  1  'x, y, z'
loop_
 _atom_site_type_symbol
 _atom_site_label
 _atom_site_symmetry_multiplicity
 _atom_site_fract_x
 _atom_site_fract_y
 _atom_site_fract_z
 _atom_site_occupancy
  Ho  Ho0  1  0.404526  0.000105  0.000000  1
  Ho  Ho1  1  0.000105  0.404526  0.000000  1
  U  U2  1  0.583360  0.583360  0.000000  1
  In  In3  1  0.011638  0.740440  0.500000  1
  In  In4  1  0.243743  0.243743  0.500000  1
  In  In5  1  0.740440  0.011638  0.500000  1
  Ir  Ir6  1  0.987905  0.987905  0.000000  1
  Ir  Ir7  1  0.662285  0.365999  0.500000  1
  Ir  Ir8  1  0.365999  0.662285  0.500000  1
