# generated using pymatgen
data_La2Yb2TmRu2
_symmetry_space_group_name_H-M   'P 1'
_cell_length_a   6.53397566
_cell_length_b   7.32207699
_cell_length_c   8.83517133
_cell_angle_alpha   96.24883472
_cell_angle_beta   111.70147879
_cell_angle_gamma   90.00000274
_symmetry_Int_Tables_number   1
_chemical_formula_structural   La2Yb2TmRu2
_chemical_formula_sum   'La4 Yb4 Tm2 Ru4'
_cell_volume   390.03107843
_cell_formula_units_Z   2
loop_
 _symmetry_equiv_pos_site_id
 _symmetry_equiv_pos_as_xyz
  1  'x, y, z'
loop_
 _atom_site_type_symbol
 _atom_site_label
 _atom_site_symmetry_multiplicity
 _atom_site_fract_x
 _atom_site_fract_y
 _atom_site_fract_z
 _atom_site_occupancy
  La  La0  1  0.792771  0.091784  0.813849  1
  La  La1  1  0.978924  0.408216  0.186151  1
  La  La2  1  0.207229  0.908216  0.186151  1
  La  La3  1  0.021076  0.591784  0.813849  1
  Yb  Yb4  1  0.201381  0.184932  0.575644  1
  Yb  Yb5  1  0.625737  0.315068  0.424356  1
  Yb  Yb6  1  0.798619  0.815068  0.424356  1
  Yb  Yb7  1  0.374263  0.684932  0.575644  1
  Tm  Tm8  1  0.429271  0.250000  0.000000  1
  Tm  Tm9  1  0.570729  0.750000  0.000000  1
  Ru  Ru10  1  0.620663  0.412291  0.794250  1
  Ru  Ru11  1  0.826412  0.087709  0.205750  1
  Ru  Ru12  1  0.379337  0.587709  0.205750  1
  Ru  Ru13  1  0.173588  0.912291  0.794250  1
