# generated using pymatgen
data_Tb3YBi5SbRh7
_symmetry_space_group_name_H-M   'P 1'
_cell_length_a   7.78140931
_cell_length_b   7.79146291
_cell_length_c   7.78606807
_cell_angle_alpha   110.14392720
_cell_angle_beta   110.09223467
_cell_angle_gamma   108.18707341
_symmetry_Int_Tables_number   1
_chemical_formula_structural   Tb3YBi5SbRh7
_chemical_formula_sum   'Tb3 Y1 Bi5 Sb1 Rh7'
_cell_volume   363.24487777
_cell_formula_units_Z   1
loop_
 _symmetry_equiv_pos_site_id
 _symmetry_equiv_pos_as_xyz
  1  'x, y, z'
loop_
 _atom_site_type_symbol
 _atom_site_label
 _atom_site_symmetry_multiplicity
 _atom_site_fract_x
 _atom_site_fract_y
 _atom_site_fract_z
 _atom_site_occupancy
  Tb  Tb0  1  0.002914  0.480854  0.000000  1
  Tb  Tb1  1  0.002797  0.002798  0.521702  1
  Tb  Tb2  1  0.481095  0.481096  0.478298  1
  Y  Y3  1  0.480650  0.002963  0.000000  1
  Bi  Bi4  1  0.988629  0.301923  0.312899  1
  Bi  Bi5  1  0.675730  0.989025  0.687101  1
  Bi  Bi6  1  0.697793  0.698349  0.000000  1
  Bi  Bi7  1  0.989589  0.676376  0.687198  1
  Bi  Bi8  1  0.302389  0.989178  0.312802  1
  Sb  Sb9  1  0.340912  0.340316  0.000000  1
  Rh  Rh10  1  0.054685  0.055116  0.000000  1
  Rh  Rh11  1  0.499969  0.748249  0.248963  1
  Rh  Rh12  1  0.748821  0.500376  0.249101  1
  Rh  Rh13  1  0.241489  0.741249  0.499681  1
  Rh  Rh14  1  0.251006  0.499286  0.751037  1
  Rh  Rh15  1  0.499721  0.251276  0.750899  1
  Rh  Rh16  1  0.741808  0.241568  0.500319  1
