# generated using pymatgen
data_YHoV2(WO6)2
_symmetry_space_group_name_H-M   'P 1'
_cell_length_a   5.23448704
_cell_length_b   7.43664305
_cell_length_c   11.18313500
_cell_angle_alpha   90.00000000
_cell_angle_beta   90.00000000
_cell_angle_gamma   90.01388913
_symmetry_Int_Tables_number   1
_chemical_formula_structural   YHoV2(WO6)2
_chemical_formula_sum   'Y2 Ho2 V4 W4 O24'
_cell_volume   435.32601396
_cell_formula_units_Z   2
loop_
 _symmetry_equiv_pos_site_id
 _symmetry_equiv_pos_as_xyz
  1  'x, y, z'
loop_
 _atom_site_type_symbol
 _atom_site_label
 _atom_site_symmetry_multiplicity
 _atom_site_fract_x
 _atom_site_fract_y
 _atom_site_fract_z
 _atom_site_occupancy
  Y  Y0  1  0.544175  0.250867  0.045235  1
  Y  Y1  1  0.044174  0.750867  0.454765  1
  Ho  Ho2  1  0.954701  0.250890  0.545592  1
  Ho  Ho3  1  0.454700  0.750890  0.954408  1
  V  V4  1  0.050750  0.997405  0.133901  1
  V  V5  1  0.550748  0.497405  0.366099  1
  V  V6  1  0.448922  0.998407  0.634391  1
  V  V7  1  0.948921  0.498407  0.865608  1
  W  W8  1  0.056319  0.506263  0.143326  1
  W  W9  1  0.556317  0.006263  0.356673  1
  W  W10  1  0.443282  0.505722  0.643799  1
  W  W11  1  0.943283  0.005722  0.856201  1
  O  O12  1  0.756056  0.958635  0.019644  1
  O  O13  1  0.764469  0.547600  0.029190  1
  O  O14  1  0.181375  0.749538  0.115388  1
  O  O15  1  0.935231  0.258165  0.142863  1
  O  O16  1  0.374620  0.433537  0.206591  1
  O  O17  1  0.391647  0.068293  0.213957  1
  O  O18  1  0.891646  0.568293  0.286043  1
  O  O19  1  0.874619  0.933537  0.293409  1
  O  O20  1  0.435230  0.758165  0.357137  1
  O  O21  1  0.681374  0.249538  0.384612  1
  O  O22  1  0.264470  0.047600  0.470809  1
  O  O23  1  0.256057  0.458635  0.480356  1
  O  O24  1  0.743707  0.961126  0.520134  1
  O  O25  1  0.735410  0.545497  0.529782  1
  O  O26  1  0.321182  0.749270  0.616283  1
  O  O27  1  0.567365  0.258119  0.643201  1
  O  O28  1  0.124165  0.432320  0.706012  1
  O  O29  1  0.106628  0.068545  0.713193  1
  O  O30  1  0.606627  0.568545  0.786808  1
  O  O31  1  0.624164  0.932320  0.793988  1
  O  O32  1  0.067364  0.758119  0.856798  1
  O  O33  1  0.821181  0.249270  0.883716  1
  O  O34  1  0.235411  0.045497  0.970217  1
  O  O35  1  0.243708  0.461126  0.979866  1
