# generated using pymatgen
data_Pr16Ho4Si15Br
_symmetry_space_group_name_H-M   'P 1'
_cell_length_a   7.91394366
_cell_length_b   7.84219066
_cell_length_c   15.26814000
_cell_angle_alpha   89.63921540
_cell_angle_beta   89.13749836
_cell_angle_gamma   90.34675085
_symmetry_Int_Tables_number   1
_chemical_formula_structural   Pr16Ho4Si15Br
_chemical_formula_sum   'Pr16 Ho4 Si15 Br1'
_cell_volume   947.43725651
_cell_formula_units_Z   1
loop_
 _symmetry_equiv_pos_site_id
 _symmetry_equiv_pos_as_xyz
  1  'x, y, z'
loop_
 _atom_site_type_symbol
 _atom_site_label
 _atom_site_symmetry_multiplicity
 _atom_site_fract_x
 _atom_site_fract_y
 _atom_site_fract_z
 _atom_site_occupancy
  Pr  Pr0  1  0.379388  0.006113  0.442781  1
  Pr  Pr1  1  0.495555  0.865758  0.699485  1
  Pr  Pr2  1  0.510698  0.122275  0.196775  1
  Pr  Pr3  1  0.873214  0.484615  0.300004  1
  Pr  Pr4  1  0.123978  0.520017  0.804321  1
  Pr  Pr5  1  0.635156  0.984771  0.952698  1
  Pr  Pr6  1  0.997715  0.381959  0.544012  1
  Pr  Pr7  1  0.992626  0.623996  0.053269  1
  Pr  Pr8  1  0.140811  0.987300  0.875182  1
  Pr  Pr9  1  0.520863  0.629349  0.126835  1
  Pr  Pr10  1  0.477944  0.369259  0.631426  1
  Pr  Pr11  1  0.636038  0.524199  0.876189  1
  Pr  Pr12  1  0.367604  0.475373  0.374089  1
  Pr  Pr13  1  0.870980  0.021406  0.377322  1
  Pr  Pr14  1  0.982039  0.126774  0.123225  1
  Pr  Pr15  1  0.015388  0.864490  0.619365  1
  Ho  Ho16  1  0.314099  0.310890  0.999394  1
  Ho  Ho17  1  0.186145  0.808911  0.249405  1
  Ho  Ho18  1  0.793560  0.189935  0.753466  1
  Ho  Ho19  1  0.684004  0.687358  0.498317  1
  Si  Si20  1  0.331742  0.694114  0.953145  1
  Si  Si21  1  0.662618  0.309083  0.455975  1
  Si  Si22  1  0.698476  0.333139  0.048539  1
  Si  Si23  1  0.309085  0.668932  0.546645  1
  Si  Si24  1  0.808728  0.829720  0.205295  1
  Si  Si25  1  0.169367  0.189127  0.293932  1
  Si  Si26  1  0.840774  0.811364  0.794741  1
  Si  Si27  1  0.288303  0.924271  0.061606  1
  Si  Si28  1  0.575605  0.783684  0.311885  1
  Si  Si29  1  0.456233  0.209371  0.826763  1
  Si  Si30  1  0.789562  0.574497  0.686175  1
  Si  Si31  1  0.211943  0.425293  0.187576  1
  Si  Si32  1  0.705611  0.073768  0.563191  1
  Si  Si33  1  0.931183  0.290501  0.937936  1
  Si  Si34  1  0.074002  0.711464  0.436359  1
  Br  Br35  1  0.148961  0.186923  0.692674  1
