# generated using pymatgen
data_Zr6Al16Fe3Ni4
_symmetry_space_group_name_H-M   'P 1'
_cell_length_a   8.56859422
_cell_length_b   8.56802412
_cell_length_c   8.48709402
_cell_angle_alpha   60.31888883
_cell_angle_beta   60.31276736
_cell_angle_gamma   59.32962945
_symmetry_Int_Tables_number   1
_chemical_formula_structural   Zr6Al16Fe3Ni4
_chemical_formula_sum   'Zr6 Al16 Fe3 Ni4'
_cell_volume   440.37425007
_cell_formula_units_Z   1
loop_
 _symmetry_equiv_pos_site_id
 _symmetry_equiv_pos_as_xyz
  1  'x, y, z'
loop_
 _atom_site_type_symbol
 _atom_site_label
 _atom_site_symmetry_multiplicity
 _atom_site_fract_x
 _atom_site_fract_y
 _atom_site_fract_z
 _atom_site_occupancy
  Zr  Zr0  1  0.704354  0.704344  0.295652  1
  Zr  Zr1  1  0.309354  0.690640  0.309537  1
  Zr  Zr2  1  0.690597  0.309407  0.309580  1
  Zr  Zr3  1  0.295646  0.295656  0.704348  1
  Zr  Zr4  1  0.690646  0.309360  0.690463  1
  Zr  Zr5  1  0.309403  0.690593  0.690420  1
  Al  Al6  1  0.884922  0.884933  0.353092  1
  Al  Al7  1  0.877159  0.352984  0.884931  1
  Al  Al8  1  0.352975  0.877158  0.884938  1
  Al  Al9  1  0.884923  0.884924  0.877055  1
  Al  Al10  1  0.115078  0.115067  0.646908  1
  Al  Al11  1  0.122841  0.647016  0.115069  1
  Al  Al12  1  0.647025  0.122842  0.115062  1
  Al  Al13  1  0.115077  0.115076  0.122945  1
  Al  Al14  1  0.665980  0.665994  0.002657  1
  Al  Al15  1  0.665728  0.002605  0.665841  1
  Al  Al16  1  0.002591  0.665739  0.665832  1
  Al  Al17  1  0.665988  0.665983  0.665377  1
  Al  Al18  1  0.334020  0.334006  0.997343  1
  Al  Al19  1  0.334272  0.997395  0.334159  1
  Al  Al20  1  0.997409  0.334261  0.334168  1
  Al  Al21  1  0.334012  0.334017  0.334623  1
  Fe  Fe22  1  0.000000  0.000000  0.000000  1
  Fe  Fe23  1  0.000000  0.000000  0.500000  1
  Fe  Fe24  1  0.500000  0.500000  0.000000  1
  Ni  Ni25  1  0.500000  0.000000  0.500000  1
  Ni  Ni26  1  0.000000  0.500000  0.500000  1
  Ni  Ni27  1  0.000000  0.500000  0.000000  1
  Ni  Ni28  1  0.500000  0.000000  0.000000  1
