# generated using pymatgen
data_TmZrB(IrRh2)2
_symmetry_space_group_name_H-M   'P 1'
_cell_length_a   5.75735550
_cell_length_b   5.75735621
_cell_length_c   5.73989294
_cell_angle_alpha   60.20985644
_cell_angle_beta   60.20985644
_cell_angle_gamma   60.11303537
_symmetry_Int_Tables_number   1
_chemical_formula_structural   TmZrB(IrRh2)2
_chemical_formula_sum   'Tm1 Zr1 B1 Ir2 Rh4'
_cell_volume   135.07569942
_cell_formula_units_Z   1
loop_
 _symmetry_equiv_pos_site_id
 _symmetry_equiv_pos_as_xyz
  1  'x, y, z'
loop_
 _atom_site_type_symbol
 _atom_site_label
 _atom_site_symmetry_multiplicity
 _atom_site_fract_x
 _atom_site_fract_y
 _atom_site_fract_z
 _atom_site_occupancy
  Tm  Tm0  1  0.750544  0.750544  0.750344  1
  Zr  Zr1  1  0.249331  0.249331  0.250250  1
  B  B2  1  0.000221  0.000221  0.999328  1
  Ir  Ir3  1  0.741202  0.259316  0.742245  1
  Ir  Ir4  1  0.259316  0.741202  0.742245  1
  Rh  Rh5  1  0.742286  0.742286  0.258602  1
  Rh  Rh6  1  0.256941  0.742400  0.257408  1
  Rh  Rh7  1  0.742400  0.256941  0.257408  1
  Rh  Rh8  1  0.257759  0.257759  0.742171  1
