# generated using pymatgen
data_NdTi4BiO12
_symmetry_space_group_name_H-M   'P 1'
_cell_length_a   5.31330403
_cell_length_b   6.70323998
_cell_length_c   7.50020323
_cell_angle_alpha   67.52274534
_cell_angle_beta   68.95013050
_cell_angle_gamma   81.77342673
_symmetry_Int_Tables_number   1
_chemical_formula_structural   NdTi4BiO12
_chemical_formula_sum   'Nd1 Ti4 Bi1 O12'
_cell_volume   230.35938987
_cell_formula_units_Z   1
loop_
 _symmetry_equiv_pos_site_id
 _symmetry_equiv_pos_as_xyz
  1  'x, y, z'
loop_
 _atom_site_type_symbol
 _atom_site_label
 _atom_site_symmetry_multiplicity
 _atom_site_fract_x
 _atom_site_fract_y
 _atom_site_fract_z
 _atom_site_occupancy
  Nd  Nd0  1  0.745393  0.495809  0.749748  1
  Ti  Ti1  1  0.287617  0.891538  0.463050  1
  Ti  Ti2  1  0.799835  0.895002  0.969026  1
  Ti  Ti3  1  0.702067  0.104823  0.531044  1
  Ti  Ti4  1  0.212043  0.108057  0.038215  1
  Bi  Bi5  1  0.251809  0.500705  0.250137  1
  O  O6  1  0.199945  0.608302  0.498441  1
  O  O7  1  0.854457  0.385783  0.451926  1
  O  O8  1  0.011012  0.060754  0.319775  1
  O  O9  1  0.956863  0.885601  0.695630  1
  O  O10  1  0.297658  0.390424  0.004912  1
  O  O11  1  0.647169  0.615266  0.043239  1
  O  O12  1  0.543143  0.820828  0.590196  1
  O  O13  1  0.419626  0.198826  0.415639  1
  O  O14  1  0.488727  0.936259  0.180928  1
  O  O15  1  0.544416  0.121588  0.802864  1
  O  O16  1  0.955711  0.179345  0.912265  1
  O  O17  1  0.082508  0.801091  0.082966  1
