# generated using pymatgen
data_Ca2Nd(B3Ir4)2
_symmetry_space_group_name_H-M   'P 1'
_cell_length_a   9.94410627
_cell_length_b   9.07598788
_cell_length_c   5.66220640
_cell_angle_alpha   81.29872620
_cell_angle_beta   64.44817314
_cell_angle_gamma   34.25310087
_symmetry_Int_Tables_number   1
_chemical_formula_structural   Ca2Nd(B3Ir4)2
_chemical_formula_sum   'Ca2 Nd1 B6 Ir8'
_cell_volume   237.36169632
_cell_formula_units_Z   1
loop_
 _symmetry_equiv_pos_site_id
 _symmetry_equiv_pos_as_xyz
  1  'x, y, z'
loop_
 _atom_site_type_symbol
 _atom_site_label
 _atom_site_symmetry_multiplicity
 _atom_site_fract_x
 _atom_site_fract_y
 _atom_site_fract_z
 _atom_site_occupancy
  Ca  Ca0  1  0.317417  0.317417  0.682583  1
  Ca  Ca1  1  0.682583  0.682583  0.317417  1
  Nd  Nd2  1  0.500000  0.500000  0.500000  1
  B  B3  1  0.670310  0.983458  0.016542  1
  B  B4  1  0.983458  0.670310  0.329690  1
  B  B5  1  0.329690  0.016542  0.983458  1
  B  B6  1  0.016542  0.329690  0.670310  1
  B  B7  1  0.167700  0.832300  0.167700  1
  B  B8  1  0.832300  0.167700  0.832300  1
  Ir  Ir9  1  0.585653  0.585653  0.914347  1
  Ir  Ir10  1  0.912516  0.912516  0.087484  1
  Ir  Ir11  1  0.414347  0.414347  0.085653  1
  Ir  Ir12  1  0.085653  0.085653  0.414347  1
  Ir  Ir13  1  0.914347  0.914347  0.585653  1
  Ir  Ir14  1  0.250000  0.250000  0.250000  1
  Ir  Ir15  1  0.087484  0.087484  0.912516  1
  Ir  Ir16  1  0.750000  0.750000  0.750000  1
