# generated using pymatgen
data_Ce5Sc(Be2Rh5)2
_symmetry_space_group_name_H-M   'P 1'
_cell_length_a   9.80145700
_cell_length_b   9.80145700
_cell_length_c   3.44907000
_cell_angle_alpha   90.00000000
_cell_angle_beta   90.00000000
_cell_angle_gamma   90.00000000
_symmetry_Int_Tables_number   1
_chemical_formula_structural   Ce5Sc(Be2Rh5)2
_chemical_formula_sum   'Ce5 Sc1 Be4 Rh10'
_cell_volume   331.34718590
_cell_formula_units_Z   1
loop_
 _symmetry_equiv_pos_site_id
 _symmetry_equiv_pos_as_xyz
  1  'x, y, z'
loop_
 _atom_site_type_symbol
 _atom_site_label
 _atom_site_symmetry_multiplicity
 _atom_site_fract_x
 _atom_site_fract_y
 _atom_site_fract_z
 _atom_site_occupancy
  Ce  Ce0  1  0.818470  0.332661  0.000000  1
  Ce  Ce1  1  0.332661  0.181530  0.000000  1
  Ce  Ce2  1  0.667339  0.818470  0.000000  1
  Ce  Ce3  1  0.181530  0.667339  0.000000  1
  Ce  Ce4  1  0.000000  0.000000  0.000000  1
  Sc  Sc5  1  0.500000  0.500000  0.000000  1
  Be  Be6  1  0.622229  0.117218  0.000000  1
  Be  Be7  1  0.117218  0.377771  0.000000  1
  Be  Be8  1  0.882782  0.622229  0.000000  1
  Be  Be9  1  0.377771  0.882782  0.000000  1
  Rh  Rh10  1  0.071200  0.219536  0.500000  1
  Rh  Rh11  1  0.219536  0.928800  0.500000  1
  Rh  Rh12  1  0.780464  0.071200  0.500000  1
  Rh  Rh13  1  0.928800  0.780464  0.500000  1
  Rh  Rh14  1  0.426934  0.719059  0.500000  1
  Rh  Rh15  1  0.573066  0.280941  0.500000  1
  Rh  Rh16  1  0.719059  0.573066  0.500000  1
  Rh  Rh17  1  0.280941  0.426934  0.500000  1
  Rh  Rh18  1  0.500000  0.000000  0.500000  1
  Rh  Rh19  1  0.000000  0.500000  0.500000  1
