# generated using pymatgen
data_Dy3Y4Ho(ReC2)4
_symmetry_space_group_name_H-M   'P 1'
_cell_length_a   5.11136000
_cell_length_b   6.59199829
_cell_length_c   9.87993244
_cell_angle_alpha   89.96580444
_cell_angle_beta   90.00000000
_cell_angle_gamma   90.00000000
_symmetry_Int_Tables_number   1
_chemical_formula_structural   Dy3Y4Ho(ReC2)4
_chemical_formula_sum   'Dy3 Y4 Ho1 Re4 C8'
_cell_volume   332.89513914
_cell_formula_units_Z   1
loop_
 _symmetry_equiv_pos_site_id
 _symmetry_equiv_pos_as_xyz
  1  'x, y, z'
loop_
 _atom_site_type_symbol
 _atom_site_label
 _atom_site_symmetry_multiplicity
 _atom_site_fract_x
 _atom_site_fract_y
 _atom_site_fract_z
 _atom_site_occupancy
  Dy  Dy0  1  0.250000  0.820931  0.056330  1
  Dy  Dy1  1  0.750000  0.679212  0.556638  1
  Dy  Dy2  1  0.250000  0.320667  0.443481  1
  Y  Y3  1  0.250000  0.466313  0.784346  1
  Y  Y4  1  0.750000  0.033377  0.283607  1
  Y  Y5  1  0.250000  0.966696  0.716196  1
  Y  Y6  1  0.750000  0.533480  0.215692  1
  Ho  Ho7  1  0.750000  0.178318  0.943342  1
  Re  Re8  1  0.250000  0.278930  0.133966  1
  Re  Re9  1  0.750000  0.221219  0.634671  1
  Re  Re10  1  0.250000  0.778976  0.365568  1
  Re  Re11  1  0.750000  0.721119  0.865894  1
  C  C12  1  0.250000  0.176533  0.951283  1
  C  C13  1  0.750000  0.824190  0.048293  1
  C  C14  1  0.250000  0.676813  0.548258  1
  C  C15  1  0.750000  0.323141  0.451874  1
  C  C16  1  0.250000  0.046063  0.258822  1
  C  C17  1  0.750000  0.453767  0.759646  1
  C  C18  1  0.250000  0.545899  0.240789  1
  C  C19  1  0.750000  0.954354  0.741305  1
