# generated using pymatgen
data_Yb2Cu5PtO8
_symmetry_space_group_name_H-M   'P 1'
_cell_length_a   5.60360900
_cell_length_b   5.60360900
_cell_length_c   5.59955000
_cell_angle_alpha   90.00000000
_cell_angle_beta   90.00000000
_cell_angle_gamma   90.00000000
_symmetry_Int_Tables_number   1
_chemical_formula_structural   Yb2Cu5PtO8
_chemical_formula_sum   'Yb2 Cu5 Pt1 O8'
_cell_volume   175.82829922
_cell_formula_units_Z   1
loop_
 _symmetry_equiv_pos_site_id
 _symmetry_equiv_pos_as_xyz
  1  'x, y, z'
loop_
 _atom_site_type_symbol
 _atom_site_label
 _atom_site_symmetry_multiplicity
 _atom_site_fract_x
 _atom_site_fract_y
 _atom_site_fract_z
 _atom_site_occupancy
  Yb  Yb0  1  0.000000  0.000000  0.994202  1
  Yb  Yb1  1  0.500000  0.500000  0.505798  1
  Cu  Cu2  1  0.000000  0.500000  0.750000  1
  Cu  Cu3  1  0.249944  0.000000  0.506178  1
  Cu  Cu4  1  0.500000  0.250056  0.993822  1
  Cu  Cu5  1  0.500000  0.749944  0.993822  1
  Cu  Cu6  1  0.750056  0.000000  0.506178  1
  Pt  Pt7  1  0.000000  0.500000  0.250000  1
  O  O8  1  0.256335  0.243665  0.250000  1
  O  O9  1  0.256335  0.756335  0.250000  1
  O  O10  1  0.250547  0.249453  0.750000  1
  O  O11  1  0.250547  0.750547  0.750000  1
  O  O12  1  0.743665  0.243665  0.250000  1
  O  O13  1  0.749453  0.249453  0.750000  1
  O  O14  1  0.743665  0.756335  0.250000  1
  O  O15  1  0.749453  0.750547  0.750000  1
