# generated using pymatgen
data_TbDy3ZnFe2Ru5
_symmetry_space_group_name_H-M   'P 1'
_cell_length_a   5.24062943
_cell_length_b   5.34759364
_cell_length_c   9.26558874
_cell_angle_alpha   73.22747127
_cell_angle_beta   92.24444696
_cell_angle_gamma   120.67750153
_symmetry_Int_Tables_number   1
_chemical_formula_structural   TbDy3ZnFe2Ru5
_chemical_formula_sum   'Tb1 Dy3 Zn1 Fe2 Ru5'
_cell_volume   211.97622021
_cell_formula_units_Z   1
loop_
 _symmetry_equiv_pos_site_id
 _symmetry_equiv_pos_as_xyz
  1  'x, y, z'
loop_
 _atom_site_type_symbol
 _atom_site_label
 _atom_site_symmetry_multiplicity
 _atom_site_fract_x
 _atom_site_fract_y
 _atom_site_fract_z
 _atom_site_occupancy
  Tb  Tb0  1  0.872826  0.749401  0.374026  1
  Dy  Dy1  1  0.379814  0.755079  0.869657  1
  Dy  Dy2  1  0.995087  0.994929  0.005230  1
  Dy  Dy3  1  0.502557  0.000675  0.501206  1
  Zn  Zn4  1  0.687426  0.374986  0.937455  1
  Fe  Fe5  1  0.944362  0.375573  0.193215  1
  Fe  Fe6  1  0.430434  0.374366  0.681701  1
  Ru  Ru7  1  0.438404  0.371502  0.184893  1
  Ru  Ru8  1  0.936566  0.378510  0.690060  1
  Ru  Ru9  1  0.438404  0.882009  0.184893  1
  Ru  Ru10  1  0.936566  0.867994  0.690060  1
  Ru  Ru11  1  0.187554  0.374975  0.437603  1
