# generated using pymatgen
data_YEr7Re(B8Os)3
_symmetry_space_group_name_H-M   'P 1'
_cell_length_a   3.64188800
_cell_length_b   9.11549839
_cell_length_c   11.49681100
_cell_angle_alpha   90.08084585
_cell_angle_beta   90.00000000
_cell_angle_gamma   90.00000000
_symmetry_Int_Tables_number   1
_chemical_formula_structural   YEr7Re(B8Os)3
_chemical_formula_sum   'Y1 Er7 Re1 B24 Os3'
_cell_volume   381.66643131
_cell_formula_units_Z   1
loop_
 _symmetry_equiv_pos_site_id
 _symmetry_equiv_pos_as_xyz
  1  'x, y, z'
loop_
 _atom_site_type_symbol
 _atom_site_label
 _atom_site_symmetry_multiplicity
 _atom_site_fract_x
 _atom_site_fract_y
 _atom_site_fract_z
 _atom_site_occupancy
  Y  Y0  1  0.000000  0.322112  0.414652  1
  Er  Er1  1  0.000000  0.680691  0.588308  1
  Er  Er2  1  0.000000  0.822229  0.083348  1
  Er  Er3  1  0.000000  0.176817  0.913162  1
  Er  Er4  1  0.000000  0.942913  0.372085  1
  Er  Er5  1  0.000000  0.055990  0.627830  1
  Er  Er6  1  0.000000  0.442757  0.127242  1
  Er  Er7  1  0.000000  0.556779  0.873123  1
  Re  Re8  1  0.000000  0.862659  0.821450  1
  B  B9  1  0.500000  0.554254  0.433448  1
  B  B10  1  0.500000  0.446982  0.567516  1
  B  B11  1  0.500000  0.053208  0.066901  1
  B  B12  1  0.500000  0.947366  0.933407  1
  B  B13  1  0.500000  0.748731  0.419682  1
  B  B14  1  0.500000  0.251411  0.581023  1
  B  B15  1  0.500000  0.248173  0.080235  1
  B  B16  1  0.500000  0.751396  0.919521  1
  B  B17  1  0.500000  0.790871  0.265885  1
  B  B18  1  0.500000  0.208883  0.733575  1
  B  B19  1  0.500000  0.290818  0.233365  1
  B  B20  1  0.500000  0.708245  0.766057  1
  B  B21  1  0.500000  0.631086  0.185011  1
  B  B22  1  0.500000  0.368724  0.814637  1
  B  B23  1  0.500000  0.130827  0.314477  1
  B  B24  1  0.500000  0.868798  0.685378  1
  B  B25  1  0.500000  0.982370  0.212593  1
  B  B26  1  0.500000  0.018284  0.787250  1
  B  B27  1  0.500000  0.483162  0.287284  1
  B  B28  1  0.500000  0.517689  0.713141  1
  B  B29  1  0.500000  0.605518  0.029877  1
  B  B30  1  0.500000  0.392920  0.970594  1
  B  B31  1  0.500000  0.105611  0.470403  1
  B  B32  1  0.500000  0.893967  0.528942  1
  Os  Os33  1  0.000000  0.637654  0.320992  1
  Os  Os34  1  0.000000  0.362897  0.678815  1
  Os  Os35  1  0.000000  0.137205  0.178790  1
