# generated using pymatgen
data_Dy20Ru11Pt
_symmetry_space_group_name_H-M   'P 1'
_cell_length_a   10.83153360
_cell_length_b   10.83153291
_cell_length_c   6.37950324
_cell_angle_alpha   89.96020069
_cell_angle_beta   89.96020691
_cell_angle_gamma   89.84175960
_symmetry_Int_Tables_number   1
_chemical_formula_structural   Dy20Ru11Pt
_chemical_formula_sum   'Dy20 Ru11 Pt1'
_cell_volume   748.45358378
_cell_formula_units_Z   1
loop_
 _symmetry_equiv_pos_site_id
 _symmetry_equiv_pos_as_xyz
  1  'x, y, z'
loop_
 _atom_site_type_symbol
 _atom_site_label
 _atom_site_symmetry_multiplicity
 _atom_site_fract_x
 _atom_site_fract_y
 _atom_site_fract_z
 _atom_site_occupancy
  Dy  Dy0  1  0.292430  0.087105  0.377646  1
  Dy  Dy1  1  0.291774  0.918017  0.878033  1
  Dy  Dy2  1  0.708568  0.087123  0.877423  1
  Dy  Dy3  1  0.708702  0.913733  0.378259  1
  Dy  Dy4  1  0.590219  0.794269  0.878135  1
  Dy  Dy5  1  0.587049  0.206484  0.376683  1
  Dy  Dy6  1  0.415135  0.794999  0.373049  1
  Dy  Dy7  1  0.413597  0.209344  0.877628  1
  Dy  Dy8  1  0.205731  0.409781  0.621865  1
  Dy  Dy9  1  0.205001  0.584865  0.126951  1
  Dy  Dy10  1  0.793516  0.412951  0.123317  1
  Dy  Dy11  1  0.790656  0.586403  0.622372  1
  Dy  Dy12  1  0.912895  0.707570  0.122354  1
  Dy  Dy13  1  0.912877  0.291432  0.622577  1
  Dy  Dy14  1  0.081983  0.708226  0.621967  1
  Dy  Dy15  1  0.086267  0.291298  0.121741  1
  Dy  Dy16  1  0.000419  0.000266  0.499716  1
  Dy  Dy17  1  0.999734  0.999581  0.000284  1
  Dy  Dy18  1  0.503379  0.498495  0.002255  1
  Dy  Dy19  1  0.501505  0.496621  0.497745  1
  Ru  Ru20  1  0.847045  0.152955  0.250000  1
  Ru  Ru21  1  0.847345  0.846512  0.749243  1
  Ru  Ru22  1  0.153488  0.152655  0.750757  1
  Ru  Ru23  1  0.154894  0.845106  0.250000  1
  Ru  Ru24  1  0.652650  0.347350  0.750000  1
  Ru  Ru25  1  0.650128  0.653159  0.250708  1
  Ru  Ru26  1  0.346841  0.349872  0.249292  1
  Ru  Ru27  1  0.500370  0.999375  0.123480  1
  Ru  Ru28  1  0.499816  0.000096  0.625400  1
  Ru  Ru29  1  0.999904  0.500184  0.874600  1
  Ru  Ru30  1  0.000625  0.499630  0.376520  1
  Pt  Pt31  1  0.345458  0.654542  0.750000  1
