# generated using pymatgen
data_Th10Hg3Bi3Se2
_symmetry_space_group_name_H-M   'P 1'
_cell_length_a   9.54432700
_cell_length_b   9.54432756
_cell_length_c   6.67093300
_cell_angle_alpha   90.00000000
_cell_angle_beta   90.00000000
_cell_angle_gamma   120.00000153
_symmetry_Int_Tables_number   1
_chemical_formula_structural   Th10Hg3Bi3Se2
_chemical_formula_sum   'Th10 Hg3 Bi3 Se2'
_cell_volume   526.26907438
_cell_formula_units_Z   1
loop_
 _symmetry_equiv_pos_site_id
 _symmetry_equiv_pos_as_xyz
  1  'x, y, z'
loop_
 _atom_site_type_symbol
 _atom_site_label
 _atom_site_symmetry_multiplicity
 _atom_site_fract_x
 _atom_site_fract_y
 _atom_site_fract_z
 _atom_site_occupancy
  Th  Th0  1  0.735839  0.735839  0.750000  1
  Th  Th1  1  0.264161  0.000000  0.750000  1
  Th  Th2  1  0.000000  0.264161  0.750000  1
  Th  Th3  1  0.266811  0.266811  0.250000  1
  Th  Th4  1  0.733189  0.000000  0.250000  1
  Th  Th5  1  0.000000  0.733189  0.250000  1
  Th  Th6  1  0.666667  0.333333  0.999227  1
  Th  Th7  1  0.333333  0.666667  0.999227  1
  Th  Th8  1  0.333333  0.666667  0.500773  1
  Th  Th9  1  0.666667  0.333333  0.500773  1
  Hg  Hg10  1  0.617299  0.617299  0.250000  1
  Hg  Hg11  1  0.382701  0.000000  0.250000  1
  Hg  Hg12  1  0.000000  0.382701  0.250000  1
  Bi  Bi13  1  0.387478  0.387478  0.750000  1
  Bi  Bi14  1  0.612522  0.000000  0.750000  1
  Bi  Bi15  1  0.000000  0.612522  0.750000  1
  Se  Se16  1  0.000000  0.000000  0.000562  1
  Se  Se17  1  0.000000  0.000000  0.499438  1
