# generated using pymatgen
data_Ca15Bi11
_symmetry_space_group_name_H-M   'P 1'
_cell_length_a   16.60538127
_cell_length_b   16.60538090
_cell_length_c   16.60538100
_cell_angle_alpha   117.56788670
_cell_angle_beta   117.56788604
_cell_angle_gamma   94.26683545
_symmetry_Int_Tables_number   1
_chemical_formula_structural   Ca15Bi11
_chemical_formula_sum   'Ca60 Bi44'
_cell_volume   3346.64356403
_cell_formula_units_Z   4
loop_
 _symmetry_equiv_pos_site_id
 _symmetry_equiv_pos_as_xyz
  1  'x, y, z'
loop_
 _atom_site_type_symbol
 _atom_site_label
 _atom_site_symmetry_multiplicity
 _atom_site_fract_x
 _atom_site_fract_y
 _atom_site_fract_z
 _atom_site_occupancy
  Ca  Ca0  1  0.306306  0.644038  0.016193  1
  Ca  Ca1  1  0.404526  0.008567  0.654536  1
  Ca  Ca2  1  0.394058  0.877851  0.837754  1
  Ca  Ca3  1  0.161741  0.377706  0.134015  1
  Ca  Ca4  1  0.040096  0.556307  0.162250  1
  Ca  Ca5  1  0.258576  0.154534  0.154542  1
  Ca  Ca6  1  0.991415  0.645971  0.395951  1
  Ca  Ca7  1  0.209887  0.872152  0.016189  1
  Ca  Ca8  1  0.479135  0.875012  0.104129  1
  Ca  Ca9  1  0.845473  0.000025  0.104047  1
  Ca  Ca10  1  0.624996  0.520871  0.395883  1
  Ca  Ca11  1  0.345465  0.241420  0.845455  1
  Ca  Ca12  1  0.855960  0.193693  0.983804  1
  Ca  Ca13  1  0.743697  0.877697  0.215950  1
  Ca  Ca14  1  0.770882  0.375009  0.895873  1
  Ca  Ca15  1  0.122300  0.338253  0.865990  1
  Ca  Ca16  1  0.943692  0.459901  0.837745  1
  Ca  Ca17  1  0.758582  0.604031  0.104050  1
  Ca  Ca18  1  0.709888  0.693691  0.337729  1
  Ca  Ca19  1  0.491426  0.095463  0.345462  1
  Ca  Ca20  1  0.904547  0.249988  0.395957  1
  Ca  Ca21  1  0.354036  0.749995  0.345465  1
  Ca  Ca22  1  0.355962  0.372154  0.662265  1
  Ca  Ca23  1  0.506323  0.222276  0.634026  1
  Ca  Ca24  1  0.243690  0.027730  0.865987  1
  Ca  Ca25  1  0.622151  0.105947  0.162250  1
  Ca  Ca26  1  0.854035  0.508581  0.604055  1
  Ca  Ca27  1  0.895965  0.741412  0.895944  1
  Ca  Ca28  1  0.894056  0.056310  0.516213  1
  Ca  Ca29  1  0.122154  0.959900  0.516211  1
  Ca  Ca30  1  0.627705  0.911748  0.634026  1
  Ca  Ca31  1  0.088253  0.722276  0.715956  1
  Ca  Ca32  1  0.127844  0.144039  0.337731  1
  Ca  Ca33  1  0.270884  0.375013  0.395880  1
  Ca  Ca34  1  0.540100  0.377848  0.483794  1
  Ca  Ca35  1  0.624989  0.020868  0.895875  1
  Ca  Ca36  1  0.750015  0.145974  0.654550  1
  Ca  Ca37  1  0.006315  0.372299  0.284047  1
  Ca  Ca38  1  0.127702  0.493683  0.715959  1
  Ca  Ca39  1  0.499993  0.654547  0.895964  1
  Ca  Ca40  1  0.972258  0.838255  0.215951  1
  Ca  Ca41  1  0.588253  0.872295  0.365975  1
  Ca  Ca42  1  0.124991  0.229116  0.604123  1
  Ca  Ca43  1  0.250009  0.595469  0.604044  1
  Ca  Ca44  1  0.777733  0.411748  0.284047  1
  Ca  Ca45  1  0.622305  0.756305  0.784049  1
  Ca  Ca46  1  0.443692  0.605944  0.483794  1
  Ca  Ca47  1  0.124993  0.729114  0.104123  1
  Ca  Ca48  1  0.627842  0.290108  0.983801  1
  Ca  Ca49  1  0.979131  0.875004  0.604120  1
  Ca  Ca50  1  0.395973  0.500014  0.154555  1
  Ca  Ca51  1  0.277724  0.993679  0.365979  1
  Ca  Ca52  1  0.661744  0.527746  0.784047  1
  Ca  Ca53  1  0.999983  0.104028  0.845443  1
  Ca  Ca54  1  0.806311  0.790109  0.662270  1
  Ca  Ca55  1  0.472263  0.256307  0.134007  1
  Ca  Ca56  1  0.000002  0.999999  0.999998  1
  Ca  Ca57  1  0.500001  0.500002  0.000001  1
  Ca  Ca58  1  0.249997  0.749996  0.499998  1
  Ca  Ca59  1  0.750003  0.250003  0.500003  1
  Bi  Bi60  1  0.284473  0.425813  0.845278  1
  Bi  Bi61  1  0.361769  0.861768  0.223537  1
  Bi  Bi62  1  0.784474  0.939195  0.858659  1
  Bi  Bi63  1  0.169451  0.810818  0.345277  1
  Bi  Bi64  1  0.958931  0.049594  0.353592  1
  Bi  Bi65  1  0.175827  0.830540  0.641361  1
  Bi  Bi66  1  0.111785  0.111784  0.723570  1
  Bi  Bi67  1  0.791070  0.200419  0.146409  1
  Bi  Bi68  1  0.355337  0.208930  0.409348  1
  Bi  Bi69  1  0.249999  0.250000  0.999999  1
  Bi  Bi70  1  0.799583  0.945987  0.590652  1
  Bi  Bi71  1  0.465538  0.824171  0.654716  1
  Bi  Bi72  1  0.060801  0.919460  0.845274  1
  Bi  Bi73  1  0.861768  0.638230  0.500000  1
  Bi  Bi74  1  0.554012  0.700419  0.409350  1
  Bi  Bi75  1  0.675827  0.034462  0.345282  1
  Bi  Bi76  1  0.074184  0.215526  0.154722  1
  Bi  Bi77  1  0.138231  0.361769  0.500001  1
  Bi  Bi78  1  0.189176  0.534463  0.358635  1
  Bi  Bi79  1  0.388215  0.388216  0.276431  1
  Bi  Bi80  1  0.500001  0.999999  0.500000  1
  Bi  Bi81  1  0.080532  0.925813  0.141337  1
  Bi  Bi82  1  0.574186  0.419466  0.858661  1
  Bi  Bi83  1  0.450406  0.541070  0.646408  1
  Bi  Bi84  1  0.669455  0.324174  0.358638  1
  Bi  Bi85  1  0.458931  0.105337  0.909339  1
  Bi  Bi86  1  0.394661  0.041069  0.090661  1
  Bi  Bi87  1  0.894659  0.803999  0.353590  1
  Bi  Bi88  1  0.696001  0.605339  0.646408  1
  Bi  Bi89  1  0.689178  0.330545  0.654715  1
  Bi  Bi90  1  0.750003  0.750001  0.000002  1
  Bi  Bi91  1  0.195997  0.549592  0.090659  1
  Bi  Bi92  1  0.965534  0.310818  0.641361  1
  Bi  Bi93  1  0.855336  0.445988  0.146405  1
  Bi  Bi94  1  0.888215  0.611785  0.999999  1
  Bi  Bi95  1  0.299581  0.708930  0.853592  1
  Bi  Bi96  1  0.000000  0.499998  0.500000  1
  Bi  Bi97  1  0.291069  0.144661  0.590651  1
  Bi  Bi98  1  0.638231  0.138231  0.776464  1
  Bi  Bi99  1  0.560806  0.715525  0.141337  1
  Bi  Bi100  1  0.580537  0.439196  0.154722  1
  Bi  Bi101  1  0.054013  0.644660  0.853592  1
  Bi  Bi102  1  0.950405  0.304002  0.909339  1
  Bi  Bi103  1  0.611785  0.888215  0.999999  1
