# generated using pymatgen
data_ErTh7Si12Ru3Rh
_symmetry_space_group_name_H-M   'P 1'
_cell_length_a   8.24089500
_cell_length_b   8.27831024
_cell_length_c   8.28928105
_cell_angle_alpha   90.00991508
_cell_angle_beta   90.00000000
_cell_angle_gamma   119.85060677
_symmetry_Int_Tables_number   1
_chemical_formula_structural   ErTh7Si12Ru3Rh
_chemical_formula_sum   'Er1 Th7 Si12 Ru3 Rh1'
_cell_volume   490.47331100
_cell_formula_units_Z   1
loop_
 _symmetry_equiv_pos_site_id
 _symmetry_equiv_pos_as_xyz
  1  'x, y, z'
loop_
 _atom_site_type_symbol
 _atom_site_label
 _atom_site_symmetry_multiplicity
 _atom_site_fract_x
 _atom_site_fract_y
 _atom_site_fract_z
 _atom_site_occupancy
  Er  Er0  1  0.501273  0.002547  0.751870  1
  Th  Th1  1  0.000106  0.000211  0.250093  1
  Th  Th2  1  0.000012  0.000025  0.749595  1
  Th  Th3  1  0.500909  0.499093  0.247855  1
  Th  Th4  1  0.500970  0.001942  0.247736  1
  Th  Th5  1  0.998184  0.499093  0.247855  1
  Th  Th6  1  0.501545  0.497755  0.752073  1
  Th  Th7  1  0.996209  0.497755  0.752073  1
  Si  Si8  1  0.830672  0.165760  0.502031  1
  Si  Si9  1  0.834929  0.669859  0.497590  1
  Si  Si10  1  0.335086  0.165760  0.502031  1
  Si  Si11  1  0.830989  0.164878  0.997756  1
  Si  Si12  1  0.835526  0.671054  0.002405  1
  Si  Si13  1  0.333888  0.164878  0.997756  1
  Si  Si14  1  0.169280  0.834170  0.997181  1
  Si  Si15  1  0.664891  0.834170  0.997181  1
  Si  Si16  1  0.164937  0.329873  0.001370  1
  Si  Si17  1  0.168573  0.834902  0.501648  1
  Si  Si18  1  0.666330  0.834902  0.501648  1
  Si  Si19  1  0.164850  0.329699  0.498413  1
  Ru  Ru20  1  0.668929  0.337856  0.502983  1
  Ru  Ru21  1  0.668854  0.337708  0.997564  1
  Ru  Ru22  1  0.331082  0.662165  0.995137  1
  Rh  Rh23  1  0.331971  0.663942  0.508154  1
