# generated using pymatgen
data_Er7Tm(TcB6)4
_symmetry_space_group_name_H-M   'P 1'
_cell_length_a   3.65761900
_cell_length_b   9.11189002
_cell_length_c   11.48090605
_cell_angle_alpha   90.00189702
_cell_angle_beta   90.00000000
_cell_angle_gamma   90.00000000
_symmetry_Int_Tables_number   1
_chemical_formula_structural   Er7Tm(TcB6)4
_chemical_formula_sum   'Er7 Tm1 Tc4 B24'
_cell_volume   382.63359386
_cell_formula_units_Z   1
loop_
 _symmetry_equiv_pos_site_id
 _symmetry_equiv_pos_as_xyz
  1  'x, y, z'
loop_
 _atom_site_type_symbol
 _atom_site_label
 _atom_site_symmetry_multiplicity
 _atom_site_fract_x
 _atom_site_fract_y
 _atom_site_fract_z
 _atom_site_occupancy
  Er  Er0  1  0.500000  0.324193  0.414233  1
  Er  Er1  1  0.500000  0.675991  0.585623  1
  Er  Er2  1  0.500000  0.175731  0.914362  1
  Er  Er3  1  0.500000  0.824127  0.085757  1
  Er  Er4  1  0.500000  0.442996  0.130632  1
  Er  Er5  1  0.500000  0.557025  0.869542  1
  Er  Er6  1  0.500000  0.056995  0.630325  1
  Tm  Tm7  1  0.500000  0.942832  0.369252  1
  Tc  Tc8  1  0.500000  0.138905  0.179848  1
  Tc  Tc9  1  0.500000  0.860868  0.820380  1
  Tc  Tc10  1  0.500000  0.360825  0.679347  1
  Tc  Tc11  1  0.500000  0.639506  0.320588  1
  B  B12  1  0.000000  0.099408  0.471890  1
  B  B13  1  0.000000  0.900183  0.527397  1
  B  B14  1  0.000000  0.399682  0.972150  1
  B  B15  1  0.000000  0.600318  0.027979  1
  B  B16  1  0.000000  0.130704  0.315163  1
  B  B17  1  0.000000  0.868930  0.684937  1
  B  B18  1  0.000000  0.368827  0.814923  1
  B  B19  1  0.000000  0.631287  0.185169  1
  B  B20  1  0.000000  0.053240  0.067027  1
  B  B21  1  0.000000  0.946683  0.933156  1
  B  B22  1  0.000000  0.446730  0.566782  1
  B  B23  1  0.000000  0.553604  0.433147  1
  B  B24  1  0.000000  0.482044  0.288260  1
  B  B25  1  0.000000  0.518114  0.711801  1
  B  B26  1  0.000000  0.018145  0.788129  1
  B  B27  1  0.000000  0.981662  0.212057  1
  B  B28  1  0.000000  0.249321  0.081153  1
  B  B29  1  0.000000  0.750602  0.918963  1
  B  B30  1  0.000000  0.250434  0.580895  1
  B  B31  1  0.000000  0.749979  0.418970  1
  B  B32  1  0.000000  0.292398  0.235044  1
  B  B33  1  0.000000  0.707452  0.765057  1
  B  B34  1  0.000000  0.207402  0.734828  1
  B  B35  1  0.000000  0.792854  0.265229  1
