# generated using pymatgen
data_AlV3CuN
_symmetry_space_group_name_H-M   'P 1'
_cell_length_a   6.54686600
_cell_length_b   6.54686600
_cell_length_c   6.54686600
_cell_angle_alpha   90.00000000
_cell_angle_beta   90.00000000
_cell_angle_gamma   90.00000000
_symmetry_Int_Tables_number   1
_chemical_formula_structural   AlV3CuN
_chemical_formula_sum   'Al4 V12 Cu4 N4'
_cell_volume   280.60819867
_cell_formula_units_Z   4
loop_
 _symmetry_equiv_pos_site_id
 _symmetry_equiv_pos_as_xyz
  1  'x, y, z'
loop_
 _atom_site_type_symbol
 _atom_site_label
 _atom_site_symmetry_multiplicity
 _atom_site_fract_x
 _atom_site_fract_y
 _atom_site_fract_z
 _atom_site_occupancy
  Al  Al0  1  0.574318  0.425682  0.925682  1
  Al  Al1  1  0.425682  0.925682  0.574318  1
  Al  Al2  1  0.925682  0.574318  0.425682  1
  Al  Al3  1  0.074318  0.074318  0.074318  1
  V  V4  1  0.787455  0.961554  0.373813  1
  V  V5  1  0.712545  0.038446  0.873813  1
  V  V6  1  0.212545  0.461554  0.126187  1
  V  V7  1  0.287455  0.538446  0.626187  1
  V  V8  1  0.961554  0.373813  0.787455  1
  V  V9  1  0.038446  0.873813  0.712545  1
  V  V10  1  0.461554  0.126187  0.212545  1
  V  V11  1  0.538446  0.626187  0.287455  1
  V  V12  1  0.373813  0.787455  0.961554  1
  V  V13  1  0.873813  0.712545  0.038446  1
  V  V14  1  0.126187  0.212545  0.461554  1
  V  V15  1  0.626187  0.287455  0.538446  1
  Cu  Cu16  1  0.177704  0.822296  0.322296  1
  Cu  Cu17  1  0.322296  0.177704  0.822296  1
  Cu  Cu18  1  0.822296  0.322296  0.177704  1
  Cu  Cu19  1  0.677704  0.677704  0.677704  1
  N  N20  1  0.877393  0.122607  0.622607  1
  N  N21  1  0.622607  0.877393  0.122607  1
  N  N22  1  0.122607  0.622607  0.877393  1
  N  N23  1  0.377393  0.377393  0.377393  1
