# generated using pymatgen
data_HfZn2Ni2Au
_symmetry_space_group_name_H-M   'P 1'
_cell_length_a   4.94599534
_cell_length_b   4.92667166
_cell_length_c   4.92667074
_cell_angle_alpha   61.55303680
_cell_angle_beta   59.87017142
_cell_angle_gamma   59.87015717
_symmetry_Int_Tables_number   1
_chemical_formula_structural   HfZn2Ni2Au
_chemical_formula_sum   'Hf1 Zn2 Ni2 Au1'
_cell_volume   85.66615767
_cell_formula_units_Z   1
loop_
 _symmetry_equiv_pos_site_id
 _symmetry_equiv_pos_as_xyz
  1  'x, y, z'
loop_
 _atom_site_type_symbol
 _atom_site_label
 _atom_site_symmetry_multiplicity
 _atom_site_fract_x
 _atom_site_fract_y
 _atom_site_fract_z
 _atom_site_occupancy
  Hf  Hf0  1  0.261009  0.238991  0.238991  1
  Zn  Zn1  1  0.622771  0.628139  0.628139  1
  Zn  Zn2  1  0.120951  0.628139  0.628139  1
  Ni  Ni3  1  0.621660  0.128501  0.628180  1
  Ni  Ni4  1  0.621660  0.628180  0.128501  1
  Au  Au5  1  0.001950  0.998050  0.998050  1
