# generated using pymatgen
data_NdSmFeC4
_symmetry_space_group_name_H-M   'P 1'
_cell_length_a   6.77259422
_cell_length_b   6.85099396
_cell_length_c   6.85099489
_cell_angle_alpha   135.61558523
_cell_angle_beta   112.94129670
_cell_angle_gamma   84.19473503
_symmetry_Int_Tables_number   1
_chemical_formula_structural   NdSmFeC4
_chemical_formula_sum   'Nd2 Sm2 Fe2 C8'
_cell_volume   196.84002100
_cell_formula_units_Z   2
loop_
 _symmetry_equiv_pos_site_id
 _symmetry_equiv_pos_as_xyz
  1  'x, y, z'
loop_
 _atom_site_type_symbol
 _atom_site_label
 _atom_site_symmetry_multiplicity
 _atom_site_fract_x
 _atom_site_fract_y
 _atom_site_fract_z
 _atom_site_occupancy
  Nd  Nd0  1  0.514521  0.854468  0.660054  1
  Nd  Nd1  1  0.485479  0.145532  0.339946  1
  Sm  Sm2  1  0.194838  0.358085  0.836752  1
  Sm  Sm3  1  0.805162  0.641915  0.163248  1
  Fe  Fe4  1  0.000000  0.250096  0.250096  1
  Fe  Fe5  1  0.000000  0.749904  0.749904  1
  C  C6  1  0.800609  0.127920  0.672689  1
  C  C7  1  0.199391  0.872080  0.327311  1
  C  C8  1  0.458357  0.623219  0.835138  1
  C  C9  1  0.541643  0.376781  0.164862  1
  C  C10  1  0.921078  0.079250  0.841828  1
  C  C11  1  0.078922  0.920750  0.158172  1
  C  C12  1  0.239593  0.576554  0.663039  1
  C  C13  1  0.760407  0.423446  0.336961  1
