# generated using pymatgen
data_SmEr4(CoB3)2
_symmetry_space_group_name_H-M   'P 1'
_cell_length_a   5.40855168
_cell_length_b   5.40855364
_cell_length_c   8.28296085
_cell_angle_alpha   70.94432406
_cell_angle_beta   70.94431757
_cell_angle_gamma   60.00000965
_symmetry_Int_Tables_number   1
_chemical_formula_structural   SmEr4(CoB3)2
_chemical_formula_sum   'Sm1 Er4 Co2 B6'
_cell_volume   194.35263900
_cell_formula_units_Z   1
loop_
 _symmetry_equiv_pos_site_id
 _symmetry_equiv_pos_as_xyz
  1  'x, y, z'
loop_
 _atom_site_type_symbol
 _atom_site_label
 _atom_site_symmetry_multiplicity
 _atom_site_fract_x
 _atom_site_fract_y
 _atom_site_fract_z
 _atom_site_occupancy
  Sm  Sm0  1  0.000000  0.000000  0.000000  1
  Er  Er1  1  0.251206  0.251206  0.246381  1
  Er  Er2  1  0.748794  0.748794  0.753619  1
  Er  Er3  1  0.416465  0.416465  0.750606  1
  Er  Er4  1  0.583535  0.583535  0.249394  1
  Co  Co5  1  0.119900  0.119900  0.640299  1
  Co  Co6  1  0.880100  0.880100  0.359701  1
  B  B7  1  0.168627  0.831373  0.500000  1
  B  B8  1  0.831373  0.500000  0.500000  1
  B  B9  1  0.500000  0.168627  0.500000  1
  B  B10  1  0.168627  0.500000  0.500000  1
  B  B11  1  0.500000  0.831373  0.500000  1
  B  B12  1  0.831373  0.168627  0.500000  1
