# generated using pymatgen
data_Ho2TmZnIn3Ni2
_symmetry_space_group_name_H-M   'P 1'
_cell_length_a   3.67038000
_cell_length_b   7.63743757
_cell_length_c   7.63832584
_cell_angle_alpha   120.10124910
_cell_angle_beta   90.00000000
_cell_angle_gamma   90.00000000
_symmetry_Int_Tables_number   1
_chemical_formula_structural   Ho2TmZnIn3Ni2
_chemical_formula_sum   'Ho2 Tm1 Zn1 In3 Ni2'
_cell_volume   185.24373125
_cell_formula_units_Z   1
loop_
 _symmetry_equiv_pos_site_id
 _symmetry_equiv_pos_as_xyz
  1  'x, y, z'
loop_
 _atom_site_type_symbol
 _atom_site_label
 _atom_site_symmetry_multiplicity
 _atom_site_fract_x
 _atom_site_fract_y
 _atom_site_fract_z
 _atom_site_occupancy
  Ho  Ho0  1  0.500000  0.391991  0.976415  1
  Ho  Ho1  1  0.500000  0.583882  0.607964  1
  Tm  Tm2  1  0.500000  0.025345  0.415966  1
  Zn  Zn3  1  0.000000  0.668130  0.334005  1
  In  In4  1  0.000000  0.748037  0.007655  1
  In  In5  1  0.000000  0.258301  0.252400  1
  In  In6  1  0.000000  0.993822  0.740330  1
  Ni  Ni7  1  0.000000  0.330938  0.664873  1
  Ni  Ni8  1  0.500000  0.999655  0.000391  1
