# generated using pymatgen
data_Pr2NdHg2Pd3Au
_symmetry_space_group_name_H-M   'P 1'
_cell_length_a   7.75615997
_cell_length_b   7.75616203
_cell_length_c   3.99962100
_cell_angle_alpha   90.00000000
_cell_angle_beta   90.00000000
_cell_angle_gamma   119.37532789
_symmetry_Int_Tables_number   1
_chemical_formula_structural   Pr2NdHg2Pd3Au
_chemical_formula_sum   'Pr2 Nd1 Hg2 Pd3 Au1'
_cell_volume   209.67301711
_cell_formula_units_Z   1
loop_
 _symmetry_equiv_pos_site_id
 _symmetry_equiv_pos_as_xyz
  1  'x, y, z'
loop_
 _atom_site_type_symbol
 _atom_site_label
 _atom_site_symmetry_multiplicity
 _atom_site_fract_x
 _atom_site_fract_y
 _atom_site_fract_z
 _atom_site_occupancy
  Pr  Pr0  1  0.605237  0.991629  0.500000  1
  Pr  Pr1  1  0.991629  0.605237  0.500000  1
  Nd  Nd2  1  0.406892  0.406892  0.500000  1
  Hg  Hg3  1  0.263126  0.001468  0.000000  1
  Hg  Hg4  1  0.001468  0.263126  0.000000  1
  Pd  Pd5  1  0.664240  0.330078  0.000000  1
  Pd  Pd6  1  0.330078  0.664240  0.000000  1
  Pd  Pd7  1  0.002506  0.002506  0.500000  1
  Au  Au8  1  0.734823  0.734823  0.000000  1
