# generated using pymatgen
data_HfZr3Nb2(B2Ru5)2
_symmetry_space_group_name_H-M   'P 1'
_cell_length_a   9.49815452
_cell_length_b   9.49815452
_cell_length_c   3.11656200
_cell_angle_alpha   90.00000000
_cell_angle_beta   90.00000000
_cell_angle_gamma   90.09860409
_symmetry_Int_Tables_number   1
_chemical_formula_structural   HfZr3Nb2(B2Ru5)2
_chemical_formula_sum   'Hf1 Zr3 Nb2 B4 Ru10'
_cell_volume   281.16003504
_cell_formula_units_Z   1
loop_
 _symmetry_equiv_pos_site_id
 _symmetry_equiv_pos_as_xyz
  1  'x, y, z'
loop_
 _atom_site_type_symbol
 _atom_site_label
 _atom_site_symmetry_multiplicity
 _atom_site_fract_x
 _atom_site_fract_y
 _atom_site_fract_z
 _atom_site_occupancy
  Hf  Hf0  1  0.675955  0.175955  0.000000  1
  Zr  Zr1  1  0.824034  0.675851  0.000000  1
  Zr  Zr2  1  0.175851  0.324034  0.000000  1
  Zr  Zr3  1  0.324422  0.824422  0.000000  1
  Nb  Nb4  1  0.500142  0.499613  0.000000  1
  Nb  Nb5  1  0.999613  0.000142  0.000000  1
  B  B6  1  0.621190  0.879009  0.000000  1
  B  B7  1  0.379009  0.121190  0.000000  1
  B  B8  1  0.121257  0.621257  0.000000  1
  B  B9  1  0.878402  0.378402  0.000000  1
  Ru  Ru10  1  0.570567  0.718674  0.500000  1
  Ru  Ru11  1  0.430321  0.281362  0.500000  1
  Ru  Ru12  1  0.070590  0.781515  0.500000  1
  Ru  Ru13  1  0.928326  0.218093  0.500000  1
  Ru  Ru14  1  0.281515  0.570590  0.500000  1
  Ru  Ru15  1  0.718093  0.428326  0.500000  1
  Ru  Ru16  1  0.218674  0.070567  0.500000  1
  Ru  Ru17  1  0.781362  0.930321  0.500000  1
  Ru  Ru18  1  0.500888  0.000888  0.500000  1
  Ru  Ru19  1  0.999789  0.499789  0.500000  1
