# generated using pymatgen
data_CaHo2ZnGaCo9B4
_symmetry_space_group_name_H-M   'P 1'
_cell_length_a   5.13370500
_cell_length_b   5.12952367
_cell_length_c   9.51614800
_cell_angle_alpha   90.00014521
_cell_angle_beta   89.99987723
_cell_angle_gamma   119.96812396
_symmetry_Int_Tables_number   1
_chemical_formula_structural   CaHo2ZnGaCo9B4
_chemical_formula_sum   'Ca1 Ho2 Zn1 Ga1 Co9 B4'
_cell_volume   217.08967770
_cell_formula_units_Z   1
loop_
 _symmetry_equiv_pos_site_id
 _symmetry_equiv_pos_as_xyz
  1  'x, y, z'
loop_
 _atom_site_type_symbol
 _atom_site_label
 _atom_site_symmetry_multiplicity
 _atom_site_fract_x
 _atom_site_fract_y
 _atom_site_fract_z
 _atom_site_occupancy
  Ca  Ca0  1  0.000023  0.000032  0.000335  1
  Ho  Ho1  1  0.999995  0.999997  0.339105  1
  Ho  Ho2  1  0.999992  0.999994  0.660504  1
  Zn  Zn3  1  0.333427  0.666665  0.000200  1
  Ga  Ga4  1  0.666603  0.333383  0.000325  1
  Co  Co5  1  0.500003  0.000039  0.499873  1
  Co  Co6  1  0.500007  0.499964  0.499821  1
  Co  Co7  1  0.999885  0.499944  0.499857  1
  Co  Co8  1  0.500382  0.000733  0.211019  1
  Co  Co9  1  0.500389  0.499651  0.210945  1
  Co  Co10  1  0.999228  0.499618  0.210880  1
  Co  Co11  1  0.500394  0.000765  0.789160  1
  Co  Co12  1  0.500392  0.499627  0.789162  1
  Co  Co13  1  0.999239  0.499616  0.789178  1
  B  B14  1  0.333049  0.666479  0.350834  1
  B  B15  1  0.666916  0.333509  0.351558  1
  B  B16  1  0.666776  0.333382  0.648272  1
  B  B17  1  0.333197  0.666603  0.648971  1
