# generated using pymatgen
data_Tm10In8CoRh3
_symmetry_space_group_name_H-M   'P 1'
_cell_length_a   3.54816000
_cell_length_b   7.97128060
_cell_length_c   18.08844304
_cell_angle_alpha   90.11737160
_cell_angle_beta   90.00000000
_cell_angle_gamma   90.00000000
_symmetry_Int_Tables_number   1
_chemical_formula_structural   Tm10In8CoRh3
_chemical_formula_sum   'Tm10 In8 Co1 Rh3'
_cell_volume   511.60121591
_cell_formula_units_Z   1
loop_
 _symmetry_equiv_pos_site_id
 _symmetry_equiv_pos_as_xyz
  1  'x, y, z'
loop_
 _atom_site_type_symbol
 _atom_site_label
 _atom_site_symmetry_multiplicity
 _atom_site_fract_x
 _atom_site_fract_y
 _atom_site_fract_z
 _atom_site_occupancy
  Tm  Tm0  1  0.000000  0.116964  0.411125  1
  Tm  Tm1  1  0.000000  0.882265  0.587289  1
  Tm  Tm2  1  0.000000  0.383284  0.913859  1
  Tm  Tm3  1  0.000000  0.615151  0.090915  1
  Tm  Tm4  1  0.000000  0.252024  0.219869  1
  Tm  Tm5  1  0.000000  0.754165  0.779743  1
  Tm  Tm6  1  0.000000  0.254827  0.721422  1
  Tm  Tm7  1  0.000000  0.740737  0.276301  1
  Tm  Tm8  1  0.000000  0.000357  0.000774  1
  Tm  Tm9  1  0.000000  0.499354  0.498906  1
  In  In10  1  0.500000  0.430573  0.347379  1
  In  In11  1  0.500000  0.570947  0.649569  1
  In  In12  1  0.500000  0.071378  0.851338  1
  In  In13  1  0.500000  0.927524  0.149162  1
  In  In14  1  0.500000  0.295677  0.068989  1
  In  In15  1  0.500000  0.706673  0.934584  1
  In  In16  1  0.500000  0.207205  0.566894  1
  In  In17  1  0.500000  0.792763  0.431956  1
  Co  Co18  1  0.500000  0.522486  0.195699  1
  Rh  Rh19  1  0.500000  0.024642  0.303496  1
  Rh  Rh20  1  0.500000  0.975312  0.695989  1
  Rh  Rh21  1  0.500000  0.475689  0.804745  1
