# generated using pymatgen
data_ThZr2Al7Cu2
_symmetry_space_group_name_H-M   'P 1'
_cell_length_a   8.95581988
_cell_length_b   8.95582042
_cell_length_c   8.95582002
_cell_angle_alpha   34.88745553
_cell_angle_beta   34.88744804
_cell_angle_gamma   34.88745141
_symmetry_Int_Tables_number   1
_chemical_formula_structural   ThZr2Al7Cu2
_chemical_formula_sum   'Th1 Zr2 Al7 Cu2'
_cell_volume   209.78136461
_cell_formula_units_Z   1
loop_
 _symmetry_equiv_pos_site_id
 _symmetry_equiv_pos_as_xyz
  1  'x, y, z'
loop_
 _atom_site_type_symbol
 _atom_site_label
 _atom_site_symmetry_multiplicity
 _atom_site_fract_x
 _atom_site_fract_y
 _atom_site_fract_z
 _atom_site_occupancy
  Th  Th0  1  0.000000  0.000000  0.000000  1
  Zr  Zr1  1  0.857383  0.857383  0.857383  1
  Zr  Zr2  1  0.142617  0.142617  0.142617  1
  Al  Al3  1  0.414143  0.414143  0.923872  1
  Al  Al4  1  0.923872  0.414143  0.414143  1
  Al  Al5  1  0.414143  0.923872  0.414143  1
  Al  Al6  1  0.500000  0.500000  0.500000  1
  Al  Al7  1  0.585857  0.076128  0.585857  1
  Al  Al8  1  0.076128  0.585857  0.585857  1
  Al  Al9  1  0.585857  0.585857  0.076128  1
  Cu  Cu10  1  0.665487  0.665487  0.665487  1
  Cu  Cu11  1  0.334513  0.334513  0.334513  1
