# generated using pymatgen
data_SmY4(In2Pd)2
_symmetry_space_group_name_H-M   'P 1'
_cell_length_a   3.64710600
_cell_length_b   8.18779600
_cell_length_c   18.42293100
_cell_angle_alpha   90.00000000
_cell_angle_beta   90.00000000
_cell_angle_gamma   90.00000000
_symmetry_Int_Tables_number   1
_chemical_formula_structural   SmY4(In2Pd)2
_chemical_formula_sum   'Sm2 Y8 In8 Pd4'
_cell_volume   550.14114251
_cell_formula_units_Z   2
loop_
 _symmetry_equiv_pos_site_id
 _symmetry_equiv_pos_as_xyz
  1  'x, y, z'
loop_
 _atom_site_type_symbol
 _atom_site_label
 _atom_site_symmetry_multiplicity
 _atom_site_fract_x
 _atom_site_fract_y
 _atom_site_fract_z
 _atom_site_occupancy
  Sm  Sm0  1  0.500000  0.000000  0.000000  1
  Sm  Sm1  1  0.500000  0.500000  0.500000  1
  Y  Y2  1  0.500000  0.240879  0.781021  1
  Y  Y3  1  0.500000  0.759121  0.218979  1
  Y  Y4  1  0.500000  0.259121  0.281021  1
  Y  Y5  1  0.500000  0.740879  0.718979  1
  Y  Y6  1  0.500000  0.119443  0.583001  1
  Y  Y7  1  0.500000  0.880557  0.416999  1
  Y  Y8  1  0.500000  0.380557  0.083001  1
  Y  Y9  1  0.500000  0.619443  0.916999  1
  In  In10  1  0.000000  0.080419  0.151910  1
  In  In11  1  0.000000  0.919581  0.848090  1
  In  In12  1  0.000000  0.419581  0.651910  1
  In  In13  1  0.000000  0.580419  0.348090  1
  In  In14  1  0.000000  0.205183  0.431139  1
  In  In15  1  0.000000  0.794817  0.568861  1
  In  In16  1  0.000000  0.294817  0.931139  1
  In  In17  1  0.000000  0.705183  0.068861  1
  Pd  Pd18  1  0.000000  0.025332  0.695505  1
  Pd  Pd19  1  0.000000  0.974668  0.304495  1
  Pd  Pd20  1  0.000000  0.474668  0.195505  1
  Pd  Pd21  1  0.000000  0.525332  0.804495  1
