# generated using pymatgen
data_SmHo3Zr4F28
_symmetry_space_group_name_H-M   'P 1'
_cell_length_a   5.76673402
_cell_length_b   9.12853165
_cell_length_c   12.26621053
_cell_angle_alpha   62.39087735
_cell_angle_beta   89.98727321
_cell_angle_gamma   90.02503749
_symmetry_Int_Tables_number   1
_chemical_formula_structural   SmHo3Zr4F28
_chemical_formula_sum   'Sm1 Ho3 Zr4 F28'
_cell_volume   572.18769320
_cell_formula_units_Z   1
loop_
 _symmetry_equiv_pos_site_id
 _symmetry_equiv_pos_as_xyz
  1  'x, y, z'
loop_
 _atom_site_type_symbol
 _atom_site_label
 _atom_site_symmetry_multiplicity
 _atom_site_fract_x
 _atom_site_fract_y
 _atom_site_fract_z
 _atom_site_occupancy
  Sm  Sm0  1  0.756611  0.816834  0.766384  1
  Ho  Ho1  1  0.743806  0.817584  0.266173  1
  Ho  Ho2  1  0.243742  0.184087  0.233899  1
  Ho  Ho3  1  0.257225  0.187167  0.733462  1
  Zr  Zr4  1  0.743880  0.277014  0.453195  1
  Zr  Zr5  1  0.244530  0.725523  0.048478  1
  Zr  Zr6  1  0.254847  0.725543  0.541682  1
  Zr  Zr7  1  0.755426  0.271106  0.956484  1
  F  F8  1  0.463816  0.709895  0.924301  1
  F  F9  1  0.967535  0.288932  0.577540  1
  F  F10  1  0.531199  0.286896  0.079003  1
  F  F11  1  0.030813  0.710845  0.418822  1
  F  F12  1  0.454347  0.281066  0.549825  1
  F  F13  1  0.954317  0.717292  0.955012  1
  F  F14  1  0.547360  0.719618  0.447752  1
  F  F15  1  0.045198  0.278316  0.052002  1
  F  F16  1  0.769314  0.521419  0.859536  1
  F  F17  1  0.267666  0.473949  0.640139  1
  F  F18  1  0.234669  0.473597  0.143734  1
  F  F19  1  0.732880  0.527798  0.356533  1
  F  F20  1  0.759191  0.020608  0.059606  1
  F  F21  1  0.259003  0.976249  0.439935  1
  F  F22  1  0.240505  0.975489  0.942447  1
  F  F23  1  0.739656  0.026387  0.555222  1
  F  F24  1  0.984581  0.732451  0.645956  1
  F  F25  1  0.485124  0.265526  0.850636  1
  F  F26  1  0.011753  0.265177  0.348196  1
  F  F27  1  0.513842  0.735340  0.153058  1
  F  F28  1  0.031869  0.747335  0.174927  1
  F  F29  1  0.529963  0.254019  0.327121  1
  F  F30  1  0.968334  0.250976  0.828816  1
  F  F31  1  0.461800  0.744350  0.670680  1
  F  F32  1  0.433499  0.975861  0.235836  1
  F  F33  1  0.934012  0.025125  0.264274  1
  F  F34  1  0.568563  0.033431  0.765356  1
  F  F35  1  0.079123  0.977190  0.733976  1
