# generated using pymatgen
data_Tb3Dy3Al24(RuRh)4
_symmetry_space_group_name_H-M   'P 1'
_cell_length_a   8.82817304
_cell_length_b   8.77181907
_cell_length_c   9.54900500
_cell_angle_alpha   90.00000000
_cell_angle_beta   90.00000000
_cell_angle_gamma   119.78906500
_symmetry_Int_Tables_number   1
_chemical_formula_structural   Tb3Dy3Al24(RuRh)4
_chemical_formula_sum   'Tb3 Dy3 Al24 Ru4 Rh4'
_cell_volume   641.75378419
_cell_formula_units_Z   1
loop_
 _symmetry_equiv_pos_site_id
 _symmetry_equiv_pos_as_xyz
  1  'x, y, z'
loop_
 _atom_site_type_symbol
 _atom_site_label
 _atom_site_symmetry_multiplicity
 _atom_site_fract_x
 _atom_site_fract_y
 _atom_site_fract_z
 _atom_site_occupancy
  Tb  Tb0  1  0.189601  0.804272  0.250000  1
  Tb  Tb1  1  0.189601  0.385329  0.250000  1
  Tb  Tb2  1  0.616431  0.808215  0.250000  1
  Dy  Dy3  1  0.810098  0.196102  0.750000  1
  Dy  Dy4  1  0.810098  0.613996  0.750000  1
  Dy  Dy5  1  0.384180  0.192091  0.750000  1
  Al  Al6  1  0.560964  0.437483  0.250000  1
  Al  Al7  1  0.560964  0.123482  0.250000  1
  Al  Al8  1  0.875571  0.437786  0.250000  1
  Al  Al9  1  0.439264  0.562268  0.750000  1
  Al  Al10  1  0.439264  0.876995  0.750000  1
  Al  Al11  1  0.124001  0.562001  0.750000  1
  Al  Al12  1  0.324588  0.162294  0.422696  1
  Al  Al13  1  0.837892  0.164159  0.422787  1
  Al  Al14  1  0.837892  0.673733  0.422787  1
  Al  Al15  1  0.675584  0.837792  0.577818  1
  Al  Al16  1  0.162038  0.835949  0.577726  1
  Al  Al17  1  0.162038  0.326089  0.577726  1
  Al  Al18  1  0.675584  0.837792  0.922182  1
  Al  Al19  1  0.162038  0.835949  0.922274  1
  Al  Al20  1  0.162038  0.326089  0.922274  1
  Al  Al21  1  0.324588  0.162294  0.077304  1
  Al  Al22  1  0.837892  0.164159  0.077213  1
  Al  Al23  1  0.837892  0.673733  0.077213  1
  Al  Al24  1  0.668865  0.334432  0.522871  1
  Al  Al25  1  0.331087  0.665544  0.477688  1
  Al  Al26  1  0.331087  0.665544  0.022312  1
  Al  Al27  1  0.668865  0.334432  0.977129  1
  Al  Al28  1  0.997938  0.998969  0.250000  1
  Al  Al29  1  0.002045  0.001022  0.750000  1
  Ru  Ru30  1  0.999999  0.999999  0.500028  1
  Ru  Ru31  1  0.999999  0.999999  0.999972  1
  Ru  Ru32  1  0.999705  0.499852  0.500298  1
  Ru  Ru33  1  0.999705  0.499852  0.999702  1
  Rh  Rh34  1  0.500151  0.499879  0.500248  1
  Rh  Rh35  1  0.500151  0.000272  0.500248  1
  Rh  Rh36  1  0.500151  0.499879  0.999752  1
  Rh  Rh37  1  0.500151  0.000272  0.999752  1
