# generated using pymatgen
data_Hf2U4Pa2Bi3Sb7
_symmetry_space_group_name_H-M   'P 1'
_cell_length_a   9.33940324
_cell_length_b   9.34093631
_cell_length_c   6.23750352
_cell_angle_alpha   89.95320123
_cell_angle_beta   90.02340371
_cell_angle_gamma   120.00542487
_symmetry_Int_Tables_number   1
_chemical_formula_structural   Hf2U4Pa2Bi3Sb7
_chemical_formula_sum   'Hf2 U4 Pa2 Bi3 Sb7'
_cell_volume   471.22365695
_cell_formula_units_Z   1
loop_
 _symmetry_equiv_pos_site_id
 _symmetry_equiv_pos_as_xyz
  1  'x, y, z'
loop_
 _atom_site_type_symbol
 _atom_site_label
 _atom_site_symmetry_multiplicity
 _atom_site_fract_x
 _atom_site_fract_y
 _atom_site_fract_z
 _atom_site_occupancy
  Hf  Hf0  1  0.997248  0.998624  0.500000  1
  Hf  Hf1  1  0.997216  0.998608  0.000000  1
  U  U2  1  0.004157  0.619970  0.246788  1
  U  U3  1  0.004157  0.384187  0.753212  1
  U  U4  1  0.617114  0.620194  0.753004  1
  U  U5  1  0.617114  0.996920  0.246996  1
  Pa  Pa6  1  0.381479  0.995315  0.753463  1
  Pa  Pa7  1  0.381479  0.386165  0.246537  1
  Bi  Bi8  1  0.334014  0.667007  0.500000  1
  Bi  Bi9  1  0.667266  0.333632  0.000000  1
  Bi  Bi10  1  0.667160  0.333579  0.500000  1
  Sb  Sb11  1  0.334157  0.667079  0.000000  1
  Sb  Sb12  1  0.729456  0.000613  0.749505  1
  Sb  Sb13  1  0.729456  0.728844  0.250495  1
  Sb  Sb14  1  0.998974  0.269257  0.250401  1
  Sb  Sb15  1  0.998974  0.729718  0.749599  1
  Sb  Sb16  1  0.270288  0.001355  0.250578  1
  Sb  Sb17  1  0.270288  0.268932  0.749422  1
