# generated using pymatgen
data_Sm2Tm4NiI10
_symmetry_space_group_name_H-M   'P 1'
_cell_length_a   7.70006849
_cell_length_b   9.67593579
_cell_length_c   9.78157919
_cell_angle_alpha   107.16845719
_cell_angle_beta   96.71193142
_cell_angle_gamma   104.96227872
_symmetry_Int_Tables_number   1
_chemical_formula_structural   Sm2Tm4NiI10
_chemical_formula_sum   'Sm2 Tm4 Ni1 I10'
_cell_volume   657.81602608
_cell_formula_units_Z   1
loop_
 _symmetry_equiv_pos_site_id
 _symmetry_equiv_pos_as_xyz
  1  'x, y, z'
loop_
 _atom_site_type_symbol
 _atom_site_label
 _atom_site_symmetry_multiplicity
 _atom_site_fract_x
 _atom_site_fract_y
 _atom_site_fract_z
 _atom_site_occupancy
  Sm  Sm0  1  0.885046  0.958085  0.238464  1
  Sm  Sm1  1  0.114954  0.041915  0.761536  1
  Tm  Tm2  1  0.028418  0.723909  0.916767  1
  Tm  Tm3  1  0.971582  0.276091  0.083233  1
  Tm  Tm4  1  0.664460  0.880017  0.842123  1
  Tm  Tm5  1  0.335540  0.119983  0.157877  1
  Ni  Ni6  1  0.000000  0.000000  0.000000  1
  I  I7  1  0.649821  0.551698  0.730039  1
  I  I8  1  0.350179  0.448302  0.269961  1
  I  I9  1  0.732636  0.909904  0.540740  1
  I  I10  1  0.267364  0.090096  0.459260  1
  I  I11  1  0.082819  0.377909  0.825194  1
  I  I12  1  0.917181  0.622091  0.174806  1
  I  I13  1  0.448600  0.815606  0.088866  1
  I  I14  1  0.551400  0.184394  0.911134  1
  I  I15  1  0.227622  0.739284  0.659366  1
  I  I16  1  0.772378  0.260716  0.340634  1
