# generated using pymatgen
data_Mg2Sn2PdRh2
_symmetry_space_group_name_H-M   'P 1'
_cell_length_a   7.73572864
_cell_length_b   7.73572859
_cell_length_c   7.73572847
_cell_angle_alpha   33.76306585
_cell_angle_beta   33.76307047
_cell_angle_gamma   33.76306319
_symmetry_Int_Tables_number   1
_chemical_formula_structural   Mg2Sn2PdRh2
_chemical_formula_sum   'Mg2 Sn2 Pd1 Rh2'
_cell_volume   127.39966318
_cell_formula_units_Z   1
loop_
 _symmetry_equiv_pos_site_id
 _symmetry_equiv_pos_as_xyz
  1  'x, y, z'
loop_
 _atom_site_type_symbol
 _atom_site_label
 _atom_site_symmetry_multiplicity
 _atom_site_fract_x
 _atom_site_fract_y
 _atom_site_fract_z
 _atom_site_occupancy
  Mg  Mg0  1  0.245666  0.245666  0.245666  1
  Mg  Mg1  1  0.753493  0.753493  0.753493  1
  Sn  Sn2  1  0.005114  0.005114  0.005114  1
  Sn  Sn3  1  0.496013  0.496013  0.496013  1
  Pd  Pd4  1  0.878585  0.878585  0.878585  1
  Rh  Rh5  1  0.371445  0.371445  0.371445  1
  Rh  Rh6  1  0.624686  0.624686  0.624686  1
