# generated using pymatgen
data_Tm2OsC2
_symmetry_space_group_name_H-M   'P 1'
_cell_length_a   5.04159200
_cell_length_b   6.40539300
_cell_length_c   9.67414500
_cell_angle_alpha   90.00000000
_cell_angle_beta   90.00000000
_cell_angle_gamma   90.00000000
_symmetry_Int_Tables_number   1
_chemical_formula_structural   Tm2OsC2
_chemical_formula_sum   'Tm8 Os4 C8'
_cell_volume   312.41082233
_cell_formula_units_Z   4
loop_
 _symmetry_equiv_pos_site_id
 _symmetry_equiv_pos_as_xyz
  1  'x, y, z'
loop_
 _atom_site_type_symbol
 _atom_site_label
 _atom_site_symmetry_multiplicity
 _atom_site_fract_x
 _atom_site_fract_y
 _atom_site_fract_z
 _atom_site_occupancy
  Tm  Tm0  1  0.250000  0.820037  0.945974  1
  Tm  Tm1  1  0.250000  0.320037  0.554026  1
  Tm  Tm2  1  0.750000  0.179963  0.054026  1
  Tm  Tm3  1  0.750000  0.679963  0.445974  1
  Tm  Tm4  1  0.250000  0.470023  0.218529  1
  Tm  Tm5  1  0.250000  0.970023  0.281471  1
  Tm  Tm6  1  0.750000  0.529977  0.781471  1
  Tm  Tm7  1  0.750000  0.029977  0.718529  1
  Os  Os8  1  0.250000  0.277206  0.867131  1
  Os  Os9  1  0.250000  0.777206  0.632869  1
  Os  Os10  1  0.750000  0.722794  0.132869  1
  Os  Os11  1  0.750000  0.222794  0.367131  1
  C  C12  1  0.250000  0.042039  0.741071  1
  C  C13  1  0.250000  0.542039  0.758929  1
  C  C14  1  0.750000  0.957961  0.258929  1
  C  C15  1  0.750000  0.457961  0.241071  1
  C  C16  1  0.250000  0.671835  0.443264  1
  C  C17  1  0.250000  0.171835  0.056736  1
  C  C18  1  0.750000  0.328165  0.556736  1
  C  C19  1  0.750000  0.828165  0.943264  1
