# generated using pymatgen
data_NaCa2Y(Si5Pt3)2
_symmetry_space_group_name_H-M   'P 1'
_cell_length_a   8.23599767
_cell_length_b   8.26402197
_cell_length_c   8.26402103
_cell_angle_alpha   138.02846365
_cell_angle_beta   104.22520071
_cell_angle_gamma   90.66820837
_symmetry_Int_Tables_number   1
_chemical_formula_structural   NaCa2Y(Si5Pt3)2
_chemical_formula_sum   'Na1 Ca2 Y1 Si10 Pt6'
_cell_volume   347.84977881
_cell_formula_units_Z   1
loop_
 _symmetry_equiv_pos_site_id
 _symmetry_equiv_pos_as_xyz
  1  'x, y, z'
loop_
 _atom_site_type_symbol
 _atom_site_label
 _atom_site_symmetry_multiplicity
 _atom_site_fract_x
 _atom_site_fract_y
 _atom_site_fract_z
 _atom_site_occupancy
  Na  Na0  1  0.863648  0.627898  0.235750  1
  Ca  Ca1  1  0.396738  0.130208  0.266531  1
  Ca  Ca2  1  0.604580  0.871496  0.733084  1
  Y  Y3  1  0.137753  0.369071  0.768681  1
  Si  Si4  1  0.499746  0.748586  0.250818  1
  Si  Si5  1  0.499746  0.248927  0.751159  1
  Si  Si6  1  0.229128  0.977750  0.747818  1
  Si  Si7  1  0.770634  0.520748  0.747107  1
  Si  Si8  1  0.770634  0.023528  0.249886  1
  Si  Si9  1  0.229128  0.481310  0.251376  1
  Si  Si10  1  0.038374  0.887259  0.151117  1
  Si  Si11  1  0.962227  0.113692  0.848535  1
  Si  Si12  1  0.737727  0.389512  0.348215  1
  Si  Si13  1  0.261915  0.610892  0.651023  1
  Pt  Pt14  1  0.001975  0.752087  0.754350  1
  Pt  Pt15  1  0.001975  0.247625  0.249888  1
  Pt  Pt16  1  0.245333  0.863031  0.382303  1
  Pt  Pt17  1  0.749813  0.136851  0.612962  1
  Pt  Pt18  1  0.478055  0.363587  0.114467  1
  Pt  Pt19  1  0.520876  0.635944  0.884932  1
