# generated using pymatgen
data_PrDy3(WN3)4
_symmetry_space_group_name_H-M   'P 1'
_cell_length_a   7.33252047
_cell_length_b   7.33252011
_cell_length_c   6.28203534
_cell_angle_alpha   74.73075690
_cell_angle_beta   74.73076887
_cell_angle_gamma   82.61962639
_symmetry_Int_Tables_number   1
_chemical_formula_structural   PrDy3(WN3)4
_chemical_formula_sum   'Pr1 Dy3 W4 N12'
_cell_volume   313.69894366
_cell_formula_units_Z   1
loop_
 _symmetry_equiv_pos_site_id
 _symmetry_equiv_pos_as_xyz
  1  'x, y, z'
loop_
 _atom_site_type_symbol
 _atom_site_label
 _atom_site_symmetry_multiplicity
 _atom_site_fract_x
 _atom_site_fract_y
 _atom_site_fract_z
 _atom_site_occupancy
  Pr  Pr0  1  0.700655  0.299345  0.750000  1
  Dy  Dy1  1  0.091671  0.908329  0.750000  1
  Dy  Dy2  1  0.293791  0.706209  0.250000  1
  Dy  Dy3  1  0.914207  0.085793  0.250000  1
  W  W4  1  0.379565  0.200248  0.242980  1
  W  W5  1  0.618037  0.800213  0.761032  1
  W  W6  1  0.799752  0.620435  0.257020  1
  W  W7  1  0.199787  0.381963  0.738968  1
  N  N8  1  0.622237  0.111016  0.166709  1
  N  N9  1  0.358717  0.358842  0.453578  1
  N  N10  1  0.007249  0.213511  0.851122  1
  N  N11  1  0.376734  0.893562  0.843916  1
  N  N12  1  0.786489  0.992751  0.648878  1
  N  N13  1  0.106438  0.623266  0.656084  1
  N  N14  1  0.888984  0.377763  0.333291  1
  N  N15  1  0.641465  0.649910  0.540622  1
  N  N16  1  0.641158  0.641283  0.046422  1
  N  N17  1  0.350090  0.358535  0.959378  1
  N  N18  1  0.002161  0.779188  0.149436  1
  N  N19  1  0.220812  0.997839  0.350564  1
