# generated using pymatgen
data_Tm4GaI6
_symmetry_space_group_name_H-M   'P 1'
_cell_length_a   4.21546900
_cell_length_b   13.87469900
_cell_length_c   14.66259500
_cell_angle_alpha   90.00000000
_cell_angle_beta   90.00000000
_cell_angle_gamma   90.00000000
_symmetry_Int_Tables_number   1
_chemical_formula_structural   Tm4GaI6
_chemical_formula_sum   'Tm8 Ga2 I12'
_cell_volume   857.59118649
_cell_formula_units_Z   2
loop_
 _symmetry_equiv_pos_site_id
 _symmetry_equiv_pos_as_xyz
  1  'x, y, z'
loop_
 _atom_site_type_symbol
 _atom_site_label
 _atom_site_symmetry_multiplicity
 _atom_site_fract_x
 _atom_site_fract_y
 _atom_site_fract_z
 _atom_site_occupancy
  Tm  Tm0  1  0.500000  0.114873  0.346356  1
  Tm  Tm1  1  0.500000  0.885127  0.653644  1
  Tm  Tm2  1  0.500000  0.614873  0.153644  1
  Tm  Tm3  1  0.500000  0.385127  0.846356  1
  Tm  Tm4  1  0.000000  0.111302  0.574850  1
  Tm  Tm5  1  0.000000  0.888698  0.425150  1
  Tm  Tm6  1  0.000000  0.611302  0.925150  1
  Tm  Tm7  1  0.000000  0.388698  0.074850  1
  Ga  Ga8  1  0.500000  0.000000  0.500000  1
  Ga  Ga9  1  0.500000  0.500000  0.000000  1
  I  I10  1  0.500000  0.247855  0.163776  1
  I  I11  1  0.500000  0.752145  0.836224  1
  I  I12  1  0.500000  0.747855  0.336224  1
  I  I13  1  0.500000  0.252145  0.663776  1
  I  I14  1  0.000000  0.258653  0.414122  1
  I  I15  1  0.000000  0.741347  0.585878  1
  I  I16  1  0.000000  0.758653  0.085878  1
  I  I17  1  0.000000  0.241347  0.914122  1
  I  I18  1  0.000000  0.000224  0.240059  1
  I  I19  1  0.000000  0.999776  0.759941  1
  I  I20  1  0.000000  0.500224  0.259941  1
  I  I21  1  0.000000  0.499776  0.740059  1
