# generated using pymatgen
data_Tb6Y2SbPd24
_symmetry_space_group_name_H-M   'P 1'
_cell_length_a   8.42028210
_cell_length_b   8.42061100
_cell_length_c   8.42028210
_cell_angle_alpha   90.00000000
_cell_angle_beta   90.01737868
_cell_angle_gamma   90.00000000
_symmetry_Int_Tables_number   1
_chemical_formula_structural   Tb6Y2SbPd24
_chemical_formula_sum   'Tb6 Y2 Sb1 Pd24'
_cell_volume   597.03098111
_cell_formula_units_Z   1
loop_
 _symmetry_equiv_pos_site_id
 _symmetry_equiv_pos_as_xyz
  1  'x, y, z'
loop_
 _atom_site_type_symbol
 _atom_site_label
 _atom_site_symmetry_multiplicity
 _atom_site_fract_x
 _atom_site_fract_y
 _atom_site_fract_z
 _atom_site_occupancy
  Tb  Tb0  1  0.746660  0.746567  0.253365  1
  Tb  Tb1  1  0.746603  0.253498  0.746603  1
  Tb  Tb2  1  0.253365  0.746567  0.746660  1
  Tb  Tb3  1  0.746603  0.746502  0.746603  1
  Tb  Tb4  1  0.746660  0.253433  0.253365  1
  Tb  Tb5  1  0.253365  0.253433  0.746660  1
  Y  Y6  1  0.253263  0.746665  0.253263  1
  Y  Y7  1  0.253263  0.253335  0.253263  1
  Sb  Sb8  1  0.000055  0.000000  0.000055  1
  Pd  Pd9  1  0.999978  0.000000  0.306613  1
  Pd  Pd10  1  0.734963  0.000000  0.500081  1
  Pd  Pd11  1  0.735008  0.500000  0.999989  1
  Pd  Pd12  1  0.500081  0.000000  0.734963  1
  Pd  Pd13  1  0.999949  0.734966  0.500083  1
  Pd  Pd14  1  0.500085  0.000000  0.265023  1
  Pd  Pd15  1  0.999949  0.265034  0.500083  1
  Pd  Pd16  1  0.500083  0.734966  0.999949  1
  Pd  Pd17  1  0.254552  0.500000  0.500079  1
  Pd  Pd18  1  0.500017  0.500000  0.745436  1
  Pd  Pd19  1  0.500079  0.500000  0.254552  1
  Pd  Pd20  1  0.500047  0.254568  0.500047  1
  Pd  Pd21  1  0.500047  0.745432  0.500047  1
  Pd  Pd22  1  0.745436  0.500000  0.500017  1
  Pd  Pd23  1  0.306613  0.000000  0.999978  1
  Pd  Pd24  1  0.000003  0.000000  0.693317  1
  Pd  Pd25  1  0.999904  0.500000  0.264977  1
  Pd  Pd26  1  0.999990  0.306563  0.999990  1
  Pd  Pd27  1  0.999990  0.693437  0.999990  1
  Pd  Pd28  1  0.693317  0.000000  0.000003  1
  Pd  Pd29  1  0.264977  0.500000  0.999904  1
  Pd  Pd30  1  0.265023  0.000000  0.500085  1
  Pd  Pd31  1  0.999989  0.500000  0.735008  1
  Pd  Pd32  1  0.500083  0.265034  0.999949  1
