# generated using pymatgen
data_La2TcB5Os2
_symmetry_space_group_name_H-M   'P 1'
_cell_length_a   5.80730992
_cell_length_b   5.81669891
_cell_length_c   8.23566287
_cell_angle_alpha   123.76104921
_cell_angle_beta   123.84706938
_cell_angle_gamma   41.18412575
_symmetry_Int_Tables_number   1
_chemical_formula_structural   La2TcB5Os2
_chemical_formula_sum   'La2 Tc1 B5 Os2'
_cell_volume   147.32251051
_cell_formula_units_Z   1
loop_
 _symmetry_equiv_pos_site_id
 _symmetry_equiv_pos_as_xyz
  1  'x, y, z'
loop_
 _atom_site_type_symbol
 _atom_site_label
 _atom_site_symmetry_multiplicity
 _atom_site_fract_x
 _atom_site_fract_y
 _atom_site_fract_z
 _atom_site_occupancy
  La  La0  1  0.381099  0.956575  0.261002  1
  La  La1  1  0.041729  0.620269  0.737632  1
  Tc  Tc2  1  0.597089  0.144162  0.097339  1
  B  B3  1  0.715098  0.286141  0.999177  1
  B  B4  1  0.074297  0.640103  0.187926  1
  B  B5  1  0.468175  0.489749  0.382930  1
  B  B6  1  0.508438  0.531501  0.617503  1
  B  B7  1  0.356178  0.927892  0.813673  1
  Os  Os8  1  0.995289  0.002749  0.500114  1
  Os  Os9  1  0.857997  0.405466  0.902701  1
