# generated using pymatgen
data_ReS2O9F
_symmetry_space_group_name_H-M   'P 1'
_cell_length_a   7.33580712
_cell_length_b   7.84951599
_cell_length_c   8.30099741
_cell_angle_alpha   90.59792095
_cell_angle_beta   100.02677061
_cell_angle_gamma   111.25409721
_symmetry_Int_Tables_number   1
_chemical_formula_structural   ReS2O9F
_chemical_formula_sum   'Re2 S4 O18 F2'
_cell_volume   437.26528125
_cell_formula_units_Z   2
loop_
 _symmetry_equiv_pos_site_id
 _symmetry_equiv_pos_as_xyz
  1  'x, y, z'
loop_
 _atom_site_type_symbol
 _atom_site_label
 _atom_site_symmetry_multiplicity
 _atom_site_fract_x
 _atom_site_fract_y
 _atom_site_fract_z
 _atom_site_occupancy
  Re  Re0  1  0.769979  0.302237  0.701860  1
  Re  Re1  1  0.230021  0.697763  0.298140  1
  S  S2  1  0.085456  0.734192  0.876582  1
  S  S3  1  0.914544  0.265808  0.123418  1
  S  S4  1  0.661876  0.654062  0.781946  1
  S  S5  1  0.338124  0.345938  0.218054  1
  O  O6  1  0.563605  0.106719  0.653636  1
  O  O7  1  0.436395  0.893281  0.346364  1
  O  O8  1  0.783990  0.400490  0.519961  1
  O  O9  1  0.216010  0.599510  0.480039  1
  O  O10  1  0.159057  0.856157  0.757476  1
  O  O11  1  0.840943  0.143843  0.242524  1
  O  O12  1  0.206807  0.784228  0.043205  1
  O  O13  1  0.793193  0.215772  0.956795  1
  O  O14  1  0.029719  0.535941  0.829286  1
  O  O15  1  0.970281  0.464059  0.170714  1
  O  O16  1  0.874883  0.749657  0.912142  1
  O  O17  1  0.125117  0.250343  0.087858  1
  O  O18  1  0.520735  0.683820  0.864580  1
  O  O19  1  0.479265  0.316180  0.135420  1
  O  O20  1  0.687559  0.710998  0.621715  1
  O  O21  1  0.312441  0.289002  0.378285  1
  O  O22  1  0.632991  0.444912  0.788527  1
  O  O23  1  0.367009  0.555088  0.211473  1
  F  F24  1  0.969969  0.208447  0.703297  1
  F  F25  1  0.030031  0.791553  0.296703  1
