# generated using pymatgen
data_ErTm3C2Br3
_symmetry_space_group_name_H-M   'P 1'
_cell_length_a   3.64234800
_cell_length_b   10.56872200
_cell_length_c   20.23156600
_cell_angle_alpha   90.00000000
_cell_angle_beta   90.00000000
_cell_angle_gamma   90.00000000
_symmetry_Int_Tables_number   1
_chemical_formula_structural   ErTm3C2Br3
_chemical_formula_sum   'Er4 Tm12 C8 Br12'
_cell_volume   778.81339349
_cell_formula_units_Z   4
loop_
 _symmetry_equiv_pos_site_id
 _symmetry_equiv_pos_as_xyz
  1  'x, y, z'
loop_
 _atom_site_type_symbol
 _atom_site_label
 _atom_site_symmetry_multiplicity
 _atom_site_fract_x
 _atom_site_fract_y
 _atom_site_fract_z
 _atom_site_occupancy
  Er  Er0  1  0.250000  0.866147  0.581446  1
  Er  Er1  1  0.750000  0.133853  0.418554  1
  Er  Er2  1  0.750000  0.633853  0.081446  1
  Er  Er3  1  0.250000  0.366147  0.918554  1
  Tm  Tm4  1  0.250000  0.865381  0.743900  1
  Tm  Tm5  1  0.750000  0.134619  0.256100  1
  Tm  Tm6  1  0.750000  0.634619  0.243900  1
  Tm  Tm7  1  0.250000  0.365381  0.756100  1
  Tm  Tm8  1  0.250000  0.867456  0.169763  1
  Tm  Tm9  1  0.750000  0.132544  0.830237  1
  Tm  Tm10  1  0.750000  0.632544  0.669763  1
  Tm  Tm11  1  0.250000  0.367456  0.330237  1
  Tm  Tm12  1  0.250000  0.901147  0.327296  1
  Tm  Tm13  1  0.750000  0.098853  0.672704  1
  Tm  Tm14  1  0.750000  0.598853  0.827296  1
  Tm  Tm15  1  0.250000  0.401147  0.172704  1
  C  C16  1  0.250000  0.614792  0.750189  1
  C  C17  1  0.750000  0.385208  0.249811  1
  C  C18  1  0.750000  0.885208  0.250189  1
  C  C19  1  0.250000  0.114792  0.749811  1
  C  C20  1  0.250000  0.633088  0.157071  1
  C  C21  1  0.750000  0.366912  0.842929  1
  C  C22  1  0.750000  0.866912  0.657071  1
  C  C23  1  0.250000  0.133088  0.342929  1
  Br  Br24  1  0.250000  0.611745  0.555998  1
  Br  Br25  1  0.750000  0.388255  0.444002  1
  Br  Br26  1  0.750000  0.888255  0.055998  1
  Br  Br27  1  0.250000  0.111745  0.944002  1
  Br  Br28  1  0.250000  0.627985  0.953118  1
  Br  Br29  1  0.750000  0.372015  0.046882  1
  Br  Br30  1  0.750000  0.872015  0.453118  1
  Br  Br31  1  0.250000  0.127985  0.546882  1
  Br  Br32  1  0.250000  0.636480  0.356422  1
  Br  Br33  1  0.750000  0.363520  0.643578  1
  Br  Br34  1  0.750000  0.863520  0.856422  1
  Br  Br35  1  0.250000  0.136480  0.143578  1
