# generated using pymatgen
data_Lu6Ga5Ni12Os
_symmetry_space_group_name_H-M   'P 1'
_cell_length_a   5.12185800
_cell_length_b   5.12185738
_cell_length_c   15.91190300
_cell_angle_alpha   90.00000000
_cell_angle_beta   90.00000000
_cell_angle_gamma   119.99999111
_symmetry_Int_Tables_number   1
_chemical_formula_structural   Lu6Ga5Ni12Os
_chemical_formula_sum   'Lu6 Ga5 Ni12 Os1'
_cell_volume   361.49958906
_cell_formula_units_Z   1
loop_
 _symmetry_equiv_pos_site_id
 _symmetry_equiv_pos_as_xyz
  1  'x, y, z'
loop_
 _atom_site_type_symbol
 _atom_site_label
 _atom_site_symmetry_multiplicity
 _atom_site_fract_x
 _atom_site_fract_y
 _atom_site_fract_z
 _atom_site_occupancy
  Lu  Lu0  1  0.333333  0.666667  0.546526  1
  Lu  Lu1  1  0.666667  0.333333  0.453474  1
  Lu  Lu2  1  0.666667  0.333333  0.032176  1
  Lu  Lu3  1  0.333333  0.666667  0.967824  1
  Lu  Lu4  1  0.333333  0.666667  0.762205  1
  Lu  Lu5  1  0.666667  0.333333  0.237795  1
  Ga  Ga6  1  0.000000  0.000000  0.255834  1
  Ga  Ga7  1  0.000000  0.000000  0.744166  1
  Ga  Ga8  1  0.333333  0.666667  0.254706  1
  Ga  Ga9  1  0.666667  0.333333  0.745294  1
  Ga  Ga10  1  0.000000  0.000000  0.500000  1
  Ni  Ni11  1  0.165666  0.331330  0.129773  1
  Ni  Ni12  1  0.834334  0.668670  0.870227  1
  Ni  Ni13  1  0.668670  0.834334  0.129773  1
  Ni  Ni14  1  0.830846  0.661694  0.622421  1
  Ni  Ni15  1  0.331330  0.165666  0.870227  1
  Ni  Ni16  1  0.169154  0.338306  0.377579  1
  Ni  Ni17  1  0.165666  0.834334  0.129773  1
  Ni  Ni18  1  0.338306  0.169154  0.622421  1
  Ni  Ni19  1  0.834334  0.165666  0.870227  1
  Ni  Ni20  1  0.661694  0.830846  0.377579  1
  Ni  Ni21  1  0.830846  0.169154  0.622421  1
  Ni  Ni22  1  0.169154  0.830846  0.377579  1
  Os  Os23  1  0.000000  0.000000  0.000000  1
