# generated using pymatgen
data_Nd7YInPd24
_symmetry_space_group_name_H-M   'P 1'
_cell_length_a   8.53526925
_cell_length_b   8.53526925
_cell_length_c   8.53526925
_cell_angle_alpha   89.95606285
_cell_angle_beta   89.95606285
_cell_angle_gamma   89.95606285
_symmetry_Int_Tables_number   1
_chemical_formula_structural   Nd7YInPd24
_chemical_formula_sum   'Nd7 Y1 In1 Pd24'
_cell_volume   621.80082651
_cell_formula_units_Z   1
loop_
 _symmetry_equiv_pos_site_id
 _symmetry_equiv_pos_as_xyz
  1  'x, y, z'
loop_
 _atom_site_type_symbol
 _atom_site_label
 _atom_site_symmetry_multiplicity
 _atom_site_fract_x
 _atom_site_fract_y
 _atom_site_fract_z
 _atom_site_occupancy
  Nd  Nd0  1  0.749176  0.749176  0.749176  1
  Nd  Nd1  1  0.748837  0.748837  0.251103  1
  Nd  Nd2  1  0.748837  0.251103  0.748837  1
  Nd  Nd3  1  0.250998  0.250998  0.749114  1
  Nd  Nd4  1  0.250998  0.749114  0.250998  1
  Nd  Nd5  1  0.251103  0.748837  0.748837  1
  Nd  Nd6  1  0.749114  0.250998  0.250998  1
  Y  Y7  1  0.251376  0.251376  0.251376  1
  In  In8  1  0.000098  0.000098  0.000098  1
  Pd  Pd9  1  0.267533  0.498234  0.002345  1
  Pd  Pd10  1  0.732473  0.499898  0.999989  1
  Pd  Pd11  1  0.002345  0.267533  0.498234  1
  Pd  Pd12  1  0.498234  0.267533  0.002345  1
  Pd  Pd13  1  0.999989  0.732473  0.499898  1
  Pd  Pd14  1  0.499898  0.732473  0.999989  1
  Pd  Pd15  1  0.498234  0.002345  0.267533  1
  Pd  Pd16  1  0.267533  0.002345  0.498234  1
  Pd  Pd17  1  0.499898  0.999989  0.732473  1
  Pd  Pd18  1  0.732473  0.999989  0.499898  1
  Pd  Pd19  1  0.002345  0.498234  0.267533  1
  Pd  Pd20  1  0.999989  0.499898  0.732473  1
  Pd  Pd21  1  0.255650  0.497723  0.497723  1
  Pd  Pd22  1  0.744314  0.499999  0.499999  1
  Pd  Pd23  1  0.497723  0.255650  0.497723  1
  Pd  Pd24  1  0.499999  0.744314  0.499999  1
  Pd  Pd25  1  0.497723  0.497723  0.255650  1
  Pd  Pd26  1  0.499999  0.499999  0.744314  1
  Pd  Pd27  1  0.314513  0.001827  0.001827  1
  Pd  Pd28  1  0.684981  0.999982  0.999982  1
  Pd  Pd29  1  0.001827  0.314513  0.001827  1
  Pd  Pd30  1  0.999982  0.684981  0.999982  1
  Pd  Pd31  1  0.001827  0.001827  0.314513  1
  Pd  Pd32  1  0.999982  0.999982  0.684981  1
