# generated using pymatgen
data_ScZn3CdRu
_symmetry_space_group_name_H-M   'P 1'
_cell_length_a   5.15661561
_cell_length_b   5.14905751
_cell_length_c   5.15661600
_cell_angle_alpha   59.95142915
_cell_angle_beta   59.99999748
_cell_angle_gamma   59.95143741
_symmetry_Int_Tables_number   1
_chemical_formula_structural   ScZn3CdRu
_chemical_formula_sum   'Sc1 Zn3 Cd1 Ru1'
_cell_volume   96.74378777
_cell_formula_units_Z   1
loop_
 _symmetry_equiv_pos_site_id
 _symmetry_equiv_pos_as_xyz
  1  'x, y, z'
loop_
 _atom_site_type_symbol
 _atom_site_label
 _atom_site_symmetry_multiplicity
 _atom_site_fract_x
 _atom_site_fract_y
 _atom_site_fract_z
 _atom_site_occupancy
  Sc  Sc0  1  0.746346  0.760961  0.746346  1
  Zn  Zn1  1  0.374175  0.376756  0.374175  1
  Zn  Zn2  1  0.874893  0.376756  0.374175  1
  Zn  Zn3  1  0.374175  0.376756  0.874893  1
  Cd  Cd4  1  0.005557  0.983327  0.005557  1
  Ru  Ru5  1  0.374851  0.875445  0.374851  1
