# generated using pymatgen
data_Eu8Al3Si12Ni
_symmetry_space_group_name_H-M   'P 1'
_cell_length_a   8.22250800
_cell_length_b   8.22250766
_cell_length_c   8.51783200
_cell_angle_alpha   90.00000000
_cell_angle_beta   90.00000000
_cell_angle_gamma   119.99999331
_symmetry_Int_Tables_number   1
_chemical_formula_structural   Eu8Al3Si12Ni
_chemical_formula_sum   'Eu8 Al3 Si12 Ni1'
_cell_volume   498.73324954
_cell_formula_units_Z   1
loop_
 _symmetry_equiv_pos_site_id
 _symmetry_equiv_pos_as_xyz
  1  'x, y, z'
loop_
 _atom_site_type_symbol
 _atom_site_label
 _atom_site_symmetry_multiplicity
 _atom_site_fract_x
 _atom_site_fract_y
 _atom_site_fract_z
 _atom_site_occupancy
  Eu  Eu0  1  0.000000  0.000000  0.751556  1
  Eu  Eu1  1  0.000000  0.000000  0.248649  1
  Eu  Eu2  1  0.497734  0.502266  0.752139  1
  Eu  Eu3  1  0.497734  0.995470  0.752139  1
  Eu  Eu4  1  0.004530  0.502266  0.752139  1
  Eu  Eu5  1  0.499076  0.500924  0.247779  1
  Eu  Eu6  1  0.001850  0.500924  0.247779  1
  Eu  Eu7  1  0.499076  0.998150  0.247779  1
  Al  Al8  1  0.666667  0.333333  0.997358  1
  Al  Al9  1  0.666667  0.333333  0.503088  1
  Al  Al10  1  0.333333  0.666667  0.497247  1
  Si  Si11  1  0.839593  0.160407  0.999808  1
  Si  Si12  1  0.839593  0.679189  0.999808  1
  Si  Si13  1  0.320811  0.160407  0.999808  1
  Si  Si14  1  0.835922  0.164078  0.500140  1
  Si  Si15  1  0.835922  0.671845  0.500140  1
  Si  Si16  1  0.328155  0.164078  0.500140  1
  Si  Si17  1  0.164270  0.835730  0.499791  1
  Si  Si18  1  0.671459  0.835730  0.499791  1
  Si  Si19  1  0.164270  0.328541  0.499791  1
  Si  Si20  1  0.174074  0.825926  0.000659  1
  Si  Si21  1  0.651853  0.825926  0.000659  1
  Si  Si22  1  0.174074  0.348147  0.000659  1
  Ni  Ni23  1  0.333333  0.666667  0.001152  1
