# generated using pymatgen
data_Sr9Gd(PN5)2
_symmetry_space_group_name_H-M   'P 1'
_cell_length_a   7.50132609
_cell_length_b   7.50132479
_cell_length_c   8.58768000
_cell_angle_alpha   75.97691611
_cell_angle_beta   75.97691860
_cell_angle_gamma   94.25237007
_symmetry_Int_Tables_number   1
_chemical_formula_structural   Sr9Gd(PN5)2
_chemical_formula_sum   'Sr9 Gd1 P2 N10'
_cell_volume   450.30069509
_cell_formula_units_Z   1
loop_
 _symmetry_equiv_pos_site_id
 _symmetry_equiv_pos_as_xyz
  1  'x, y, z'
loop_
 _atom_site_type_symbol
 _atom_site_label
 _atom_site_symmetry_multiplicity
 _atom_site_fract_x
 _atom_site_fract_y
 _atom_site_fract_z
 _atom_site_occupancy
  Sr  Sr0  1  0.599838  0.599838  0.628926  1
  Sr  Sr1  1  0.678033  0.678033  0.998316  1
  Sr  Sr2  1  0.327594  0.327594  0.996287  1
  Sr  Sr3  1  0.923611  0.923611  0.200732  1
  Sr  Sr4  1  0.075102  0.075102  0.795900  1
  Sr  Sr5  1  0.553403  0.087561  0.758100  1
  Sr  Sr6  1  0.915495  0.442224  0.243909  1
  Sr  Sr7  1  0.442224  0.915495  0.243909  1
  Sr  Sr8  1  0.087561  0.553403  0.758100  1
  Gd  Gd9  1  0.419688  0.419688  0.361270  1
  P  P10  1  0.756811  0.241729  0.003295  1
  P  P11  1  0.241729  0.756811  0.003295  1
  N  N12  1  0.645606  0.645606  0.321887  1
  N  N13  1  0.343316  0.343316  0.650490  1
  N  N14  1  0.720894  0.023876  0.990738  1
  N  N15  1  0.975091  0.274687  0.017736  1
  N  N16  1  0.274687  0.975091  0.017736  1
  N  N17  1  0.023876  0.720894  0.990738  1
  N  N18  1  0.392141  0.727830  0.835012  1
  N  N19  1  0.273021  0.602447  0.174303  1
  N  N20  1  0.602447  0.273021  0.174303  1
  N  N21  1  0.727830  0.392141  0.835012  1
