# generated using pymatgen
data_Dy6Y10MgHg3Rh4
_symmetry_space_group_name_H-M   'P 1'
_cell_length_a   9.65433482
_cell_length_b   9.65362262
_cell_length_c   9.65362230
_cell_angle_alpha   59.75926354
_cell_angle_beta   59.92097896
_cell_angle_gamma   59.92097428
_symmetry_Int_Tables_number   1
_chemical_formula_structural   Dy6Y10MgHg3Rh4
_chemical_formula_sum   'Dy6 Y10 Mg1 Hg3 Rh4'
_cell_volume   634.26933782
_cell_formula_units_Z   1
loop_
 _symmetry_equiv_pos_site_id
 _symmetry_equiv_pos_as_xyz
  1  'x, y, z'
loop_
 _atom_site_type_symbol
 _atom_site_label
 _atom_site_symmetry_multiplicity
 _atom_site_fract_x
 _atom_site_fract_y
 _atom_site_fract_z
 _atom_site_occupancy
  Dy  Dy0  1  0.599183  0.597659  0.597659  1
  Dy  Dy1  1  0.601728  0.598511  0.203520  1
  Dy  Dy2  1  0.601728  0.203520  0.598511  1
  Dy  Dy3  1  0.191958  0.603522  0.603522  1
  Dy  Dy4  1  0.058091  0.440614  0.440614  1
  Dy  Dy5  1  0.435823  0.062024  0.062024  1
  Y  Y6  1  0.437061  0.060931  0.438757  1
  Y  Y7  1  0.058325  0.439877  0.059374  1
  Y  Y8  1  0.437061  0.438757  0.060931  1
  Y  Y9  1  0.058325  0.059374  0.439877  1
  Y  Y10  1  0.186682  0.813332  0.813332  1
  Y  Y11  1  0.811818  0.186891  0.186891  1
  Y  Y12  1  0.811793  0.188628  0.813945  1
  Y  Y13  1  0.186067  0.812293  0.188869  1
  Y  Y14  1  0.811793  0.813945  0.188628  1
  Y  Y15  1  0.186067  0.188869  0.812293  1
  Mg  Mg16  1  0.534542  0.821004  0.821004  1
  Hg  Hg17  1  0.832593  0.836141  0.836141  1
  Hg  Hg18  1  0.832269  0.837079  0.493091  1
  Hg  Hg19  1  0.832269  0.493091  0.837079  1
  Rh  Rh20  1  0.388284  0.395548  0.395548  1
  Rh  Rh21  1  0.392417  0.393240  0.820550  1
  Rh  Rh22  1  0.392417  0.820550  0.393240  1
  Rh  Rh23  1  0.821708  0.394602  0.394602  1
