# generated using pymatgen
data_PaPbI6
_symmetry_space_group_name_H-M   'P 1'
_cell_length_a   8.93182479
_cell_length_b   8.93182393
_cell_length_c   8.93182548
_cell_angle_alpha   53.46062682
_cell_angle_beta   53.46062217
_cell_angle_gamma   53.46062107
_symmetry_Int_Tables_number   1
_chemical_formula_structural   PaPbI6
_chemical_formula_sum   'Pa1 Pb1 I6'
_cell_volume   426.74615213
_cell_formula_units_Z   1
loop_
 _symmetry_equiv_pos_site_id
 _symmetry_equiv_pos_as_xyz
  1  'x, y, z'
loop_
 _atom_site_type_symbol
 _atom_site_label
 _atom_site_symmetry_multiplicity
 _atom_site_fract_x
 _atom_site_fract_y
 _atom_site_fract_z
 _atom_site_occupancy
  Pa  Pa0  1  0.333346  0.333346  0.333346  1
  Pb  Pb1  1  0.666280  0.666280  0.666280  1
  I  I2  1  0.711612  0.426263  0.097159  1
  I  I3  1  0.555747  0.941956  0.267638  1
  I  I4  1  0.097158  0.711612  0.426262  1
  I  I5  1  0.941956  0.267637  0.555747  1
  I  I6  1  0.426263  0.097158  0.711612  1
  I  I7  1  0.267638  0.555747  0.941955  1
