# generated using pymatgen
data_CaTbAl3Pt4
_symmetry_space_group_name_H-M   'P 1'
_cell_length_a   8.15128114
_cell_length_b   8.15128208
_cell_length_c   7.62861500
_cell_angle_alpha   89.91901124
_cell_angle_beta   90.08098876
_cell_angle_gamma   140.07751368
_symmetry_Int_Tables_number   1
_chemical_formula_structural   CaTbAl3Pt4
_chemical_formula_sum   'Ca2 Tb2 Al6 Pt8'
_cell_volume   325.28446917
_cell_formula_units_Z   2
loop_
 _symmetry_equiv_pos_site_id
 _symmetry_equiv_pos_as_xyz
  1  'x, y, z'
loop_
 _atom_site_type_symbol
 _atom_site_label
 _atom_site_symmetry_multiplicity
 _atom_site_fract_x
 _atom_site_fract_y
 _atom_site_fract_z
 _atom_site_occupancy
  Ca  Ca0  1  0.394865  0.605135  0.908127  1
  Ca  Ca1  1  0.605135  0.394865  0.091873  1
  Tb  Tb2  1  0.106733  0.893267  0.407871  1
  Tb  Tb3  1  0.893267  0.106733  0.592129  1
  Al  Al4  1  0.000000  0.000000  0.000000  1
  Al  Al5  1  0.500000  0.500000  0.500000  1
  Al  Al6  1  0.021213  0.476583  0.247598  1
  Al  Al7  1  0.476583  0.021213  0.752402  1
  Al  Al8  1  0.978787  0.523417  0.752402  1
  Al  Al9  1  0.523417  0.978787  0.247598  1
  Pt  Pt10  1  0.186666  0.308538  0.254063  1
  Pt  Pt11  1  0.308538  0.186666  0.745937  1
  Pt  Pt12  1  0.813334  0.691462  0.745937  1
  Pt  Pt13  1  0.691462  0.813334  0.254063  1
  Pt  Pt14  1  0.183444  0.816556  0.027684  1
  Pt  Pt15  1  0.816556  0.183444  0.972316  1
  Pt  Pt16  1  0.313993  0.686007  0.526143  1
  Pt  Pt17  1  0.686007  0.313993  0.473857  1
