# generated using pymatgen
data_Er4Sn2Sb4Rh7
_symmetry_space_group_name_H-M   'P 1'
_cell_length_a   7.58603995
_cell_length_b   7.58603984
_cell_length_c   7.58238991
_cell_angle_alpha   109.51744386
_cell_angle_beta   109.51744391
_cell_angle_gamma   109.39834469
_symmetry_Int_Tables_number   1
_chemical_formula_structural   Er4Sn2Sb4Rh7
_chemical_formula_sum   'Er4 Sn2 Sb4 Rh7'
_cell_volume   335.82193565
_cell_formula_units_Z   1
loop_
 _symmetry_equiv_pos_site_id
 _symmetry_equiv_pos_as_xyz
  1  'x, y, z'
loop_
 _atom_site_type_symbol
 _atom_site_label
 _atom_site_symmetry_multiplicity
 _atom_site_fract_x
 _atom_site_fract_y
 _atom_site_fract_z
 _atom_site_occupancy
  Er  Er0  1  0.507846  0.999470  0.000000  1
  Er  Er1  1  0.000530  0.492154  0.000000  1
  Er  Er2  1  0.001085  0.998915  0.500000  1
  Er  Er3  1  0.501085  0.498915  0.500000  1
  Sn  Sn4  1  0.310749  0.996809  0.307559  1
  Sn  Sn5  1  0.003191  0.689251  0.692441  1
  Sb  Sb6  1  0.687239  0.681886  0.000000  1
  Sb  Sb7  1  0.676881  0.997055  0.673938  1
  Sb  Sb8  1  0.002945  0.323119  0.326062  1
  Sb  Sb9  1  0.318114  0.312761  0.000000  1
  Rh  Rh10  1  0.253069  0.501512  0.754581  1
  Rh  Rh11  1  0.498665  0.249213  0.747878  1
  Rh  Rh12  1  0.748672  0.251328  0.500000  1
  Rh  Rh13  1  0.498488  0.746931  0.245419  1
  Rh  Rh14  1  0.991982  0.008018  0.000000  1
  Rh  Rh15  1  0.248672  0.751328  0.500000  1
  Rh  Rh16  1  0.750787  0.501335  0.252122  1
