# generated using pymatgen
data_Yb3Ho5(SiPt)8
_symmetry_space_group_name_H-M   'P 1'
_cell_length_a   4.29521100
_cell_length_b   7.39229435
_cell_length_c   14.15768900
_cell_angle_alpha   89.98233605
_cell_angle_beta   90.00000000
_cell_angle_gamma   90.00000000
_symmetry_Int_Tables_number   1
_chemical_formula_structural   Yb3Ho5(SiPt)8
_chemical_formula_sum   'Yb3 Ho5 Si8 Pt8'
_cell_volume   449.52733143
_cell_formula_units_Z   1
loop_
 _symmetry_equiv_pos_site_id
 _symmetry_equiv_pos_as_xyz
  1  'x, y, z'
loop_
 _atom_site_type_symbol
 _atom_site_label
 _atom_site_symmetry_multiplicity
 _atom_site_fract_x
 _atom_site_fract_y
 _atom_site_fract_z
 _atom_site_occupancy
  Yb  Yb0  1  0.500000  0.801627  0.748250  1
  Yb  Yb1  1  0.000000  0.198793  0.751766  1
  Yb  Yb2  1  0.500000  0.796877  0.251483  1
  Ho  Ho3  1  0.000000  0.200490  0.248680  1
  Ho  Ho4  1  0.500000  0.706588  0.999427  1
  Ho  Ho5  1  0.000000  0.294125  0.501637  1
  Ho  Ho6  1  0.500000  0.700995  0.500212  1
  Ho  Ho7  1  0.000000  0.299831  0.998563  1
  Si  Si8  1  0.500000  0.408964  0.651065  1
  Si  Si9  1  0.000000  0.592162  0.849613  1
  Si  Si10  1  0.500000  0.408400  0.348568  1
  Si  Si11  1  0.000000  0.590600  0.148429  1
  Si  Si12  1  0.500000  0.092402  0.092194  1
  Si  Si13  1  0.000000  0.907690  0.408493  1
  Si  Si14  1  0.500000  0.091424  0.908989  1
  Si  Si15  1  0.000000  0.909478  0.591232  1
  Pt  Pt16  1  0.500000  0.084378  0.604242  1
  Pt  Pt17  1  0.000000  0.916916  0.895557  1
  Pt  Pt18  1  0.500000  0.081089  0.392820  1
  Pt  Pt19  1  0.000000  0.918706  0.107214  1
  Pt  Pt20  1  0.500000  0.417619  0.155071  1
  Pt  Pt21  1  0.000000  0.579947  0.347561  1
  Pt  Pt22  1  0.500000  0.419056  0.845831  1
  Pt  Pt23  1  0.000000  0.581841  0.653104  1
