# generated using pymatgen
data_Sc4Mn4Co16SiP11
_symmetry_space_group_name_H-M   'P 1'
_cell_length_a   3.58480400
_cell_length_b   10.19391142
_cell_length_c   11.68110982
_cell_angle_alpha   89.92074996
_cell_angle_beta   90.00000000
_cell_angle_gamma   90.00000000
_symmetry_Int_Tables_number   1
_chemical_formula_structural   Sc4Mn4Co16SiP11
_chemical_formula_sum   'Sc4 Mn4 Co16 Si1 P11'
_cell_volume   426.86442519
_cell_formula_units_Z   1
loop_
 _symmetry_equiv_pos_site_id
 _symmetry_equiv_pos_as_xyz
  1  'x, y, z'
loop_
 _atom_site_type_symbol
 _atom_site_label
 _atom_site_symmetry_multiplicity
 _atom_site_fract_x
 _atom_site_fract_y
 _atom_site_fract_z
 _atom_site_occupancy
  Sc  Sc0  1  0.250000  0.581259  0.704115  1
  Sc  Sc1  1  0.250000  0.918740  0.206003  1
  Sc  Sc2  1  0.750000  0.419949  0.296835  1
  Sc  Sc3  1  0.750000  0.081821  0.795266  1
  Mn  Mn4  1  0.250000  0.710899  0.991206  1
  Mn  Mn5  1  0.250000  0.787671  0.489744  1
  Mn  Mn6  1  0.750000  0.286679  0.009640  1
  Mn  Mn7  1  0.750000  0.210259  0.509937  1
  Co  Co8  1  0.250000  0.407538  0.485832  1
  Co  Co9  1  0.250000  0.092443  0.985364  1
  Co  Co10  1  0.750000  0.592839  0.514937  1
  Co  Co11  1  0.750000  0.907489  0.014173  1
  Co  Co12  1  0.250000  0.213742  0.176810  1
  Co  Co13  1  0.250000  0.278276  0.677318  1
  Co  Co14  1  0.750000  0.779392  0.822631  1
  Co  Co15  1  0.750000  0.721521  0.324859  1
  Co  Co16  1  0.250000  0.884297  0.700100  1
  Co  Co17  1  0.250000  0.619176  0.200790  1
  Co  Co18  1  0.750000  0.114495  0.300606  1
  Co  Co19  1  0.750000  0.383481  0.799012  1
  Co  Co20  1  0.250000  0.466839  0.927202  1
  Co  Co21  1  0.250000  0.035455  0.432337  1
  Co  Co22  1  0.750000  0.539253  0.066262  1
  Co  Co23  1  0.750000  0.964792  0.569170  1
  Si  Si24  1  0.250000  0.416646  0.113974  1
  P  P25  1  0.250000  0.080539  0.615969  1
  P  P26  1  0.750000  0.580692  0.883087  1
  P  P27  1  0.750000  0.918735  0.385972  1
  P  P28  1  0.250000  0.265650  0.867775  1
  P  P29  1  0.250000  0.235387  0.365253  1
  P  P30  1  0.750000  0.735854  0.135286  1
  P  P31  1  0.750000  0.764713  0.632884  1
  P  P32  1  0.250000  0.597733  0.390162  1
  P  P33  1  0.250000  0.904433  0.888439  1
  P  P34  1  0.750000  0.404103  0.611001  1
  P  P35  1  0.750000  0.097210  0.110050  1
