# generated using pymatgen
data_Y6Tm7Lu7(Cd3Ru)2
_symmetry_space_group_name_H-M   'P 1'
_cell_length_a   9.50026921
_cell_length_b   9.50026934
_cell_length_c   9.70527017
_cell_angle_alpha   90.01882796
_cell_angle_beta   89.98117427
_cell_angle_gamma   120.01516164
_symmetry_Int_Tables_number   1
_chemical_formula_structural   Y6Tm7Lu7(Cd3Ru)2
_chemical_formula_sum   'Y6 Tm7 Lu7 Cd6 Ru2'
_cell_volume   758.47922396
_cell_formula_units_Z   1
loop_
 _symmetry_equiv_pos_site_id
 _symmetry_equiv_pos_as_xyz
  1  'x, y, z'
loop_
 _atom_site_type_symbol
 _atom_site_label
 _atom_site_symmetry_multiplicity
 _atom_site_fract_x
 _atom_site_fract_y
 _atom_site_fract_z
 _atom_site_occupancy
  Y  Y0  1  0.539883  0.460117  0.248637  1
  Y  Y1  1  0.539549  0.079604  0.248805  1
  Y  Y2  1  0.920396  0.460451  0.248805  1
  Y  Y3  1  0.460105  0.539895  0.751480  1
  Y  Y4  1  0.459757  0.919995  0.751078  1
  Y  Y5  1  0.080005  0.540243  0.751078  1
  Tm  Tm6  1  0.209783  0.790217  0.439833  1
  Tm  Tm7  1  0.209853  0.419790  0.439948  1
  Tm  Tm8  1  0.580210  0.790147  0.439948  1
  Tm  Tm9  1  0.790200  0.209800  0.559694  1
  Tm  Tm10  1  0.789986  0.580331  0.560020  1
  Tm  Tm11  1  0.419669  0.210014  0.560020  1
  Tm  Tm12  1  0.789860  0.210140  0.940449  1
  Lu  Lu13  1  0.999985  0.000015  0.500187  1
  Lu  Lu14  1  0.000273  0.999727  0.000180  1
  Lu  Lu15  1  0.789647  0.579894  0.940639  1
  Lu  Lu16  1  0.420106  0.210353  0.940639  1
  Lu  Lu17  1  0.210315  0.789685  0.059171  1
  Lu  Lu18  1  0.210415  0.420609  0.059433  1
  Lu  Lu19  1  0.579391  0.789585  0.059433  1
  Cd  Cd20  1  0.886489  0.113511  0.249643  1
  Cd  Cd21  1  0.886755  0.773066  0.249794  1
  Cd  Cd22  1  0.226934  0.113245  0.249794  1
  Cd  Cd23  1  0.113539  0.886461  0.750335  1
  Cd  Cd24  1  0.113538  0.226938  0.750604  1
  Cd  Cd25  1  0.773062  0.886462  0.750604  1
  Ru  Ru26  1  0.333575  0.666425  0.248842  1
  Ru  Ru27  1  0.666721  0.333279  0.750908  1
