# generated using pymatgen
data_Tb6Er10MgCd3Ir4
_symmetry_space_group_name_H-M   'P 1'
_cell_length_a   9.62604368
_cell_length_b   9.62604366
_cell_length_c   9.62604363
_cell_angle_alpha   59.83684186
_cell_angle_beta   59.83683921
_cell_angle_gamma   59.83684063
_symmetry_Int_Tables_number   1
_chemical_formula_structural   Tb6Er10MgCd3Ir4
_chemical_formula_sum   'Tb6 Er10 Mg1 Cd3 Ir4'
_cell_volume   628.37268838
_cell_formula_units_Z   1
loop_
 _symmetry_equiv_pos_site_id
 _symmetry_equiv_pos_as_xyz
  1  'x, y, z'
loop_
 _atom_site_type_symbol
 _atom_site_label
 _atom_site_symmetry_multiplicity
 _atom_site_fract_x
 _atom_site_fract_y
 _atom_site_fract_z
 _atom_site_occupancy
  Tb  Tb0  1  0.189770  0.811742  0.811742  1
  Tb  Tb1  1  0.811256  0.188680  0.188680  1
  Tb  Tb2  1  0.811742  0.189770  0.811742  1
  Tb  Tb3  1  0.188680  0.811256  0.188680  1
  Tb  Tb4  1  0.811742  0.811742  0.189770  1
  Tb  Tb5  1  0.188680  0.188680  0.811256  1
  Er  Er6  1  0.598526  0.598526  0.598526  1
  Er  Er7  1  0.598598  0.598598  0.204880  1
  Er  Er8  1  0.598598  0.204880  0.598598  1
  Er  Er9  1  0.204880  0.598598  0.598598  1
  Er  Er10  1  0.060265  0.438833  0.438833  1
  Er  Er11  1  0.436808  0.062153  0.062153  1
  Er  Er12  1  0.438833  0.060265  0.438833  1
  Er  Er13  1  0.062153  0.436808  0.062153  1
  Er  Er14  1  0.438833  0.438833  0.060265  1
  Er  Er15  1  0.062153  0.062153  0.436808  1
  Mg  Mg16  1  0.828003  0.828003  0.828003  1
  Cd  Cd17  1  0.830921  0.830921  0.507485  1
  Cd  Cd18  1  0.830921  0.507485  0.830921  1
  Cd  Cd19  1  0.507485  0.830921  0.830921  1
  Ir  Ir20  1  0.391823  0.391823  0.391823  1
  Ir  Ir21  1  0.392327  0.392327  0.824680  1
  Ir  Ir22  1  0.392327  0.824680  0.392327  1
  Ir  Ir23  1  0.824680  0.392327  0.392327  1
