# generated using pymatgen
data_Ho6TlNi2
_symmetry_space_group_name_H-M   'P 1'
_cell_length_a   8.44252391
_cell_length_b   8.44252327
_cell_length_c   8.44252400
_cell_angle_alpha   112.84672336
_cell_angle_beta   109.35536566
_cell_angle_gamma   106.27850000
_symmetry_Int_Tables_number   1
_chemical_formula_structural   Ho6TlNi2
_chemical_formula_sum   'Ho12 Tl2 Ni4'
_cell_volume   461.70139813
_cell_formula_units_Z   2
loop_
 _symmetry_equiv_pos_site_id
 _symmetry_equiv_pos_as_xyz
  1  'x, y, z'
loop_
 _atom_site_type_symbol
 _atom_site_label
 _atom_site_symmetry_multiplicity
 _atom_site_fract_x
 _atom_site_fract_y
 _atom_site_fract_z
 _atom_site_occupancy
  Ho  Ho0  1  0.438258  0.233735  0.204523  1
  Ho  Ho1  1  0.561742  0.766265  0.795477  1
  Ho  Ho2  1  0.029212  0.233735  0.795477  1
  Ho  Ho3  1  0.970788  0.766265  0.204523  1
  Ho  Ho4  1  0.182847  0.293465  0.476311  1
  Ho  Ho5  1  0.817153  0.706535  0.523689  1
  Ho  Ho6  1  0.182847  0.706535  0.889382  1
  Ho  Ho7  1  0.817153  0.293465  0.110618  1
  Ho  Ho8  1  0.325547  0.635882  0.310336  1
  Ho  Ho9  1  0.674453  0.364118  0.689664  1
  Ho  Ho10  1  0.325547  0.015211  0.689664  1
  Ho  Ho11  1  0.674453  0.984789  0.310336  1
  Tl  Tl12  1  0.500000  0.500000  0.000000  1
  Tl  Tl13  1  0.000000  0.000000  0.000000  1
  Ni  Ni14  1  0.352205  0.000000  0.352205  1
  Ni  Ni15  1  0.647795  0.000000  0.647795  1
  Ni  Ni16  1  0.123075  0.623075  0.500000  1
  Ni  Ni17  1  0.876925  0.376925  0.500000  1
