# generated using pymatgen
data_LiSc2ZnPt2
_symmetry_space_group_name_H-M   'P 1'
_cell_length_a   5.09606015
_cell_length_b   5.09606115
_cell_length_c   5.22825631
_cell_angle_alpha   89.96631478
_cell_angle_beta   90.03368432
_cell_angle_gamma   129.95494743
_symmetry_Int_Tables_number   1
_chemical_formula_structural   LiSc2ZnPt2
_chemical_formula_sum   'Li1 Sc2 Zn1 Pt2'
_cell_volume   104.07974972
_cell_formula_units_Z   1
loop_
 _symmetry_equiv_pos_site_id
 _symmetry_equiv_pos_as_xyz
  1  'x, y, z'
loop_
 _atom_site_type_symbol
 _atom_site_label
 _atom_site_symmetry_multiplicity
 _atom_site_fract_x
 _atom_site_fract_y
 _atom_site_fract_z
 _atom_site_occupancy
  Li  Li0  1  0.000000  0.000000  0.500000  1
  Sc  Sc1  1  0.709465  0.290535  0.251501  1
  Sc  Sc2  1  0.290535  0.709465  0.748499  1
  Zn  Zn3  1  0.000000  0.000000  0.000000  1
  Pt  Pt4  1  0.398422  0.601578  0.251764  1
  Pt  Pt5  1  0.601578  0.398422  0.748236  1
