# generated using pymatgen
data_Er3Tm(TcB6)2
_symmetry_space_group_name_H-M   'P 1'
_cell_length_a   3.65416100
_cell_length_b   9.10903108
_cell_length_c   11.47924313
_cell_angle_alpha   89.99870078
_cell_angle_beta   90.00000000
_cell_angle_gamma   90.00000000
_symmetry_Int_Tables_number   1
_chemical_formula_structural   Er3Tm(TcB6)2
_chemical_formula_sum   'Er6 Tm2 Tc4 B24'
_cell_volume   382.09654973
_cell_formula_units_Z   2
loop_
 _symmetry_equiv_pos_site_id
 _symmetry_equiv_pos_as_xyz
  1  'x, y, z'
loop_
 _atom_site_type_symbol
 _atom_site_label
 _atom_site_symmetry_multiplicity
 _atom_site_fract_x
 _atom_site_fract_y
 _atom_site_fract_z
 _atom_site_occupancy
  Er  Er0  1  0.000000  0.324211  0.414220  1
  Er  Er1  1  0.000000  0.675789  0.585780  1
  Er  Er2  1  0.000000  0.823902  0.085770  1
  Er  Er3  1  0.000000  0.176098  0.914230  1
  Er  Er4  1  0.000000  0.942814  0.369430  1
  Er  Er5  1  0.000000  0.057186  0.630571  1
  Tm  Tm6  1  0.000000  0.442787  0.130542  1
  Tm  Tm7  1  0.000000  0.557213  0.869457  1
  Tc  Tc8  1  0.000000  0.638660  0.320098  1
  Tc  Tc9  1  0.000000  0.361340  0.679902  1
  Tc  Tc10  1  0.000000  0.139253  0.179293  1
  Tc  Tc11  1  0.000000  0.860747  0.820707  1
  B  B12  1  0.500000  0.553005  0.433011  1
  B  B13  1  0.500000  0.446995  0.566989  1
  B  B14  1  0.500000  0.053312  0.066792  1
  B  B15  1  0.500000  0.946688  0.933208  1
  B  B16  1  0.500000  0.749112  0.419000  1
  B  B17  1  0.500000  0.250888  0.581000  1
  B  B18  1  0.500000  0.249946  0.080751  1
  B  B19  1  0.500000  0.750054  0.919249  1
  B  B20  1  0.500000  0.792250  0.265003  1
  B  B21  1  0.500000  0.207750  0.734997  1
  B  B22  1  0.500000  0.292779  0.234630  1
  B  B23  1  0.500000  0.707220  0.765370  1
  B  B24  1  0.500000  0.630485  0.184837  1
  B  B25  1  0.500000  0.369515  0.815163  1
  B  B26  1  0.500000  0.131143  0.314738  1
  B  B27  1  0.500000  0.868857  0.685262  1
  B  B28  1  0.500000  0.981826  0.211761  1
  B  B29  1  0.500000  0.018174  0.788239  1
  B  B30  1  0.500000  0.481458  0.287894  1
  B  B31  1  0.500000  0.518542  0.712106  1
  B  B32  1  0.500000  0.599002  0.027706  1
  B  B33  1  0.500000  0.400998  0.972294  1
  B  B34  1  0.500000  0.100448  0.471974  1
  B  B35  1  0.500000  0.899552  0.528026  1
