# generated using pymatgen
data_PaBr(OF3)2
_symmetry_space_group_name_H-M   'P 1'
_cell_length_a   6.23269300
_cell_length_b   7.51427508
_cell_length_c   10.80044282
_cell_angle_alpha   47.99495340
_cell_angle_beta   90.00000000
_cell_angle_gamma   90.00000000
_symmetry_Int_Tables_number   1
_chemical_formula_structural   PaBr(OF3)2
_chemical_formula_sum   'Pa2 Br2 O4 F12'
_cell_volume   375.87496411
_cell_formula_units_Z   2
loop_
 _symmetry_equiv_pos_site_id
 _symmetry_equiv_pos_as_xyz
  1  'x, y, z'
loop_
 _atom_site_type_symbol
 _atom_site_label
 _atom_site_symmetry_multiplicity
 _atom_site_fract_x
 _atom_site_fract_y
 _atom_site_fract_z
 _atom_site_occupancy
  Pa  Pa0  1  0.527556  0.000000  0.750000  1
  Pa  Pa1  1  0.472444  0.000000  0.250000  1
  Br  Br2  1  0.852672  0.500000  0.250000  1
  Br  Br3  1  0.147328  0.500000  0.750000  1
  O  O4  1  0.999205  0.635244  0.084913  1
  O  O5  1  0.000795  0.364756  0.915087  1
  O  O6  1  0.999205  0.364756  0.415087  1
  O  O7  1  0.000795  0.635244  0.584913  1
  F  F8  1  0.530261  0.706441  0.008917  1
  F  F9  1  0.280231  0.174729  0.779270  1
  F  F10  1  0.280231  0.825271  0.720730  1
  F  F11  1  0.469739  0.293559  0.991083  1
  F  F12  1  0.760512  0.841429  0.714697  1
  F  F13  1  0.530261  0.293559  0.491083  1
  F  F14  1  0.719769  0.174729  0.279270  1
  F  F15  1  0.239488  0.841429  0.214697  1
  F  F16  1  0.469739  0.706441  0.508917  1
  F  F17  1  0.760512  0.158571  0.785303  1
  F  F18  1  0.719769  0.825271  0.220730  1
  F  F19  1  0.239488  0.158571  0.285303  1
