# generated using pymatgen
data_Nd4DyTm5Si8
_symmetry_space_group_name_H-M   'P 1'
_cell_length_a   7.71713600
_cell_length_b   7.71916994
_cell_length_c   14.20300341
_cell_angle_alpha   90.09998956
_cell_angle_beta   90.00000000
_cell_angle_gamma   90.00000000
_symmetry_Int_Tables_number   1
_chemical_formula_structural   Nd4DyTm5Si8
_chemical_formula_sum   'Nd8 Dy2 Tm10 Si16'
_cell_volume   846.06998021
_cell_formula_units_Z   2
loop_
 _symmetry_equiv_pos_site_id
 _symmetry_equiv_pos_as_xyz
  1  'x, y, z'
loop_
 _atom_site_type_symbol
 _atom_site_label
 _atom_site_symmetry_multiplicity
 _atom_site_fract_x
 _atom_site_fract_y
 _atom_site_fract_z
 _atom_site_occupancy
  Nd  Nd0  1  0.642307  0.992694  0.458974  1
  Nd  Nd1  1  0.357569  0.007149  0.958991  1
  Nd  Nd2  1  0.992830  0.642307  0.540873  1
  Nd  Nd3  1  0.492830  0.857693  0.209127  1
  Nd  Nd4  1  0.506843  0.142443  0.709147  1
  Nd  Nd5  1  0.857569  0.492851  0.791009  1
  Nd  Nd6  1  0.142307  0.507306  0.291026  1
  Nd  Nd7  1  0.006843  0.357557  0.040853  1
  Dy  Dy8  1  0.493011  0.360044  0.124216  1
  Dy  Dy9  1  0.993011  0.139956  0.625784  1
  Tm  Tm10  1  0.859784  0.006496  0.874235  1
  Tm  Tm11  1  0.140172  0.993116  0.374228  1
  Tm  Tm12  1  0.506850  0.640233  0.624162  1
  Tm  Tm13  1  0.359784  0.493504  0.875765  1
  Tm  Tm14  1  0.640172  0.506884  0.375772  1
  Tm  Tm15  1  0.006850  0.859767  0.125838  1
  Tm  Tm16  1  0.318468  0.318370  0.499902  1
  Tm  Tm17  1  0.182150  0.817729  0.750137  1
  Tm  Tm18  1  0.818468  0.181630  0.250098  1
  Tm  Tm19  1  0.682150  0.682271  0.999863  1
  Si  Si20  1  0.290142  0.936843  0.561445  1
  Si  Si21  1  0.711320  0.061502  0.061506  1
  Si  Si22  1  0.937459  0.289817  0.437595  1
  Si  Si23  1  0.437459  0.210183  0.312405  1
  Si  Si24  1  0.562288  0.789163  0.811747  1
  Si  Si25  1  0.211320  0.438498  0.688494  1
  Si  Si26  1  0.790142  0.563157  0.188555  1
  Si  Si27  1  0.062288  0.710837  0.938253  1
  Si  Si28  1  0.795009  0.847941  0.688139  1
  Si  Si29  1  0.203261  0.150168  0.188068  1
  Si  Si30  1  0.849039  0.795585  0.312197  1
  Si  Si31  1  0.349039  0.704415  0.437803  1
  Si  Si32  1  0.651499  0.295576  0.937117  1
  Si  Si33  1  0.703261  0.349832  0.561932  1
  Si  Si34  1  0.295009  0.652059  0.061861  1
  Si  Si35  1  0.151499  0.204424  0.812883  1
