# generated using pymatgen
data_DyPaInIr2
_symmetry_space_group_name_H-M   'P 1'
_cell_length_a   7.71910222
_cell_length_b   7.71910088
_cell_length_c   3.64266100
_cell_angle_alpha   90.00000000
_cell_angle_beta   90.00000000
_cell_angle_gamma   85.98082827
_symmetry_Int_Tables_number   1
_chemical_formula_structural   DyPaInIr2
_chemical_formula_sum   'Dy2 Pa2 In2 Ir4'
_cell_volume   216.51244713
_cell_formula_units_Z   2
loop_
 _symmetry_equiv_pos_site_id
 _symmetry_equiv_pos_as_xyz
  1  'x, y, z'
loop_
 _atom_site_type_symbol
 _atom_site_label
 _atom_site_symmetry_multiplicity
 _atom_site_fract_x
 _atom_site_fract_y
 _atom_site_fract_z
 _atom_site_occupancy
  Dy  Dy0  1  0.668945  0.168945  0.500000  1
  Dy  Dy1  1  0.331055  0.831055  0.500000  1
  Pa  Pa2  1  0.168594  0.331406  0.500000  1
  Pa  Pa3  1  0.831406  0.668594  0.500000  1
  In  In4  1  0.500000  0.500000  0.000000  1
  In  In5  1  0.000000  0.000000  0.000000  1
  Ir  Ir6  1  0.125450  0.625450  0.000000  1
  Ir  Ir7  1  0.874550  0.374550  0.000000  1
  Ir  Ir8  1  0.641439  0.858561  0.000000  1
  Ir  Ir9  1  0.358561  0.141439  0.000000  1
