# generated using pymatgen
data_Sm5Y5(Pb3Cl)2
_symmetry_space_group_name_H-M   'P 1'
_cell_length_a   9.30673500
_cell_length_b   9.31503986
_cell_length_c   6.68525600
_cell_angle_alpha   90.00000000
_cell_angle_beta   90.00000000
_cell_angle_gamma   119.97050137
_symmetry_Int_Tables_number   1
_chemical_formula_structural   Sm5Y5(Pb3Cl)2
_chemical_formula_sum   'Sm5 Y5 Pb6 Cl2'
_cell_volume   502.06477931
_cell_formula_units_Z   1
loop_
 _symmetry_equiv_pos_site_id
 _symmetry_equiv_pos_as_xyz
  1  'x, y, z'
loop_
 _atom_site_type_symbol
 _atom_site_label
 _atom_site_symmetry_multiplicity
 _atom_site_fract_x
 _atom_site_fract_y
 _atom_site_fract_z
 _atom_site_occupancy
  Sm  Sm0  1  0.741259  0.000000  0.750000  1
  Sm  Sm1  1  0.999490  0.259579  0.250000  1
  Sm  Sm2  1  0.000116  0.741410  0.750000  1
  Sm  Sm3  1  0.739912  0.740421  0.250000  1
  Sm  Sm4  1  0.258706  0.258590  0.750000  1
  Y  Y5  1  0.333247  0.666770  0.000246  1
  Y  Y6  1  0.666478  0.333230  0.000246  1
  Y  Y7  1  0.666478  0.333230  0.499754  1
  Y  Y8  1  0.333247  0.666770  0.499754  1
  Y  Y9  1  0.259988  0.000000  0.250000  1
  Pb  Pb10  1  0.606439  0.000000  0.250000  1
  Pb  Pb11  1  0.391577  0.000000  0.750000  1
  Pb  Pb12  1  0.001740  0.611094  0.250000  1
  Pb  Pb13  1  0.000077  0.391791  0.750000  1
  Pb  Pb14  1  0.390646  0.388906  0.250000  1
  Pb  Pb15  1  0.608286  0.608209  0.750000  1
  Cl  Cl16  1  0.001157  0.000000  0.001642  1
  Cl  Cl17  1  0.001157  0.000000  0.498358  1
