# generated using pymatgen
data_MnNiBr18
_symmetry_space_group_name_H-M   'P 1'
_cell_length_a   9.10843252
_cell_length_b   9.10843129
_cell_length_c   9.10843099
_cell_angle_alpha   93.45134374
_cell_angle_beta   93.45134848
_cell_angle_gamma   93.45134720
_symmetry_Int_Tables_number   1
_chemical_formula_structural   MnNiBr18
_chemical_formula_sum   'Mn1 Ni1 Br18'
_cell_volume   751.38260255
_cell_formula_units_Z   1
loop_
 _symmetry_equiv_pos_site_id
 _symmetry_equiv_pos_as_xyz
  1  'x, y, z'
loop_
 _atom_site_type_symbol
 _atom_site_label
 _atom_site_symmetry_multiplicity
 _atom_site_fract_x
 _atom_site_fract_y
 _atom_site_fract_z
 _atom_site_occupancy
  Mn  Mn0  1  0.000000  0.000000  0.000000  1
  Ni  Ni1  1  0.500000  0.500000  0.500000  1
  Br  Br2  1  0.271012  0.002561  0.025496  1
  Br  Br3  1  0.025496  0.271012  0.002561  1
  Br  Br4  1  0.002561  0.025496  0.271012  1
  Br  Br5  1  0.728988  0.997439  0.974504  1
  Br  Br6  1  0.974504  0.728988  0.997439  1
  Br  Br7  1  0.997439  0.974504  0.728988  1
  Br  Br8  1  0.632933  0.232883  0.120454  1
  Br  Br9  1  0.120454  0.632933  0.232883  1
  Br  Br10  1  0.232883  0.120454  0.632933  1
  Br  Br11  1  0.367067  0.767117  0.879546  1
  Br  Br12  1  0.879546  0.367067  0.767117  1
  Br  Br13  1  0.767117  0.879546  0.367067  1
  Br  Br14  1  0.462020  0.226760  0.533228  1
  Br  Br15  1  0.533228  0.462020  0.226760  1
  Br  Br16  1  0.226760  0.533228  0.462020  1
  Br  Br17  1  0.537980  0.773240  0.466772  1
  Br  Br18  1  0.466772  0.537980  0.773240  1
  Br  Br19  1  0.773240  0.466772  0.537980  1
