# generated using pymatgen
data_YHo7(TcC2)4
_symmetry_space_group_name_H-M   'P 1'
_cell_length_a   5.07550500
_cell_length_b   6.55497044
_cell_length_c   9.85136566
_cell_angle_alpha   90.04191268
_cell_angle_beta   90.00000000
_cell_angle_gamma   90.00000000
_symmetry_Int_Tables_number   1
_chemical_formula_structural   YHo7(TcC2)4
_chemical_formula_sum   'Y1 Ho7 Tc4 C8'
_cell_volume   327.75273205
_cell_formula_units_Z   1
loop_
 _symmetry_equiv_pos_site_id
 _symmetry_equiv_pos_as_xyz
  1  'x, y, z'
loop_
 _atom_site_type_symbol
 _atom_site_label
 _atom_site_symmetry_multiplicity
 _atom_site_fract_x
 _atom_site_fract_y
 _atom_site_fract_z
 _atom_site_occupancy
  Y  Y0  1  0.250000  0.466943  0.783953  1
  Ho  Ho1  1  0.750000  0.033204  0.283851  1
  Ho  Ho2  1  0.250000  0.966849  0.716089  1
  Ho  Ho3  1  0.750000  0.533169  0.216141  1
  Ho  Ho4  1  0.250000  0.823266  0.058024  1
  Ho  Ho5  1  0.750000  0.676917  0.557895  1
  Ho  Ho6  1  0.250000  0.323060  0.441904  1
  Ho  Ho7  1  0.750000  0.176789  0.942127  1
  Tc  Tc8  1  0.250000  0.281865  0.133628  1
  Tc  Tc9  1  0.750000  0.217899  0.633369  1
  Tc  Tc10  1  0.250000  0.782065  0.366401  1
  Tc  Tc11  1  0.750000  0.718358  0.866548  1
  C  C12  1  0.250000  0.177046  0.950957  1
  C  C13  1  0.750000  0.822196  0.049554  1
  C  C14  1  0.250000  0.678221  0.549195  1
  C  C15  1  0.750000  0.322069  0.450482  1
  C  C16  1  0.250000  0.048939  0.258501  1
  C  C17  1  0.750000  0.451060  0.758375  1
  C  C18  1  0.250000  0.548985  0.241496  1
  C  C19  1  0.750000  0.951099  0.741509  1
