# generated using pymatgen
data_Ac3Nd7Sn8
_symmetry_space_group_name_H-M   'P 1'
_cell_length_a   8.44826500
_cell_length_b   8.59531852
_cell_length_c   16.32059730
_cell_angle_alpha   90.03092784
_cell_angle_beta   90.00000000
_cell_angle_gamma   90.00000000
_symmetry_Int_Tables_number   1
_chemical_formula_structural   Ac3Nd7Sn8
_chemical_formula_sum   'Ac6 Nd14 Sn16'
_cell_volume   1185.12862780
_cell_formula_units_Z   2
loop_
 _symmetry_equiv_pos_site_id
 _symmetry_equiv_pos_as_xyz
  1  'x, y, z'
loop_
 _atom_site_type_symbol
 _atom_site_label
 _atom_site_symmetry_multiplicity
 _atom_site_fract_x
 _atom_site_fract_y
 _atom_site_fract_z
 _atom_site_occupancy
  Ac  Ac0  1  0.492435  0.680225  0.405556  1
  Ac  Ac1  1  0.992435  0.819775  0.094444  1
  Ac  Ac2  1  0.488036  0.675750  0.095246  1
  Ac  Ac3  1  0.988036  0.824250  0.404754  1
  Ac  Ac4  1  0.508384  0.320174  0.597017  1
  Ac  Ac5  1  0.008384  0.179826  0.902983  1
  Nd  Nd6  1  0.352903  0.835416  0.875866  1
  Nd  Nd7  1  0.852903  0.664584  0.624134  1
  Nd  Nd8  1  0.644927  0.161046  0.379404  1
  Nd  Nd9  1  0.144927  0.338954  0.120596  1
  Nd  Nd10  1  0.644648  0.163853  0.122647  1
  Nd  Nd11  1  0.144648  0.336147  0.377353  1
  Nd  Nd12  1  0.354612  0.838070  0.622779  1
  Nd  Nd13  1  0.854612  0.661930  0.877221  1
  Nd  Nd14  1  0.514708  0.321043  0.897221  1
  Nd  Nd15  1  0.014708  0.178957  0.602779  1
  Nd  Nd16  1  0.189271  0.498923  0.750194  1
  Nd  Nd17  1  0.689271  0.001077  0.749806  1
  Nd  Nd18  1  0.809881  0.499577  0.248924  1
  Nd  Nd19  1  0.309881  0.000423  0.251076  1
  Sn  Sn20  1  0.314865  0.046118  0.039798  1
  Sn  Sn21  1  0.814865  0.453882  0.460202  1
  Sn  Sn22  1  0.699456  0.965694  0.547173  1
  Sn  Sn23  1  0.199456  0.534306  0.952827  1
  Sn  Sn24  1  0.683844  0.961793  0.955817  1
  Sn  Sn25  1  0.183844  0.538207  0.544183  1
  Sn  Sn26  1  0.302453  0.045702  0.460690  1
  Sn  Sn27  1  0.802453  0.454298  0.039310  1
  Sn  Sn28  1  0.554708  0.622719  0.750716  1
  Sn  Sn29  1  0.054708  0.877281  0.749284  1
  Sn  Sn30  1  0.445308  0.372769  0.251500  1
  Sn  Sn31  1  0.945308  0.127231  0.248500  1
  Sn  Sn32  1  0.316209  0.141393  0.751084  1
  Sn  Sn33  1  0.816209  0.358607  0.748916  1
  Sn  Sn34  1  0.683353  0.860170  0.249962  1
  Sn  Sn35  1  0.183353  0.639830  0.250038  1
