# generated using pymatgen
data_Y3Mg2ZnSn2Pd
_symmetry_space_group_name_H-M   'P 1'
_cell_length_a   7.35179820
_cell_length_b   7.35179931
_cell_length_c   4.50349700
_cell_angle_alpha   90.00000000
_cell_angle_beta   90.00000000
_cell_angle_gamma   120.17118072
_symmetry_Int_Tables_number   1
_chemical_formula_structural   Y3Mg2ZnSn2Pd
_chemical_formula_sum   'Y3 Mg2 Zn1 Sn2 Pd1'
_cell_volume   210.43405067
_cell_formula_units_Z   1
loop_
 _symmetry_equiv_pos_site_id
 _symmetry_equiv_pos_as_xyz
  1  'x, y, z'
loop_
 _atom_site_type_symbol
 _atom_site_label
 _atom_site_symmetry_multiplicity
 _atom_site_fract_x
 _atom_site_fract_y
 _atom_site_fract_z
 _atom_site_occupancy
  Y  Y0  1  0.409954  0.409954  0.500000  1
  Y  Y1  1  0.998219  0.597525  0.500000  1
  Y  Y2  1  0.597525  0.998219  0.500000  1
  Mg  Mg3  1  0.225802  0.997193  0.000000  1
  Mg  Mg4  1  0.997193  0.225802  0.000000  1
  Zn  Zn5  1  0.768851  0.768851  0.000000  1
  Sn  Sn6  1  0.667667  0.338159  0.000000  1
  Sn  Sn7  1  0.338159  0.667667  0.000000  1
  Pd  Pd8  1  0.996630  0.996630  0.500000  1
