# generated using pymatgen
data_Dy3Tm9Co4BiIr
_symmetry_space_group_name_H-M   'P 1'
_cell_length_a   8.24353258
_cell_length_b   8.24353280
_cell_length_c   8.23682130
_cell_angle_alpha   110.83563418
_cell_angle_beta   111.09342592
_cell_angle_gamma   106.55910807
_symmetry_Int_Tables_number   1
_chemical_formula_structural   Dy3Tm9Co4BiIr
_chemical_formula_sum   'Dy3 Tm9 Co4 Bi1 Ir1'
_cell_volume   429.86129959
_cell_formula_units_Z   1
loop_
 _symmetry_equiv_pos_site_id
 _symmetry_equiv_pos_as_xyz
  1  'x, y, z'
loop_
 _atom_site_type_symbol
 _atom_site_label
 _atom_site_symmetry_multiplicity
 _atom_site_fract_x
 _atom_site_fract_y
 _atom_site_fract_z
 _atom_site_occupancy
  Dy  Dy0  1  0.284571  0.183599  0.468168  1
  Dy  Dy1  1  0.715880  0.817060  0.532942  1
  Dy  Dy2  1  0.284709  0.815826  0.100535  1
  Tm  Tm3  1  0.716492  0.182947  0.899439  1
  Tm  Tm4  1  0.622030  0.311869  0.309398  1
  Tm  Tm5  1  0.378644  0.688812  0.690114  1
  Tm  Tm6  1  0.001303  0.311470  0.690114  1
  Tm  Tm7  1  0.997528  0.687368  0.309398  1
  Tm  Tm8  1  0.211868  0.409966  0.196652  1
  Tm  Tm9  1  0.786866  0.588520  0.802597  1
  Tm  Tm10  1  0.214078  0.015731  0.802597  1
  Tm  Tm11  1  0.786685  0.984785  0.196652  1
  Co  Co12  1  0.999490  0.375799  0.375289  1
  Co  Co13  1  0.999681  0.623837  0.623518  1
  Co  Co14  1  0.389239  0.889657  0.502063  1
  Co  Co15  1  0.612406  0.112825  0.502063  1
  Bi  Bi16  1  0.499875  0.500150  0.000025  1
  Ir  Ir17  1  0.998654  0.999781  0.998435  1
