# generated using pymatgen
data_Sm8Sn(PdPt11)2
_symmetry_space_group_name_H-M   'P 1'
_cell_length_a   8.50166700
_cell_length_b   8.50166700
_cell_length_c   8.52095700
_cell_angle_alpha   90.00000000
_cell_angle_beta   90.00000000
_cell_angle_gamma   90.00000000
_symmetry_Int_Tables_number   1
_chemical_formula_structural   Sm8Sn(PdPt11)2
_chemical_formula_sum   'Sm8 Sn1 Pd2 Pt22'
_cell_volume   615.88064233
_cell_formula_units_Z   1
loop_
 _symmetry_equiv_pos_site_id
 _symmetry_equiv_pos_as_xyz
  1  'x, y, z'
loop_
 _atom_site_type_symbol
 _atom_site_label
 _atom_site_symmetry_multiplicity
 _atom_site_fract_x
 _atom_site_fract_y
 _atom_site_fract_z
 _atom_site_occupancy
  Sm  Sm0  1  0.251276  0.251276  0.251413  1
  Sm  Sm1  1  0.748724  0.748724  0.748587  1
  Sm  Sm2  1  0.748724  0.748724  0.251413  1
  Sm  Sm3  1  0.748724  0.251276  0.748587  1
  Sm  Sm4  1  0.251276  0.251276  0.748587  1
  Sm  Sm5  1  0.251276  0.748724  0.251413  1
  Sm  Sm6  1  0.251276  0.748724  0.748587  1
  Sm  Sm7  1  0.748724  0.251276  0.251413  1
  Sn  Sn8  1  0.000000  0.000000  0.000000  1
  Pd  Pd9  1  0.500000  0.500000  0.255615  1
  Pd  Pd10  1  0.500000  0.500000  0.744385  1
  Pt  Pt11  1  0.267938  0.500000  0.000000  1
  Pt  Pt12  1  0.732062  0.500000  0.000000  1
  Pt  Pt13  1  0.000000  0.267841  0.500000  1
  Pt  Pt14  1  0.500000  0.267938  0.000000  1
  Pt  Pt15  1  0.000000  0.732159  0.500000  1
  Pt  Pt16  1  0.500000  0.732062  0.000000  1
  Pt  Pt17  1  0.500000  0.000000  0.267161  1
  Pt  Pt18  1  0.267841  0.000000  0.500000  1
  Pt  Pt19  1  0.500000  0.000000  0.732839  1
  Pt  Pt20  1  0.732159  0.000000  0.500000  1
  Pt  Pt21  1  0.000000  0.500000  0.267161  1
  Pt  Pt22  1  0.000000  0.500000  0.732839  1
  Pt  Pt23  1  0.255825  0.500000  0.500000  1
  Pt  Pt24  1  0.744175  0.500000  0.500000  1
  Pt  Pt25  1  0.500000  0.255825  0.500000  1
  Pt  Pt26  1  0.500000  0.744175  0.500000  1
  Pt  Pt27  1  0.315367  0.000000  0.000000  1
  Pt  Pt28  1  0.684633  0.000000  0.000000  1
  Pt  Pt29  1  0.000000  0.315367  0.000000  1
  Pt  Pt30  1  0.000000  0.684633  0.000000  1
  Pt  Pt31  1  0.000000  0.000000  0.314324  1
  Pt  Pt32  1  0.000000  0.000000  0.685676  1
