# generated using pymatgen
data_V12P5C3S
_symmetry_space_group_name_H-M   'P 1'
_cell_length_a   9.53860900
_cell_length_b   9.53860950
_cell_length_c   3.16779200
_cell_angle_alpha   90.00000000
_cell_angle_beta   90.00000000
_cell_angle_gamma   120.00000173
_symmetry_Int_Tables_number   1
_chemical_formula_structural   V12P5C3S
_chemical_formula_sum   'V12 P5 C3 S1'
_cell_volume   249.60736654
_cell_formula_units_Z   1
loop_
 _symmetry_equiv_pos_site_id
 _symmetry_equiv_pos_as_xyz
  1  'x, y, z'
loop_
 _atom_site_type_symbol
 _atom_site_label
 _atom_site_symmetry_multiplicity
 _atom_site_fract_x
 _atom_site_fract_y
 _atom_site_fract_z
 _atom_site_occupancy
  V  V0  1  0.812001  0.000000  0.000000  1
  V  V1  1  0.187999  0.187999  0.000000  1
  V  V2  1  0.000000  0.812001  0.000000  1
  V  V3  1  0.000000  0.536003  0.000000  1
  V  V4  1  0.463997  0.463997  0.000000  1
  V  V5  1  0.536003  0.000000  0.000000  1
  V  V6  1  0.451854  0.208233  0.500000  1
  V  V7  1  0.791767  0.243621  0.500000  1
  V  V8  1  0.756379  0.548146  0.500000  1
  V  V9  1  0.548146  0.756379  0.500000  1
  V  V10  1  0.243621  0.791767  0.500000  1
  V  V11  1  0.208233  0.451854  0.500000  1
  P  P12  1  0.666667  0.333333  0.000000  1
  P  P13  1  0.333333  0.666667  0.000000  1
  P  P14  1  0.000000  0.284783  0.000000  1
  P  P15  1  0.715217  0.715217  0.000000  1
  P  P16  1  0.284783  0.000000  0.000000  1
  C  C17  1  0.000000  0.669795  0.500000  1
  C  C18  1  0.330205  0.330205  0.500000  1
  C  C19  1  0.669795  0.000000  0.500000  1
  S  S20  1  0.000000  0.000000  0.500000  1
