# generated using pymatgen
data_Zr8Ta5Nb7Ge16
_symmetry_space_group_name_H-M   'P 1'
_cell_length_a   6.86349432
_cell_length_b   6.99284025
_cell_length_c   13.35314417
_cell_angle_alpha   89.99477549
_cell_angle_beta   90.01749687
_cell_angle_gamma   89.96961633
_symmetry_Int_Tables_number   1
_chemical_formula_structural   Zr8Ta5Nb7Ge16
_chemical_formula_sum   'Zr8 Ta5 Nb7 Ge16'
_cell_volume   640.88829630
_cell_formula_units_Z   1
loop_
 _symmetry_equiv_pos_site_id
 _symmetry_equiv_pos_as_xyz
  1  'x, y, z'
loop_
 _atom_site_type_symbol
 _atom_site_label
 _atom_site_symmetry_multiplicity
 _atom_site_fract_x
 _atom_site_fract_y
 _atom_site_fract_z
 _atom_site_occupancy
  Zr  Zr0  1  0.489572  0.673836  0.592079  1
  Zr  Zr1  1  0.990220  0.825834  0.908046  1
  Zr  Zr2  1  0.509914  0.325735  0.092036  1
  Zr  Zr3  1  0.010062  0.174361  0.408575  1
  Zr  Zr4  1  0.510270  0.325409  0.408051  1
  Zr  Zr5  1  0.009811  0.174504  0.092054  1
  Zr  Zr6  1  0.490041  0.674158  0.907903  1
  Zr  Zr7  1  0.989774  0.825724  0.592046  1
  Ta  Ta8  1  0.159271  0.334720  0.625225  1
  Ta  Ta9  1  0.836795  0.491049  0.749558  1
  Ta  Ta10  1  0.335933  0.009549  0.749651  1
  Ta  Ta11  1  0.163832  0.508871  0.249968  1
  Ta  Ta12  1  0.663644  0.990989  0.249998  1
  Nb  Nb13  1  0.659669  0.164762  0.624679  1
  Nb  Nb14  1  0.159520  0.335212  0.874969  1
  Nb  Nb15  1  0.340627  0.834996  0.124876  1
  Nb  Nb16  1  0.840801  0.664899  0.375026  1
  Nb  Nb17  1  0.340472  0.835035  0.375178  1
  Nb  Nb18  1  0.840398  0.665024  0.124900  1
  Nb  Nb19  1  0.659415  0.164984  0.874935  1
  Ge  Ge20  1  0.681723  0.960409  0.459716  1
  Ge  Ge21  1  0.181585  0.539367  0.040173  1
  Ge  Ge22  1  0.318547  0.039617  0.959726  1
  Ge  Ge23  1  0.818674  0.460747  0.540280  1
  Ge  Ge24  1  0.317587  0.039595  0.540221  1
  Ge  Ge25  1  0.818273  0.460351  0.959828  1
  Ge  Ge26  1  0.681917  0.960616  0.040138  1
  Ge  Ge27  1  0.181965  0.539490  0.460217  1
  Ge  Ge28  1  0.462762  0.386941  0.749732  1
  Ge  Ge29  1  0.962190  0.113260  0.750093  1
  Ge  Ge30  1  0.537385  0.613085  0.250026  1
  Ge  Ge31  1  0.037571  0.886771  0.250059  1
  Ge  Ge32  1  0.692941  0.850096  0.749871  1
  Ge  Ge33  1  0.193049  0.650169  0.749954  1
  Ge  Ge34  1  0.306805  0.149845  0.250075  1
  Ge  Ge35  1  0.806987  0.349991  0.250138  1
