# generated using pymatgen
data_Yb3DyAl2(CdPt2)2
_symmetry_space_group_name_H-M   'P 1'
_cell_length_a   4.24782500
_cell_length_b   7.14309762
_cell_length_c   8.32186047
_cell_angle_alpha   92.01955602
_cell_angle_beta   90.00000000
_cell_angle_gamma   90.00000000
_symmetry_Int_Tables_number   1
_chemical_formula_structural   Yb3DyAl2(CdPt2)2
_chemical_formula_sum   'Yb3 Dy1 Al2 Cd2 Pt4'
_cell_volume   252.35027865
_cell_formula_units_Z   1
loop_
 _symmetry_equiv_pos_site_id
 _symmetry_equiv_pos_as_xyz
  1  'x, y, z'
loop_
 _atom_site_type_symbol
 _atom_site_label
 _atom_site_symmetry_multiplicity
 _atom_site_fract_x
 _atom_site_fract_y
 _atom_site_fract_z
 _atom_site_occupancy
  Yb  Yb0  1  0.250000  0.464091  0.178513  1
  Yb  Yb1  1  0.750000  0.534732  0.820896  1
  Yb  Yb2  1  0.750000  0.037217  0.681122  1
  Dy  Dy3  1  0.250000  0.959548  0.321545  1
  Al  Al4  1  0.750000  0.635859  0.439173  1
  Al  Al5  1  0.250000  0.361213  0.560778  1
  Cd  Cd6  1  0.250000  0.854885  0.932355  1
  Cd  Cd7  1  0.750000  0.146666  0.064455  1
  Pt  Pt8  1  0.250000  0.723672  0.597636  1
  Pt  Pt9  1  0.750000  0.275008  0.400201  1
  Pt  Pt10  1  0.750000  0.753211  0.153680  1
  Pt  Pt11  1  0.250000  0.253897  0.849645  1
