# generated using pymatgen
data_BiRuBr18
_symmetry_space_group_name_H-M   'P 1'
_cell_length_a   9.35096162
_cell_length_b   9.38864313
_cell_length_c   9.26908563
_cell_angle_alpha   87.71192805
_cell_angle_beta   87.68906900
_cell_angle_gamma   88.69091965
_symmetry_Int_Tables_number   1
_chemical_formula_structural   BiRuBr18
_chemical_formula_sum   'Bi1 Ru1 Br18'
_cell_volume   812.26548779
_cell_formula_units_Z   1
loop_
 _symmetry_equiv_pos_site_id
 _symmetry_equiv_pos_as_xyz
  1  'x, y, z'
loop_
 _atom_site_type_symbol
 _atom_site_label
 _atom_site_symmetry_multiplicity
 _atom_site_fract_x
 _atom_site_fract_y
 _atom_site_fract_z
 _atom_site_occupancy
  Bi  Bi0  1  0.000000  0.000000  0.000000  1
  Ru  Ru1  1  0.500000  0.500000  0.500000  1
  Br  Br2  1  0.767489  0.483670  0.504311  1
  Br  Br3  1  0.502286  0.766371  0.465570  1
  Br  Br4  1  0.479490  0.513746  0.769965  1
  Br  Br5  1  0.232511  0.516330  0.495689  1
  Br  Br6  1  0.497714  0.233629  0.534430  1
  Br  Br7  1  0.520510  0.486254  0.230035  1
  Br  Br8  1  0.880993  0.384579  0.736564  1
  Br  Br9  1  0.738914  0.882011  0.383331  1
  Br  Br10  1  0.384248  0.745660  0.879031  1
  Br  Br11  1  0.119007  0.615421  0.263436  1
  Br  Br12  1  0.261086  0.117989  0.616669  1
  Br  Br13  1  0.615752  0.254340  0.120969  1
  Br  Br14  1  0.036144  0.970072  0.690274  1
  Br  Br15  1  0.693129  0.033177  0.974636  1
  Br  Br16  1  0.971420  0.693684  0.041204  1
  Br  Br17  1  0.963856  0.029928  0.309726  1
  Br  Br18  1  0.306871  0.966823  0.025364  1
  Br  Br19  1  0.028580  0.306316  0.958796  1
