# generated using pymatgen
data_TcSn7Rh2
_symmetry_space_group_name_H-M   'P 1'
_cell_length_a   8.25597476
_cell_length_b   8.25224707
_cell_length_c   8.25224605
_cell_angle_alpha   109.16111239
_cell_angle_beta   109.61726662
_cell_angle_gamma   109.61727041
_symmetry_Int_Tables_number   1
_chemical_formula_structural   TcSn7Rh2
_chemical_formula_sum   'Tc2 Sn14 Rh4'
_cell_volume   432.89292531
_cell_formula_units_Z   2
loop_
 _symmetry_equiv_pos_site_id
 _symmetry_equiv_pos_as_xyz
  1  'x, y, z'
loop_
 _atom_site_type_symbol
 _atom_site_label
 _atom_site_symmetry_multiplicity
 _atom_site_fract_x
 _atom_site_fract_y
 _atom_site_fract_z
 _atom_site_occupancy
  Tc  Tc0  1  0.649920  0.999667  0.650254  1
  Tc  Tc1  1  0.649920  0.650254  0.999667  1
  Sn  Sn2  1  0.996875  0.999994  0.673748  1
  Sn  Sn3  1  0.326493  0.999932  0.999932  1
  Sn  Sn4  1  0.674219  0.677312  0.677312  1
  Sn  Sn5  1  0.996875  0.323128  0.996882  1
  Sn  Sn6  1  0.326493  0.326562  0.326562  1
  Sn  Sn7  1  0.996875  0.673748  0.999994  1
  Sn  Sn8  1  0.252692  0.749794  0.502896  1
  Sn  Sn9  1  0.754955  0.251079  0.503876  1
  Sn  Sn10  1  0.754955  0.503876  0.251079  1
  Sn  Sn11  1  0.252692  0.502896  0.749794  1
  Sn  Sn12  1  0.508692  0.754345  0.254345  1
  Sn  Sn13  1  0.508692  0.254345  0.754345  1
  Sn  Sn14  1  0.996875  0.996882  0.323128  1
  Sn  Sn15  1  0.674219  0.996907  0.996907  1
  Rh  Rh16  1  0.339404  0.339718  0.999685  1
  Rh  Rh17  1  0.999874  0.655507  0.655507  1
  Rh  Rh18  1  0.999874  0.344368  0.344368  1
  Rh  Rh19  1  0.339404  0.999685  0.339718  1
