# generated using pymatgen
data_Sc9In14Co6Ni
_symmetry_space_group_name_H-M   'P 1'
_cell_length_a   9.43748804
_cell_length_b   9.43748791
_cell_length_c   9.44696300
_cell_angle_alpha   59.96678640
_cell_angle_beta   59.96678688
_cell_angle_gamma   60.06643529
_symmetry_Int_Tables_number   1
_chemical_formula_structural   Sc9In14Co6Ni
_chemical_formula_sum   'Sc9 In14 Co6 Ni1'
_cell_volume   594.96194856
_cell_formula_units_Z   1
loop_
 _symmetry_equiv_pos_site_id
 _symmetry_equiv_pos_as_xyz
  1  'x, y, z'
loop_
 _atom_site_type_symbol
 _atom_site_label
 _atom_site_symmetry_multiplicity
 _atom_site_fract_x
 _atom_site_fract_y
 _atom_site_fract_z
 _atom_site_occupancy
  Sc  Sc0  1  0.122329  0.645570  0.116051  1
  Sc  Sc1  1  0.353572  0.882496  0.881965  1
  Sc  Sc2  1  0.883949  0.883949  0.877671  1
  Sc  Sc3  1  0.645570  0.122329  0.116051  1
  Sc  Sc4  1  0.498621  0.498621  0.501379  1
  Sc  Sc5  1  0.883949  0.883949  0.354430  1
  Sc  Sc6  1  0.118035  0.118035  0.117504  1
  Sc  Sc7  1  0.882496  0.353572  0.881965  1
  Sc  Sc8  1  0.118035  0.118035  0.646428  1
  In  In9  1  0.498777  0.842860  0.157140  1
  In  In10  1  0.498777  0.842860  0.501223  1
  In  In11  1  0.499920  0.157292  0.500080  1
  In  In12  1  0.500375  0.500375  0.841716  1
  In  In13  1  0.157292  0.499920  0.500080  1
  In  In14  1  0.842466  0.158284  0.499625  1
  In  In15  1  0.158284  0.842466  0.499625  1
  In  In16  1  0.499920  0.157292  0.842708  1
  In  In17  1  0.157292  0.499920  0.842708  1
  In  In18  1  0.500375  0.500375  0.157534  1
  In  In19  1  0.842860  0.498777  0.501223  1
  In  In20  1  0.842860  0.498777  0.157140  1
  In  In21  1  0.249461  0.249461  0.250539  1
  In  In22  1  0.749461  0.749461  0.750539  1
  Co  Co23  1  0.999716  0.999716  0.000284  1
  Co  Co24  1  0.225981  0.772745  0.227255  1
  Co  Co25  1  0.225981  0.772745  0.774019  1
  Co  Co26  1  0.226846  0.226846  0.773154  1
  Co  Co27  1  0.772745  0.225981  0.774019  1
  Co  Co28  1  0.772745  0.225981  0.227255  1
  Ni  Ni29  1  0.771314  0.771314  0.228686  1
