# generated using pymatgen
data_TbYOF4
_symmetry_space_group_name_H-M   'P 1'
_cell_length_a   6.79478853
_cell_length_b   6.79479085
_cell_length_c   5.73535187
_cell_angle_alpha   79.58731308
_cell_angle_beta   79.58730909
_cell_angle_gamma   46.40578770
_symmetry_Int_Tables_number   1
_chemical_formula_structural   TbYOF4
_chemical_formula_sum   'Tb2 Y2 O2 F8'
_cell_volume   188.03217994
_cell_formula_units_Z   2
loop_
 _symmetry_equiv_pos_site_id
 _symmetry_equiv_pos_as_xyz
  1  'x, y, z'
loop_
 _atom_site_type_symbol
 _atom_site_label
 _atom_site_symmetry_multiplicity
 _atom_site_fract_x
 _atom_site_fract_y
 _atom_site_fract_z
 _atom_site_occupancy
  Tb  Tb0  1  0.104788  0.680496  0.578025  1
  Tb  Tb1  1  0.680496  0.104788  0.078025  1
  Y  Y2  1  0.319023  0.895450  0.921894  1
  Y  Y3  1  0.895450  0.319023  0.421894  1
  O  O4  1  0.951832  0.048700  0.749807  1
  O  O5  1  0.048700  0.951832  0.249807  1
  F  F6  1  0.314648  0.516760  0.924999  1
  F  F7  1  0.516760  0.314648  0.424999  1
  F  F8  1  0.705236  0.853955  0.828930  1
  F  F9  1  0.853955  0.705236  0.328930  1
  F  F10  1  0.145976  0.294407  0.670910  1
  F  F11  1  0.294407  0.145976  0.170910  1
  F  F12  1  0.483811  0.684917  0.575434  1
  F  F13  1  0.684917  0.483811  0.075434  1
