# generated using pymatgen
data_Tb8HfTa(Si8W5)2
_symmetry_space_group_name_H-M   'P 1'
_cell_length_a   6.92626703
_cell_length_b   6.92617272
_cell_length_c   12.89722404
_cell_angle_alpha   89.99199882
_cell_angle_beta   89.99038059
_cell_angle_gamma   89.60403451
_symmetry_Int_Tables_number   1
_chemical_formula_structural   Tb8HfTa(Si8W5)2
_chemical_formula_sum   'Tb8 Hf1 Ta1 Si16 W10'
_cell_volume   618.69757027
_cell_formula_units_Z   1
loop_
 _symmetry_equiv_pos_site_id
 _symmetry_equiv_pos_as_xyz
  1  'x, y, z'
loop_
 _atom_site_type_symbol
 _atom_site_label
 _atom_site_symmetry_multiplicity
 _atom_site_fract_x
 _atom_site_fract_y
 _atom_site_fract_z
 _atom_site_occupancy
  Tb  Tb0  1  0.000834  0.335057  0.219117  1
  Tb  Tb1  1  0.000305  0.665901  0.719288  1
  Tb  Tb2  1  0.162407  0.502446  0.467904  1
  Tb  Tb3  1  0.497499  0.837633  0.032086  1
  Tb  Tb4  1  0.837923  0.499714  0.969359  1
  Tb  Tb5  1  0.500229  0.162128  0.530641  1
  Tb  Tb6  1  0.334068  0.999750  0.780774  1
  Tb  Tb7  1  0.664909  0.999225  0.280824  1
  Hf  Hf8  1  0.668428  0.331557  0.750030  1
  Ta  Ta9  1  0.332742  0.667248  0.249973  1
  Si  Si10  1  0.374943  0.294663  0.316837  1
  Si  Si11  1  0.626138  0.708068  0.817002  1
  Si  Si12  1  0.198890  0.875579  0.565813  1
  Si  Si13  1  0.124374  0.801214  0.934221  1
  Si  Si14  1  0.800345  0.124104  0.065542  1
  Si  Si15  1  0.875864  0.199752  0.434423  1
  Si  Si16  1  0.291920  0.373870  0.683027  1
  Si  Si17  1  0.705332  0.625061  0.183139  1
  Si  Si18  1  0.288660  0.037856  0.185614  1
  Si  Si19  1  0.709789  0.957369  0.683306  1
  Si  Si20  1  0.466680  0.790378  0.438861  1
  Si  Si21  1  0.209661  0.533217  0.061109  1
  Si  Si22  1  0.531352  0.208900  0.940152  1
  Si  Si23  1  0.791141  0.468545  0.559876  1
  Si  Si24  1  0.042672  0.290169  0.816768  1
  Si  Si25  1  0.962184  0.711300  0.314311  1
  W  W26  1  0.165523  0.164309  0.002156  1
  W  W27  1  0.835703  0.834477  0.497856  1
  W  W28  1  0.168987  0.997925  0.375818  1
  W  W29  1  0.832814  0.003075  0.874913  1
  W  W30  1  0.501806  0.659519  0.626194  1
  W  W31  1  0.340502  0.498231  0.873808  1
  W  W32  1  0.495611  0.339247  0.127402  1
  W  W33  1  0.660764  0.504433  0.372596  1
  W  W34  1  0.996930  0.167124  0.625074  1
  W  W35  1  0.002075  0.830953  0.124187  1
