# generated using pymatgen
data_Dy5Y3(Si3Ir)4
_symmetry_space_group_name_H-M   'P 1'
_cell_length_a   8.17524804
_cell_length_b   8.17524854
_cell_length_c   7.94964400
_cell_angle_alpha   90.00000000
_cell_angle_beta   90.00000000
_cell_angle_gamma   120.01140816
_symmetry_Int_Tables_number   1
_chemical_formula_structural   Dy5Y3(Si3Ir)4
_chemical_formula_sum   'Dy5 Y3 Si12 Ir4'
_cell_volume   460.07674197
_cell_formula_units_Z   1
loop_
 _symmetry_equiv_pos_site_id
 _symmetry_equiv_pos_as_xyz
  1  'x, y, z'
loop_
 _atom_site_type_symbol
 _atom_site_label
 _atom_site_symmetry_multiplicity
 _atom_site_fract_x
 _atom_site_fract_y
 _atom_site_fract_z
 _atom_site_occupancy
  Dy  Dy0  1  0.509315  0.018628  0.250000  1
  Dy  Dy1  1  0.981372  0.490685  0.250000  1
  Dy  Dy2  1  0.490667  0.509333  0.750000  1
  Dy  Dy3  1  0.490674  0.981334  0.750000  1
  Dy  Dy4  1  0.018666  0.509326  0.750000  1
  Y  Y5  1  0.000003  0.999997  0.250000  1
  Y  Y6  1  0.999992  0.000008  0.750000  1
  Y  Y7  1  0.509357  0.490643  0.250000  1
  Si  Si8  1  0.166800  0.833200  0.499280  1
  Si  Si9  1  0.166767  0.333592  0.499320  1
  Si  Si10  1  0.666408  0.833233  0.499320  1
  Si  Si11  1  0.833204  0.166796  0.500709  1
  Si  Si12  1  0.833226  0.666407  0.500734  1
  Si  Si13  1  0.333593  0.166774  0.500734  1
  Si  Si14  1  0.833204  0.166796  0.999291  1
  Si  Si15  1  0.833226  0.666407  0.999266  1
  Si  Si16  1  0.333593  0.166774  0.999266  1
  Si  Si17  1  0.166800  0.833200  0.000720  1
  Si  Si18  1  0.166767  0.333592  0.000680  1
  Si  Si19  1  0.666408  0.833233  0.000680  1
  Ir  Ir20  1  0.333284  0.666716  0.467241  1
  Ir  Ir21  1  0.666696  0.333304  0.532867  1
  Ir  Ir22  1  0.666696  0.333304  0.967133  1
  Ir  Ir23  1  0.333284  0.666716  0.032759  1
