# generated using pymatgen
data_Eu4Zn4IrPd3
_symmetry_space_group_name_H-M   'P 1'
_cell_length_a   4.46863200
_cell_length_b   7.22004210
_cell_length_c   7.86118522
_cell_angle_alpha   90.06352898
_cell_angle_beta   90.00000000
_cell_angle_gamma   90.00000000
_symmetry_Int_Tables_number   1
_chemical_formula_structural   Eu4Zn4IrPd3
_chemical_formula_sum   'Eu4 Zn4 Ir1 Pd3'
_cell_volume   253.63085343
_cell_formula_units_Z   1
loop_
 _symmetry_equiv_pos_site_id
 _symmetry_equiv_pos_as_xyz
  1  'x, y, z'
loop_
 _atom_site_type_symbol
 _atom_site_label
 _atom_site_symmetry_multiplicity
 _atom_site_fract_x
 _atom_site_fract_y
 _atom_site_fract_z
 _atom_site_occupancy
  Eu  Eu0  1  0.250000  0.017192  0.310202  1
  Eu  Eu1  1  0.250000  0.511439  0.196143  1
  Eu  Eu2  1  0.750000  0.993370  0.692377  1
  Eu  Eu3  1  0.750000  0.483723  0.800057  1
  Zn  Zn4  1  0.250000  0.659835  0.577612  1
  Zn  Zn5  1  0.250000  0.169339  0.918436  1
  Zn  Zn6  1  0.750000  0.329783  0.427714  1
  Zn  Zn7  1  0.750000  0.833644  0.075909  1
  Ir  Ir8  1  0.250000  0.288883  0.602964  1
  Pd  Pd9  1  0.250000  0.791542  0.899042  1
  Pd  Pd10  1  0.750000  0.710624  0.398445  1
  Pd  Pd11  1  0.750000  0.210624  0.101098  1
