# generated using pymatgen
data_K4LiAgBi2
_symmetry_space_group_name_H-M   'P 1'
_cell_length_a   6.94283298
_cell_length_b   6.94283317
_cell_length_c   6.40014893
_cell_angle_alpha   90.57062914
_cell_angle_beta   90.57062213
_cell_angle_gamma   102.13483737
_symmetry_Int_Tables_number   1
_chemical_formula_structural   K4LiAgBi2
_chemical_formula_sum   'K4 Li1 Ag1 Bi2'
_cell_volume   301.57467850
_cell_formula_units_Z   1
loop_
 _symmetry_equiv_pos_site_id
 _symmetry_equiv_pos_as_xyz
  1  'x, y, z'
loop_
 _atom_site_type_symbol
 _atom_site_label
 _atom_site_symmetry_multiplicity
 _atom_site_fract_x
 _atom_site_fract_y
 _atom_site_fract_z
 _atom_site_occupancy
  K  K0  1  0.318226  0.975528  0.739931  1
  K  K1  1  0.681774  0.024472  0.260069  1
  K  K2  1  0.975528  0.318226  0.739931  1
  K  K3  1  0.024472  0.681774  0.260069  1
  Li  Li4  1  0.500000  0.500000  0.000000  1
  Ag  Ag5  1  0.500000  0.500000  0.500000  1
  Bi  Bi6  1  0.763585  0.763585  0.758534  1
  Bi  Bi7  1  0.236415  0.236415  0.241466  1
