# generated using pymatgen
data_HoEr2RuO7
_symmetry_space_group_name_H-M   'P 1'
_cell_length_a   6.38782302
_cell_length_b   6.38782266
_cell_length_c   7.38582800
_cell_angle_alpha   90.00000000
_cell_angle_beta   90.00000000
_cell_angle_gamma   109.18067057
_symmetry_Int_Tables_number   1
_chemical_formula_structural   HoEr2RuO7
_chemical_formula_sum   'Ho2 Er4 Ru2 O14'
_cell_volume   284.64333628
_cell_formula_units_Z   2
loop_
 _symmetry_equiv_pos_site_id
 _symmetry_equiv_pos_as_xyz
  1  'x, y, z'
loop_
 _atom_site_type_symbol
 _atom_site_label
 _atom_site_symmetry_multiplicity
 _atom_site_fract_x
 _atom_site_fract_y
 _atom_site_fract_z
 _atom_site_occupancy
  Ho  Ho0  1  0.514084  0.514084  0.500000  1
  Ho  Ho1  1  0.485916  0.485916  0.000000  1
  Er  Er2  1  0.000657  0.463811  0.747530  1
  Er  Er3  1  0.999343  0.536189  0.247530  1
  Er  Er4  1  0.536189  0.999343  0.752470  1
  Er  Er5  1  0.463811  0.000657  0.252470  1
  Ru  Ru6  1  0.000251  0.000251  0.500000  1
  Ru  Ru7  1  0.999749  0.999749  0.000000  1
  O  O8  1  0.637829  0.362171  0.750000  1
  O  O9  1  0.362171  0.637829  0.250000  1
  O  O10  1  0.927549  0.072451  0.750000  1
  O  O11  1  0.072451  0.927549  0.250000  1
  O  O12  1  0.922055  0.674818  0.528463  1
  O  O13  1  0.077945  0.325182  0.028463  1
  O  O14  1  0.325182  0.077945  0.971537  1
  O  O15  1  0.674818  0.922055  0.471537  1
  O  O16  1  0.368729  0.631271  0.750000  1
  O  O17  1  0.631271  0.368729  0.250000  1
  O  O18  1  0.931719  0.681304  0.966665  1
  O  O19  1  0.068281  0.318696  0.466665  1
  O  O20  1  0.318696  0.068281  0.533335  1
  O  O21  1  0.681304  0.931719  0.033335  1
