# generated using pymatgen
data_Ta8CrMoN12
_symmetry_space_group_name_H-M   'P 1'
_cell_length_a   5.18852572
_cell_length_b   5.19552284
_cell_length_c   10.40593502
_cell_angle_alpha   90.00559762
_cell_angle_beta   89.99881646
_cell_angle_gamma   120.07268948
_symmetry_Int_Tables_number   1
_chemical_formula_structural   Ta8CrMoN12
_chemical_formula_sum   'Ta8 Cr1 Mo1 N12'
_cell_volume   242.75400175
_cell_formula_units_Z   1
loop_
 _symmetry_equiv_pos_site_id
 _symmetry_equiv_pos_as_xyz
  1  'x, y, z'
loop_
 _atom_site_type_symbol
 _atom_site_label
 _atom_site_symmetry_multiplicity
 _atom_site_fract_x
 _atom_site_fract_y
 _atom_site_fract_z
 _atom_site_occupancy
  Ta  Ta0  1  0.322388  0.999506  0.751298  1
  Ta  Ta1  1  0.996253  0.320873  0.751573  1
  Ta  Ta2  1  0.325919  0.323513  0.249621  1
  Ta  Ta3  1  0.677777  0.003237  0.249726  1
  Ta  Ta4  1  0.998642  0.675172  0.249747  1
  Ta  Ta5  1  0.336113  0.668045  0.002246  1
  Ta  Ta6  1  0.335770  0.666097  0.497656  1
  Ta  Ta7  1  0.665276  0.336176  0.498234  1
  Cr  Cr8  1  0.667301  0.335243  0.000140  1
  Mo  Mo9  1  0.674013  0.671957  0.749268  1
  N  N10  1  0.664208  0.665116  0.377998  1
  N  N11  1  0.337848  0.999960  0.378696  1
  N  N12  1  0.001275  0.338616  0.378692  1
  N  N13  1  0.335706  0.336798  0.623459  1
  N  N14  1  0.656828  0.001476  0.623510  1
  N  N15  1  0.002192  0.657112  0.623618  1
  N  N16  1  0.347908  0.344900  0.877568  1
  N  N17  1  0.651660  0.003183  0.877286  1
  N  N18  1  0.999726  0.650423  0.877411  1
  N  N19  1  0.654839  0.652644  0.120433  1
  N  N20  1  0.349218  0.002245  0.120998  1
  N  N21  1  0.999142  0.347708  0.120823  1
