# generated using pymatgen
data_Tm20Ga3Bi8Te
_symmetry_space_group_name_H-M   'P 1'
_cell_length_a   8.01841776
_cell_length_b   9.19631000
_cell_length_c   11.86955900
_cell_angle_alpha   90.00000000
_cell_angle_beta   90.13037016
_cell_angle_gamma   90.00000000
_symmetry_Int_Tables_number   1
_chemical_formula_structural   Tm20Ga3Bi8Te
_chemical_formula_sum   'Tm20 Ga3 Bi8 Te1'
_cell_volume   875.25729860
_cell_formula_units_Z   1
loop_
 _symmetry_equiv_pos_site_id
 _symmetry_equiv_pos_as_xyz
  1  'x, y, z'
loop_
 _atom_site_type_symbol
 _atom_site_label
 _atom_site_symmetry_multiplicity
 _atom_site_fract_x
 _atom_site_fract_y
 _atom_site_fract_z
 _atom_site_occupancy
  Tm  Tm0  1  0.682897  0.932836  0.437073  1
  Tm  Tm1  1  0.819771  0.555979  0.938096  1
  Tm  Tm2  1  0.311607  0.449932  0.564938  1
  Tm  Tm3  1  0.178859  0.056276  0.061223  1
  Tm  Tm4  1  0.311607  0.050068  0.564938  1
  Tm  Tm5  1  0.178859  0.443724  0.061223  1
  Tm  Tm6  1  0.682897  0.567164  0.437073  1
  Tm  Tm7  1  0.819771  0.944021  0.938096  1
  Tm  Tm8  1  0.330119  0.750000  0.284219  1
  Tm  Tm9  1  0.172891  0.750000  0.784238  1
  Tm  Tm10  1  0.678275  0.250000  0.725716  1
  Tm  Tm11  1  0.833460  0.250000  0.211010  1
  Tm  Tm12  1  0.038123  0.750000  0.496302  1
  Tm  Tm13  1  0.462120  0.750000  0.997835  1
  Tm  Tm14  1  0.976749  0.250000  0.502386  1
  Tm  Tm15  1  0.535092  0.250000  0.003469  1
  Tm  Tm16  1  0.856152  0.750000  0.206270  1
  Tm  Tm17  1  0.643679  0.750000  0.706145  1
  Tm  Tm18  1  0.143444  0.250000  0.792157  1
  Tm  Tm19  1  0.346107  0.250000  0.288679  1
  Ga  Ga20  1  0.094568  0.750000  0.025097  1
  Ga  Ga21  1  0.406882  0.750000  0.525317  1
  Ga  Ga22  1  0.904803  0.250000  0.971892  1
  Bi  Bi23  1  0.564404  0.991098  0.176304  1
  Bi  Bi24  1  0.933941  0.510645  0.673862  1
  Bi  Bi25  1  0.435557  0.489096  0.824902  1
  Bi  Bi26  1  0.063828  0.009451  0.324655  1
  Bi  Bi27  1  0.435557  0.010904  0.824902  1
  Bi  Bi28  1  0.063828  0.490549  0.324655  1
  Bi  Bi29  1  0.564404  0.508902  0.176304  1
  Bi  Bi30  1  0.933941  0.989355  0.673862  1
  Te  Te31  1  0.595807  0.250000  0.477164  1
