# generated using pymatgen
data_Li3GeRh
_symmetry_space_group_name_H-M   'P 1'
_cell_length_a   6.68131200
_cell_length_b   6.68131200
_cell_length_c   6.68131200
_cell_angle_alpha   90.00000000
_cell_angle_beta   90.00000000
_cell_angle_gamma   90.00000000
_symmetry_Int_Tables_number   1
_chemical_formula_structural   Li3GeRh
_chemical_formula_sum   'Li12 Ge4 Rh4'
_cell_volume   298.25330026
_cell_formula_units_Z   4
loop_
 _symmetry_equiv_pos_site_id
 _symmetry_equiv_pos_as_xyz
  1  'x, y, z'
loop_
 _atom_site_type_symbol
 _atom_site_label
 _atom_site_symmetry_multiplicity
 _atom_site_fract_x
 _atom_site_fract_y
 _atom_site_fract_z
 _atom_site_occupancy
  Li  Li0  1  0.128464  0.197542  0.455804  1
  Li  Li1  1  0.371536  0.802458  0.955804  1
  Li  Li2  1  0.871536  0.697542  0.044196  1
  Li  Li3  1  0.455804  0.128464  0.197542  1
  Li  Li4  1  0.628464  0.302458  0.544196  1
  Li  Li5  1  0.955804  0.371536  0.802458  1
  Li  Li6  1  0.044196  0.871536  0.697542  1
  Li  Li7  1  0.544196  0.628464  0.302458  1
  Li  Li8  1  0.197542  0.455804  0.128464  1
  Li  Li9  1  0.697542  0.044196  0.871536  1
  Li  Li10  1  0.302458  0.544196  0.628464  1
  Li  Li11  1  0.802458  0.955804  0.371536  1
  Ge  Ge12  1  0.067380  0.067380  0.067380  1
  Ge  Ge13  1  0.432620  0.932620  0.567380  1
  Ge  Ge14  1  0.932620  0.567380  0.432620  1
  Ge  Ge15  1  0.567380  0.432620  0.932620  1
  Rh  Rh16  1  0.684103  0.684103  0.684103  1
  Rh  Rh17  1  0.815897  0.315897  0.184103  1
  Rh  Rh18  1  0.315897  0.184103  0.815897  1
  Rh  Rh19  1  0.184103  0.815897  0.315897  1
