# generated using pymatgen
data_NdYPt2F14
_symmetry_space_group_name_H-M   'P 1'
_cell_length_a   5.60823424
_cell_length_b   9.05227622
_cell_length_c   12.17904562
_cell_angle_alpha   62.14323975
_cell_angle_beta   89.81810766
_cell_angle_gamma   89.95136883
_symmetry_Int_Tables_number   1
_chemical_formula_structural   NdYPt2F14
_chemical_formula_sum   'Nd2 Y2 Pt4 F28'
_cell_volume   546.64500496
_cell_formula_units_Z   2
loop_
 _symmetry_equiv_pos_site_id
 _symmetry_equiv_pos_as_xyz
  1  'x, y, z'
loop_
 _atom_site_type_symbol
 _atom_site_label
 _atom_site_symmetry_multiplicity
 _atom_site_fract_x
 _atom_site_fract_y
 _atom_site_fract_z
 _atom_site_occupancy
  Nd  Nd0  1  0.260689  0.814558  0.264029  1
  Nd  Nd1  1  0.739311  0.185442  0.735971  1
  Y  Y2  1  0.762202  0.188610  0.235998  1
  Y  Y3  1  0.237798  0.811390  0.764002  1
  Pt  Pt4  1  0.758222  0.723515  0.041168  1
  Pt  Pt5  1  0.241778  0.276485  0.958832  1
  Pt  Pt6  1  0.258879  0.270037  0.455507  1
  Pt  Pt7  1  0.741121  0.729963  0.544493  1
  F  F8  1  0.931961  0.707709  0.417487  1
  F  F9  1  0.068039  0.292291  0.582513  1
  F  F10  1  0.434286  0.295552  0.086417  1
  F  F11  1  0.565714  0.704448  0.913583  1
  F  F12  1  0.467331  0.724948  0.130906  1
  F  F13  1  0.532669  0.275052  0.869094  1
  F  F14  1  0.966792  0.270825  0.365548  1
  F  F15  1  0.033208  0.729175  0.634452  1
  F  F16  1  0.943700  0.738835  0.172527  1
  F  F17  1  0.056300  0.261165  0.827473  1
  F  F18  1  0.449060  0.254452  0.324783  1
  F  F19  1  0.550940  0.745548  0.675217  1
  F  F20  1  0.769561  0.477751  0.138946  1
  F  F21  1  0.230439  0.522249  0.861054  1
  F  F22  1  0.268931  0.515211  0.359069  1
  F  F23  1  0.731069  0.484789  0.640931  1
  F  F24  1  0.942823  0.281739  0.043330  1
  F  F25  1  0.057177  0.718261  0.956670  1
  F  F26  1  0.445903  0.720367  0.461125  1
  F  F27  1  0.554097  0.279633  0.538875  1
  F  F28  1  0.740350  0.975342  0.450025  1
  F  F29  1  0.259650  0.024658  0.549975  1
  F  F30  1  0.242773  0.031233  0.049198  1
  F  F31  1  0.757227  0.968767  0.950802  1
  F  F32  1  0.597499  0.974520  0.230666  1
  F  F33  1  0.402501  0.025480  0.769334  1
  F  F34  1  0.085592  0.038727  0.268301  1
  F  F35  1  0.914408  0.961273  0.731699  1
