# generated using pymatgen
data_Ba4La4TbEr3S16
_symmetry_space_group_name_H-M   'P 1'
_cell_length_a   4.16293300
_cell_length_b   12.33205400
_cell_length_c   14.90339000
_cell_angle_alpha   89.83202518
_cell_angle_beta   90.00000000
_cell_angle_gamma   90.00000000
_symmetry_Int_Tables_number   1
_chemical_formula_structural   Ba4La4TbEr3S16
_chemical_formula_sum   'Ba4 La4 Tb1 Er3 S16'
_cell_volume   765.09971282
_cell_formula_units_Z   1
loop_
 _symmetry_equiv_pos_site_id
 _symmetry_equiv_pos_as_xyz
  1  'x, y, z'
loop_
 _atom_site_type_symbol
 _atom_site_label
 _atom_site_symmetry_multiplicity
 _atom_site_fract_x
 _atom_site_fract_y
 _atom_site_fract_z
 _atom_site_occupancy
  Ba  Ba0  1  0.250000  0.753573  0.343808  1
  Ba  Ba1  1  0.250000  0.254483  0.155437  1
  Ba  Ba2  1  0.750000  0.245986  0.656358  1
  Ba  Ba3  1  0.750000  0.745736  0.844220  1
  La  La4  1  0.250000  0.418078  0.390894  1
  La  La5  1  0.250000  0.917134  0.108647  1
  La  La6  1  0.750000  0.582608  0.609925  1
  La  La7  1  0.750000  0.082195  0.890011  1
  Tb  Tb8  1  0.750000  0.071169  0.397004  1
  Er  Er9  1  0.250000  0.429280  0.897649  1
  Er  Er10  1  0.250000  0.928465  0.602951  1
  Er  Er11  1  0.750000  0.570839  0.102847  1
  S  S12  1  0.250000  0.224184  0.824936  1
  S  S13  1  0.250000  0.723576  0.675831  1
  S  S14  1  0.750000  0.775898  0.175016  1
  S  S15  1  0.750000  0.278631  0.323475  1
  S  S16  1  0.250000  0.126950  0.518257  1
  S  S17  1  0.250000  0.626387  0.983217  1
  S  S18  1  0.750000  0.871533  0.484056  1
  S  S19  1  0.750000  0.373805  0.017129  1
  S  S20  1  0.250000  0.513794  0.210148  1
  S  S21  1  0.250000  0.012548  0.288092  1
  S  S22  1  0.750000  0.486854  0.790574  1
  S  S23  1  0.750000  0.986337  0.709728  1
  S  S24  1  0.250000  0.423420  0.582206  1
  S  S25  1  0.250000  0.923076  0.917881  1
  S  S26  1  0.750000  0.576725  0.418859  1
  S  S27  1  0.750000  0.076738  0.080844  1
