# generated using pymatgen
data_Sc4TeAs3
_symmetry_space_group_name_H-M   'P 1'
_cell_length_a   3.98214243
_cell_length_b   8.90154183
_cell_length_c   10.53162200
_cell_angle_alpha   40.43179033
_cell_angle_beta   124.52480710
_cell_angle_gamma   132.15886084
_symmetry_Int_Tables_number   1
_chemical_formula_structural   Sc4TeAs3
_chemical_formula_sum   'Sc4 Te1 As3'
_cell_volume   178.25812212
_cell_formula_units_Z   1
loop_
 _symmetry_equiv_pos_site_id
 _symmetry_equiv_pos_as_xyz
  1  'x, y, z'
loop_
 _atom_site_type_symbol
 _atom_site_label
 _atom_site_symmetry_multiplicity
 _atom_site_fract_x
 _atom_site_fract_y
 _atom_site_fract_z
 _atom_site_occupancy
  Sc  Sc0  1  0.507156  0.389738  0.295532  1
  Sc  Sc1  1  0.737803  0.666938  0.505449  1
  Sc  Sc2  1  0.211160  0.112624  0.041873  1
  Sc  Sc3  1  0.034295  0.944124  0.759161  1
  Te  Te4  1  0.122825  0.528447  0.900422  1
  As  As5  1  0.890141  0.287828  0.652664  1
  As  As6  1  0.355185  0.768900  0.148327  1
  As  As7  1  0.622504  0.028293  0.400532  1
