# generated using pymatgen
data_Ca8TbNd(Sn3H)2
_symmetry_space_group_name_H-M   'P 1'
_cell_length_a   9.44961336
_cell_length_b   9.44961235
_cell_length_c   9.45206942
_cell_angle_alpha   128.89816364
_cell_angle_beta   128.89816686
_cell_angle_gamma   75.12428540
_symmetry_Int_Tables_number   1
_chemical_formula_structural   Ca8TbNd(Sn3H)2
_chemical_formula_sum   'Ca8 Tb1 Nd1 Sn6 H2'
_cell_volume   497.85680953
_cell_formula_units_Z   1
loop_
 _symmetry_equiv_pos_site_id
 _symmetry_equiv_pos_as_xyz
  1  'x, y, z'
loop_
 _atom_site_type_symbol
 _atom_site_label
 _atom_site_symmetry_multiplicity
 _atom_site_fract_x
 _atom_site_fract_y
 _atom_site_fract_z
 _atom_site_occupancy
  Ca  Ca0  1  0.500743  0.501368  0.999608  1
  Ca  Ca1  1  0.001368  0.000743  0.999608  1
  Ca  Ca2  1  0.008332  0.186890  0.500777  1
  Ca  Ca3  1  0.686890  0.508332  0.500777  1
  Ca  Ca4  1  0.489068  0.989068  0.180180  1
  Ca  Ca5  1  0.810154  0.310154  0.821214  1
  Ca  Ca6  1  0.988034  0.811774  0.499077  1
  Ca  Ca7  1  0.311774  0.488034  0.499077  1
  Tb  Tb8  1  0.187373  0.687373  0.169470  1
  Nd  Nd9  1  0.519635  0.019635  0.835594  1
  Sn  Sn10  1  0.252058  0.256283  0.000827  1
  Sn  Sn11  1  0.756283  0.752058  0.000827  1
  Sn  Sn12  1  0.871545  0.371545  0.245534  1
  Sn  Sn13  1  0.128253  0.628253  0.759181  1
  Sn  Sn14  1  0.365521  0.122125  0.497916  1
  Sn  Sn15  1  0.622125  0.865521  0.497916  1
  H  H16  1  0.253562  0.753562  0.492777  1
  H  H17  1  0.747284  0.247284  0.499640  1
