# generated using pymatgen
data_Ta5Nb2(BC)4
_symmetry_space_group_name_H-M   'P 1'
_cell_length_a   3.15297757
_cell_length_b   3.22184655
_cell_length_c   16.35170564
_cell_angle_alpha   95.65377724
_cell_angle_beta   95.53255391
_cell_angle_gamma   90.00000387
_symmetry_Int_Tables_number   1
_chemical_formula_structural   Ta5Nb2(BC)4
_chemical_formula_sum   'Ta5 Nb2 B4 C4'
_cell_volume   164.52167990
_cell_formula_units_Z   1
loop_
 _symmetry_equiv_pos_site_id
 _symmetry_equiv_pos_as_xyz
  1  'x, y, z'
loop_
 _atom_site_type_symbol
 _atom_site_label
 _atom_site_symmetry_multiplicity
 _atom_site_fract_x
 _atom_site_fract_y
 _atom_site_fract_z
 _atom_site_occupancy
  Ta  Ta0  1  0.081762  0.081762  0.163525  1
  Ta  Ta1  1  0.646993  0.646992  0.293987  1
  Ta  Ta2  1  0.214284  0.214284  0.428568  1
  Ta  Ta3  1  0.785480  0.785479  0.570959  1
  Ta  Ta4  1  0.352555  0.352555  0.705109  1
  Nb  Nb5  1  0.500108  0.000108  0.000216  1
  Nb  Nb6  1  0.918425  0.918424  0.836848  1
  B  B7  1  0.028631  0.528630  0.057263  1
  B  B8  1  0.558069  0.558068  0.116137  1
  B  B9  1  0.442539  0.442539  0.885079  1
  B  B10  1  0.971528  0.471528  0.943055  1
  C  C11  1  0.147624  0.147624  0.295248  1
  C  C12  1  0.715312  0.715311  0.430624  1
  C  C13  1  0.284535  0.284535  0.569071  1
  C  C14  1  0.852155  0.852154  0.704309  1
