# generated using pymatgen
data_PrTm3(Si5Os3)2
_symmetry_space_group_name_H-M   'P 1'
_cell_length_a   8.13382749
_cell_length_b   8.16436172
_cell_length_c   5.80223414
_cell_angle_alpha   70.51739113
_cell_angle_beta   70.51168607
_cell_angle_gamma   94.03470747
_symmetry_Int_Tables_number   1
_chemical_formula_structural   PrTm3(Si5Os3)2
_chemical_formula_sum   'Pr1 Tm3 Si10 Os6'
_cell_volume   335.21182334
_cell_formula_units_Z   1
loop_
 _symmetry_equiv_pos_site_id
 _symmetry_equiv_pos_as_xyz
  1  'x, y, z'
loop_
 _atom_site_type_symbol
 _atom_site_label
 _atom_site_symmetry_multiplicity
 _atom_site_fract_x
 _atom_site_fract_y
 _atom_site_fract_z
 _atom_site_occupancy
  Pr  Pr0  1  0.600419  0.868476  0.255193  1
  Tm  Tm1  1  0.868660  0.602368  0.752285  1
  Tm  Tm2  1  0.399744  0.131922  0.744544  1
  Tm  Tm3  1  0.131179  0.397493  0.247481  1
  Si  Si4  1  0.067830  0.258577  0.834870  1
  Si  Si5  1  0.737777  0.932221  0.666794  1
  Si  Si6  1  0.936193  0.738653  0.163983  1
  Si  Si7  1  0.263444  0.070335  0.331491  1
  Si  Si8  1  0.207911  0.794858  0.743301  1
  Si  Si9  1  0.794821  0.207906  0.254164  1
  Si  Si10  1  0.511995  0.486864  0.749138  1
  Si  Si11  1  0.484215  0.508523  0.255208  1
  Si  Si12  1  0.774499  0.227808  0.745075  1
  Si  Si13  1  0.222066  0.773863  0.253718  1
  Os  Os14  1  0.250993  0.539867  0.635566  1
  Os  Os15  1  0.451769  0.741698  0.874843  1
  Os  Os16  1  0.746346  0.458411  0.365483  1
  Os  Os17  1  0.546309  0.259731  0.128793  1
  Os  Os18  1  0.004175  0.997687  0.748478  1
  Os  Os19  1  0.999657  0.002739  0.249594  1
