# generated using pymatgen
data_Pu3Al3Ge2Rh
_symmetry_space_group_name_H-M   'P 1'
_cell_length_a   6.93890100
_cell_length_b   6.93890251
_cell_length_c   4.33899700
_cell_angle_alpha   90.00000000
_cell_angle_beta   90.00000000
_cell_angle_gamma   119.99999755
_symmetry_Int_Tables_number   1
_chemical_formula_structural   Pu3Al3Ge2Rh
_chemical_formula_sum   'Pu3 Al3 Ge2 Rh1'
_cell_volume   180.92620326
_cell_formula_units_Z   1
loop_
 _symmetry_equiv_pos_site_id
 _symmetry_equiv_pos_as_xyz
  1  'x, y, z'
loop_
 _atom_site_type_symbol
 _atom_site_label
 _atom_site_symmetry_multiplicity
 _atom_site_fract_x
 _atom_site_fract_y
 _atom_site_fract_z
 _atom_site_occupancy
  Pu  Pu0  1  0.418860  0.000000  0.000000  1
  Pu  Pu1  1  0.000000  0.418859  0.000000  1
  Pu  Pu2  1  0.581141  0.581141  0.000000  1
  Al  Al3  1  0.769376  0.000000  0.499999  1
  Al  Al4  1  0.230624  0.230623  0.499999  1
  Al  Al5  1  0.000000  0.769375  0.499999  1
  Ge  Ge6  1  0.666668  0.333334  0.499999  1
  Ge  Ge7  1  0.333333  0.666666  0.499999  1
  Rh  Rh8  1  0.000000  0.000000  0.000000  1
