# generated using pymatgen
data_Er2Th12(FeCo)3
_symmetry_space_group_name_H-M   'P 1'
_cell_length_a   9.74020469
_cell_length_b   9.74020412
_cell_length_c   6.14257993
_cell_angle_alpha   89.94443714
_cell_angle_beta   90.05556242
_cell_angle_gamma   119.96301065
_symmetry_Int_Tables_number   1
_chemical_formula_structural   Er2Th12(FeCo)3
_chemical_formula_sum   'Er2 Th12 Fe3 Co3'
_cell_volume   504.86942632
_cell_formula_units_Z   1
loop_
 _symmetry_equiv_pos_site_id
 _symmetry_equiv_pos_as_xyz
  1  'x, y, z'
loop_
 _atom_site_type_symbol
 _atom_site_label
 _atom_site_symmetry_multiplicity
 _atom_site_fract_x
 _atom_site_fract_y
 _atom_site_fract_z
 _atom_site_occupancy
  Er  Er0  1  0.333503  0.666497  0.045927  1
  Er  Er1  1  0.667052  0.332948  0.543458  1
  Th  Th2  1  0.125010  0.874990  0.243625  1
  Th  Th3  1  0.252564  0.124282  0.743398  1
  Th  Th4  1  0.875718  0.747436  0.743398  1
  Th  Th5  1  0.129124  0.253212  0.244632  1
  Th  Th6  1  0.746788  0.870876  0.244632  1
  Th  Th7  1  0.871943  0.128057  0.743960  1
  Th  Th8  1  0.542668  0.457332  0.068004  1
  Th  Th9  1  0.083073  0.543940  0.568183  1
  Th  Th10  1  0.456060  0.916927  0.568183  1
  Th  Th11  1  0.539176  0.082784  0.068856  1
  Th  Th12  1  0.917216  0.460824  0.068856  1
  Th  Th13  1  0.459671  0.540329  0.568884  1
  Fe  Fe14  1  0.818488  0.636980  0.280340  1
  Fe  Fe15  1  0.363020  0.181512  0.280340  1
  Fe  Fe16  1  0.182243  0.817757  0.778472  1
  Co  Co17  1  0.818528  0.181472  0.287207  1
  Co  Co18  1  0.636112  0.817955  0.784823  1
  Co  Co19  1  0.182045  0.363888  0.784823  1
