# generated using pymatgen
data_Nd2Ni2GeAsH4
_symmetry_space_group_name_H-M   'P 1'
_cell_length_a   4.18078100
_cell_length_b   4.18078164
_cell_length_c   8.37890400
_cell_angle_alpha   90.00000000
_cell_angle_beta   90.00000000
_cell_angle_gamma   120.00000288
_symmetry_Int_Tables_number   1
_chemical_formula_structural   Nd2Ni2GeAsH4
_chemical_formula_sum   'Nd2 Ni2 Ge1 As1 H4'
_cell_volume   126.83313790
_cell_formula_units_Z   1
loop_
 _symmetry_equiv_pos_site_id
 _symmetry_equiv_pos_as_xyz
  1  'x, y, z'
loop_
 _atom_site_type_symbol
 _atom_site_label
 _atom_site_symmetry_multiplicity
 _atom_site_fract_x
 _atom_site_fract_y
 _atom_site_fract_z
 _atom_site_occupancy
  Nd  Nd0  1  0.000000  0.000000  0.996817  1
  Nd  Nd1  1  0.000000  0.000000  0.503183  1
  Ni  Ni2  1  0.666667  0.333333  0.250000  1
  Ni  Ni3  1  0.333333  0.666667  0.750000  1
  Ge  Ge4  1  0.333333  0.666667  0.250000  1
  As  As5  1  0.666667  0.333333  0.750000  1
  H  H6  1  0.333333  0.666667  0.945071  1
  H  H7  1  0.666667  0.333333  0.062746  1
  H  H8  1  0.333333  0.666667  0.554929  1
  H  H9  1  0.666667  0.333333  0.437254  1
