# generated using pymatgen
data_GeWF7
_symmetry_space_group_name_H-M   'P 1'
_cell_length_a   5.74261700
_cell_length_b   9.27213257
_cell_length_c   12.73075600
_cell_angle_alpha   63.91401103
_cell_angle_beta   90.00000000
_cell_angle_gamma   90.00000000
_symmetry_Int_Tables_number   1
_chemical_formula_structural   GeWF7
_chemical_formula_sum   'Ge4 W4 F28'
_cell_volume   608.81502722
_cell_formula_units_Z   4
loop_
 _symmetry_equiv_pos_site_id
 _symmetry_equiv_pos_as_xyz
  1  'x, y, z'
loop_
 _atom_site_type_symbol
 _atom_site_label
 _atom_site_symmetry_multiplicity
 _atom_site_fract_x
 _atom_site_fract_y
 _atom_site_fract_z
 _atom_site_occupancy
  Ge  Ge0  1  0.266787  0.860971  0.735993  1
  Ge  Ge1  1  0.766787  0.139029  0.764007  1
  Ge  Ge2  1  0.733213  0.139029  0.264007  1
  Ge  Ge3  1  0.233213  0.860971  0.235993  1
  W  W4  1  0.214853  0.277777  0.461335  1
  W  W5  1  0.714853  0.722223  0.038665  1
  W  W6  1  0.785147  0.722223  0.538665  1
  W  W7  1  0.285147  0.277777  0.961335  1
  F  F8  1  0.578738  0.989046  0.732390  1
  F  F9  1  0.078738  0.010954  0.767610  1
  F  F10  1  0.421262  0.010954  0.267610  1
  F  F11  1  0.921262  0.989046  0.232390  1
  F  F12  1  0.385155  0.318294  0.576115  1
  F  F13  1  0.885155  0.681706  0.923885  1
  F  F14  1  0.614845  0.681706  0.423885  1
  F  F15  1  0.114845  0.318294  0.076115  1
  F  F16  1  0.448646  0.226786  0.844948  1
  F  F17  1  0.948646  0.773214  0.655052  1
  F  F18  1  0.551354  0.773214  0.155052  1
  F  F19  1  0.051354  0.226786  0.344948  1
  F  F20  1  0.998665  0.273452  0.887666  1
  F  F21  1  0.498665  0.726548  0.612334  1
  F  F22  1  0.001335  0.726548  0.112334  1
  F  F23  1  0.501335  0.273452  0.387666  1
  F  F24  1  0.242867  0.036437  0.060361  1
  F  F25  1  0.742867  0.963563  0.439639  1
  F  F26  1  0.757133  0.963563  0.939639  1
  F  F27  1  0.257133  0.036437  0.560361  1
  F  F28  1  0.336283  0.502955  0.866642  1
  F  F29  1  0.836283  0.497045  0.633358  1
  F  F30  1  0.663717  0.497045  0.133358  1
  F  F31  1  0.163717  0.502955  0.366642  1
  F  F32  1  0.577203  0.255276  0.038170  1
  F  F33  1  0.077203  0.744724  0.461830  1
  F  F34  1  0.422797  0.744724  0.961830  1
  F  F35  1  0.922797  0.255276  0.538170  1
