# generated using pymatgen
data_NdTm2Rh9
_symmetry_space_group_name_H-M   'P 1'
_cell_length_a   5.32415173
_cell_length_b   5.32305236
_cell_length_c   17.31680500
_cell_angle_alpha   90.00000000
_cell_angle_beta   90.00000000
_cell_angle_gamma   119.91438384
_symmetry_Int_Tables_number   1
_chemical_formula_structural   NdTm2Rh9
_chemical_formula_sum   'Nd2 Tm4 Rh18'
_cell_volume   425.38639024
_cell_formula_units_Z   2
loop_
 _symmetry_equiv_pos_site_id
 _symmetry_equiv_pos_as_xyz
  1  'x, y, z'
loop_
 _atom_site_type_symbol
 _atom_site_label
 _atom_site_symmetry_multiplicity
 _atom_site_fract_x
 _atom_site_fract_y
 _atom_site_fract_z
 _atom_site_occupancy
  Nd  Nd0  1  0.333307  0.666687  0.750000  1
  Nd  Nd1  1  0.666693  0.333313  0.250000  1
  Tm  Tm2  1  0.333321  0.666676  0.541228  1
  Tm  Tm3  1  0.666679  0.333324  0.041228  1
  Tm  Tm4  1  0.666679  0.333324  0.458772  1
  Tm  Tm5  1  0.333321  0.666676  0.958772  1
  Rh  Rh6  1  0.168165  0.336223  0.124361  1
  Rh  Rh7  1  0.831835  0.663777  0.624361  1
  Rh  Rh8  1  0.663770  0.831835  0.124356  1
  Rh  Rh9  1  0.168133  0.831874  0.124339  1
  Rh  Rh10  1  0.831867  0.168126  0.624339  1
  Rh  Rh11  1  0.336230  0.168165  0.624356  1
  Rh  Rh12  1  0.831835  0.663777  0.875639  1
  Rh  Rh13  1  0.831867  0.168126  0.875661  1
  Rh  Rh14  1  0.336230  0.168165  0.875644  1
  Rh  Rh15  1  0.663770  0.831835  0.375644  1
  Rh  Rh16  1  0.168133  0.831874  0.375661  1
  Rh  Rh17  1  0.168165  0.336223  0.375639  1
  Rh  Rh18  1  0.999700  0.000087  0.250000  1
  Rh  Rh19  1  0.000300  0.999913  0.750000  1
  Rh  Rh20  1  0.333605  0.666579  0.250000  1
  Rh  Rh21  1  0.666395  0.333421  0.750000  1
  Rh  Rh22  1  0.000000  0.000000  0.000000  1
  Rh  Rh23  1  0.000000  0.000000  0.500000  1
