# generated using pymatgen
data_DyCu2Ni2Ag
_symmetry_space_group_name_H-M   'P 1'
_cell_length_a   4.96655902
_cell_length_b   4.99135022
_cell_length_c   4.99135054
_cell_angle_alpha   60.58853035
_cell_angle_beta   60.16415874
_cell_angle_gamma   60.16416484
_symmetry_Int_Tables_number   1
_chemical_formula_structural   DyCu2Ni2Ag
_chemical_formula_sum   'Dy1 Cu2 Ni2 Ag1'
_cell_volume   88.09556076
_cell_formula_units_Z   1
loop_
 _symmetry_equiv_pos_site_id
 _symmetry_equiv_pos_as_xyz
  1  'x, y, z'
loop_
 _atom_site_type_symbol
 _atom_site_label
 _atom_site_symmetry_multiplicity
 _atom_site_fract_x
 _atom_site_fract_y
 _atom_site_fract_z
 _atom_site_occupancy
  Dy  Dy0  1  0.997288  0.002712  0.002712  1
  Cu  Cu1  1  0.127779  0.623651  0.623651  1
  Cu  Cu2  1  0.624919  0.623651  0.623651  1
  Ni  Ni3  1  0.624997  0.623785  0.126221  1
  Ni  Ni4  1  0.624997  0.126221  0.623785  1
  Ag  Ag5  1  0.250020  0.249980  0.249980  1
