# generated using pymatgen
data_SmHo2As4Pd7
_symmetry_space_group_name_H-M   'P 1'
_cell_length_a   8.12178238
_cell_length_b   8.12178216
_cell_length_c   9.67425511
_cell_angle_alpha   55.72538169
_cell_angle_beta   55.72538475
_cell_angle_gamma   29.47909249
_symmetry_Int_Tables_number   1
_chemical_formula_structural   SmHo2As4Pd7
_chemical_formula_sum   'Sm1 Ho2 As4 Pd7'
_cell_volume   255.29759146
_cell_formula_units_Z   1
loop_
 _symmetry_equiv_pos_site_id
 _symmetry_equiv_pos_as_xyz
  1  'x, y, z'
loop_
 _atom_site_type_symbol
 _atom_site_label
 _atom_site_symmetry_multiplicity
 _atom_site_fract_x
 _atom_site_fract_y
 _atom_site_fract_z
 _atom_site_occupancy
  Sm  Sm0  1  0.000000  0.000000  0.000000  1
  Ho  Ho1  1  0.676603  0.676603  0.329898  1
  Ho  Ho2  1  0.323397  0.323397  0.670102  1
  As  As3  1  0.338997  0.338997  0.254044  1
  As  As4  1  0.661003  0.661003  0.745956  1
  As  As5  1  0.893219  0.893219  0.821079  1
  As  As6  1  0.106781  0.106781  0.178921  1
  Pd  Pd7  1  0.305482  0.305482  0.026920  1
  Pd  Pd8  1  0.694518  0.694518  0.973080  1
  Pd  Pd9  1  0.512574  0.512574  0.704302  1
  Pd  Pd10  1  0.831612  0.831612  0.429347  1
  Pd  Pd11  1  0.487426  0.487426  0.295698  1
  Pd  Pd12  1  0.168388  0.168388  0.570653  1
  Pd  Pd13  1  0.000000  0.000000  0.500000  1
