# generated using pymatgen
data_SmY3HgRh
_symmetry_space_group_name_H-M   'P 1'
_cell_length_a   9.67764885
_cell_length_b   9.67764941
_cell_length_c   9.67765000
_cell_angle_alpha   60.00000483
_cell_angle_beta   60.00000291
_cell_angle_gamma   60.00000189
_symmetry_Int_Tables_number   1
_chemical_formula_structural   SmY3HgRh
_chemical_formula_sum   'Sm4 Y12 Hg4 Rh4'
_cell_volume   640.90652071
_cell_formula_units_Z   4
loop_
 _symmetry_equiv_pos_site_id
 _symmetry_equiv_pos_as_xyz
  1  'x, y, z'
loop_
 _atom_site_type_symbol
 _atom_site_label
 _atom_site_symmetry_multiplicity
 _atom_site_fract_x
 _atom_site_fract_y
 _atom_site_fract_z
 _atom_site_occupancy
  Sm  Sm0  1  0.602009  0.602009  0.602009  1
  Sm  Sm1  1  0.602009  0.602009  0.193973  1
  Sm  Sm2  1  0.602009  0.193973  0.602009  1
  Sm  Sm3  1  0.193973  0.602009  0.602009  1
  Y  Y4  1  0.061209  0.438791  0.438791  1
  Y  Y5  1  0.438791  0.061209  0.061209  1
  Y  Y6  1  0.438791  0.061209  0.438791  1
  Y  Y7  1  0.061209  0.438791  0.061209  1
  Y  Y8  1  0.438791  0.438791  0.061209  1
  Y  Y9  1  0.061209  0.061209  0.438791  1
  Y  Y10  1  0.186372  0.813628  0.813628  1
  Y  Y11  1  0.813628  0.186372  0.186372  1
  Y  Y12  1  0.813628  0.186372  0.813628  1
  Y  Y13  1  0.186372  0.813628  0.186372  1
  Y  Y14  1  0.813628  0.813628  0.186372  1
  Y  Y15  1  0.186372  0.186372  0.813628  1
  Hg  Hg16  1  0.835340  0.835340  0.835340  1
  Hg  Hg17  1  0.835340  0.835340  0.493980  1
  Hg  Hg18  1  0.835340  0.493980  0.835340  1
  Hg  Hg19  1  0.493980  0.835340  0.835340  1
  Rh  Rh20  1  0.392047  0.392047  0.392047  1
  Rh  Rh21  1  0.392047  0.392047  0.823859  1
  Rh  Rh22  1  0.392047  0.823859  0.392047  1
  Rh  Rh23  1  0.823859  0.392047  0.392047  1
