# generated using pymatgen
data_Ho5CdIn2HgPd2
_symmetry_space_group_name_H-M   'P 1'
_cell_length_a   3.60885900
_cell_length_b   8.03599300
_cell_length_c   18.32316400
_cell_angle_alpha   90.00240407
_cell_angle_beta   90.00000000
_cell_angle_gamma   90.00000000
_symmetry_Int_Tables_number   1
_chemical_formula_structural   Ho5CdIn2HgPd2
_chemical_formula_sum   'Ho10 Cd2 In4 Hg2 Pd4'
_cell_volume   531.38578512
_cell_formula_units_Z   2
loop_
 _symmetry_equiv_pos_site_id
 _symmetry_equiv_pos_as_xyz
  1  'x, y, z'
loop_
 _atom_site_type_symbol
 _atom_site_label
 _atom_site_symmetry_multiplicity
 _atom_site_fract_x
 _atom_site_fract_y
 _atom_site_fract_z
 _atom_site_occupancy
  Ho  Ho0  1  0.000000  0.500000  0.500000  1
  Ho  Ho1  1  0.000000  0.000000  0.000000  1
  Ho  Ho2  1  0.000000  0.743694  0.283725  1
  Ho  Ho3  1  0.000000  0.256306  0.716275  1
  Ho  Ho4  1  0.000000  0.755771  0.782225  1
  Ho  Ho5  1  0.000000  0.244229  0.217775  1
  Ho  Ho6  1  0.000000  0.612708  0.084113  1
  Ho  Ho7  1  0.000000  0.387292  0.915887  1
  Ho  Ho8  1  0.000000  0.890937  0.583404  1
  Ho  Ho9  1  0.000000  0.109063  0.416596  1
  Cd  Cd10  1  0.500000  0.710520  0.932118  1
  Cd  Cd11  1  0.500000  0.289480  0.067882  1
  In  In12  1  0.500000  0.579064  0.648289  1
  In  In13  1  0.500000  0.420936  0.351711  1
  In  In14  1  0.500000  0.923343  0.148121  1
  In  In15  1  0.500000  0.076657  0.851879  1
  Hg  Hg16  1  0.500000  0.786823  0.433134  1
  Hg  Hg17  1  0.500000  0.213177  0.566866  1
  Pd  Pd18  1  0.500000  0.528827  0.197372  1
  Pd  Pd19  1  0.500000  0.471173  0.802628  1
  Pd  Pd20  1  0.500000  0.970304  0.697632  1
  Pd  Pd21  1  0.500000  0.029696  0.302368  1
