# generated using pymatgen
data_Y10BiPb7
_symmetry_space_group_name_H-M   'P 1'
_cell_length_a   8.26440507
_cell_length_b   15.62839762
_cell_length_c   8.32053500
_cell_angle_alpha   90.02600755
_cell_angle_beta   89.99265812
_cell_angle_gamma   89.99854421
_symmetry_Int_Tables_number   1
_chemical_formula_structural   Y10BiPb7
_chemical_formula_sum   'Y20 Bi2 Pb14'
_cell_volume   1074.67525873
_cell_formula_units_Z   2
loop_
 _symmetry_equiv_pos_site_id
 _symmetry_equiv_pos_as_xyz
  1  'x, y, z'
loop_
 _atom_site_type_symbol
 _atom_site_label
 _atom_site_symmetry_multiplicity
 _atom_site_fract_x
 _atom_site_fract_y
 _atom_site_fract_z
 _atom_site_occupancy
  Y  Y0  1  0.621482  0.621677  0.159688  1
  Y  Y1  1  0.121430  0.878216  0.340130  1
  Y  Y2  1  0.378352  0.121789  0.844428  1
  Y  Y3  1  0.878263  0.378136  0.655725  1
  Y  Y4  1  0.374212  0.378436  0.841142  1
  Y  Y5  1  0.874121  0.121575  0.659038  1
  Y  Y6  1  0.623071  0.878687  0.157993  1
  Y  Y7  1  0.123064  0.621438  0.341807  1
  Y  Y8  1  0.458238  0.602926  0.670180  1
  Y  Y9  1  0.958215  0.897231  0.829742  1
  Y  Y10  1  0.542935  0.102806  0.324324  1
  Y  Y11  1  0.042866  0.397180  0.175576  1
  Y  Y12  1  0.538257  0.398208  0.329437  1
  Y  Y13  1  0.038103  0.101815  0.170488  1
  Y  Y14  1  0.464249  0.897616  0.676236  1
  Y  Y15  1  0.964240  0.602319  0.823720  1
  Y  Y16  1  0.791622  0.750370  0.497996  1
  Y  Y17  1  0.291588  0.749691  0.001830  1
  Y  Y18  1  0.208554  0.251366  0.501766  1
  Y  Y19  1  0.708579  0.248496  0.998145  1
  Bi  Bi20  1  0.721506  0.455511  0.970181  1
  Bi  Bi21  1  0.221411  0.044294  0.530166  1
  Pb  Pb22  1  0.279595  0.956917  0.031614  1
  Pb  Pb23  1  0.779699  0.543092  0.468414  1
  Pb  Pb24  1  0.279204  0.542964  0.031895  1
  Pb  Pb25  1  0.779259  0.957091  0.468051  1
  Pb  Pb26  1  0.718927  0.043127  0.968008  1
  Pb  Pb27  1  0.218998  0.457002  0.532341  1
  Pb  Pb28  1  0.428039  0.751017  0.372996  1
  Pb  Pb29  1  0.927994  0.748898  0.126887  1
  Pb  Pb30  1  0.570827  0.250125  0.627479  1
  Pb  Pb31  1  0.070746  0.249908  0.872766  1
  Pb  Pb32  1  0.650403  0.748988  0.847023  1
  Pb  Pb33  1  0.150253  0.751009  0.652923  1
  Pb  Pb34  1  0.351045  0.250318  0.153586  1
  Pb  Pb35  1  0.850656  0.249760  0.346283  1
