# generated using pymatgen
data_LaPr15(MgIr)4
_symmetry_space_group_name_H-M   'P 1'
_cell_length_a   10.11144422
_cell_length_b   10.11144399
_cell_length_c   10.11144491
_cell_angle_alpha   59.96022127
_cell_angle_beta   59.96022230
_cell_angle_gamma   59.96022228
_symmetry_Int_Tables_number   1
_chemical_formula_structural   LaPr15(MgIr)4
_chemical_formula_sum   'La1 Pr15 Mg4 Ir4'
_cell_volume   730.35270528
_cell_formula_units_Z   1
loop_
 _symmetry_equiv_pos_site_id
 _symmetry_equiv_pos_as_xyz
  1  'x, y, z'
loop_
 _atom_site_type_symbol
 _atom_site_label
 _atom_site_symmetry_multiplicity
 _atom_site_fract_x
 _atom_site_fract_y
 _atom_site_fract_z
 _atom_site_occupancy
  La  La0  1  0.344765  0.344765  0.344765  1
  Pr  Pr1  1  0.347323  0.347323  0.959021  1
  Pr  Pr2  1  0.347323  0.959021  0.347323  1
  Pr  Pr3  1  0.959021  0.347323  0.347323  1
  Pr  Pr4  1  0.812030  0.188285  0.188285  1
  Pr  Pr5  1  0.187905  0.810597  0.810597  1
  Pr  Pr6  1  0.188285  0.812030  0.188285  1
  Pr  Pr7  1  0.810597  0.187905  0.810597  1
  Pr  Pr8  1  0.188285  0.188285  0.812030  1
  Pr  Pr9  1  0.810597  0.810597  0.187905  1
  Pr  Pr10  1  0.938956  0.561927  0.561927  1
  Pr  Pr11  1  0.558784  0.939457  0.939457  1
  Pr  Pr12  1  0.561927  0.938956  0.561927  1
  Pr  Pr13  1  0.939457  0.558784  0.939457  1
  Pr  Pr14  1  0.561927  0.561927  0.938956  1
  Pr  Pr15  1  0.939457  0.939457  0.558784  1
  Mg  Mg16  1  0.578828  0.578828  0.578828  1
  Mg  Mg17  1  0.579188  0.579188  0.262240  1
  Mg  Mg18  1  0.579188  0.262240  0.579188  1
  Mg  Mg19  1  0.262240  0.579188  0.579188  1
  Ir  Ir20  1  0.141993  0.141993  0.141993  1
  Ir  Ir21  1  0.143291  0.143291  0.575345  1
  Ir  Ir22  1  0.143291  0.575345  0.143291  1
  Ir  Ir23  1  0.575345  0.143291  0.143291  1
