# generated using pymatgen
data_Tb2Ho4Al24GaRu7
_symmetry_space_group_name_H-M   'P 1'
_cell_length_a   8.84781622
_cell_length_b   8.84526113
_cell_length_c   9.54764536
_cell_angle_alpha   90.13122560
_cell_angle_beta   89.82192634
_cell_angle_gamma   119.87779076
_symmetry_Int_Tables_number   1
_chemical_formula_structural   Tb2Ho4Al24GaRu7
_chemical_formula_sum   'Tb2 Ho4 Al24 Ga1 Ru7'
_cell_volume   647.89541500
_cell_formula_units_Z   1
loop_
 _symmetry_equiv_pos_site_id
 _symmetry_equiv_pos_as_xyz
  1  'x, y, z'
loop_
 _atom_site_type_symbol
 _atom_site_label
 _atom_site_symmetry_multiplicity
 _atom_site_fract_x
 _atom_site_fract_y
 _atom_site_fract_z
 _atom_site_occupancy
  Tb  Tb0  1  0.193126  0.384775  0.245704  1
  Tb  Tb1  1  0.806874  0.615225  0.754296  1
  Ho  Ho2  1  0.614630  0.807012  0.246067  1
  Ho  Ho3  1  0.385370  0.192988  0.753933  1
  Ho  Ho4  1  0.194217  0.805734  0.255033  1
  Ho  Ho5  1  0.805783  0.194266  0.744967  1
  Al  Al6  1  0.327017  0.673476  0.020968  1
  Al  Al7  1  0.672983  0.326524  0.979032  1
  Al  Al8  1  0.666136  0.333438  0.516972  1
  Al  Al9  1  0.333864  0.666562  0.483028  1
  Al  Al10  1  0.161811  0.324103  0.574897  1
  Al  Al11  1  0.838189  0.675897  0.425103  1
  Al  Al12  1  0.675835  0.838316  0.574618  1
  Al  Al13  1  0.853424  0.679556  0.082732  1
  Al  Al14  1  0.324165  0.161684  0.425382  1
  Al  Al15  1  0.146576  0.320444  0.917268  1
  Al  Al16  1  0.162614  0.837725  0.578622  1
  Al  Al17  1  0.320492  0.146349  0.082336  1
  Al  Al18  1  0.837386  0.162275  0.421378  1
  Al  Al19  1  0.679508  0.853651  0.917664  1
  Al  Al20  1  0.837295  0.162172  0.079089  1
  Al  Al21  1  0.162705  0.837828  0.920911  1
  Al  Al22  1  0.561422  0.120461  0.248874  1
  Al  Al23  1  0.438578  0.879539  0.751126  1
  Al  Al24  1  0.879113  0.438672  0.248939  1
  Al  Al25  1  0.120887  0.561328  0.751061  1
  Al  Al26  1  0.565921  0.434688  0.258580  1
  Al  Al27  1  0.434079  0.565312  0.741420  1
  Al  Al28  1  0.998615  0.000536  0.250678  1
  Al  Al29  1  0.001385  0.999464  0.749322  1
  Ga  Ga30  1  0.500000  0.500000  0.000000  1
  Ru  Ru31  1  0.500000  0.000000  0.000000  1
  Ru  Ru32  1  0.000000  0.500000  0.000000  1
  Ru  Ru33  1  0.500000  0.000000  0.500000  1
  Ru  Ru34  1  0.000000  0.500000  0.500000  1
  Ru  Ru35  1  0.500000  0.500000  0.500000  1
  Ru  Ru36  1  0.000000  0.000000  0.000000  1
  Ru  Ru37  1  0.000000  0.000000  0.500000  1
