# generated using pymatgen
data_Tm4HgPt
_symmetry_space_group_name_H-M   'P 1'
_cell_length_a   9.51482821
_cell_length_b   9.51482831
_cell_length_c   9.51482800
_cell_angle_alpha   60.00000108
_cell_angle_beta   60.00000072
_cell_angle_gamma   60.00000285
_symmetry_Int_Tables_number   1
_chemical_formula_structural   Tm4HgPt
_chemical_formula_sum   'Tm16 Hg4 Pt4'
_cell_volume   609.09897245
_cell_formula_units_Z   4
loop_
 _symmetry_equiv_pos_site_id
 _symmetry_equiv_pos_as_xyz
  1  'x, y, z'
loop_
 _atom_site_type_symbol
 _atom_site_label
 _atom_site_symmetry_multiplicity
 _atom_site_fract_x
 _atom_site_fract_y
 _atom_site_fract_z
 _atom_site_occupancy
  Tm  Tm0  1  0.355189  0.355189  0.355189  1
  Tm  Tm1  1  0.355189  0.355189  0.934433  1
  Tm  Tm2  1  0.355189  0.934433  0.355189  1
  Tm  Tm3  1  0.934433  0.355189  0.355189  1
  Tm  Tm4  1  0.810474  0.189526  0.189526  1
  Tm  Tm5  1  0.189526  0.810474  0.810474  1
  Tm  Tm6  1  0.189526  0.810474  0.189526  1
  Tm  Tm7  1  0.810474  0.189526  0.810474  1
  Tm  Tm8  1  0.189526  0.189526  0.810474  1
  Tm  Tm9  1  0.810474  0.810474  0.189526  1
  Tm  Tm10  1  0.935977  0.564023  0.564023  1
  Tm  Tm11  1  0.564023  0.935977  0.935977  1
  Tm  Tm12  1  0.564023  0.935977  0.564023  1
  Tm  Tm13  1  0.935977  0.564023  0.935977  1
  Tm  Tm14  1  0.564023  0.564023  0.935977  1
  Tm  Tm15  1  0.935977  0.935977  0.564023  1
  Hg  Hg16  1  0.586622  0.586622  0.586622  1
  Hg  Hg17  1  0.586622  0.586622  0.240133  1
  Hg  Hg18  1  0.586622  0.240133  0.586622  1
  Hg  Hg19  1  0.240133  0.586622  0.586622  1
  Pt  Pt20  1  0.144175  0.144175  0.144175  1
  Pt  Pt21  1  0.144175  0.144175  0.567476  1
  Pt  Pt22  1  0.144175  0.567476  0.144175  1
  Pt  Pt23  1  0.567476  0.144175  0.144175  1
