# generated using pymatgen
data_Hf3Al3ZnCuNi
_symmetry_space_group_name_H-M   'P 1'
_cell_length_a   6.50236700
_cell_length_b   6.50236761
_cell_length_c   4.00720100
_cell_angle_alpha   90.00000000
_cell_angle_beta   90.00000000
_cell_angle_gamma   119.99999181
_symmetry_Int_Tables_number   1
_chemical_formula_structural   Hf3Al3ZnCuNi
_chemical_formula_sum   'Hf3 Al3 Zn1 Cu1 Ni1'
_cell_volume   146.72860585
_cell_formula_units_Z   1
loop_
 _symmetry_equiv_pos_site_id
 _symmetry_equiv_pos_as_xyz
  1  'x, y, z'
loop_
 _atom_site_type_symbol
 _atom_site_label
 _atom_site_symmetry_multiplicity
 _atom_site_fract_x
 _atom_site_fract_y
 _atom_site_fract_z
 _atom_site_occupancy
  Hf  Hf0  1  0.407957  0.413860  0.500000  1
  Hf  Hf1  1  0.586140  0.994097  0.500000  1
  Hf  Hf2  1  0.005903  0.592043  0.500000  1
  Al  Al3  1  0.755112  0.760813  0.000000  1
  Al  Al4  1  0.239187  0.994299  0.000000  1
  Al  Al5  1  0.005701  0.244888  0.000000  1
  Zn  Zn6  1  0.666667  0.333333  0.000000  1
  Cu  Cu7  1  0.333333  0.666667  0.000000  1
  Ni  Ni8  1  0.000000  0.000000  0.500000  1
