# generated using pymatgen
data_HoZnCdCu3
_symmetry_space_group_name_H-M   'P 1'
_cell_length_a   5.17229177
_cell_length_b   5.17229138
_cell_length_c   5.11707676
_cell_angle_alpha   59.64241332
_cell_angle_beta   59.64240876
_cell_angle_gamma   59.99999650
_symmetry_Int_Tables_number   1
_chemical_formula_structural   HoZnCdCu3
_chemical_formula_sum   'Ho1 Zn1 Cd1 Cu3'
_cell_volume   96.27295657
_cell_formula_units_Z   1
loop_
 _symmetry_equiv_pos_site_id
 _symmetry_equiv_pos_as_xyz
  1  'x, y, z'
loop_
 _atom_site_type_symbol
 _atom_site_label
 _atom_site_symmetry_multiplicity
 _atom_site_fract_x
 _atom_site_fract_y
 _atom_site_fract_z
 _atom_site_occupancy
  Ho  Ho0  1  0.751587  0.751587  0.745240  1
  Zn  Zn1  1  0.373095  0.373095  0.880715  1
  Cd  Cd2  1  0.001177  0.001177  0.996470  1
  Cu  Cu3  1  0.374809  0.874524  0.375858  1
  Cu  Cu4  1  0.374809  0.374809  0.375858  1
  Cu  Cu5  1  0.874524  0.374809  0.375858  1
