# generated using pymatgen
data_SrTb5HoCoI12
_symmetry_space_group_name_H-M   'P 1'
_cell_length_a   9.77652774
_cell_length_b   9.82852882
_cell_length_c   9.81642777
_cell_angle_alpha   106.18483075
_cell_angle_beta   106.32284055
_cell_angle_gamma   106.33392866
_symmetry_Int_Tables_number   1
_chemical_formula_structural   SrTb5HoCoI12
_chemical_formula_sum   'Sr1 Tb5 Ho1 Co1 I12'
_cell_volume   800.46312877
_cell_formula_units_Z   1
loop_
 _symmetry_equiv_pos_site_id
 _symmetry_equiv_pos_as_xyz
  1  'x, y, z'
loop_
 _atom_site_type_symbol
 _atom_site_label
 _atom_site_symmetry_multiplicity
 _atom_site_fract_x
 _atom_site_fract_y
 _atom_site_fract_z
 _atom_site_occupancy
  Sr  Sr0  1  0.499923  0.500004  0.500093  1
  Tb  Tb1  1  0.092001  0.292341  0.019711  1
  Tb  Tb2  1  0.278390  0.018313  0.088219  1
  Tb  Tb3  1  0.980965  0.907167  0.706847  1
  Tb  Tb4  1  0.908023  0.707786  0.980564  1
  Tb  Tb5  1  0.721747  0.981955  0.912677  1
  Ho  Ho6  1  0.019017  0.092032  0.290043  1
  Co  Co7  1  0.000115  0.000003  0.999922  1
  I  I8  1  0.133473  0.445603  0.367213  1
  I  I9  1  0.447894  0.365868  0.136103  1
  I  I10  1  0.366215  0.135310  0.445985  1
  I  I11  1  0.865559  0.552324  0.633069  1
  I  I12  1  0.552167  0.634158  0.864092  1
  I  I13  1  0.631900  0.864641  0.554135  1
  I  I14  1  0.679879  0.073133  0.222742  1
  I  I15  1  0.073327  0.222768  0.676809  1
  I  I16  1  0.225425  0.679534  0.074479  1
  I  I17  1  0.322298  0.927355  0.778847  1
  I  I18  1  0.927092  0.779225  0.322750  1
  I  I19  1  0.774592  0.320478  0.925699  1
