# generated using pymatgen
data_TbEr2Pa(Al3Ir)6
_symmetry_space_group_name_H-M   'P 1'
_cell_length_a   7.57938900
_cell_length_b   7.57374782
_cell_length_c   9.42653800
_cell_angle_alpha   90.00000000
_cell_angle_beta   90.00000000
_cell_angle_gamma   119.58704375
_symmetry_Int_Tables_number   1
_chemical_formula_structural   TbEr2Pa(Al3Ir)6
_chemical_formula_sum   'Tb1 Er2 Pa1 Al18 Ir6'
_cell_volume   470.56550558
_cell_formula_units_Z   1
loop_
 _symmetry_equiv_pos_site_id
 _symmetry_equiv_pos_as_xyz
  1  'x, y, z'
loop_
 _atom_site_type_symbol
 _atom_site_label
 _atom_site_symmetry_multiplicity
 _atom_site_fract_x
 _atom_site_fract_y
 _atom_site_fract_z
 _atom_site_occupancy
  Tb  Tb0  1  0.329261  0.004323  0.750000  1
  Er  Er1  1  0.004947  0.329063  0.750000  1
  Er  Er2  1  0.672735  0.994659  0.250000  1
  Pa  Pa3  1  0.995990  0.671839  0.250000  1
  Al  Al4  1  0.131999  0.130877  0.250000  1
  Al  Al5  1  0.872208  0.874033  0.750000  1
  Al  Al6  1  0.000653  0.332071  0.074841  1
  Al  Al7  1  0.998767  0.664177  0.921247  1
  Al  Al8  1  0.998767  0.664177  0.578753  1
  Al  Al9  1  0.339099  0.004022  0.424664  1
  Al  Al10  1  0.000653  0.332071  0.425159  1
  Al  Al11  1  0.665554  0.000198  0.575407  1
  Al  Al12  1  0.665554  0.000198  0.924593  1
  Al  Al13  1  0.339099  0.004022  0.075336  1
  Al  Al14  1  0.332233  0.332658  0.554597  1
  Al  Al15  1  0.663035  0.665906  0.448745  1
  Al  Al16  1  0.663035  0.665906  0.051255  1
  Al  Al17  1  0.332233  0.332658  0.945403  1
  Al  Al18  1  0.339481  0.547308  0.250000  1
  Al  Al19  1  0.659392  0.449989  0.750000  1
  Al  Al20  1  0.547216  0.342453  0.250000  1
  Al  Al21  1  0.450526  0.660311  0.750000  1
  Ir  Ir22  1  0.674119  0.329904  0.002205  1
  Ir  Ir23  1  0.325811  0.671946  0.002214  1
  Ir  Ir24  1  0.325811  0.671946  0.497786  1
  Ir  Ir25  1  0.674119  0.329904  0.497795  1
  Ir  Ir26  1  0.998851  0.996689  0.003424  1
  Ir  Ir27  1  0.998851  0.996689  0.496576  1
