# generated using pymatgen
data_NbSiNi3Rh
_symmetry_space_group_name_H-M   'P 1'
_cell_length_a   4.78727855
_cell_length_b   4.78727787
_cell_length_c   4.66257720
_cell_angle_alpha   59.11126469
_cell_angle_beta   59.11127024
_cell_angle_gamma   60.00000181
_symmetry_Int_Tables_number   1
_chemical_formula_structural   NbSiNi3Rh
_chemical_formula_sum   'Nb1 Si1 Ni3 Rh1'
_cell_volume   74.52841554
_cell_formula_units_Z   1
loop_
 _symmetry_equiv_pos_site_id
 _symmetry_equiv_pos_as_xyz
  1  'x, y, z'
loop_
 _atom_site_type_symbol
 _atom_site_label
 _atom_site_symmetry_multiplicity
 _atom_site_fract_x
 _atom_site_fract_y
 _atom_site_fract_z
 _atom_site_occupancy
  Nb  Nb0  1  0.001687  0.001687  0.994940  1
  Si  Si1  1  0.623285  0.623285  0.130146  1
  Ni  Ni2  1  0.624019  0.125491  0.626473  1
  Ni  Ni3  1  0.125491  0.624019  0.626473  1
  Ni  Ni4  1  0.624019  0.624019  0.626473  1
  Rh  Rh5  1  0.251501  0.251501  0.245497  1
