# generated using pymatgen
data_NdDy2(ZnPt)4
_symmetry_space_group_name_H-M   'P 1'
_cell_length_a   8.26278555
_cell_length_b   8.26278427
_cell_length_c   8.26278430
_cell_angle_alpha   151.80302013
_cell_angle_beta   125.51783552
_cell_angle_gamma   62.46536759
_symmetry_Int_Tables_number   1
_chemical_formula_structural   NdDy2(ZnPt)4
_chemical_formula_sum   'Nd1 Dy2 Zn4 Pt4'
_cell_volume   215.13614292
_cell_formula_units_Z   1
loop_
 _symmetry_equiv_pos_site_id
 _symmetry_equiv_pos_as_xyz
  1  'x, y, z'
loop_
 _atom_site_type_symbol
 _atom_site_label
 _atom_site_symmetry_multiplicity
 _atom_site_fract_x
 _atom_site_fract_y
 _atom_site_fract_z
 _atom_site_occupancy
  Nd  Nd0  1  0.500000  0.000000  0.500000  1
  Dy  Dy1  1  0.875689  0.875689  0.000000  1
  Dy  Dy2  1  0.124311  0.124311  0.000000  1
  Zn  Zn3  1  0.477342  0.674090  0.803252  1
  Zn  Zn4  1  0.870837  0.674090  0.196748  1
  Zn  Zn5  1  0.129163  0.325910  0.803252  1
  Zn  Zn6  1  0.522658  0.325910  0.196748  1
  Pt  Pt7  1  0.276168  0.776168  0.500000  1
  Pt  Pt8  1  0.723832  0.223832  0.500000  1
  Pt  Pt9  1  0.809463  0.500000  0.309463  1
  Pt  Pt10  1  0.190537  0.500000  0.690537  1
