# generated using pymatgen
data_LaPr11(OsAu)2
_symmetry_space_group_name_H-M   'P 1'
_cell_length_a   6.64952209
_cell_length_b   7.56075965
_cell_length_c   10.10211600
_cell_angle_alpha   90.00000000
_cell_angle_beta   90.00000000
_cell_angle_gamma   90.45019033
_symmetry_Int_Tables_number   1
_chemical_formula_structural   LaPr11(OsAu)2
_chemical_formula_sum   'La1 Pr11 Os2 Au2'
_cell_volume   507.87263210
_cell_formula_units_Z   1
loop_
 _symmetry_equiv_pos_site_id
 _symmetry_equiv_pos_as_xyz
  1  'x, y, z'
loop_
 _atom_site_type_symbol
 _atom_site_label
 _atom_site_symmetry_multiplicity
 _atom_site_fract_x
 _atom_site_fract_y
 _atom_site_fract_z
 _atom_site_occupancy
  La  La0  1  0.839960  0.519519  0.250000  1
  Pr  Pr1  1  0.337746  0.671672  0.060870  1
  Pr  Pr2  1  0.173294  0.189564  0.436564  1
  Pr  Pr3  1  0.661114  0.328904  0.563112  1
  Pr  Pr4  1  0.827066  0.810988  0.936782  1
  Pr  Pr5  1  0.661114  0.328904  0.936888  1
  Pr  Pr6  1  0.827066  0.810988  0.563218  1
  Pr  Pr7  1  0.337746  0.671672  0.439130  1
  Pr  Pr8  1  0.173294  0.189564  0.063436  1
  Pr  Pr9  1  0.625714  0.044454  0.250000  1
  Pr  Pr10  1  0.149800  0.479368  0.750000  1
  Pr  Pr11  1  0.376892  0.953929  0.750000  1
  Os  Os12  1  0.438427  0.383764  0.250000  1
  Os  Os13  1  0.566800  0.617401  0.750000  1
  Au  Au14  1  0.061635  0.884721  0.250000  1
  Au  Au15  1  0.942331  0.114590  0.750000  1
