# generated using pymatgen
data_Cs3CoBrCl4
_symmetry_space_group_name_H-M   'P 1'
_cell_length_a   9.43759600
_cell_length_b   10.70791100
_cell_length_c   13.66815600
_cell_angle_alpha   90.00000000
_cell_angle_beta   90.00000000
_cell_angle_gamma   90.00000000
_symmetry_Int_Tables_number   1
_chemical_formula_structural   Cs3CoBrCl4
_chemical_formula_sum   'Cs12 Co4 Br4 Cl16'
_cell_volume   1381.26199377
_cell_formula_units_Z   4
loop_
 _symmetry_equiv_pos_site_id
 _symmetry_equiv_pos_as_xyz
  1  'x, y, z'
loop_
 _atom_site_type_symbol
 _atom_site_label
 _atom_site_symmetry_multiplicity
 _atom_site_fract_x
 _atom_site_fract_y
 _atom_site_fract_z
 _atom_site_occupancy
  Cs  Cs0  1  0.896068  0.750000  0.470862  1
  Cs  Cs1  1  0.603932  0.750000  0.970862  1
  Cs  Cs2  1  0.103932  0.250000  0.529138  1
  Cs  Cs3  1  0.396068  0.250000  0.029138  1
  Cs  Cs4  1  0.583515  0.480835  0.674506  1
  Cs  Cs5  1  0.916485  0.019165  0.174506  1
  Cs  Cs6  1  0.416485  0.980835  0.325494  1
  Cs  Cs7  1  0.083515  0.519165  0.825494  1
  Cs  Cs8  1  0.416485  0.519165  0.325494  1
  Cs  Cs9  1  0.083515  0.980835  0.825494  1
  Cs  Cs10  1  0.583515  0.019165  0.674506  1
  Cs  Cs11  1  0.916485  0.480835  0.174506  1
  Co  Co12  1  0.308375  0.750000  0.602983  1
  Co  Co13  1  0.191625  0.750000  0.102983  1
  Co  Co14  1  0.691625  0.250000  0.397017  1
  Co  Co15  1  0.808375  0.250000  0.897017  1
  Br  Br16  1  0.676773  0.750000  0.232172  1
  Br  Br17  1  0.823227  0.750000  0.732172  1
  Br  Br18  1  0.323227  0.250000  0.767828  1
  Br  Br19  1  0.176773  0.250000  0.267828  1
  Cl  Cl20  1  0.801360  0.431676  0.432919  1
  Cl  Cl21  1  0.698640  0.068324  0.932919  1
  Cl  Cl22  1  0.198640  0.931676  0.567081  1
  Cl  Cl23  1  0.301360  0.568324  0.067081  1
  Cl  Cl24  1  0.198640  0.568324  0.567081  1
  Cl  Cl25  1  0.301360  0.931676  0.067081  1
  Cl  Cl26  1  0.801360  0.068324  0.432919  1
  Cl  Cl27  1  0.698640  0.431676  0.932919  1
  Cl  Cl28  1  0.148435  0.750000  0.266618  1
  Cl  Cl29  1  0.351565  0.750000  0.766618  1
  Cl  Cl30  1  0.851565  0.250000  0.733382  1
  Cl  Cl31  1  0.648435  0.250000  0.233382  1
  Cl  Cl32  1  0.508540  0.750000  0.511968  1
  Cl  Cl33  1  0.991460  0.750000  0.011968  1
  Cl  Cl34  1  0.491460  0.250000  0.488032  1
  Cl  Cl35  1  0.008540  0.250000  0.988032  1
