# generated using pymatgen
data_Ca8Mn3SiN12
_symmetry_space_group_name_H-M   'P 1'
_cell_length_a   5.89772107
_cell_length_b   5.89772044
_cell_length_c   11.55901808
_cell_angle_alpha   89.93891195
_cell_angle_beta   90.06108915
_cell_angle_gamma   125.26262372
_symmetry_Int_Tables_number   1
_chemical_formula_structural   Ca8Mn3SiN12
_chemical_formula_sum   'Ca8 Mn3 Si1 N12'
_cell_volume   328.28638887
_cell_formula_units_Z   1
loop_
 _symmetry_equiv_pos_site_id
 _symmetry_equiv_pos_as_xyz
  1  'x, y, z'
loop_
 _atom_site_type_symbol
 _atom_site_label
 _atom_site_symmetry_multiplicity
 _atom_site_fract_x
 _atom_site_fract_y
 _atom_site_fract_z
 _atom_site_occupancy
  Ca  Ca0  1  0.449029  0.550971  0.349661  1
  Ca  Ca1  1  0.550628  0.449372  0.643942  1
  Ca  Ca2  1  0.055309  0.944691  0.861342  1
  Ca  Ca3  1  0.954886  0.045114  0.143665  1
  Ca  Ca4  1  0.138916  0.861084  0.421777  1
  Ca  Ca5  1  0.860289  0.139711  0.575978  1
  Ca  Ca6  1  0.359603  0.640397  0.928082  1
  Ca  Ca7  1  0.636599  0.363401  0.079733  1
  Mn  Mn8  1  0.746410  0.253590  0.838979  1
  Mn  Mn9  1  0.245594  0.754406  0.659801  1
  Mn  Mn10  1  0.752124  0.247876  0.336338  1
  Si  Si11  1  0.257227  0.742773  0.158819  1
  N  N12  1  0.156434  0.843566  0.041627  1
  N  N13  1  0.842545  0.157455  0.960928  1
  N  N14  1  0.343178  0.656822  0.537470  1
  N  N15  1  0.658596  0.341404  0.460709  1
  N  N16  1  0.419923  0.580077  0.137200  1
  N  N17  1  0.580937  0.419063  0.864091  1
  N  N18  1  0.080044  0.919956  0.633421  1
  N  N19  1  0.915830  0.084170  0.364992  1
  N  N20  1  0.965701  0.545294  0.251147  1
  N  N21  1  0.537519  0.962027  0.749576  1
  N  N22  1  0.037973  0.462481  0.749576  1
  N  N23  1  0.454706  0.034299  0.251147  1
