# generated using pymatgen
data_Nb12OsPt3
_symmetry_space_group_name_H-M   'P 1'
_cell_length_a   5.20579400
_cell_length_b   5.20162700
_cell_length_c   10.41011600
_cell_angle_alpha   90.00000000
_cell_angle_beta   90.00000000
_cell_angle_gamma   90.00000000
_symmetry_Int_Tables_number   1
_chemical_formula_structural   Nb12OsPt3
_chemical_formula_sum   'Nb12 Os1 Pt3'
_cell_volume   281.89135282
_cell_formula_units_Z   1
loop_
 _symmetry_equiv_pos_site_id
 _symmetry_equiv_pos_as_xyz
  1  'x, y, z'
loop_
 _atom_site_type_symbol
 _atom_site_label
 _atom_site_symmetry_multiplicity
 _atom_site_fract_x
 _atom_site_fract_y
 _atom_site_fract_z
 _atom_site_occupancy
  Nb  Nb0  1  0.500000  0.000000  0.375943  1
  Nb  Nb1  1  0.500000  0.000000  0.875107  1
  Nb  Nb2  1  0.749324  0.500000  0.000000  1
  Nb  Nb3  1  0.752644  0.500000  0.500000  1
  Nb  Nb4  1  0.000000  0.751289  0.252728  1
  Nb  Nb5  1  0.000000  0.751289  0.747272  1
  Nb  Nb6  1  0.500000  0.000000  0.124893  1
  Nb  Nb7  1  0.500000  0.000000  0.624057  1
  Nb  Nb8  1  0.250676  0.500000  0.000000  1
  Nb  Nb9  1  0.247356  0.500000  0.500000  1
  Nb  Nb10  1  0.000000  0.248711  0.252728  1
  Nb  Nb11  1  0.000000  0.248711  0.747272  1
  Os  Os12  1  0.000000  0.000000  0.500000  1
  Pt  Pt13  1  0.500000  0.500000  0.249099  1
  Pt  Pt14  1  0.500000  0.500000  0.750901  1
  Pt  Pt15  1  0.000000  0.000000  0.000000  1
