# generated using pymatgen
data_Ho8Sc8In5GaCo2
_symmetry_space_group_name_H-M   'P 1'
_cell_length_a   9.84404500
_cell_length_b   9.83872995
_cell_length_c   6.97768402
_cell_angle_alpha   90.03139827
_cell_angle_beta   90.00000000
_cell_angle_gamma   120.01786176
_symmetry_Int_Tables_number   1
_chemical_formula_structural   Ho8Sc8In5GaCo2
_chemical_formula_sum   'Ho8 Sc8 In5 Ga1 Co2'
_cell_volume   585.16221949
_cell_formula_units_Z   1
loop_
 _symmetry_equiv_pos_site_id
 _symmetry_equiv_pos_as_xyz
  1  'x, y, z'
loop_
 _atom_site_type_symbol
 _atom_site_label
 _atom_site_symmetry_multiplicity
 _atom_site_fract_x
 _atom_site_fract_y
 _atom_site_fract_z
 _atom_site_occupancy
  Ho  Ho0  1  0.464499  0.531723  0.216318  1
  Ho  Ho1  1  0.067224  0.531723  0.216318  1
  Ho  Ho2  1  0.466748  0.933496  0.219650  1
  Ho  Ho3  1  0.542109  0.471988  0.715368  1
  Ho  Ho4  1  0.929879  0.471988  0.715368  1
  Ho  Ho5  1  0.532510  0.065020  0.715763  1
  Ho  Ho6  1  0.998792  0.997584  0.224702  1
  Ho  Ho7  1  0.996369  0.992738  0.721503  1
  Sc  Sc8  1  0.171579  0.816413  0.504483  1
  Sc  Sc9  1  0.644833  0.816413  0.504483  1
  Sc  Sc10  1  0.180150  0.360303  0.513506  1
  Sc  Sc11  1  0.819516  0.181035  0.009082  1
  Sc  Sc12  1  0.361521  0.181035  0.009082  1
  Sc  Sc13  1  0.820359  0.640715  0.026263  1
  Sc  Sc14  1  0.333289  0.666579  0.811725  1
  Sc  Sc15  1  0.669647  0.339292  0.319343  1
  In  In16  1  0.163585  0.835731  0.953790  1
  In  In17  1  0.672144  0.835731  0.953790  1
  In  In18  1  0.162793  0.325588  0.952379  1
  In  In19  1  0.836293  0.163479  0.455352  1
  In  In20  1  0.327188  0.163479  0.455352  1
  Ga  Ga21  1  0.837567  0.675133  0.452914  1
  Co  Co22  1  0.333510  0.667021  0.452385  1
  Co  Co23  1  0.667898  0.335794  0.955119  1
