# generated using pymatgen
data_Sm(Si2Ir3)2
_symmetry_space_group_name_H-M   'P 1'
_cell_length_a   7.05323900
_cell_length_b   7.05323912
_cell_length_c   3.86359900
_cell_angle_alpha   90.00000000
_cell_angle_beta   90.00000000
_cell_angle_gamma   120.00000414
_symmetry_Int_Tables_number   1
_chemical_formula_structural   Sm(Si2Ir3)2
_chemical_formula_sum   'Sm1 Si4 Ir6'
_cell_volume   166.45615795
_cell_formula_units_Z   1
loop_
 _symmetry_equiv_pos_site_id
 _symmetry_equiv_pos_as_xyz
  1  'x, y, z'
loop_
 _atom_site_type_symbol
 _atom_site_label
 _atom_site_symmetry_multiplicity
 _atom_site_fract_x
 _atom_site_fract_y
 _atom_site_fract_z
 _atom_site_occupancy
  Sm  Sm0  1  0.000000  0.000000  0.000000  1
  Si  Si1  1  0.333333  0.666667  0.000000  1
  Si  Si2  1  0.802250  0.604501  0.500000  1
  Si  Si3  1  0.395499  0.197750  0.500000  1
  Si  Si4  1  0.802250  0.197750  0.500000  1
  Ir  Ir5  1  0.532855  0.065708  0.000000  1
  Ir  Ir6  1  0.934292  0.467145  0.000000  1
  Ir  Ir7  1  0.532855  0.467145  0.000000  1
  Ir  Ir8  1  0.198471  0.396942  0.500000  1
  Ir  Ir9  1  0.603058  0.801529  0.500000  1
  Ir  Ir10  1  0.198471  0.801529  0.500000  1
