# generated using pymatgen
data_Tb5Pr3Cd2IrPd
_symmetry_space_group_name_H-M   'P 1'
_cell_length_a   9.82609004
_cell_length_b   9.82608931
_cell_length_c   9.83150500
_cell_angle_alpha   59.98176294
_cell_angle_beta   59.98176538
_cell_angle_gamma   60.26401202
_symmetry_Int_Tables_number   1
_chemical_formula_structural   Tb5Pr3Cd2IrPd
_chemical_formula_sum   'Tb10 Pr6 Cd4 Ir2 Pd2'
_cell_volume   672.36525025
_cell_formula_units_Z   2
loop_
 _symmetry_equiv_pos_site_id
 _symmetry_equiv_pos_as_xyz
  1  'x, y, z'
loop_
 _atom_site_type_symbol
 _atom_site_label
 _atom_site_symmetry_multiplicity
 _atom_site_fract_x
 _atom_site_fract_y
 _atom_site_fract_z
 _atom_site_occupancy
  Tb  Tb0  1  0.350211  0.350211  0.344277  1
  Tb  Tb1  1  0.350211  0.350211  0.955300  1
  Tb  Tb2  1  0.357607  0.945661  0.348365  1
  Tb  Tb3  1  0.945661  0.357607  0.348365  1
  Tb  Tb4  1  0.806931  0.188136  0.188015  1
  Tb  Tb5  1  0.188136  0.806931  0.816917  1
  Tb  Tb6  1  0.188136  0.806931  0.188015  1
  Tb  Tb7  1  0.806931  0.188136  0.816917  1
  Tb  Tb8  1  0.188898  0.188898  0.811102  1
  Tb  Tb9  1  0.813039  0.813039  0.186961  1
  Pr  Pr10  1  0.940830  0.562388  0.558454  1
  Pr  Pr11  1  0.562388  0.940830  0.938329  1
  Pr  Pr12  1  0.562388  0.940830  0.558454  1
  Pr  Pr13  1  0.940830  0.562388  0.938329  1
  Pr  Pr14  1  0.560752  0.560752  0.939248  1
  Pr  Pr15  1  0.940157  0.940157  0.559843  1
  Cd  Cd16  1  0.579711  0.579711  0.579943  1
  Cd  Cd17  1  0.579711  0.579711  0.260635  1
  Cd  Cd18  1  0.578636  0.262101  0.579631  1
  Cd  Cd19  1  0.262101  0.578636  0.579631  1
  Ir  Ir20  1  0.140720  0.572273  0.143504  1
  Ir  Ir21  1  0.572273  0.140720  0.143504  1
  Pd  Pd22  1  0.141871  0.141871  0.145493  1
  Pd  Pd23  1  0.141871  0.141871  0.570766  1
