# generated using pymatgen
data_Dy20Ir11Ru
_symmetry_space_group_name_H-M   'P 1'
_cell_length_a   10.86729100
_cell_length_b   10.86729100
_cell_length_c   6.39843000
_cell_angle_alpha   90.00000000
_cell_angle_beta   90.00000000
_cell_angle_gamma   90.00000000
_symmetry_Int_Tables_number   1
_chemical_formula_structural   Dy20Ir11Ru
_chemical_formula_sum   'Dy20 Ir11 Ru1'
_cell_volume   755.64187366
_cell_formula_units_Z   1
loop_
 _symmetry_equiv_pos_site_id
 _symmetry_equiv_pos_as_xyz
  1  'x, y, z'
loop_
 _atom_site_type_symbol
 _atom_site_label
 _atom_site_symmetry_multiplicity
 _atom_site_fract_x
 _atom_site_fract_y
 _atom_site_fract_z
 _atom_site_occupancy
  Dy  Dy0  1  0.292611  0.087508  0.377135  1
  Dy  Dy1  1  0.292827  0.912505  0.879777  1
  Dy  Dy2  1  0.707173  0.087495  0.879777  1
  Dy  Dy3  1  0.707389  0.912492  0.377135  1
  Dy  Dy4  1  0.587495  0.792827  0.879777  1
  Dy  Dy5  1  0.587508  0.207389  0.377135  1
  Dy  Dy6  1  0.412492  0.792611  0.377135  1
  Dy  Dy7  1  0.412505  0.207173  0.879777  1
  Dy  Dy8  1  0.208894  0.411583  0.621428  1
  Dy  Dy9  1  0.208893  0.588353  0.121266  1
  Dy  Dy10  1  0.791107  0.411647  0.121266  1
  Dy  Dy11  1  0.791106  0.588417  0.621428  1
  Dy  Dy12  1  0.911647  0.708893  0.121266  1
  Dy  Dy13  1  0.911583  0.291106  0.621428  1
  Dy  Dy14  1  0.088417  0.708894  0.621428  1
  Dy  Dy15  1  0.088353  0.291107  0.121266  1
  Dy  Dy16  1  0.000000  0.000000  0.499619  1
  Dy  Dy17  1  0.000000  0.000000  0.999594  1
  Dy  Dy18  1  0.500000  0.500000  0.999594  1
  Dy  Dy19  1  0.500000  0.500000  0.499619  1
  Ir  Ir20  1  0.847028  0.153713  0.250187  1
  Ir  Ir21  1  0.847177  0.846521  0.749946  1
  Ir  Ir22  1  0.152823  0.153479  0.749946  1
  Ir  Ir23  1  0.152972  0.846287  0.250187  1
  Ir  Ir24  1  0.653479  0.347177  0.749946  1
  Ir  Ir25  1  0.653713  0.652972  0.250187  1
  Ir  Ir26  1  0.346287  0.347028  0.250187  1
  Ir  Ir27  1  0.346521  0.652823  0.749946  1
  Ir  Ir28  1  0.500000  0.000000  0.624027  1
  Ir  Ir29  1  0.000000  0.500000  0.876944  1
  Ir  Ir30  1  0.000000  0.500000  0.377047  1
  Ru  Ru31  1  0.500000  0.000000  0.124602  1
