# generated using pymatgen
data_Mg2Ta3TiRu6
_symmetry_space_group_name_H-M   'P 1'
_cell_length_a   4.38896503
_cell_length_b   6.26089000
_cell_length_c   13.14942500
_cell_angle_alpha   90.00000000
_cell_angle_beta   89.99357718
_cell_angle_gamma   90.00000000
_symmetry_Int_Tables_number   1
_chemical_formula_structural   Mg2Ta3TiRu6
_chemical_formula_sum   'Mg4 Ta6 Ti2 Ru12'
_cell_volume   361.33077576
_cell_formula_units_Z   2
loop_
 _symmetry_equiv_pos_site_id
 _symmetry_equiv_pos_as_xyz
  1  'x, y, z'
loop_
 _atom_site_type_symbol
 _atom_site_label
 _atom_site_symmetry_multiplicity
 _atom_site_fract_x
 _atom_site_fract_y
 _atom_site_fract_z
 _atom_site_occupancy
  Mg  Mg0  1  0.999845  0.000000  0.334044  1
  Mg  Mg1  1  0.499997  0.500000  0.500517  1
  Mg  Mg2  1  0.000159  0.000000  0.666144  1
  Mg  Mg3  1  0.500144  0.500000  0.832607  1
  Ta  Ta4  1  0.999995  0.500000  0.995918  1
  Ta  Ta5  1  0.499880  0.000000  0.170784  1
  Ta  Ta6  1  0.999871  0.500000  0.339841  1
  Ta  Ta7  1  0.500013  0.000000  0.501035  1
  Ta  Ta8  1  0.000117  0.500000  0.665605  1
  Ta  Ta9  1  0.500121  0.000000  0.826820  1
  Ti  Ti10  1  0.999993  0.000000  0.997924  1
  Ti  Ti11  1  0.499874  0.500000  0.168752  1
  Ru  Ru12  1  0.499985  0.246282  0.003404  1
  Ru  Ru13  1  0.499985  0.753717  0.003404  1
  Ru  Ru14  1  0.999869  0.253701  0.163298  1
  Ru  Ru15  1  0.999869  0.746298  0.163298  1
  Ru  Ru16  1  0.499858  0.253837  0.328634  1
  Ru  Ru17  1  0.499858  0.746164  0.328634  1
  Ru  Ru18  1  0.000016  0.250347  0.499758  1
  Ru  Ru19  1  0.000016  0.749654  0.499758  1
  Ru  Ru20  1  0.500137  0.249614  0.666864  1
  Ru  Ru21  1  0.500137  0.750387  0.666864  1
  Ru  Ru22  1  0.000128  0.246187  0.838047  1
  Ru  Ru23  1  0.000128  0.753812  0.838047  1
