# generated using pymatgen
data_Ho16Co3Hg4Os
_symmetry_space_group_name_H-M   'P 1'
_cell_length_a   9.46604265
_cell_length_b   9.46604285
_cell_length_c   9.46604276
_cell_angle_alpha   59.59729756
_cell_angle_beta   59.59729777
_cell_angle_gamma   59.59729642
_symmetry_Int_Tables_number   1
_chemical_formula_structural   Ho16Co3Hg4Os
_chemical_formula_sum   'Ho16 Co3 Hg4 Os1'
_cell_volume   594.28796399
_cell_formula_units_Z   1
loop_
 _symmetry_equiv_pos_site_id
 _symmetry_equiv_pos_as_xyz
  1  'x, y, z'
loop_
 _atom_site_type_symbol
 _atom_site_label
 _atom_site_symmetry_multiplicity
 _atom_site_fract_x
 _atom_site_fract_y
 _atom_site_fract_z
 _atom_site_occupancy
  Ho  Ho0  1  0.346448  0.346448  0.346448  1
  Ho  Ho1  1  0.352076  0.352076  0.954857  1
  Ho  Ho2  1  0.352076  0.954857  0.352076  1
  Ho  Ho3  1  0.954857  0.352076  0.352076  1
  Ho  Ho4  1  0.806490  0.188410  0.188410  1
  Ho  Ho5  1  0.186488  0.810978  0.810978  1
  Ho  Ho6  1  0.188410  0.806490  0.188410  1
  Ho  Ho7  1  0.810978  0.186488  0.810978  1
  Ho  Ho8  1  0.188410  0.188410  0.806490  1
  Ho  Ho9  1  0.810978  0.810978  0.186488  1
  Ho  Ho10  1  0.938668  0.562385  0.562385  1
  Ho  Ho11  1  0.556238  0.940869  0.940869  1
  Ho  Ho12  1  0.562385  0.938668  0.562385  1
  Ho  Ho13  1  0.940869  0.556238  0.940869  1
  Ho  Ho14  1  0.562385  0.562385  0.938668  1
  Ho  Ho15  1  0.940869  0.940869  0.556238  1
  Co  Co16  1  0.142031  0.142031  0.578447  1
  Co  Co17  1  0.142031  0.578447  0.142031  1
  Co  Co18  1  0.578447  0.142031  0.142031  1
  Hg  Hg19  1  0.583587  0.583587  0.583587  1
  Hg  Hg20  1  0.583468  0.583468  0.246850  1
  Hg  Hg21  1  0.583468  0.246850  0.583468  1
  Hg  Hg22  1  0.246850  0.583468  0.583468  1
  Os  Os23  1  0.141492  0.141492  0.141492  1
