# generated using pymatgen
data_Tb8Sc11Si16W
_symmetry_space_group_name_H-M   'P 1'
_cell_length_a   7.05517303
_cell_length_b   7.36934607
_cell_length_c   13.92479500
_cell_angle_alpha   90.00000000
_cell_angle_beta   90.00000000
_cell_angle_gamma   90.22200042
_symmetry_Int_Tables_number   1
_chemical_formula_structural   Tb8Sc11Si16W
_chemical_formula_sum   'Tb8 Sc11 Si16 W1'
_cell_volume   723.97266902
_cell_formula_units_Z   1
loop_
 _symmetry_equiv_pos_site_id
 _symmetry_equiv_pos_as_xyz
  1  'x, y, z'
loop_
 _atom_site_type_symbol
 _atom_site_label
 _atom_site_symmetry_multiplicity
 _atom_site_fract_x
 _atom_site_fract_y
 _atom_site_fract_z
 _atom_site_occupancy
  Tb  Tb0  1  0.012617  0.176705  0.093811  1
  Tb  Tb1  1  0.992736  0.819972  0.900334  1
  Tb  Tb2  1  0.486878  0.672487  0.901253  1
  Tb  Tb3  1  0.992736  0.819972  0.599666  1
  Tb  Tb4  1  0.511702  0.323999  0.095394  1
  Tb  Tb5  1  0.012617  0.176705  0.406189  1
  Tb  Tb6  1  0.511702  0.323999  0.404606  1
  Tb  Tb7  1  0.486878  0.672487  0.598747  1
  Sc  Sc8  1  0.841590  0.496976  0.250000  1
  Sc  Sc9  1  0.341840  0.003114  0.250000  1
  Sc  Sc10  1  0.657874  0.996205  0.750000  1
  Sc  Sc11  1  0.326705  0.177390  0.627707  1
  Sc  Sc12  1  0.671913  0.824220  0.374640  1
  Sc  Sc13  1  0.172451  0.673905  0.376921  1
  Sc  Sc14  1  0.671913  0.824220  0.125360  1
  Sc  Sc15  1  0.826977  0.330374  0.628458  1
  Sc  Sc16  1  0.326705  0.177390  0.872293  1
  Sc  Sc17  1  0.826977  0.330374  0.871542  1
  Sc  Sc18  1  0.172451  0.673905  0.123079  1
  Si  Si19  1  0.030128  0.125797  0.750000  1
  Si  Si20  1  0.971783  0.884001  0.250000  1
  Si  Si21  1  0.468231  0.617024  0.250000  1
  Si  Si22  1  0.519429  0.392452  0.750000  1
  Si  Si23  1  0.284444  0.861980  0.750000  1
  Si  Si24  1  0.717261  0.127710  0.250000  1
  Si  Si25  1  0.214490  0.373103  0.250000  1
  Si  Si26  1  0.794568  0.626947  0.750000  1
  Si  Si27  1  0.153954  0.466065  0.549068  1
  Si  Si28  1  0.843879  0.536047  0.462920  1
  Si  Si29  1  0.346852  0.964471  0.462624  1
  Si  Si30  1  0.843879  0.536047  0.037080  1
  Si  Si31  1  0.657067  0.034530  0.539977  1
  Si  Si32  1  0.153954  0.466065  0.950932  1
  Si  Si33  1  0.657067  0.034530  0.960023  1
  Si  Si34  1  0.346852  0.964471  0.037376  1
  W  W35  1  0.150906  0.494361  0.750000  1
