# generated using pymatgen
data_Ho9ErCoNiSb4
_symmetry_space_group_name_H-M   'P 1'
_cell_length_a   7.85702800
_cell_length_b   8.73790810
_cell_length_c   12.12073713
_cell_angle_alpha   90.01702360
_cell_angle_beta   90.00000000
_cell_angle_gamma   90.00000000
_symmetry_Int_Tables_number   1
_chemical_formula_structural   Ho9ErCoNiSb4
_chemical_formula_sum   'Ho18 Er2 Co2 Ni2 Sb8'
_cell_volume   832.13691197
_cell_formula_units_Z   2
loop_
 _symmetry_equiv_pos_site_id
 _symmetry_equiv_pos_as_xyz
  1  'x, y, z'
loop_
 _atom_site_type_symbol
 _atom_site_label
 _atom_site_symmetry_multiplicity
 _atom_site_fract_x
 _atom_site_fract_y
 _atom_site_fract_z
 _atom_site_occupancy
  Ho  Ho0  1  0.155112  0.750084  0.203663  1
  Ho  Ho1  1  0.655112  0.249916  0.296337  1
  Ho  Ho2  1  0.842030  0.249905  0.793536  1
  Ho  Ho3  1  0.342030  0.750095  0.706464  1
  Ho  Ho4  1  0.454313  0.750092  0.999533  1
  Ho  Ho5  1  0.954313  0.249908  0.500467  1
  Ho  Ho6  1  0.544484  0.249731  0.001472  1
  Ho  Ho7  1  0.044484  0.750269  0.498528  1
  Ho  Ho8  1  0.626246  0.750147  0.303601  1
  Ho  Ho9  1  0.126246  0.249853  0.196399  1
  Ho  Ho10  1  0.375931  0.249818  0.693678  1
  Ho  Ho11  1  0.875931  0.750182  0.806322  1
  Ho  Ho12  1  0.179015  0.465455  0.934125  1
  Ho  Ho13  1  0.679015  0.534545  0.565875  1
  Ho  Ho14  1  0.178897  0.034322  0.934091  1
  Ho  Ho15  1  0.678897  0.965678  0.565909  1
  Ho  Ho16  1  0.822138  0.542231  0.064896  1
  Ho  Ho17  1  0.322138  0.457769  0.435104  1
  Er  Er18  1  0.822703  0.956745  0.065075  1
  Er  Er19  1  0.322703  0.043255  0.434925  1
  Co  Co20  1  0.567751  0.249894  0.510019  1
  Co  Co21  1  0.067751  0.750106  0.989981  1
  Ni  Ni22  1  0.432083  0.751704  0.489201  1
  Ni  Ni23  1  0.932083  0.248296  0.010799  1
  Sb  Sb24  1  0.929868  0.992068  0.326863  1
  Sb  Sb25  1  0.429868  0.007932  0.173137  1
  Sb  Sb26  1  0.069961  0.491744  0.672680  1
  Sb  Sb27  1  0.569961  0.508256  0.827320  1
  Sb  Sb28  1  0.069888  0.008327  0.672683  1
  Sb  Sb29  1  0.569888  0.991673  0.827317  1
  Sb  Sb30  1  0.929579  0.507985  0.326913  1
  Sb  Sb31  1  0.429579  0.492015  0.173087  1
