# generated using pymatgen
data_Ho4Er12MgCd3Ir4
_symmetry_space_group_name_H-M   'P 1'
_cell_length_a   9.60132055
_cell_length_b   9.60049267
_cell_length_c   9.60049214
_cell_angle_alpha   59.69115663
_cell_angle_beta   59.68358929
_cell_angle_gamma   59.68358745
_symmetry_Int_Tables_number   1
_chemical_formula_structural   Ho4Er12MgCd3Ir4
_chemical_formula_sum   'Ho4 Er12 Mg1 Cd3 Ir4'
_cell_volume   621.29109013
_cell_formula_units_Z   1
loop_
 _symmetry_equiv_pos_site_id
 _symmetry_equiv_pos_as_xyz
  1  'x, y, z'
loop_
 _atom_site_type_symbol
 _atom_site_label
 _atom_site_symmetry_multiplicity
 _atom_site_fract_x
 _atom_site_fract_y
 _atom_site_fract_z
 _atom_site_occupancy
  Ho  Ho0  1  0.812901  0.189190  0.812923  1
  Ho  Ho1  1  0.187691  0.812273  0.187701  1
  Ho  Ho2  1  0.812901  0.812923  0.189190  1
  Ho  Ho3  1  0.187691  0.187701  0.812273  1
  Er  Er4  1  0.599152  0.599139  0.599139  1
  Er  Er5  1  0.598459  0.598433  0.205469  1
  Er  Er6  1  0.598459  0.205469  0.598433  1
  Er  Er7  1  0.205391  0.598479  0.598479  1
  Er  Er8  1  0.059624  0.439573  0.439573  1
  Er  Er9  1  0.436919  0.061673  0.061673  1
  Er  Er10  1  0.439607  0.059637  0.439559  1
  Er  Er11  1  0.061660  0.436933  0.061621  1
  Er  Er12  1  0.439607  0.439559  0.059637  1
  Er  Er13  1  0.061660  0.061621  0.436933  1
  Er  Er14  1  0.189371  0.812811  0.812811  1
  Er  Er15  1  0.812188  0.187789  0.187789  1
  Mg  Mg16  1  0.826205  0.826131  0.826131  1
  Cd  Cd17  1  0.831178  0.831290  0.506012  1
  Cd  Cd18  1  0.831178  0.506012  0.831290  1
  Cd  Cd19  1  0.506003  0.831196  0.831196  1
  Ir  Ir20  1  0.391875  0.391783  0.391783  1
  Ir  Ir21  1  0.392619  0.392724  0.825024  1
  Ir  Ir22  1  0.392619  0.825024  0.392724  1
  Ir  Ir23  1  0.825044  0.392636  0.392636  1
