# generated using pymatgen
data_Sr2MnFeN4
_symmetry_space_group_name_H-M   'P 1'
_cell_length_a   7.57220300
_cell_length_b   5.80065597
_cell_length_c   5.91788257
_cell_angle_alpha   65.99603728
_cell_angle_beta   90.00000000
_cell_angle_gamma   90.00000000
_symmetry_Int_Tables_number   1
_chemical_formula_structural   Sr2MnFeN4
_chemical_formula_sum   'Sr4 Mn2 Fe2 N8'
_cell_volume   237.45563902
_cell_formula_units_Z   2
loop_
 _symmetry_equiv_pos_site_id
 _symmetry_equiv_pos_as_xyz
  1  'x, y, z'
loop_
 _atom_site_type_symbol
 _atom_site_label
 _atom_site_symmetry_multiplicity
 _atom_site_fract_x
 _atom_site_fract_y
 _atom_site_fract_z
 _atom_site_occupancy
  Sr  Sr0  1  0.073485  0.319177  0.324918  1
  Sr  Sr1  1  0.573485  0.180823  0.675082  1
  Sr  Sr2  1  0.922437  0.675987  0.682721  1
  Sr  Sr3  1  0.422437  0.824013  0.317279  1
  Mn  Mn4  1  0.366198  0.583327  0.900899  1
  Mn  Mn5  1  0.866198  0.916673  0.099101  1
  Fe  Fe6  1  0.634912  0.416912  0.098394  1
  Fe  Fe7  1  0.134912  0.083088  0.901606  1
  N  N8  1  0.079937  0.914198  0.243672  1
  N  N9  1  0.579937  0.585802  0.756328  1
  N  N10  1  0.911579  0.080607  0.763606  1
  N  N11  1  0.411579  0.419393  0.236394  1
  N  N12  1  0.710917  0.092600  0.172352  1
  N  N13  1  0.210917  0.407400  0.827648  1
  N  N14  1  0.300535  0.890103  0.830479  1
  N  N15  1  0.800535  0.609897  0.169521  1
