# generated using pymatgen
data_ThCoH6
_symmetry_space_group_name_H-M   'P 1'
_cell_length_a   4.46542343
_cell_length_b   4.46542359
_cell_length_c   4.46991496
_cell_angle_alpha   59.38915850
_cell_angle_beta   59.38914676
_cell_angle_gamma   59.39132685
_symmetry_Int_Tables_number   1
_chemical_formula_structural   ThCoH6
_chemical_formula_sum   'Th1 Co1 H6'
_cell_volume   62.14942441
_cell_formula_units_Z   1
loop_
 _symmetry_equiv_pos_site_id
 _symmetry_equiv_pos_as_xyz
  1  'x, y, z'
loop_
 _atom_site_type_symbol
 _atom_site_label
 _atom_site_symmetry_multiplicity
 _atom_site_fract_x
 _atom_site_fract_y
 _atom_site_fract_z
 _atom_site_occupancy
  Th  Th0  1  0.500000  0.500000  0.500000  1
  Co  Co1  1  0.000000  0.000000  0.000000  1
  H  H2  1  0.578452  0.098877  0.098616  1
  H  H3  1  0.098877  0.578452  0.098616  1
  H  H4  1  0.901456  0.901456  0.420923  1
  H  H5  1  0.098544  0.098544  0.579076  1
  H  H6  1  0.901123  0.421547  0.901384  1
  H  H7  1  0.421547  0.901123  0.901384  1
