# generated using pymatgen
data_Dy5In4PdRh
_symmetry_space_group_name_H-M   'P 1'
_cell_length_a   3.63461600
_cell_length_b   8.12307533
_cell_length_c   18.29797373
_cell_angle_alpha   89.96749042
_cell_angle_beta   90.00000000
_cell_angle_gamma   90.00000000
_symmetry_Int_Tables_number   1
_chemical_formula_structural   Dy5In4PdRh
_chemical_formula_sum   'Dy10 In8 Pd2 Rh2'
_cell_volume   540.23403891
_cell_formula_units_Z   2
loop_
 _symmetry_equiv_pos_site_id
 _symmetry_equiv_pos_as_xyz
  1  'x, y, z'
loop_
 _atom_site_type_symbol
 _atom_site_label
 _atom_site_symmetry_multiplicity
 _atom_site_fract_x
 _atom_site_fract_y
 _atom_site_fract_z
 _atom_site_occupancy
  Dy  Dy0  1  0.000000  0.500000  0.500000  1
  Dy  Dy1  1  0.000000  0.000000  0.000000  1
  Dy  Dy2  1  0.000000  0.734659  0.278011  1
  Dy  Dy3  1  0.000000  0.265341  0.721989  1
  Dy  Dy4  1  0.000000  0.747146  0.779709  1
  Dy  Dy5  1  0.000000  0.252854  0.220291  1
  Dy  Dy6  1  0.000000  0.614619  0.086477  1
  Dy  Dy7  1  0.000000  0.385381  0.913523  1
  Dy  Dy8  1  0.000000  0.882985  0.584705  1
  Dy  Dy9  1  0.000000  0.117015  0.415295  1
  In  In10  1  0.500000  0.709546  0.931351  1
  In  In11  1  0.500000  0.290454  0.068649  1
  In  In12  1  0.500000  0.790464  0.431421  1
  In  In13  1  0.500000  0.209536  0.568579  1
  In  In14  1  0.500000  0.575498  0.649497  1
  In  In15  1  0.500000  0.424502  0.350503  1
  In  In16  1  0.500000  0.924016  0.149608  1
  In  In17  1  0.500000  0.075984  0.850392  1
  Pd  Pd18  1  0.500000  0.977020  0.695971  1
  Pd  Pd19  1  0.500000  0.022980  0.304029  1
  Rh  Rh20  1  0.500000  0.522838  0.195002  1
  Rh  Rh21  1  0.500000  0.477162  0.804998  1
