# generated using pymatgen
data_Tb3Lu(Si2Os)2
_symmetry_space_group_name_H-M   'P 1'
_cell_length_a   5.71191608
_cell_length_b   5.71191626
_cell_length_c   10.02060868
_cell_angle_alpha   116.80400122
_cell_angle_beta   116.80400206
_cell_angle_gamma   43.35252335
_symmetry_Int_Tables_number   1
_chemical_formula_structural   Tb3Lu(Si2Os)2
_chemical_formula_sum   'Tb3 Lu1 Si4 Os2'
_cell_volume   196.23917710
_cell_formula_units_Z   1
loop_
 _symmetry_equiv_pos_site_id
 _symmetry_equiv_pos_as_xyz
  1  'x, y, z'
loop_
 _atom_site_type_symbol
 _atom_site_label
 _atom_site_symmetry_multiplicity
 _atom_site_fract_x
 _atom_site_fract_y
 _atom_site_fract_z
 _atom_site_occupancy
  Tb  Tb0  1  0.813318  0.813318  0.388119  1
  Tb  Tb1  1  0.186410  0.186410  0.610806  1
  Tb  Tb2  1  0.991688  0.991688  0.821201  1
  Lu  Lu3  1  0.005680  0.005680  0.176375  1
  Si  Si4  1  0.642877  0.642877  0.061429  1
  Si  Si5  1  0.504992  0.504992  0.373395  1
  Si  Si6  1  0.497916  0.497916  0.624365  1
  Si  Si7  1  0.356605  0.356605  0.940673  1
  Os  Os8  1  0.270933  0.270933  0.127873  1
  Os  Os9  1  0.729581  0.729581  0.875765  1
