# generated using pymatgen
data_Hf13Ga3(Rh2N)4
_symmetry_space_group_name_H-M   'P 1'
_cell_length_a   8.51477974
_cell_length_b   8.51477838
_cell_length_c   8.51478063
_cell_angle_alpha   60.54495583
_cell_angle_beta   60.54495899
_cell_angle_gamma   60.54496172
_symmetry_Int_Tables_number   1
_chemical_formula_structural   Hf13Ga3(Rh2N)4
_chemical_formula_sum   'Hf13 Ga3 Rh8 N4'
_cell_volume   441.89570850
_cell_formula_units_Z   1
loop_
 _symmetry_equiv_pos_site_id
 _symmetry_equiv_pos_as_xyz
  1  'x, y, z'
loop_
 _atom_site_type_symbol
 _atom_site_label
 _atom_site_symmetry_multiplicity
 _atom_site_fract_x
 _atom_site_fract_y
 _atom_site_fract_z
 _atom_site_occupancy
  Hf  Hf0  1  0.625000  0.625000  0.625000  1
  Hf  Hf1  1  0.811864  0.811864  0.183407  1
  Hf  Hf2  1  0.188277  0.188277  0.810736  1
  Hf  Hf3  1  0.811864  0.183407  0.811864  1
  Hf  Hf4  1  0.188277  0.810736  0.188277  1
  Hf  Hf5  1  0.183407  0.811864  0.811864  1
  Hf  Hf6  1  0.810736  0.188277  0.188277  1
  Hf  Hf7  1  0.438136  0.438136  0.066593  1
  Hf  Hf8  1  0.061723  0.061723  0.439264  1
  Hf  Hf9  1  0.438136  0.066593  0.438136  1
  Hf  Hf10  1  0.061723  0.439264  0.061723  1
  Hf  Hf11  1  0.066593  0.438136  0.438136  1
  Hf  Hf12  1  0.439264  0.061723  0.061723  1
  Ga  Ga13  1  0.125000  0.625000  0.625000  1
  Ga  Ga14  1  0.625000  0.125000  0.625000  1
  Ga  Ga15  1  0.625000  0.625000  0.125000  1
  Rh  Rh16  1  0.764106  0.411189  0.411189  1
  Rh  Rh17  1  0.411189  0.764106  0.411189  1
  Rh  Rh18  1  0.411189  0.411189  0.764106  1
  Rh  Rh19  1  0.414236  0.414236  0.414236  1
  Rh  Rh20  1  0.485894  0.838811  0.838811  1
  Rh  Rh21  1  0.838811  0.485894  0.838811  1
  Rh  Rh22  1  0.838811  0.838811  0.485894  1
  Rh  Rh23  1  0.835764  0.835764  0.835764  1
  N  N24  1  0.625000  0.125000  0.125000  1
  N  N25  1  0.125000  0.625000  0.125000  1
  N  N26  1  0.125000  0.125000  0.625000  1
  N  N27  1  0.125000  0.125000  0.125000  1
