# generated using pymatgen
data_CeThPt2Au
_symmetry_space_group_name_H-M   'P 1'
_cell_length_a   7.79192600
_cell_length_b   7.80431700
_cell_length_c   3.80718000
_cell_angle_alpha   90.00000000
_cell_angle_beta   90.00000000
_cell_angle_gamma   90.00000000
_symmetry_Int_Tables_number   1
_chemical_formula_structural   CeThPt2Au
_chemical_formula_sum   'Ce2 Th2 Pt4 Au2'
_cell_volume   231.51713061
_cell_formula_units_Z   2
loop_
 _symmetry_equiv_pos_site_id
 _symmetry_equiv_pos_as_xyz
  1  'x, y, z'
loop_
 _atom_site_type_symbol
 _atom_site_label
 _atom_site_symmetry_multiplicity
 _atom_site_fract_x
 _atom_site_fract_y
 _atom_site_fract_z
 _atom_site_occupancy
  Ce  Ce0  1  0.824360  0.673821  0.500000  1
  Ce  Ce1  1  0.675640  0.173821  0.500000  1
  Th  Th2  1  0.170658  0.325859  0.500000  1
  Th  Th3  1  0.329342  0.825859  0.500000  1
  Pt  Pt4  1  0.631231  0.870154  0.000000  1
  Pt  Pt5  1  0.129356  0.630125  0.000000  1
  Pt  Pt6  1  0.868769  0.370154  0.000000  1
  Pt  Pt7  1  0.370644  0.130125  0.000000  1
  Au  Au8  1  0.501418  0.500042  0.000000  1
  Au  Au9  1  0.998582  0.000042  0.000000  1
