# generated using pymatgen
data_ThMgSiIrPt
_symmetry_space_group_name_H-M   'P 1'
_cell_length_a   4.08720100
_cell_length_b   4.08720100
_cell_length_c   11.50600400
_cell_angle_alpha   90.00000000
_cell_angle_beta   90.00000000
_cell_angle_gamma   90.00000000
_symmetry_Int_Tables_number   1
_chemical_formula_structural   ThMgSiIrPt
_chemical_formula_sum   'Th2 Mg2 Si2 Ir2 Pt2'
_cell_volume   192.21023626
_cell_formula_units_Z   2
loop_
 _symmetry_equiv_pos_site_id
 _symmetry_equiv_pos_as_xyz
  1  'x, y, z'
loop_
 _atom_site_type_symbol
 _atom_site_label
 _atom_site_symmetry_multiplicity
 _atom_site_fract_x
 _atom_site_fract_y
 _atom_site_fract_z
 _atom_site_occupancy
  Th  Th0  1  0.000000  0.500000  0.225031  1
  Th  Th1  1  0.500000  0.000000  0.774969  1
  Mg  Mg2  1  0.000000  0.000000  0.500000  1
  Mg  Mg3  1  0.500000  0.500000  0.500000  1
  Si  Si4  1  0.000000  0.500000  0.885483  1
  Si  Si5  1  0.500000  0.000000  0.114517  1
  Ir  Ir6  1  0.000000  0.000000  0.000000  1
  Ir  Ir7  1  0.500000  0.500000  0.000000  1
  Pt  Pt8  1  0.000000  0.500000  0.670166  1
  Pt  Pt9  1  0.500000  0.000000  0.329834  1
