# generated using pymatgen
data_La20Ir7Ru4Pt
_symmetry_space_group_name_H-M   'P 1'
_cell_length_a   11.39638808
_cell_length_b   11.39649738
_cell_length_c   6.70607206
_cell_angle_alpha   90.07089223
_cell_angle_beta   90.07070490
_cell_angle_gamma   90.04273221
_symmetry_Int_Tables_number   1
_chemical_formula_structural   La20Ir7Ru4Pt
_chemical_formula_sum   'La20 Ir7 Ru4 Pt1'
_cell_volume   870.97573564
_cell_formula_units_Z   1
loop_
 _symmetry_equiv_pos_site_id
 _symmetry_equiv_pos_as_xyz
  1  'x, y, z'
loop_
 _atom_site_type_symbol
 _atom_site_label
 _atom_site_symmetry_multiplicity
 _atom_site_fract_x
 _atom_site_fract_y
 _atom_site_fract_z
 _atom_site_occupancy
  La  La0  1  0.293964  0.090106  0.389085  1
  La  La1  1  0.295031  0.909499  0.888963  1
  La  La2  1  0.702613  0.088684  0.882644  1
  La  La3  1  0.704402  0.907192  0.389762  1
  La  La4  1  0.589867  0.794008  0.889969  1
  La  La5  1  0.586717  0.205876  0.389686  1
  La  La6  1  0.409180  0.794422  0.389603  1
  La  La7  1  0.409482  0.205716  0.889596  1
  La  La8  1  0.206003  0.410144  0.610015  1
  La  La9  1  0.205571  0.590811  0.110412  1
  La  La10  1  0.794121  0.413279  0.110322  1
  La  La11  1  0.794293  0.590531  0.610402  1
  La  La12  1  0.909884  0.706030  0.110916  1
  La  La13  1  0.911317  0.297385  0.617366  1
  La  La14  1  0.090493  0.704979  0.611025  1
  La  La15  1  0.092815  0.295587  0.110243  1
  La  La16  1  0.002095  0.997975  0.501680  1
  La  La17  1  0.002031  0.997897  0.998312  1
  La  La18  1  0.499816  0.500103  0.999829  1
  La  La19  1  0.499894  0.500176  0.500162  1
  Ir  Ir20  1  0.847771  0.848109  0.749764  1
  Ir  Ir21  1  0.151891  0.152230  0.750229  1
  Ir  Ir22  1  0.152631  0.847370  0.250001  1
  Ir  Ir23  1  0.653277  0.346724  0.749999  1
  Ir  Ir24  1  0.652695  0.652441  0.249907  1
  Ir  Ir25  1  0.347561  0.347304  0.250091  1
  Ir  Ir26  1  0.347224  0.652774  0.749997  1
  Ru  Ru27  1  0.501002  0.000398  0.119055  1
  Ru  Ru28  1  0.500697  0.000516  0.618795  1
  Ru  Ru29  1  0.999480  0.499310  0.881202  1
  Ru  Ru30  1  0.999605  0.498998  0.380974  1
  Pt  Pt31  1  0.846574  0.153426  0.249996  1
