# generated using pymatgen
data_Er3Tm5Cd2CoIr
_symmetry_space_group_name_H-M   'P 1'
_cell_length_a   9.45272942
_cell_length_b   9.45272938
_cell_length_c   9.43392300
_cell_angle_alpha   60.06579446
_cell_angle_beta   60.06579459
_cell_angle_gamma   60.20967035
_symmetry_Int_Tables_number   1
_chemical_formula_structural   Er3Tm5Cd2CoIr
_chemical_formula_sum   'Er6 Tm10 Cd4 Co2 Ir2'
_cell_volume   597.59614730
_cell_formula_units_Z   2
loop_
 _symmetry_equiv_pos_site_id
 _symmetry_equiv_pos_as_xyz
  1  'x, y, z'
loop_
 _atom_site_type_symbol
 _atom_site_label
 _atom_site_symmetry_multiplicity
 _atom_site_fract_x
 _atom_site_fract_y
 _atom_site_fract_z
 _atom_site_occupancy
  Er  Er0  1  0.187665  0.812547  0.812038  1
  Er  Er1  1  0.812547  0.187665  0.187750  1
  Er  Er2  1  0.812547  0.187665  0.812038  1
  Er  Er3  1  0.187665  0.812547  0.187750  1
  Er  Er4  1  0.811804  0.811804  0.188196  1
  Er  Er5  1  0.187394  0.187394  0.812606  1
  Tm  Tm6  1  0.596036  0.596036  0.603024  1
  Tm  Tm7  1  0.596036  0.596036  0.204904  1
  Tm  Tm8  1  0.592976  0.208184  0.599420  1
  Tm  Tm9  1  0.208184  0.592976  0.599420  1
  Tm  Tm10  1  0.066032  0.438315  0.438324  1
  Tm  Tm11  1  0.438315  0.066032  0.057328  1
  Tm  Tm12  1  0.438315  0.066032  0.438324  1
  Tm  Tm13  1  0.066032  0.438315  0.057328  1
  Tm  Tm14  1  0.437574  0.437574  0.062426  1
  Tm  Tm15  1  0.060852  0.060852  0.439148  1
  Cd  Cd16  1  0.830796  0.830796  0.830332  1
  Cd  Cd17  1  0.830796  0.830796  0.508075  1
  Cd  Cd18  1  0.831010  0.507569  0.830710  1
  Cd  Cd19  1  0.507569  0.831010  0.830710  1
  Co  Co20  1  0.391179  0.391179  0.391258  1
  Co  Co21  1  0.391179  0.391179  0.826383  1
  Ir  Ir22  1  0.392128  0.825366  0.391253  1
  Ir  Ir23  1  0.825366  0.392128  0.391253  1
