# generated using pymatgen
data_Sc2Fe2SiGeC
_symmetry_space_group_name_H-M   'P 1'
_cell_length_a   5.46147195
_cell_length_b   5.46147195
_cell_length_c   6.43716963
_cell_angle_alpha   125.07004297
_cell_angle_beta   125.07004497
_cell_angle_gamma   40.80027307
_symmetry_Int_Tables_number   1
_chemical_formula_structural   Sc2Fe2SiGeC
_chemical_formula_sum   'Sc2 Fe2 Si1 Ge1 C1'
_cell_volume   99.12228520
_cell_formula_units_Z   1
loop_
 _symmetry_equiv_pos_site_id
 _symmetry_equiv_pos_as_xyz
  1  'x, y, z'
loop_
 _atom_site_type_symbol
 _atom_site_label
 _atom_site_symmetry_multiplicity
 _atom_site_fract_x
 _atom_site_fract_y
 _atom_site_fract_z
 _atom_site_occupancy
  Sc  Sc0  1  0.557474  0.557474  0.283408  1
  Sc  Sc1  1  0.441273  0.441273  0.712328  1
  Fe  Fe2  1  0.205723  0.205723  0.104685  1
  Fe  Fe3  1  0.801283  0.801283  0.909862  1
  Si  Si4  1  0.841606  0.841606  0.300097  1
  Ge  Ge5  1  0.150743  0.150743  0.687751  1
  C  C6  1  0.001899  0.001899  0.001872  1
