# generated using pymatgen
data_Ta2MnCoP2
_symmetry_space_group_name_H-M   'P 1'
_cell_length_a   3.60192200
_cell_length_b   6.13196077
_cell_length_c   6.98839345
_cell_angle_alpha   89.38004845
_cell_angle_beta   90.00000000
_cell_angle_gamma   90.00000000
_symmetry_Int_Tables_number   1
_chemical_formula_structural   Ta2MnCoP2
_chemical_formula_sum   'Ta4 Mn2 Co2 P4'
_cell_volume   154.34252323
_cell_formula_units_Z   2
loop_
 _symmetry_equiv_pos_site_id
 _symmetry_equiv_pos_as_xyz
  1  'x, y, z'
loop_
 _atom_site_type_symbol
 _atom_site_label
 _atom_site_symmetry_multiplicity
 _atom_site_fract_x
 _atom_site_fract_y
 _atom_site_fract_z
 _atom_site_occupancy
  Ta  Ta0  1  0.750000  0.980189  0.821740  1
  Ta  Ta1  1  0.250000  0.524992  0.328748  1
  Ta  Ta2  1  0.250000  0.019873  0.178264  1
  Ta  Ta3  1  0.750000  0.474949  0.671214  1
  Mn  Mn4  1  0.750000  0.856563  0.437287  1
  Mn  Mn5  1  0.250000  0.143455  0.562708  1
  Co  Co6  1  0.750000  0.359809  0.063350  1
  Co  Co7  1  0.250000  0.640143  0.936674  1
  P  P8  1  0.250000  0.777079  0.620165  1
  P  P9  1  0.750000  0.222911  0.379855  1
  P  P10  1  0.250000  0.274532  0.877803  1
  P  P11  1  0.750000  0.725506  0.122192  1
