# generated using pymatgen
data_Th10In3CuSb4
_symmetry_space_group_name_H-M   'P 1'
_cell_length_a   9.56042500
_cell_length_b   9.56042532
_cell_length_c   6.57309500
_cell_angle_alpha   90.00000000
_cell_angle_beta   90.00000000
_cell_angle_gamma   120.00000236
_symmetry_Int_Tables_number   1
_chemical_formula_structural   Th10In3CuSb4
_chemical_formula_sum   'Th10 In3 Cu1 Sb4'
_cell_volume   520.30133798
_cell_formula_units_Z   1
loop_
 _symmetry_equiv_pos_site_id
 _symmetry_equiv_pos_as_xyz
  1  'x, y, z'
loop_
 _atom_site_type_symbol
 _atom_site_label
 _atom_site_symmetry_multiplicity
 _atom_site_fract_x
 _atom_site_fract_y
 _atom_site_fract_z
 _atom_site_occupancy
  Th  Th0  1  0.000000  0.731851  0.761244  1
  Th  Th1  1  0.268149  0.268149  0.761244  1
  Th  Th2  1  0.333333  0.666667  0.498735  1
  Th  Th3  1  0.666667  0.333333  0.498735  1
  Th  Th4  1  0.721765  0.721765  0.237901  1
  Th  Th5  1  0.731851  0.000000  0.761244  1
  Th  Th6  1  0.000000  0.278235  0.237901  1
  Th  Th7  1  0.278235  0.000000  0.237901  1
  Th  Th8  1  0.333333  0.666667  0.998713  1
  Th  Th9  1  0.666667  0.333333  0.998713  1
  In  In10  1  0.623274  0.000000  0.252917  1
  In  In11  1  0.376726  0.376726  0.252917  1
  In  In12  1  0.000000  0.623274  0.252917  1
  Cu  Cu13  1  0.000000  0.000000  0.023483  1
  Sb  Sb14  1  0.616388  0.616388  0.745983  1
  Sb  Sb15  1  0.000000  0.383612  0.745983  1
  Sb  Sb16  1  0.383612  0.000000  0.745983  1
  Sb  Sb17  1  0.000000  0.000000  0.487487  1
