# generated using pymatgen
data_Tb2Mn9Fe3P7
_symmetry_space_group_name_H-M   'P 1'
_cell_length_a   9.26965000
_cell_length_b   9.26965017
_cell_length_c   3.57536100
_cell_angle_alpha   90.00000000
_cell_angle_beta   90.00000000
_cell_angle_gamma   120.00000654
_symmetry_Int_Tables_number   1
_chemical_formula_structural   Tb2Mn9Fe3P7
_chemical_formula_sum   'Tb2 Mn9 Fe3 P7'
_cell_volume   266.05852711
_cell_formula_units_Z   1
loop_
 _symmetry_equiv_pos_site_id
 _symmetry_equiv_pos_as_xyz
  1  'x, y, z'
loop_
 _atom_site_type_symbol
 _atom_site_label
 _atom_site_symmetry_multiplicity
 _atom_site_fract_x
 _atom_site_fract_y
 _atom_site_fract_z
 _atom_site_occupancy
  Tb  Tb0  1  0.000000  0.000000  0.000000  1
  Tb  Tb1  1  0.333333  0.666667  0.500000  1
  Mn  Mn2  1  0.094130  0.382835  0.000000  1
  Mn  Mn3  1  0.617165  0.711295  0.000000  1
  Mn  Mn4  1  0.288705  0.905870  0.000000  1
  Mn  Mn5  1  0.059402  0.770939  0.500000  1
  Mn  Mn6  1  0.229061  0.288462  0.500000  1
  Mn  Mn7  1  0.711538  0.940598  0.500000  1
  Mn  Mn8  1  0.896545  0.436785  0.500000  1
  Mn  Mn9  1  0.563215  0.459759  0.500000  1
  Mn  Mn10  1  0.540241  0.103455  0.500000  1
  Fe  Fe11  1  0.822167  0.606145  0.000000  1
  Fe  Fe12  1  0.393855  0.216022  0.000000  1
  Fe  Fe13  1  0.783978  0.177833  0.000000  1
  P  P14  1  0.792597  0.737648  0.500000  1
  P  P15  1  0.262352  0.054949  0.500000  1
  P  P16  1  0.945051  0.207403  0.500000  1
  P  P17  1  0.666667  0.333333  0.000000  1
  P  P18  1  0.073988  0.622342  0.000000  1
  P  P19  1  0.377658  0.451645  0.000000  1
  P  P20  1  0.548355  0.926012  0.000000  1
