# generated using pymatgen
data_Y9Lu(Zn2Bi)2
_symmetry_space_group_name_H-M   'P 1'
_cell_length_a   8.63787255
_cell_length_b   8.63787251
_cell_length_c   8.63787366
_cell_angle_alpha   123.71772993
_cell_angle_beta   123.71772716
_cell_angle_gamma   83.67294518
_symmetry_Int_Tables_number   1
_chemical_formula_structural   Y9Lu(Zn2Bi)2
_chemical_formula_sum   'Y9 Lu1 Zn4 Bi2'
_cell_volume   427.26505582
_cell_formula_units_Z   1
loop_
 _symmetry_equiv_pos_site_id
 _symmetry_equiv_pos_as_xyz
  1  'x, y, z'
loop_
 _atom_site_type_symbol
 _atom_site_label
 _atom_site_symmetry_multiplicity
 _atom_site_fract_x
 _atom_site_fract_y
 _atom_site_fract_z
 _atom_site_occupancy
  Y  Y0  1  0.000000  0.000000  0.000000  1
  Y  Y1  1  0.794428  0.295611  0.807073  1
  Y  Y2  1  0.205572  0.704389  0.192927  1
  Y  Y3  1  0.488539  0.987356  0.192927  1
  Y  Y4  1  0.295611  0.488539  0.501183  1
  Y  Y5  1  0.012644  0.205572  0.501183  1
  Y  Y6  1  0.511461  0.012644  0.807073  1
  Y  Y7  1  0.704389  0.511461  0.498817  1
  Y  Y8  1  0.987356  0.794428  0.498817  1
  Lu  Lu9  1  0.500000  0.500000  0.000000  1
  Zn  Zn10  1  0.140643  0.637888  0.778530  1
  Zn  Zn11  1  0.859357  0.362112  0.221470  1
  Zn  Zn12  1  0.637888  0.859357  0.497245  1
  Zn  Zn13  1  0.362112  0.140643  0.502755  1
  Bi  Bi14  1  0.250959  0.250959  0.000000  1
  Bi  Bi15  1  0.749041  0.749041  0.000000  1
