# generated using pymatgen
data_Ac(Co2B)6
_symmetry_space_group_name_H-M   'P 1'
_cell_length_a   6.03654728
_cell_length_b   6.03654623
_cell_length_c   6.03654733
_cell_angle_alpha   104.10364177
_cell_angle_beta   104.10364414
_cell_angle_gamma   104.10365198
_symmetry_Int_Tables_number   1
_chemical_formula_structural   Ac(Co2B)6
_chemical_formula_sum   'Ac1 Co12 B6'
_cell_volume   195.87647143
_cell_formula_units_Z   1
loop_
 _symmetry_equiv_pos_site_id
 _symmetry_equiv_pos_as_xyz
  1  'x, y, z'
loop_
 _atom_site_type_symbol
 _atom_site_label
 _atom_site_symmetry_multiplicity
 _atom_site_fract_x
 _atom_site_fract_y
 _atom_site_fract_z
 _atom_site_occupancy
  Ac  Ac0  1  0.000000  0.000000  0.000000  1
  Co  Co1  1  0.134438  0.865562  0.500000  1
  Co  Co2  1  0.500000  0.134438  0.865562  1
  Co  Co3  1  0.865562  0.500000  0.134438  1
  Co  Co4  1  0.500000  0.865562  0.134438  1
  Co  Co5  1  0.134438  0.500000  0.865562  1
  Co  Co6  1  0.865562  0.134438  0.500000  1
  Co  Co7  1  0.538114  0.811876  0.538114  1
  Co  Co8  1  0.538114  0.538114  0.811876  1
  Co  Co9  1  0.811876  0.538114  0.538114  1
  Co  Co10  1  0.461886  0.188124  0.461886  1
  Co  Co11  1  0.461886  0.461886  0.188124  1
  Co  Co12  1  0.188124  0.461886  0.461886  1
  B  B13  1  0.769515  0.334099  0.769515  1
  B  B14  1  0.769515  0.769515  0.334099  1
  B  B15  1  0.334099  0.769515  0.769515  1
  B  B16  1  0.230485  0.665901  0.230485  1
  B  B17  1  0.230485  0.230485  0.665901  1
  B  B18  1  0.665901  0.230485  0.230485  1
