# generated using pymatgen
data_AcPaZn5Sn
_symmetry_space_group_name_H-M   'P 1'
_cell_length_a   8.63772551
_cell_length_b   8.63772503
_cell_length_c   9.06908000
_cell_angle_alpha   90.00000000
_cell_angle_beta   90.00000000
_cell_angle_gamma   149.37202085
_symmetry_Int_Tables_number   1
_chemical_formula_structural   AcPaZn5Sn
_chemical_formula_sum   'Ac2 Pa2 Zn10 Sn2'
_cell_volume   344.72559465
_cell_formula_units_Z   2
loop_
 _symmetry_equiv_pos_site_id
 _symmetry_equiv_pos_as_xyz
  1  'x, y, z'
loop_
 _atom_site_type_symbol
 _atom_site_label
 _atom_site_symmetry_multiplicity
 _atom_site_fract_x
 _atom_site_fract_y
 _atom_site_fract_z
 _atom_site_occupancy
  Ac  Ac0  1  0.000000  0.000000  0.500000  1
  Ac  Ac1  1  0.000000  0.000000  0.000000  1
  Pa  Pa2  1  0.210049  0.789951  0.250000  1
  Pa  Pa3  1  0.789951  0.210049  0.750000  1
  Zn  Zn4  1  0.810064  0.189936  0.393080  1
  Zn  Zn5  1  0.189936  0.810064  0.606920  1
  Zn  Zn6  1  0.810064  0.189936  0.106920  1
  Zn  Zn7  1  0.189936  0.810064  0.893080  1
  Zn  Zn8  1  0.662055  0.337945  0.482878  1
  Zn  Zn9  1  0.337945  0.662055  0.517122  1
  Zn  Zn10  1  0.662055  0.337945  0.017122  1
  Zn  Zn11  1  0.337945  0.662055  0.982878  1
  Zn  Zn12  1  0.395307  0.604693  0.250000  1
  Zn  Zn13  1  0.604693  0.395307  0.750000  1
  Sn  Sn14  1  0.563511  0.436489  0.250000  1
  Sn  Sn15  1  0.436489  0.563511  0.750000  1
