# generated using pymatgen
data_Al5Zn(FeRh2)6
_symmetry_space_group_name_H-M   'P 1'
_cell_length_a   4.27334001
_cell_length_b   5.99777000
_cell_length_c   12.80783404
_cell_angle_alpha   90.00000000
_cell_angle_beta   89.99125846
_cell_angle_gamma   90.00000000
_symmetry_Int_Tables_number   1
_chemical_formula_structural   Al5Zn(FeRh2)6
_chemical_formula_sum   'Al5 Zn1 Fe6 Rh12'
_cell_volume   328.27132129
_cell_formula_units_Z   1
loop_
 _symmetry_equiv_pos_site_id
 _symmetry_equiv_pos_as_xyz
  1  'x, y, z'
loop_
 _atom_site_type_symbol
 _atom_site_label
 _atom_site_symmetry_multiplicity
 _atom_site_fract_x
 _atom_site_fract_y
 _atom_site_fract_z
 _atom_site_occupancy
  Al  Al0  1  0.499706  0.500001  0.166947  1
  Al  Al1  1  0.999683  0.000000  0.333832  1
  Al  Al2  1  0.500000  0.500001  0.500000  1
  Al  Al3  1  0.000317  0.000000  0.666168  1
  Al  Al4  1  0.500292  0.500001  0.833053  1
  Zn  Zn5  1  0.000000  0.000000  0.000000  1
  Fe  Fe6  1  0.000000  0.500001  0.000000  1
  Fe  Fe7  1  0.499680  0.000000  0.164426  1
  Fe  Fe8  1  0.999676  0.500001  0.333333  1
  Fe  Fe9  1  0.500000  0.000000  0.500000  1
  Fe  Fe10  1  0.000325  0.500001  0.666667  1
  Fe  Fe11  1  0.500319  0.000000  0.835574  1
  Rh  Rh12  1  0.500000  0.253846  0.000000  1
  Rh  Rh13  1  0.500000  0.746153  0.000000  1
  Rh  Rh14  1  0.999714  0.251495  0.169006  1
  Rh  Rh15  1  0.999714  0.748507  0.169006  1
  Rh  Rh16  1  0.499698  0.249417  0.333500  1
  Rh  Rh17  1  0.499698  0.750583  0.333500  1
  Rh  Rh18  1  0.000000  0.250940  0.500000  1
  Rh  Rh19  1  0.000000  0.749062  0.500000  1
  Rh  Rh20  1  0.500303  0.249417  0.666499  1
  Rh  Rh21  1  0.500303  0.750583  0.666499  1
  Rh  Rh22  1  0.000287  0.251495  0.830995  1
  Rh  Rh23  1  0.000287  0.748507  0.830995  1
