# generated using pymatgen
data_Y20In6NiOs
_symmetry_space_group_name_H-M   'P 1'
_cell_length_a   9.76817300
_cell_length_b   9.76817838
_cell_length_c   9.81372800
_cell_angle_alpha   90.00000000
_cell_angle_beta   90.00000000
_cell_angle_gamma   120.00006010
_symmetry_Int_Tables_number   1
_chemical_formula_structural   Y20In6NiOs
_chemical_formula_sum   'Y20 In6 Ni1 Os1'
_cell_volume   810.94483066
_cell_formula_units_Z   1
loop_
 _symmetry_equiv_pos_site_id
 _symmetry_equiv_pos_as_xyz
  1  'x, y, z'
loop_
 _atom_site_type_symbol
 _atom_site_label
 _atom_site_symmetry_multiplicity
 _atom_site_fract_x
 _atom_site_fract_y
 _atom_site_fract_z
 _atom_site_occupancy
  Y  Y0  1  0.000000  0.000000  0.499846  1
  Y  Y1  1  0.000000  0.000000  0.000154  1
  Y  Y2  1  0.538797  0.461203  0.250000  1
  Y  Y3  1  0.538797  0.077593  0.250000  1
  Y  Y4  1  0.922407  0.461203  0.250000  1
  Y  Y5  1  0.457240  0.542760  0.750000  1
  Y  Y6  1  0.457241  0.914481  0.750000  1
  Y  Y7  1  0.085519  0.542760  0.750000  1
  Y  Y8  1  0.210172  0.789828  0.439364  1
  Y  Y9  1  0.210172  0.420345  0.439365  1
  Y  Y10  1  0.579655  0.789828  0.439365  1
  Y  Y11  1  0.789306  0.210694  0.563201  1
  Y  Y12  1  0.789305  0.578611  0.563201  1
  Y  Y13  1  0.421389  0.210694  0.563201  1
  Y  Y14  1  0.789306  0.210694  0.936799  1
  Y  Y15  1  0.789305  0.578611  0.936799  1
  Y  Y16  1  0.421389  0.210694  0.936799  1
  Y  Y17  1  0.210172  0.789828  0.060636  1
  Y  Y18  1  0.210172  0.420345  0.060635  1
  Y  Y19  1  0.579655  0.789828  0.060635  1
  In  In20  1  0.884393  0.115607  0.250000  1
  In  In21  1  0.884392  0.768785  0.250000  1
  In  In22  1  0.231215  0.115607  0.250000  1
  In  In23  1  0.115758  0.884242  0.750000  1
  In  In24  1  0.115758  0.231516  0.750000  1
  In  In25  1  0.768484  0.884242  0.750000  1
  Ni  Ni26  1  0.666667  0.333333  0.750000  1
  Os  Os27  1  0.333332  0.666668  0.250000  1
