# generated using pymatgen
data_Li2Ho16TlInRh4
_symmetry_space_group_name_H-M   'P 1'
_cell_length_a   9.60709518
_cell_length_b   9.61463511
_cell_length_c   9.63464300
_cell_angle_alpha   59.93114118
_cell_angle_beta   59.90510371
_cell_angle_gamma   59.89163688
_symmetry_Int_Tables_number   1
_chemical_formula_structural   Li2Ho16TlInRh4
_chemical_formula_sum   'Li2 Ho16 Tl1 In1 Rh4'
_cell_volume   627.98728760
_cell_formula_units_Z   1
loop_
 _symmetry_equiv_pos_site_id
 _symmetry_equiv_pos_as_xyz
  1  'x, y, z'
loop_
 _atom_site_type_symbol
 _atom_site_label
 _atom_site_symmetry_multiplicity
 _atom_site_fract_x
 _atom_site_fract_y
 _atom_site_fract_z
 _atom_site_occupancy
  Li  Li0  1  0.822855  0.822980  0.825464  1
  Li  Li1  1  0.822855  0.822980  0.528702  1
  Ho  Ho2  1  0.185687  0.185692  0.814311  1
  Ho  Ho3  1  0.599642  0.598891  0.200657  1
  Ho  Ho4  1  0.438378  0.062400  0.437849  1
  Ho  Ho5  1  0.441805  0.440981  0.058607  1
  Ho  Ho6  1  0.813790  0.185924  0.813829  1
  Ho  Ho7  1  0.185542  0.813396  0.187346  1
  Ho  Ho8  1  0.438378  0.062400  0.061373  1
  Ho  Ho9  1  0.185542  0.813396  0.813717  1
  Ho  Ho10  1  0.061970  0.438359  0.060877  1
  Ho  Ho11  1  0.812174  0.812246  0.187790  1
  Ho  Ho12  1  0.206929  0.597369  0.597851  1
  Ho  Ho13  1  0.061970  0.438359  0.438794  1
  Ho  Ho14  1  0.066343  0.066342  0.433658  1
  Ho  Ho15  1  0.813790  0.185924  0.186457  1
  Ho  Ho16  1  0.597651  0.207194  0.597577  1
  Ho  Ho17  1  0.599642  0.598891  0.600811  1
  Tl  Tl18  1  0.504081  0.836643  0.829639  1
  In  In19  1  0.835591  0.504473  0.829969  1
  Rh  Rh20  1  0.395391  0.822508  0.391051  1
  Rh  Rh21  1  0.393652  0.393732  0.389764  1
  Rh  Rh22  1  0.822693  0.395191  0.391058  1
  Rh  Rh23  1  0.393652  0.393732  0.822853  1
