# generated using pymatgen
data_Dy13Er3(HgRh)4
_symmetry_space_group_name_H-M   'P 1'
_cell_length_a   9.57057432
_cell_length_b   9.57057462
_cell_length_c   9.57844061
_cell_angle_alpha   60.02716034
_cell_angle_beta   60.02715914
_cell_angle_gamma   59.99999517
_symmetry_Int_Tables_number   1
_chemical_formula_structural   Dy13Er3(HgRh)4
_chemical_formula_sum   'Dy13 Er3 Hg4 Rh4'
_cell_volume   620.63172987
_cell_formula_units_Z   1
loop_
 _symmetry_equiv_pos_site_id
 _symmetry_equiv_pos_as_xyz
  1  'x, y, z'
loop_
 _atom_site_type_symbol
 _atom_site_label
 _atom_site_symmetry_multiplicity
 _atom_site_fract_x
 _atom_site_fract_y
 _atom_site_fract_z
 _atom_site_occupancy
  Dy  Dy0  1  0.936197  0.936197  0.563326  1
  Dy  Dy1  1  0.148698  0.148698  0.553905  1
  Dy  Dy2  1  0.564281  0.936197  0.563326  1
  Dy  Dy3  1  0.148117  0.148117  0.148921  1
  Dy  Dy4  1  0.311703  0.311703  0.688020  1
  Dy  Dy5  1  0.936197  0.564281  0.563326  1
  Dy  Dy6  1  0.563720  0.563720  0.936842  1
  Dy  Dy7  1  0.563720  0.935719  0.936842  1
  Dy  Dy8  1  0.935719  0.563720  0.936842  1
  Dy  Dy9  1  0.148117  0.554846  0.148921  1
  Dy  Dy10  1  0.311703  0.688575  0.688020  1
  Dy  Dy11  1  0.688575  0.311703  0.688020  1
  Dy  Dy12  1  0.554846  0.148117  0.148921  1
  Er  Er13  1  0.688018  0.312597  0.311367  1
  Er  Er14  1  0.688018  0.688018  0.311367  1
  Er  Er15  1  0.312597  0.688018  0.311367  1
  Hg  Hg16  1  0.915557  0.915557  0.253327  1
  Hg  Hg17  1  0.253177  0.915520  0.915782  1
  Hg  Hg18  1  0.915520  0.253177  0.915782  1
  Hg  Hg19  1  0.915520  0.915520  0.915782  1
  Rh  Rh20  1  0.357652  0.357652  0.356992  1
  Rh  Rh21  1  0.927707  0.357652  0.356992  1
  Rh  Rh22  1  0.356994  0.356994  0.929020  1
  Rh  Rh23  1  0.357652  0.927707  0.356992  1
