# generated using pymatgen
data_BeAlSiNi2
_symmetry_space_group_name_H-M   'P 1'
_cell_length_a   3.79643900
_cell_length_b   3.79643858
_cell_length_c   4.76409900
_cell_angle_alpha   90.00000000
_cell_angle_beta   90.00000000
_cell_angle_gamma   119.99997751
_symmetry_Int_Tables_number   1
_chemical_formula_structural   BeAlSiNi2
_chemical_formula_sum   'Be1 Al1 Si1 Ni2'
_cell_volume   59.46539557
_cell_formula_units_Z   1
loop_
 _symmetry_equiv_pos_site_id
 _symmetry_equiv_pos_as_xyz
  1  'x, y, z'
loop_
 _atom_site_type_symbol
 _atom_site_label
 _atom_site_symmetry_multiplicity
 _atom_site_fract_x
 _atom_site_fract_y
 _atom_site_fract_z
 _atom_site_occupancy
  Be  Be0  1  0.000000  0.000000  0.991639  1
  Al  Al1  1  0.666667  0.333333  0.353273  1
  Si  Si2  1  0.333333  0.666667  0.658192  1
  Ni  Ni3  1  0.333333  0.666667  0.146542  1
  Ni  Ni4  1  0.666667  0.333333  0.850354  1
