# generated using pymatgen
data_Pr3Cd2CuHgAu2
_symmetry_space_group_name_H-M   'P 1'
_cell_length_a   8.01045900
_cell_length_b   7.99241116
_cell_length_c   3.96987300
_cell_angle_alpha   90.00000000
_cell_angle_beta   90.00000000
_cell_angle_gamma   120.07473038
_symmetry_Int_Tables_number   1
_chemical_formula_structural   Pr3Cd2CuHgAu2
_chemical_formula_sum   'Pr3 Cd2 Cu1 Hg1 Au2'
_cell_volume   219.94542551
_cell_formula_units_Z   1
loop_
 _symmetry_equiv_pos_site_id
 _symmetry_equiv_pos_as_xyz
  1  'x, y, z'
loop_
 _atom_site_type_symbol
 _atom_site_label
 _atom_site_symmetry_multiplicity
 _atom_site_fract_x
 _atom_site_fract_y
 _atom_site_fract_z
 _atom_site_occupancy
  Pr  Pr0  1  0.414411  0.000000  0.500000  1
  Pr  Pr1  1  0.996204  0.404832  0.500000  1
  Pr  Pr2  1  0.591372  0.595168  0.500000  1
  Cd  Cd3  1  0.002758  0.758068  0.000000  1
  Cd  Cd4  1  0.244689  0.241932  0.000000  1
  Cu  Cu5  1  0.002417  0.000000  0.500000  1
  Hg  Hg6  1  0.754350  0.000000  0.000000  1
  Au  Au7  1  0.327549  0.661299  0.000000  1
  Au  Au8  1  0.666251  0.338701  0.000000  1
