# generated using pymatgen
data_Nd2HgC2
_symmetry_space_group_name_H-M   'P 1'
_cell_length_a   7.97433155
_cell_length_b   7.97433090
_cell_length_c   6.97539359
_cell_angle_alpha   102.99242724
_cell_angle_beta   102.99242589
_cell_angle_gamma   29.84491318
_symmetry_Int_Tables_number   1
_chemical_formula_structural   Nd2HgC2
_chemical_formula_sum   'Nd4 Hg2 C4'
_cell_volume   214.68386309
_cell_formula_units_Z   2
loop_
 _symmetry_equiv_pos_site_id
 _symmetry_equiv_pos_as_xyz
  1  'x, y, z'
loop_
 _atom_site_type_symbol
 _atom_site_label
 _atom_site_symmetry_multiplicity
 _atom_site_fract_x
 _atom_site_fract_y
 _atom_site_fract_z
 _atom_site_occupancy
  Nd  Nd0  1  0.477169  0.825432  0.141956  1
  Nd  Nd1  1  0.174569  0.522831  0.358044  1
  Nd  Nd2  1  0.825431  0.477169  0.641956  1
  Nd  Nd3  1  0.522831  0.174568  0.858044  1
  Hg  Hg4  1  0.853301  0.146699  0.249999  1
  Hg  Hg5  1  0.146699  0.853301  0.749999  1
  C  C6  1  0.088520  0.360587  0.028530  1
  C  C7  1  0.639412  0.911480  0.471470  1
  C  C8  1  0.360588  0.088520  0.528530  1
  C  C9  1  0.911480  0.639412  0.971470  1
