# generated using pymatgen
data_Ac2LaGa8
_symmetry_space_group_name_H-M   'P 1'
_cell_length_a   4.57160593
_cell_length_b   4.47855876
_cell_length_c   13.06726371
_cell_angle_alpha   99.86723010
_cell_angle_beta   100.07433895
_cell_angle_gamma   90.00000023
_symmetry_Int_Tables_number   1
_chemical_formula_structural   Ac2LaGa8
_chemical_formula_sum   'Ac2 La1 Ga8'
_cell_volume   259.39624375
_cell_formula_units_Z   1
loop_
 _symmetry_equiv_pos_site_id
 _symmetry_equiv_pos_as_xyz
  1  'x, y, z'
loop_
 _atom_site_type_symbol
 _atom_site_label
 _atom_site_symmetry_multiplicity
 _atom_site_fract_x
 _atom_site_fract_y
 _atom_site_fract_z
 _atom_site_occupancy
  Ac  Ac0  1  0.147277  0.647277  0.294555  1
  Ac  Ac1  1  0.852723  0.352723  0.705445  1
  La  La2  1  0.000000  0.000000  0.000000  1
  Ga  Ga3  1  0.750111  0.750111  0.500222  1
  Ga  Ga4  1  0.249889  0.249889  0.499778  1
  Ga  Ga5  1  0.404985  0.904985  0.809969  1
  Ga  Ga6  1  0.595015  0.095015  0.190031  1
  Ga  Ga7  1  0.305105  0.805105  0.610211  1
  Ga  Ga8  1  0.694895  0.194895  0.389789  1
  Ga  Ga9  1  0.548224  0.548224  0.096447  1
  Ga  Ga10  1  0.451776  0.451776  0.903553  1
