# generated using pymatgen
data_Zr8In14Co7Hg
_symmetry_space_group_name_H-M   'P 1'
_cell_length_a   9.48451943
_cell_length_b   9.48341675
_cell_length_c   9.48400542
_cell_angle_alpha   60.34330988
_cell_angle_beta   60.35114419
_cell_angle_gamma   60.35035335
_symmetry_Int_Tables_number   1
_chemical_formula_structural   Zr8In14Co7Hg
_chemical_formula_sum   'Zr8 In14 Co7 Hg1'
_cell_volume   607.94625036
_cell_formula_units_Z   1
loop_
 _symmetry_equiv_pos_site_id
 _symmetry_equiv_pos_as_xyz
  1  'x, y, z'
loop_
 _atom_site_type_symbol
 _atom_site_label
 _atom_site_symmetry_multiplicity
 _atom_site_fract_x
 _atom_site_fract_y
 _atom_site_fract_z
 _atom_site_occupancy
  Zr  Zr0  1  0.120668  0.638129  0.120755  1
  Zr  Zr1  1  0.361850  0.879282  0.879317  1
  Zr  Zr2  1  0.878404  0.878429  0.878436  1
  Zr  Zr3  1  0.638150  0.120718  0.120683  1
  Zr  Zr4  1  0.879346  0.879230  0.361856  1
  Zr  Zr5  1  0.121596  0.121571  0.121564  1
  Zr  Zr6  1  0.879332  0.361871  0.879245  1
  Zr  Zr7  1  0.120654  0.120770  0.638144  1
  In  In8  1  0.500001  0.841146  0.158848  1
  In  In9  1  0.499459  0.840780  0.499491  1
  In  In10  1  0.500541  0.159220  0.500509  1
  In  In11  1  0.499452  0.499498  0.840797  1
  In  In12  1  0.159216  0.500494  0.500504  1
  In  In13  1  0.841112  0.158885  0.500000  1
  In  In14  1  0.158888  0.841115  0.500000  1
  In  In15  1  0.499999  0.158854  0.841152  1
  In  In16  1  0.158960  0.500000  0.841051  1
  In  In17  1  0.500548  0.500502  0.159203  1
  In  In18  1  0.840784  0.499506  0.499496  1
  In  In19  1  0.841040  0.500000  0.158949  1
  In  In20  1  0.250193  0.250091  0.250193  1
  In  In21  1  0.749807  0.749909  0.749807  1
  Co  Co22  1  0.785476  0.785485  0.214260  1
  Co  Co23  1  0.000000  0.000000  0.000000  1
  Co  Co24  1  0.214518  0.785769  0.214499  1
  Co  Co25  1  0.214246  0.785522  0.785525  1
  Co  Co26  1  0.214524  0.214515  0.785740  1
  Co  Co27  1  0.785482  0.214231  0.785501  1
  Co  Co28  1  0.785754  0.214478  0.214475  1
  Hg  Hg29  1  0.500000  0.500000  0.500000  1
