# generated using pymatgen
data_Hf18Re8SiRu
_symmetry_space_group_name_H-M   'P 1'
_cell_length_a   8.59664100
_cell_length_b   8.59664169
_cell_length_c   8.63761700
_cell_angle_alpha   90.00000000
_cell_angle_beta   90.00000000
_cell_angle_gamma   120.00000120
_symmetry_Int_Tables_number   1
_chemical_formula_structural   Hf18Re8SiRu
_chemical_formula_sum   'Hf18 Re8 Si1 Ru1'
_cell_volume   552.81801334
_cell_formula_units_Z   1
loop_
 _symmetry_equiv_pos_site_id
 _symmetry_equiv_pos_as_xyz
  1  'x, y, z'
loop_
 _atom_site_type_symbol
 _atom_site_label
 _atom_site_symmetry_multiplicity
 _atom_site_fract_x
 _atom_site_fract_y
 _atom_site_fract_z
 _atom_site_occupancy
  Hf  Hf0  1  0.197629  0.802371  0.446869  1
  Hf  Hf1  1  0.197629  0.395257  0.446869  1
  Hf  Hf2  1  0.604743  0.802371  0.446869  1
  Hf  Hf3  1  0.805946  0.194054  0.548534  1
  Hf  Hf4  1  0.805946  0.611893  0.548534  1
  Hf  Hf5  1  0.388107  0.194054  0.548534  1
  Hf  Hf6  1  0.805946  0.194054  0.951466  1
  Hf  Hf7  1  0.805946  0.611893  0.951466  1
  Hf  Hf8  1  0.388107  0.194054  0.951466  1
  Hf  Hf9  1  0.197629  0.802371  0.053131  1
  Hf  Hf10  1  0.197629  0.395257  0.053131  1
  Hf  Hf11  1  0.604743  0.802371  0.053131  1
  Hf  Hf12  1  0.541875  0.458125  0.250000  1
  Hf  Hf13  1  0.541875  0.083751  0.250000  1
  Hf  Hf14  1  0.916249  0.458125  0.250000  1
  Hf  Hf15  1  0.460253  0.539747  0.750000  1
  Hf  Hf16  1  0.460253  0.920504  0.750000  1
  Hf  Hf17  1  0.079496  0.539747  0.750000  1
  Re  Re18  1  0.889133  0.110867  0.250000  1
  Re  Re19  1  0.889133  0.778266  0.250000  1
  Re  Re20  1  0.221734  0.110867  0.250000  1
  Re  Re21  1  0.109819  0.890181  0.750000  1
  Re  Re22  1  0.109819  0.219637  0.750000  1
  Re  Re23  1  0.780363  0.890181  0.750000  1
  Re  Re24  1  0.000000  0.000000  0.498711  1
  Re  Re25  1  0.000000  0.000000  0.001289  1
  Si  Si26  1  0.666667  0.333333  0.750000  1
  Ru  Ru27  1  0.333333  0.666667  0.250000  1
