# generated using pymatgen
data_LiSc24Tc7
_symmetry_space_group_name_H-M   'P 1'
_cell_length_a   5.83600057
_cell_length_b   8.58327900
_cell_length_c   13.83009256
_cell_angle_alpha   90.00000000
_cell_angle_beta   90.61938279
_cell_angle_gamma   90.00000000
_symmetry_Int_Tables_number   1
_chemical_formula_structural   LiSc24Tc7
_chemical_formula_sum   'Li1 Sc24 Tc7'
_cell_volume   692.73680954
_cell_formula_units_Z   1
loop_
 _symmetry_equiv_pos_site_id
 _symmetry_equiv_pos_as_xyz
  1  'x, y, z'
loop_
 _atom_site_type_symbol
 _atom_site_label
 _atom_site_symmetry_multiplicity
 _atom_site_fract_x
 _atom_site_fract_y
 _atom_site_fract_z
 _atom_site_occupancy
  Li  Li0  1  0.142435  0.750000  0.669027  1
  Sc  Sc1  1  0.532986  0.750000  0.354130  1
  Sc  Sc2  1  0.028596  0.250000  0.148018  1
  Sc  Sc3  1  0.470852  0.250000  0.646704  1
  Sc  Sc4  1  0.964017  0.750000  0.858205  1
  Sc  Sc5  1  0.791684  0.750000  0.111793  1
  Sc  Sc6  1  0.300208  0.250000  0.384611  1
  Sc  Sc7  1  0.204236  0.250000  0.888820  1
  Sc  Sc8  1  0.689860  0.750000  0.610952  1
  Sc  Sc9  1  0.451110  0.943330  0.793823  1
  Sc  Sc10  1  0.930008  0.070657  0.708437  1
  Sc  Sc11  1  0.561408  0.437771  0.211232  1
  Sc  Sc12  1  0.063934  0.563674  0.290409  1
  Sc  Sc13  1  0.561408  0.062229  0.211232  1
  Sc  Sc14  1  0.063934  0.936326  0.290409  1
  Sc  Sc15  1  0.451110  0.556670  0.793823  1
  Sc  Sc16  1  0.930008  0.429343  0.708437  1
  Sc  Sc17  1  0.248897  0.949984  0.525049  1
  Sc  Sc18  1  0.745972  0.061531  0.969775  1
  Sc  Sc19  1  0.752664  0.440340  0.466861  1
  Sc  Sc20  1  0.253673  0.559568  0.034576  1
  Sc  Sc21  1  0.752664  0.059660  0.466861  1
  Sc  Sc22  1  0.253673  0.940432  0.034576  1
  Sc  Sc23  1  0.248897  0.550016  0.525049  1
  Sc  Sc24  1  0.745972  0.438469  0.969775  1
  Tc  Tc25  1  0.930918  0.750000  0.451428  1
  Tc  Tc26  1  0.424588  0.250000  0.057924  1
  Tc  Tc27  1  0.079506  0.250000  0.554685  1
  Tc  Tc28  1  0.569584  0.750000  0.940765  1
  Tc  Tc29  1  0.350993  0.750000  0.181521  1
  Tc  Tc30  1  0.855778  0.250000  0.320729  1
  Tc  Tc31  1  0.648429  0.250000  0.820365  1
