# generated using pymatgen
data_NdH2I
_symmetry_space_group_name_H-M   'P 1'
_cell_length_a   11.94073534
_cell_length_b   11.94073506
_cell_length_c   11.94073474
_cell_angle_alpha   19.42244529
_cell_angle_beta   19.42244893
_cell_angle_gamma   19.42244732
_symmetry_Int_Tables_number   1
_chemical_formula_structural   NdH2I
_chemical_formula_sum   'Nd2 H4 I2'
_cell_volume   164.59821898
_cell_formula_units_Z   2
loop_
 _symmetry_equiv_pos_site_id
 _symmetry_equiv_pos_as_xyz
  1  'x, y, z'
loop_
 _atom_site_type_symbol
 _atom_site_label
 _atom_site_symmetry_multiplicity
 _atom_site_fract_x
 _atom_site_fract_y
 _atom_site_fract_z
 _atom_site_occupancy
  Nd  Nd0  1  0.880632  0.880632  0.880632  1
  Nd  Nd1  1  0.119368  0.119368  0.119368  1
  H  H2  1  0.813971  0.813971  0.813971  1
  H  H3  1  0.186029  0.186029  0.186029  1
  H  H4  1  0.542732  0.542732  0.542732  1
  H  H5  1  0.457268  0.457268  0.457268  1
  I  I6  1  0.723167  0.723167  0.723167  1
  I  I7  1  0.276833  0.276833  0.276833  1
