# generated using pymatgen
data_Hf8Co11Si16Ir
_symmetry_space_group_name_H-M   'P 1'
_cell_length_a   5.25189616
_cell_length_b   6.78545536
_cell_length_c   13.74638640
_cell_angle_alpha   90.08821653
_cell_angle_beta   90.02499317
_cell_angle_gamma   89.92782612
_symmetry_Int_Tables_number   1
_chemical_formula_structural   Hf8Co11Si16Ir
_chemical_formula_sum   'Hf8 Co11 Si16 Ir1'
_cell_volume   489.87217920
_cell_formula_units_Z   1
loop_
 _symmetry_equiv_pos_site_id
 _symmetry_equiv_pos_as_xyz
  1  'x, y, z'
loop_
 _atom_site_type_symbol
 _atom_site_label
 _atom_site_symmetry_multiplicity
 _atom_site_fract_x
 _atom_site_fract_y
 _atom_site_fract_z
 _atom_site_occupancy
  Hf  Hf0  1  0.234901  0.398679  0.150341  1
  Hf  Hf1  1  0.730064  0.100456  0.148810  1
  Hf  Hf2  1  0.269339  0.100459  0.644517  1
  Hf  Hf3  1  0.765552  0.401270  0.644300  1
  Hf  Hf4  1  0.231741  0.600599  0.354549  1
  Hf  Hf5  1  0.731998  0.898924  0.354272  1
  Hf  Hf6  1  0.264754  0.902877  0.853235  1
  Hf  Hf7  1  0.771268  0.601124  0.851249  1
  Co  Co8  1  0.506012  0.226169  0.481275  1
  Co  Co9  1  0.773917  0.999477  0.748901  1
  Co  Co10  1  0.492842  0.220586  0.981045  1
  Co  Co11  1  0.725153  0.500192  0.251369  1
  Co  Co12  1  0.494392  0.774000  0.518769  1
  Co  Co13  1  0.006499  0.274149  0.481443  1
  Co  Co14  1  0.006163  0.722926  0.019854  1
  Co  Co15  1  0.223749  0.999424  0.251266  1
  Co  Co16  1  0.277627  0.502851  0.748999  1
  Co  Co17  1  0.505870  0.773752  0.019631  1
  Co  Co18  1  0.993935  0.726066  0.518364  1
  Si  Si19  1  0.222769  0.012467  0.071756  1
  Si  Si20  1  0.718894  0.519523  0.432345  1
  Si  Si21  1  0.781820  0.019285  0.567349  1
  Si  Si22  1  0.480905  0.754279  0.189657  1
  Si  Si23  1  0.019805  0.255075  0.803744  1
  Si  Si24  1  0.518524  0.246458  0.810569  1
  Si  Si25  1  0.218737  0.980683  0.432331  1
  Si  Si26  1  0.293558  0.526331  0.931108  1
  Si  Si27  1  0.980282  0.745737  0.188871  1
  Si  Si28  1  0.709338  0.485558  0.071069  1
  Si  Si29  1  0.281008  0.481391  0.567271  1
  Si  Si30  1  0.481126  0.245729  0.313426  1
  Si  Si31  1  0.019609  0.746959  0.686692  1
  Si  Si32  1  0.775043  0.972081  0.930827  1
  Si  Si33  1  0.518579  0.755238  0.687568  1
  Si  Si34  1  0.980514  0.253576  0.313135  1
  Ir  Ir35  1  0.993712  0.275651  0.980095  1
