# generated using pymatgen
data_Sm(AsPd2)2
_symmetry_space_group_name_H-M   'P 1'
_cell_length_a   7.78446200
_cell_length_b   7.78446200
_cell_length_c   4.09218700
_cell_angle_alpha   90.00000000
_cell_angle_beta   90.00000000
_cell_angle_gamma   90.00000000
_symmetry_Int_Tables_number   1
_chemical_formula_structural   Sm(AsPd2)2
_chemical_formula_sum   'Sm2 As4 Pd8'
_cell_volume   247.97772839
_cell_formula_units_Z   2
loop_
 _symmetry_equiv_pos_site_id
 _symmetry_equiv_pos_as_xyz
  1  'x, y, z'
loop_
 _atom_site_type_symbol
 _atom_site_label
 _atom_site_symmetry_multiplicity
 _atom_site_fract_x
 _atom_site_fract_y
 _atom_site_fract_z
 _atom_site_occupancy
  Sm  Sm0  1  0.500000  0.500000  0.000000  1
  Sm  Sm1  1  0.000000  0.000000  0.500000  1
  As  As2  1  0.780429  0.219571  0.000000  1
  As  As3  1  0.219571  0.780429  0.000000  1
  As  As4  1  0.280430  0.280430  0.500000  1
  As  As5  1  0.719570  0.719570  0.500000  1
  Pd  Pd6  1  0.340745  0.089835  0.000000  1
  Pd  Pd7  1  0.089835  0.340745  0.000000  1
  Pd  Pd8  1  0.910165  0.659256  0.000000  1
  Pd  Pd9  1  0.659256  0.910165  0.000000  1
  Pd  Pd10  1  0.589835  0.159256  0.500000  1
  Pd  Pd11  1  0.840744  0.410166  0.500000  1
  Pd  Pd12  1  0.159256  0.589835  0.500000  1
  Pd  Pd13  1  0.410166  0.840744  0.500000  1
