# generated using pymatgen
data_Tb4Re3PN12
_symmetry_space_group_name_H-M   'P 1'
_cell_length_a   7.34280257
_cell_length_b   7.32250742
_cell_length_c   6.13054198
_cell_angle_alpha   74.07468206
_cell_angle_beta   74.10654098
_cell_angle_gamma   83.27925648
_symmetry_Int_Tables_number   1
_chemical_formula_structural   Tb4Re3PN12
_chemical_formula_sum   'Tb4 Re3 P1 N12'
_cell_volume   304.54435355
_cell_formula_units_Z   1
loop_
 _symmetry_equiv_pos_site_id
 _symmetry_equiv_pos_as_xyz
  1  'x, y, z'
loop_
 _atom_site_type_symbol
 _atom_site_label
 _atom_site_symmetry_multiplicity
 _atom_site_fract_x
 _atom_site_fract_y
 _atom_site_fract_z
 _atom_site_occupancy
  Tb  Tb0  1  0.901259  0.087050  0.762303  1
  Tb  Tb1  1  0.106783  0.902014  0.250059  1
  Tb  Tb2  1  0.700223  0.279488  0.258824  1
  Tb  Tb3  1  0.304378  0.706341  0.736713  1
  Re  Re4  1  0.199111  0.379223  0.222733  1
  Re  Re5  1  0.378827  0.199885  0.723690  1
  Re  Re6  1  0.784088  0.630466  0.785195  1
  P  P7  1  0.617559  0.809904  0.278445  1
  N  N8  1  0.668232  0.654243  0.091480  1
  N  N9  1  0.393495  0.861060  0.333119  1
  N  N10  1  0.359414  0.341189  0.427244  1
  N  N11  1  0.127489  0.625423  0.148288  1
  N  N12  1  0.003490  0.217190  0.336832  1
  N  N13  1  0.769517  0.977239  0.166098  1
  N  N14  1  0.219859  0.001587  0.837869  1
  N  N15  1  0.628637  0.124604  0.658238  1
  N  N16  1  0.344898  0.361994  0.922239  1
  N  N17  1  0.857577  0.384754  0.842456  1
  N  N18  1  0.643778  0.681831  0.553492  1
  N  N19  1  0.991386  0.774519  0.664684  1
