# generated using pymatgen
data_Sr6CeYBi6
_symmetry_space_group_name_H-M   'P 1'
_cell_length_a   8.67668368
_cell_length_b   8.82115520
_cell_length_c   8.71778791
_cell_angle_alpha   109.77813349
_cell_angle_beta   108.91907103
_cell_angle_gamma   109.67889838
_symmetry_Int_Tables_number   1
_chemical_formula_structural   Sr6CeYBi6
_chemical_formula_sum   'Sr6 Ce1 Y1 Bi6'
_cell_volume   513.85774863
_cell_formula_units_Z   1
loop_
 _symmetry_equiv_pos_site_id
 _symmetry_equiv_pos_as_xyz
  1  'x, y, z'
loop_
 _atom_site_type_symbol
 _atom_site_label
 _atom_site_symmetry_multiplicity
 _atom_site_fract_x
 _atom_site_fract_y
 _atom_site_fract_z
 _atom_site_occupancy
  Sr  Sr0  1  0.359876  0.357043  0.357997  1
  Sr  Sr1  1  0.000438  0.139725  0.498918  1
  Sr  Sr2  1  0.860108  0.856527  0.860644  1
  Sr  Sr3  1  0.997186  0.638065  0.498625  1
  Sr  Sr4  1  0.503339  0.003348  0.139503  1
  Sr  Sr5  1  0.638798  0.504317  0.003095  1
  Ce  Ce6  1  0.501175  0.001806  0.642834  1
  Y  Y7  1  0.138012  0.502995  0.001679  1
  Bi  Bi8  1  0.879855  0.255124  0.109471  1
  Bi  Bi9  1  0.134110  0.864152  0.250303  1
  Bi  Bi10  1  0.369907  0.627040  0.753406  1
  Bi  Bi11  1  0.250745  0.129754  0.872284  1
  Bi  Bi12  1  0.759430  0.370924  0.639215  1
  Bi  Bi13  1  0.607019  0.749180  0.372027  1
