# generated using pymatgen
data_Zr2Pa3MnSb3
_symmetry_space_group_name_H-M   'P 1'
_cell_length_a   9.00358500
_cell_length_b   9.00358669
_cell_length_c   5.97205800
_cell_angle_alpha   90.00000000
_cell_angle_beta   90.00000000
_cell_angle_gamma   119.99999746
_symmetry_Int_Tables_number   1
_chemical_formula_structural   Zr2Pa3MnSb3
_chemical_formula_sum   'Zr4 Pa6 Mn2 Sb6'
_cell_volume   419.26217139
_cell_formula_units_Z   2
loop_
 _symmetry_equiv_pos_site_id
 _symmetry_equiv_pos_as_xyz
  1  'x, y, z'
loop_
 _atom_site_type_symbol
 _atom_site_label
 _atom_site_symmetry_multiplicity
 _atom_site_fract_x
 _atom_site_fract_y
 _atom_site_fract_z
 _atom_site_occupancy
  Zr  Zr0  1  0.666667  0.333333  0.000000  1
  Zr  Zr1  1  0.333333  0.666667  0.000000  1
  Zr  Zr2  1  0.333333  0.666667  0.500000  1
  Zr  Zr3  1  0.666667  0.333333  0.500000  1
  Pa  Pa4  1  0.757643  0.757643  0.750000  1
  Pa  Pa5  1  0.242357  0.000000  0.750000  1
  Pa  Pa6  1  0.000000  0.242357  0.750000  1
  Pa  Pa7  1  0.242357  0.242357  0.250000  1
  Pa  Pa8  1  0.757643  0.000000  0.250000  1
  Pa  Pa9  1  0.000000  0.757643  0.250000  1
  Mn  Mn10  1  0.000000  0.000000  0.000000  1
  Mn  Mn11  1  0.000000  0.000000  0.500000  1
  Sb  Sb12  1  0.400445  0.400445  0.750000  1
  Sb  Sb13  1  0.599555  0.000000  0.750000  1
  Sb  Sb14  1  0.000000  0.599555  0.750000  1
  Sb  Sb15  1  0.599555  0.599555  0.250000  1
  Sb  Sb16  1  0.400445  0.000000  0.250000  1
  Sb  Sb17  1  0.000000  0.400445  0.250000  1
