# generated using pymatgen
data_Gd11TmCo5Sn
_symmetry_space_group_name_H-M   'P 1'
_cell_length_a   8.34017596
_cell_length_b   8.34280071
_cell_length_c   8.34017600
_cell_angle_alpha   110.73908326
_cell_angle_beta   110.59400950
_cell_angle_gamma   107.09395270
_symmetry_Int_Tables_number   1
_chemical_formula_structural   Gd11TmCo5Sn
_chemical_formula_sum   'Gd11 Tm1 Co5 Sn1'
_cell_volume   446.22091549
_cell_formula_units_Z   1
loop_
 _symmetry_equiv_pos_site_id
 _symmetry_equiv_pos_as_xyz
  1  'x, y, z'
loop_
 _atom_site_type_symbol
 _atom_site_label
 _atom_site_symmetry_multiplicity
 _atom_site_fract_x
 _atom_site_fract_y
 _atom_site_fract_z
 _atom_site_occupancy
  Gd  Gd0  1  0.290504  0.184442  0.476369  1
  Gd  Gd1  1  0.706152  0.814076  0.518979  1
  Gd  Gd2  1  0.295097  0.814076  0.107924  1
  Gd  Gd3  1  0.708072  0.184442  0.893936  1
  Gd  Gd4  1  0.622619  0.314286  0.306713  1
  Gd  Gd5  1  0.379976  0.686369  0.695054  1
  Gd  Gd6  1  0.007573  0.314286  0.691667  1
  Gd  Gd7  1  0.991315  0.686369  0.306395  1
  Gd  Gd8  1  0.206671  0.399007  0.192337  1
  Gd  Gd9  1  0.793421  0.603573  0.810151  1
  Gd  Gd10  1  0.206345  0.014847  0.808502  1
  Tm  Tm11  1  0.792064  0.984691  0.192627  1
  Co  Co12  1  0.999546  0.372790  0.373245  1
  Co  Co13  1  0.001023  0.625373  0.624349  1
  Co  Co14  1  0.386875  0.887213  0.500337  1
  Co  Co15  1  0.613704  0.111202  0.497499  1
  Co  Co16  1  0.998296  0.001777  0.003482  1
  Sn  Sn17  1  0.500744  0.501179  0.000434  1
