# generated using pymatgen
data_Ti3Al2VRh10
_symmetry_space_group_name_H-M   'P 1'
_cell_length_a   4.01211000
_cell_length_b   5.37393609
_cell_length_c   10.57744596
_cell_angle_alpha   90.18615417
_cell_angle_beta   90.00000000
_cell_angle_gamma   90.00000000
_symmetry_Int_Tables_number   1
_chemical_formula_structural   Ti3Al2VRh10
_chemical_formula_sum   'Ti3 Al2 V1 Rh10'
_cell_volume   228.05723352
_cell_formula_units_Z   1
loop_
 _symmetry_equiv_pos_site_id
 _symmetry_equiv_pos_as_xyz
  1  'x, y, z'
loop_
 _atom_site_type_symbol
 _atom_site_label
 _atom_site_symmetry_multiplicity
 _atom_site_fract_x
 _atom_site_fract_y
 _atom_site_fract_z
 _atom_site_occupancy
  Ti  Ti0  1  0.500000  0.676916  0.859338  1
  Ti  Ti1  1  0.500000  0.826563  0.362629  1
  Ti  Ti2  1  0.500000  0.176215  0.641012  1
  Al  Al3  1  0.000000  0.997089  0.000673  1
  Al  Al4  1  0.000000  0.498465  0.499298  1
  V  V5  1  0.500000  0.328467  0.141305  1
  Rh  Rh6  1  0.000000  0.000388  0.498409  1
  Rh  Rh7  1  0.000000  0.493053  0.003537  1
  Rh  Rh8  1  0.000000  0.082673  0.240079  1
  Rh  Rh9  1  0.000000  0.925276  0.755615  1
  Rh  Rh10  1  0.000000  0.576592  0.253701  1
  Rh  Rh11  1  0.000000  0.424591  0.745837  1
  Rh  Rh12  1  0.500000  0.312508  0.385256  1
  Rh  Rh13  1  0.500000  0.687238  0.609191  1
  Rh  Rh14  1  0.500000  0.805022  0.109967  1
  Rh  Rh15  1  0.500000  0.188945  0.894153  1
