# generated using pymatgen
data_Dy4Co9B4Ir
_symmetry_space_group_name_H-M   'P 1'
_cell_length_a   10.55692911
_cell_length_b   10.55692859
_cell_length_c   10.55693075
_cell_angle_alpha   27.80289388
_cell_angle_beta   27.80289655
_cell_angle_gamma   27.80290352
_symmetry_Int_Tables_number   1
_chemical_formula_structural   Dy4Co9B4Ir
_chemical_formula_sum   'Dy4 Co9 B4 Ir1'
_cell_volume   226.02136712
_cell_formula_units_Z   1
loop_
 _symmetry_equiv_pos_site_id
 _symmetry_equiv_pos_as_xyz
  1  'x, y, z'
loop_
 _atom_site_type_symbol
 _atom_site_label
 _atom_site_symmetry_multiplicity
 _atom_site_fract_x
 _atom_site_fract_y
 _atom_site_fract_z
 _atom_site_occupancy
  Dy  Dy0  1  0.150593  0.150593  0.150593  1
  Dy  Dy1  1  0.950809  0.950809  0.950809  1
  Dy  Dy2  1  0.849407  0.849407  0.849407  1
  Dy  Dy3  1  0.049191  0.049191  0.049191  1
  Co  Co4  1  0.408694  0.899044  0.408694  1
  Co  Co5  1  0.899044  0.408694  0.408694  1
  Co  Co6  1  0.500000  0.500000  0.000000  1
  Co  Co7  1  0.500000  0.000000  0.500000  1
  Co  Co8  1  0.000000  0.500000  0.500000  1
  Co  Co9  1  0.591306  0.100956  0.591306  1
  Co  Co10  1  0.591306  0.591306  0.100956  1
  Co  Co11  1  0.100956  0.591306  0.591306  1
  Co  Co12  1  0.408694  0.408694  0.899044  1
  B  B13  1  0.618742  0.618742  0.618742  1
  B  B14  1  0.715483  0.715483  0.715483  1
  B  B15  1  0.381258  0.381258  0.381258  1
  B  B16  1  0.284517  0.284517  0.284517  1
  Ir  Ir17  1  0.500000  0.500000  0.500000  1
