# generated using pymatgen
data_Ho4Tc3B16Ru
_symmetry_space_group_name_H-M   'P 1'
_cell_length_a   3.57862900
_cell_length_b   5.95850754
_cell_length_c   11.52912167
_cell_angle_alpha   90.09458434
_cell_angle_beta   90.00000000
_cell_angle_gamma   90.00000000
_symmetry_Int_Tables_number   1
_chemical_formula_structural   Ho4Tc3B16Ru
_chemical_formula_sum   'Ho4 Tc3 B16 Ru1'
_cell_volume   245.83844525
_cell_formula_units_Z   1
loop_
 _symmetry_equiv_pos_site_id
 _symmetry_equiv_pos_as_xyz
  1  'x, y, z'
loop_
 _atom_site_type_symbol
 _atom_site_label
 _atom_site_symmetry_multiplicity
 _atom_site_fract_x
 _atom_site_fract_y
 _atom_site_fract_z
 _atom_site_occupancy
  Ho  Ho0  1  0.500000  0.371831  0.148265  1
  Ho  Ho1  1  0.500000  0.628998  0.850809  1
  Ho  Ho2  1  0.500000  0.126910  0.651499  1
  Ho  Ho3  1  0.500000  0.873206  0.349200  1
  Tc  Tc4  1  0.500000  0.368098  0.412337  1
  Tc  Tc5  1  0.500000  0.631495  0.586574  1
  Tc  Tc6  1  0.500000  0.138731  0.909776  1
  B  B7  1  0.000000  0.112906  0.047327  1
  B  B8  1  0.000000  0.886925  0.953227  1
  B  B9  1  0.000000  0.386313  0.547064  1
  B  B10  1  0.000000  0.613204  0.452351  1
  B  B11  1  0.000000  0.135258  0.468014  1
  B  B12  1  0.000000  0.864367  0.531520  1
  B  B13  1  0.000000  0.364657  0.969703  1
  B  B14  1  0.000000  0.636230  0.031046  1
  B  B15  1  0.000000  0.025828  0.192027  1
  B  B16  1  0.000000  0.974565  0.808066  1
  B  B17  1  0.000000  0.477884  0.692471  1
  B  B18  1  0.000000  0.523060  0.307206  1
  B  B19  1  0.000000  0.212155  0.314507  1
  B  B20  1  0.000000  0.787006  0.685305  1
  B  B21  1  0.000000  0.287420  0.814703  1
  B  B22  1  0.000000  0.711728  0.185224  1
  Ru  Ru23  1  0.500000  0.861223  0.091782  1
