# generated using pymatgen
data_Th3Sc(InRu)4
_symmetry_space_group_name_H-M   'P 1'
_cell_length_a   3.95924300
_cell_length_b   7.31574236
_cell_length_c   9.17219990
_cell_angle_alpha   90.53102034
_cell_angle_beta   90.00000000
_cell_angle_gamma   90.00000000
_symmetry_Int_Tables_number   1
_chemical_formula_structural   Th3Sc(InRu)4
_chemical_formula_sum   'Th3 Sc1 In4 Ru4'
_cell_volume   265.65954139
_cell_formula_units_Z   1
loop_
 _symmetry_equiv_pos_site_id
 _symmetry_equiv_pos_as_xyz
  1  'x, y, z'
loop_
 _atom_site_type_symbol
 _atom_site_label
 _atom_site_symmetry_multiplicity
 _atom_site_fract_x
 _atom_site_fract_y
 _atom_site_fract_z
 _atom_site_occupancy
  Th  Th0  1  0.250000  0.975715  0.313733  1
  Th  Th1  1  0.250000  0.474295  0.181238  1
  Th  Th2  1  0.750000  0.027843  0.693045  1
  Sc  Sc3  1  0.750000  0.530544  0.811100  1
  In  In4  1  0.250000  0.362971  0.554687  1
  In  In5  1  0.250000  0.833480  0.948555  1
  In  In6  1  0.750000  0.645698  0.454200  1
  In  In7  1  0.750000  0.147330  0.043686  1
  Ru  Ru8  1  0.250000  0.254705  0.840722  1
  Ru  Ru9  1  0.250000  0.748205  0.657423  1
  Ru  Ru10  1  0.750000  0.750422  0.161526  1
  Ru  Ru11  1  0.750000  0.248789  0.340087  1
