# generated using pymatgen
data_Ac2P3Au
_symmetry_space_group_name_H-M   'P 1'
_cell_length_a   8.08835400
_cell_length_b   4.38665100
_cell_length_c   16.92782400
_cell_angle_alpha   90.00000000
_cell_angle_beta   90.00026998
_cell_angle_gamma   90.00000000
_symmetry_Int_Tables_number   1
_chemical_formula_structural   Ac2P3Au
_chemical_formula_sum   'Ac8 P12 Au4'
_cell_volume   600.61250354
_cell_formula_units_Z   4
loop_
 _symmetry_equiv_pos_site_id
 _symmetry_equiv_pos_as_xyz
  1  'x, y, z'
loop_
 _atom_site_type_symbol
 _atom_site_label
 _atom_site_symmetry_multiplicity
 _atom_site_fract_x
 _atom_site_fract_y
 _atom_site_fract_z
 _atom_site_occupancy
  Ac  Ac0  1  0.260137  0.750001  0.019760  1
  Ac  Ac1  1  0.907179  0.750001  0.209488  1
  Ac  Ac2  1  0.407178  0.750001  0.290517  1
  Ac  Ac3  1  0.760140  0.750001  0.480238  1
  Ac  Ac4  1  0.239861  0.249999  0.519762  1
  Ac  Ac5  1  0.592822  0.249999  0.709483  1
  Ac  Ac6  1  0.092821  0.249999  0.790512  1
  Ac  Ac7  1  0.739862  0.249999  0.980240  1
  P  P8  1  0.609778  0.750001  0.095756  1
  P  P9  1  0.032761  0.249999  0.094866  1
  P  P10  1  0.200989  0.249999  0.197294  1
  P  P11  1  0.701003  0.249999  0.302716  1
  P  P12  1  0.532757  0.249999  0.405145  1
  P  P13  1  0.109781  0.750001  0.404248  1
  P  P14  1  0.890218  0.249999  0.595752  1
  P  P15  1  0.467244  0.750001  0.594855  1
  P  P16  1  0.298996  0.750001  0.697284  1
  P  P17  1  0.799012  0.750001  0.802707  1
  P  P18  1  0.967239  0.750001  0.905134  1
  P  P19  1  0.390222  0.249999  0.904244  1
  Au  Au20  1  0.498317  0.249999  0.141793  1
  Au  Au21  1  0.998320  0.249999  0.358210  1
  Au  Au22  1  0.001680  0.750001  0.641790  1
  Au  Au23  1  0.501683  0.750001  0.858208  1
