# generated using pymatgen
data_Lu4NiAg
_symmetry_space_group_name_H-M   'P 1'
_cell_length_a   9.24034208
_cell_length_b   9.24034229
_cell_length_c   9.24034300
_cell_angle_alpha   60.00000105
_cell_angle_beta   60.00000027
_cell_angle_gamma   60.00000096
_symmetry_Int_Tables_number   1
_chemical_formula_structural   Lu4NiAg
_chemical_formula_sum   'Lu16 Ni4 Ag4'
_cell_volume   557.89081394
_cell_formula_units_Z   4
loop_
 _symmetry_equiv_pos_site_id
 _symmetry_equiv_pos_as_xyz
  1  'x, y, z'
loop_
 _atom_site_type_symbol
 _atom_site_label
 _atom_site_symmetry_multiplicity
 _atom_site_fract_x
 _atom_site_fract_y
 _atom_site_fract_z
 _atom_site_occupancy
  Lu  Lu0  1  0.350090  0.350090  0.350090  1
  Lu  Lu1  1  0.350090  0.350090  0.949728  1
  Lu  Lu2  1  0.350090  0.949728  0.350090  1
  Lu  Lu3  1  0.949728  0.350090  0.350090  1
  Lu  Lu4  1  0.811054  0.188946  0.188946  1
  Lu  Lu5  1  0.188946  0.811054  0.811054  1
  Lu  Lu6  1  0.188946  0.811054  0.188946  1
  Lu  Lu7  1  0.811054  0.188946  0.811054  1
  Lu  Lu8  1  0.188946  0.188946  0.811054  1
  Lu  Lu9  1  0.811054  0.811054  0.188946  1
  Lu  Lu10  1  0.935512  0.564488  0.564488  1
  Lu  Lu11  1  0.564488  0.935512  0.935512  1
  Lu  Lu12  1  0.564488  0.935512  0.564488  1
  Lu  Lu13  1  0.935512  0.564488  0.935512  1
  Lu  Lu14  1  0.564488  0.564488  0.935512  1
  Lu  Lu15  1  0.935512  0.935512  0.564488  1
  Ni  Ni16  1  0.142522  0.142522  0.142522  1
  Ni  Ni17  1  0.142522  0.142522  0.572434  1
  Ni  Ni18  1  0.142522  0.572434  0.142522  1
  Ni  Ni19  1  0.572434  0.142522  0.142522  1
  Ag  Ag20  1  0.582404  0.582404  0.582404  1
  Ag  Ag21  1  0.582404  0.582404  0.252788  1
  Ag  Ag22  1  0.582404  0.252788  0.582404  1
  Ag  Ag23  1  0.252788  0.582404  0.582404  1
