# generated using pymatgen
data_Ho2Al20Ru3Rh
_symmetry_space_group_name_H-M   'P 1'
_cell_length_a   6.84498814
_cell_length_b   6.85317122
_cell_length_c   9.14349079
_cell_angle_alpha   90.13756715
_cell_angle_beta   90.16197202
_cell_angle_gamma   96.78488936
_symmetry_Int_Tables_number   1
_chemical_formula_structural   Ho2Al20Ru3Rh
_chemical_formula_sum   'Ho2 Al20 Ru3 Rh1'
_cell_volume   425.91284388
_cell_formula_units_Z   1
loop_
 _symmetry_equiv_pos_site_id
 _symmetry_equiv_pos_as_xyz
  1  'x, y, z'
loop_
 _atom_site_type_symbol
 _atom_site_label
 _atom_site_symmetry_multiplicity
 _atom_site_fract_x
 _atom_site_fract_y
 _atom_site_fract_z
 _atom_site_occupancy
  Ho  Ho0  1  0.871245  0.127017  0.750660  1
  Ho  Ho1  1  0.128755  0.872983  0.249340  1
  Al  Al2  1  0.621190  0.376078  0.550998  1
  Al  Al3  1  0.378810  0.623922  0.449002  1
  Al  Al4  1  0.377225  0.623375  0.049786  1
  Al  Al5  1  0.622775  0.376625  0.950214  1
  Al  Al6  1  0.226761  0.225537  0.499217  1
  Al  Al7  1  0.773239  0.774463  0.500783  1
  Al  Al8  1  0.774160  0.774667  0.999915  1
  Al  Al9  1  0.225840  0.225333  0.000085  1
  Al  Al10  1  0.844568  0.156021  0.099629  1
  Al  Al11  1  0.155432  0.843979  0.900371  1
  Al  Al12  1  0.156857  0.845067  0.601022  1
  Al  Al13  1  0.843143  0.154933  0.398978  1
  Al  Al14  1  0.858072  0.587008  0.750670  1
  Al  Al15  1  0.141928  0.412992  0.249330  1
  Al  Al16  1  0.413150  0.141024  0.750556  1
  Al  Al17  1  0.586850  0.858976  0.249444  1
  Al  Al18  1  0.222714  0.480379  0.752325  1
  Al  Al19  1  0.777286  0.519621  0.247675  1
  Al  Al20  1  0.519483  0.779047  0.749830  1
  Al  Al21  1  0.480517  0.220953  0.250170  1
  Ru  Ru22  1  0.000000  0.500000  0.000000  1
  Ru  Ru23  1  0.500000  0.000000  0.000000  1
  Ru  Ru24  1  0.500000  0.000000  0.500000  1
  Rh  Rh25  1  0.000000  0.500000  0.500000  1
