# generated using pymatgen
data_Ho2Er2Tc3PtF28
_symmetry_space_group_name_H-M   'P 1'
_cell_length_a   5.55671474
_cell_length_b   8.85843730
_cell_length_c   11.97271615
_cell_angle_alpha   62.63639815
_cell_angle_beta   89.96933001
_cell_angle_gamma   89.96964918
_symmetry_Int_Tables_number   1
_chemical_formula_structural   Ho2Er2Tc3PtF28
_chemical_formula_sum   'Ho2 Er2 Tc3 Pt1 F28'
_cell_volume   523.39959814
_cell_formula_units_Z   1
loop_
 _symmetry_equiv_pos_site_id
 _symmetry_equiv_pos_as_xyz
  1  'x, y, z'
loop_
 _atom_site_type_symbol
 _atom_site_label
 _atom_site_symmetry_multiplicity
 _atom_site_fract_x
 _atom_site_fract_y
 _atom_site_fract_z
 _atom_site_occupancy
  Ho  Ho0  1  0.240060  0.185401  0.236488  1
  Ho  Ho1  1  0.741340  0.812922  0.265239  1
  Er  Er2  1  0.759124  0.814222  0.764797  1
  Er  Er3  1  0.259573  0.185085  0.735712  1
  Tc  Tc4  1  0.758098  0.272883  0.956861  1
  Tc  Tc5  1  0.257949  0.726567  0.543558  1
  Tc  Tc6  1  0.242076  0.726701  0.043279  1
  Pt  Pt7  1  0.740679  0.272073  0.457189  1
  F  F8  1  0.443422  0.706508  0.916696  1
  F  F9  1  0.936942  0.297345  0.584070  1
  F  F10  1  0.556685  0.293206  0.083296  1
  F  F11  1  0.057605  0.706648  0.416793  1
  F  F12  1  0.440366  0.277252  0.543542  1
  F  F13  1  0.944033  0.723867  0.954265  1
  F  F14  1  0.555572  0.723488  0.454774  1
  F  F15  1  0.055330  0.275754  0.046092  1
  F  F16  1  0.775147  0.521790  0.859227  1
  F  F17  1  0.274070  0.477532  0.640903  1
  F  F18  1  0.224983  0.478146  0.141145  1
  F  F19  1  0.724758  0.521032  0.358235  1
  F  F20  1  0.755811  0.025210  0.053227  1
  F  F21  1  0.255594  0.974360  0.447199  1
  F  F22  1  0.244523  0.974567  0.946662  1
  F  F23  1  0.745473  0.022940  0.550697  1
  F  F24  1  0.971320  0.728394  0.639049  1
  F  F25  1  0.472070  0.271466  0.861001  1
  F  F26  1  0.032682  0.275128  0.363366  1
  F  F27  1  0.527989  0.728140  0.138793  1
  F  F28  1  0.047512  0.746963  0.173408  1
  F  F29  1  0.551270  0.254259  0.324549  1
  F  F30  1  0.954526  0.252600  0.826865  1
  F  F31  1  0.454071  0.747103  0.673454  1
  F  F32  1  0.418296  0.970677  0.232330  1
  F  F33  1  0.917789  0.029281  0.267899  1
  F  F34  1  0.581739  0.029507  0.767243  1
  F  F35  1  0.081523  0.970983  0.732097  1
