# generated using pymatgen
data_La3Pr5Te8
_symmetry_space_group_name_H-M   'P 1'
_cell_length_a   9.11028231
_cell_length_b   9.08092735
_cell_length_c   9.11028200
_cell_angle_alpha   59.89301000
_cell_angle_beta   60.00000111
_cell_angle_gamma   59.89300963
_symmetry_Int_Tables_number   1
_chemical_formula_structural   La3Pr5Te8
_chemical_formula_sum   'La3 Pr5 Te8'
_cell_volume   532.07719327
_cell_formula_units_Z   1
loop_
 _symmetry_equiv_pos_site_id
 _symmetry_equiv_pos_as_xyz
  1  'x, y, z'
loop_
 _atom_site_type_symbol
 _atom_site_label
 _atom_site_symmetry_multiplicity
 _atom_site_fract_x
 _atom_site_fract_y
 _atom_site_fract_z
 _atom_site_occupancy
  La  La0  1  0.125000  0.125000  0.625000  1
  La  La1  1  0.625000  0.125000  0.125000  1
  La  La2  1  0.125000  0.125000  0.125000  1
  Pr  Pr3  1  0.125000  0.625000  0.125000  1
  Pr  Pr4  1  0.625000  0.125000  0.625000  1
  Pr  Pr5  1  0.625000  0.625000  0.625000  1
  Pr  Pr6  1  0.125000  0.625000  0.625000  1
  Pr  Pr7  1  0.625000  0.625000  0.125000  1
  Te  Te8  1  0.375719  0.872842  0.375719  1
  Te  Te9  1  0.874281  0.377158  0.874281  1
  Te  Te10  1  0.875159  0.873461  0.376222  1
  Te  Te11  1  0.875159  0.873461  0.875159  1
  Te  Te12  1  0.873778  0.376539  0.374841  1
  Te  Te13  1  0.374841  0.376539  0.873778  1
  Te  Te14  1  0.374841  0.376539  0.374841  1
  Te  Te15  1  0.376222  0.873461  0.875159  1
