# generated using pymatgen
data_Y3Mg2AlSi2Rh
_symmetry_space_group_name_H-M   'P 1'
_cell_length_a   7.17168827
_cell_length_b   7.10396102
_cell_length_c   4.22172000
_cell_angle_alpha   90.00000000
_cell_angle_beta   90.00000000
_cell_angle_gamma   119.68808886
_symmetry_Int_Tables_number   1
_chemical_formula_structural   Y3Mg2AlSi2Rh
_chemical_formula_sum   'Y3 Mg2 Al1 Si2 Rh1'
_cell_volume   186.85230773
_cell_formula_units_Z   1
loop_
 _symmetry_equiv_pos_site_id
 _symmetry_equiv_pos_as_xyz
  1  'x, y, z'
loop_
 _atom_site_type_symbol
 _atom_site_label
 _atom_site_symmetry_multiplicity
 _atom_site_fract_x
 _atom_site_fract_y
 _atom_site_fract_z
 _atom_site_occupancy
  Y  Y0  1  0.413955  0.000840  0.000000  1
  Y  Y1  1  0.000000  0.422309  0.000000  1
  Y  Y2  1  0.586045  0.586884  0.000000  1
  Mg  Mg3  1  0.760954  0.000738  0.500000  1
  Mg  Mg4  1  0.239046  0.239783  0.500000  1
  Al  Al5  1  0.000000  0.761241  0.500000  1
  Si  Si6  1  0.674256  0.345086  0.500000  1
  Si  Si7  1  0.325745  0.670830  0.500000  1
  Rh  Rh8  1  0.000000  0.972289  0.000000  1
