# generated using pymatgen
data_Ho2Pa(AlIr)3
_symmetry_space_group_name_H-M   'P 1'
_cell_length_a   7.06595320
_cell_length_b   7.21563217
_cell_length_c   3.96023600
_cell_angle_alpha   90.00000000
_cell_angle_beta   90.00000000
_cell_angle_gamma   120.70323821
_symmetry_Int_Tables_number   1
_chemical_formula_structural   Ho2Pa(AlIr)3
_chemical_formula_sum   'Ho2 Pa1 Al3 Ir3'
_cell_volume   173.61029648
_cell_formula_units_Z   1
loop_
 _symmetry_equiv_pos_site_id
 _symmetry_equiv_pos_as_xyz
  1  'x, y, z'
loop_
 _atom_site_type_symbol
 _atom_site_label
 _atom_site_symmetry_multiplicity
 _atom_site_fract_x
 _atom_site_fract_y
 _atom_site_fract_z
 _atom_site_occupancy
  Ho  Ho0  1  0.411770  0.415128  0.500000  1
  Ho  Ho1  1  0.588230  0.003358  0.500000  1
  Pa  Pa2  1  0.000000  0.578320  0.500000  1
  Al  Al3  1  0.751725  0.758226  0.000000  1
  Al  Al4  1  0.248275  0.006501  0.000000  1
  Al  Al5  1  0.000000  0.227501  0.000000  1
  Ir  Ir6  1  0.691328  0.356887  0.000000  1
  Ir  Ir7  1  0.308672  0.665559  0.000000  1
  Ir  Ir8  1  0.000000  0.988522  0.500000  1
