# generated using pymatgen
data_Bi(PAu)2
_symmetry_space_group_name_H-M   'P 1'
_cell_length_a   6.02108549
_cell_length_b   6.02108649
_cell_length_c   11.42581000
_cell_angle_alpha   90.00000000
_cell_angle_beta   90.00000000
_cell_angle_gamma   148.55246528
_symmetry_Int_Tables_number   1
_chemical_formula_structural   Bi(PAu)2
_chemical_formula_sum   'Bi2 P4 Au4'
_cell_volume   216.10864316
_cell_formula_units_Z   2
loop_
 _symmetry_equiv_pos_site_id
 _symmetry_equiv_pos_as_xyz
  1  'x, y, z'
loop_
 _atom_site_type_symbol
 _atom_site_label
 _atom_site_symmetry_multiplicity
 _atom_site_fract_x
 _atom_site_fract_y
 _atom_site_fract_z
 _atom_site_occupancy
  Bi  Bi0  1  0.519779  0.480221  0.750000  1
  Bi  Bi1  1  0.480253  0.519747  0.250000  1
  P  P2  1  0.798328  0.201672  0.543528  1
  P  P3  1  0.201738  0.798262  0.043167  1
  P  P4  1  0.201738  0.798262  0.456833  1
  P  P5  1  0.798328  0.201672  0.956472  1
  Au  Au6  1  0.999964  0.000036  0.000085  1
  Au  Au7  1  0.774729  0.225271  0.750000  1
  Au  Au8  1  0.999964  0.000036  0.499915  1
  Au  Au9  1  0.225178  0.774822  0.250000  1
