# generated using pymatgen
data_Sr2In3Fe3(P3O13)2
_symmetry_space_group_name_H-M   'P 1'
_cell_length_a   6.58201500
_cell_length_b   7.87435556
_cell_length_c   10.62198645
_cell_angle_alpha   80.21146657
_cell_angle_beta   90.00000000
_cell_angle_gamma   90.00000000
_symmetry_Int_Tables_number   1
_chemical_formula_structural   Sr2In3Fe3(P3O13)2
_chemical_formula_sum   'Sr2 In3 Fe3 P6 O26'
_cell_volume   542.51365645
_cell_formula_units_Z   1
loop_
 _symmetry_equiv_pos_site_id
 _symmetry_equiv_pos_as_xyz
  1  'x, y, z'
loop_
 _atom_site_type_symbol
 _atom_site_label
 _atom_site_symmetry_multiplicity
 _atom_site_fract_x
 _atom_site_fract_y
 _atom_site_fract_z
 _atom_site_occupancy
  Sr  Sr0  1  0.250000  0.340344  0.703372  1
  Sr  Sr1  1  0.750000  0.652113  0.302905  1
  In  In2  1  0.250000  0.786962  0.058650  1
  In  In3  1  0.999702  0.001889  0.496602  1
  In  In4  1  0.500298  0.001889  0.496602  1
  Fe  Fe5  1  0.750000  0.212795  0.941867  1
  Fe  Fe6  1  0.250000  0.353172  0.292987  1
  Fe  Fe7  1  0.750000  0.649719  0.702242  1
  P  P8  1  0.250000  0.217999  0.018610  1
  P  P9  1  0.750000  0.788728  0.983852  1
  P  P10  1  0.750000  0.319126  0.624933  1
  P  P11  1  0.750000  0.257673  0.257457  1
  P  P12  1  0.250000  0.741330  0.734071  1
  P  P13  1  0.250000  0.673163  0.383374  1
  O  O14  1  0.250000  0.799791  0.863350  1
  O  O15  1  0.750000  0.080584  0.354248  1
  O  O16  1  0.061711  0.246496  0.926601  1
  O  O17  1  0.936390  0.364934  0.285594  1
  O  O18  1  0.567811  0.748792  0.078321  1
  O  O19  1  0.444173  0.777142  0.400043  1
  O  O20  1  0.563610  0.364934  0.285594  1
  O  O21  1  0.250000  0.133450  0.401165  1
  O  O22  1  0.932189  0.748792  0.078321  1
  O  O23  1  0.250000  0.035952  0.099970  1
  O  O24  1  0.943975  0.218065  0.602257  1
  O  O25  1  0.063013  0.631029  0.711217  1
  O  O26  1  0.055827  0.777142  0.400043  1
  O  O27  1  0.750000  0.356541  0.766411  1
  O  O28  1  0.250000  0.352656  0.108354  1
  O  O29  1  0.556025  0.218065  0.602257  1
  O  O30  1  0.436987  0.631029  0.711217  1
  O  O31  1  0.750000  0.506068  0.549761  1
  O  O32  1  0.750000  0.215265  0.122142  1
  O  O33  1  0.250000  0.913470  0.632493  1
  O  O34  1  0.250000  0.488298  0.460020  1
  O  O35  1  0.750000  0.868739  0.593049  1
  O  O36  1  0.438289  0.246496  0.926601  1
  O  O37  1  0.750000  0.979535  0.916898  1
  O  O38  1  0.750000  0.671336  0.883208  1
  O  O39  1  0.250000  0.628499  0.243341  1
