# generated using pymatgen
data_Ho8Sc12Si15Se
_symmetry_space_group_name_H-M   'P 1'
_cell_length_a   7.14206258
_cell_length_b   7.34211921
_cell_length_c   13.94233274
_cell_angle_alpha   89.94573580
_cell_angle_beta   88.32970218
_cell_angle_gamma   90.13578469
_symmetry_Int_Tables_number   1
_chemical_formula_structural   Ho8Sc12Si15Se
_chemical_formula_sum   'Ho8 Sc12 Si15 Se1'
_cell_volume   730.79322637
_cell_formula_units_Z   1
loop_
 _symmetry_equiv_pos_site_id
 _symmetry_equiv_pos_as_xyz
  1  'x, y, z'
loop_
 _atom_site_type_symbol
 _atom_site_label
 _atom_site_symmetry_multiplicity
 _atom_site_fract_x
 _atom_site_fract_y
 _atom_site_fract_z
 _atom_site_occupancy
  Ho  Ho0  1  0.011951  0.176410  0.097378  1
  Ho  Ho1  1  0.988501  0.824638  0.902423  1
  Ho  Ho2  1  0.488639  0.676243  0.902809  1
  Ho  Ho3  1  0.995800  0.824705  0.596084  1
  Ho  Ho4  1  0.511764  0.324620  0.097476  1
  Ho  Ho5  1  0.999636  0.175306  0.402296  1
  Ho  Ho6  1  0.502694  0.317938  0.400784  1
  Ho  Ho7  1  0.506451  0.681181  0.598604  1
  Sc  Sc8  1  0.165970  0.500674  0.752346  1
  Sc  Sc9  1  0.833565  0.498757  0.253318  1
  Sc  Sc10  1  0.332739  0.000887  0.251426  1
  Sc  Sc11  1  0.667556  0.998739  0.749136  1
  Sc  Sc12  1  0.347238  0.167012  0.627022  1
  Sc  Sc13  1  0.654651  0.828930  0.373950  1
  Sc  Sc14  1  0.153266  0.670911  0.377306  1
  Sc  Sc15  1  0.667467  0.823626  0.125463  1
  Sc  Sc16  1  0.841133  0.330662  0.621558  1
  Sc  Sc17  1  0.332100  0.175941  0.873855  1
  Sc  Sc18  1  0.833168  0.323857  0.873944  1
  Sc  Sc19  1  0.167031  0.676658  0.125447  1
  Si  Si20  1  0.039274  0.118222  0.748349  1
  Si  Si21  1  0.960471  0.882595  0.249899  1
  Si  Si22  1  0.457816  0.616514  0.249384  1
  Si  Si23  1  0.540695  0.384462  0.749748  1
  Si  Si24  1  0.290445  0.869453  0.750122  1
  Si  Si25  1  0.709677  0.127861  0.248523  1
  Si  Si26  1  0.208131  0.372590  0.249870  1
  Si  Si27  1  0.794055  0.628399  0.750122  1
  Si  Si28  1  0.802793  0.540482  0.456910  1
  Si  Si29  1  0.321908  0.960675  0.460505  1
  Si  Si30  1  0.843122  0.535008  0.039424  1
  Si  Si31  1  0.676105  0.039189  0.540327  1
  Si  Si32  1  0.156176  0.465980  0.960479  1
  Si  Si33  1  0.655957  0.035061  0.959653  1
  Si  Si34  1  0.343637  0.966201  0.040314  1
  Se  Se35  1  0.198419  0.459614  0.543747  1
