# generated using pymatgen
data_RbBa3USe6
_symmetry_space_group_name_H-M   'P 1'
_cell_length_a   9.08099269
_cell_length_b   9.08099295
_cell_length_c   9.08099299
_cell_angle_alpha   87.79017180
_cell_angle_beta   87.79017394
_cell_angle_gamma   87.79017651
_symmetry_Int_Tables_number   1
_chemical_formula_structural   RbBa3USe6
_chemical_formula_sum   'Rb2 Ba6 U2 Se12'
_cell_volume   747.22995982
_cell_formula_units_Z   2
loop_
 _symmetry_equiv_pos_site_id
 _symmetry_equiv_pos_as_xyz
  1  'x, y, z'
loop_
 _atom_site_type_symbol
 _atom_site_label
 _atom_site_symmetry_multiplicity
 _atom_site_fract_x
 _atom_site_fract_y
 _atom_site_fract_z
 _atom_site_occupancy
  Rb  Rb0  1  0.250000  0.250000  0.250000  1
  Rb  Rb1  1  0.750000  0.750000  0.750000  1
  Ba  Ba2  1  0.876914  0.623086  0.250000  1
  Ba  Ba3  1  0.250000  0.876914  0.623086  1
  Ba  Ba4  1  0.623086  0.250000  0.876914  1
  Ba  Ba5  1  0.750000  0.123086  0.376914  1
  Ba  Ba6  1  0.376914  0.750000  0.123086  1
  Ba  Ba7  1  0.123086  0.376914  0.750000  1
  U  U8  1  0.500000  0.500000  0.500000  1
  U  U9  1  0.000000  0.000000  0.000000  1
  Se  Se10  1  0.208511  0.569379  0.432370  1
  Se  Se11  1  0.432370  0.208511  0.569379  1
  Se  Se12  1  0.569379  0.432370  0.208511  1
  Se  Se13  1  0.932370  0.069379  0.708511  1
  Se  Se14  1  0.708511  0.932370  0.069379  1
  Se  Se15  1  0.069379  0.708511  0.932370  1
  Se  Se16  1  0.791489  0.430621  0.567630  1
  Se  Se17  1  0.567630  0.791489  0.430621  1
  Se  Se18  1  0.430621  0.567630  0.791489  1
  Se  Se19  1  0.067630  0.930621  0.291489  1
  Se  Se20  1  0.291489  0.067630  0.930621  1
  Se  Se21  1  0.930621  0.291489  0.067630  1
