# generated using pymatgen
data_HoTm7Sc12(GaSi3)4
_symmetry_space_group_name_H-M   'P 1'
_cell_length_a   7.09118740
_cell_length_b   7.37520166
_cell_length_c   14.07395125
_cell_angle_alpha   90.01875622
_cell_angle_beta   89.85588850
_cell_angle_gamma   90.15421318
_symmetry_Int_Tables_number   1
_chemical_formula_structural   HoTm7Sc12(GaSi3)4
_chemical_formula_sum   'Ho1 Tm7 Sc12 Ga4 Si12'
_cell_volume   736.04765783
_cell_formula_units_Z   1
loop_
 _symmetry_equiv_pos_site_id
 _symmetry_equiv_pos_as_xyz
  1  'x, y, z'
loop_
 _atom_site_type_symbol
 _atom_site_label
 _atom_site_symmetry_multiplicity
 _atom_site_fract_x
 _atom_site_fract_y
 _atom_site_fract_z
 _atom_site_occupancy
  Ho  Ho0  1  0.013489  0.175215  0.096861  1
  Tm  Tm1  1  0.988087  0.824271  0.901825  1
  Tm  Tm2  1  0.487199  0.677544  0.901629  1
  Tm  Tm3  1  0.987920  0.826868  0.600097  1
  Tm  Tm4  1  0.510693  0.320902  0.097197  1
  Tm  Tm5  1  0.009597  0.175349  0.400642  1
  Tm  Tm6  1  0.510943  0.324025  0.400681  1
  Tm  Tm7  1  0.490392  0.676389  0.600401  1
  Sc  Sc8  1  0.162777  0.501695  0.751471  1
  Sc  Sc9  1  0.836570  0.497653  0.250115  1
  Sc  Sc10  1  0.336435  0.002855  0.248430  1
  Sc  Sc11  1  0.663411  0.997436  0.750015  1
  Sc  Sc12  1  0.333565  0.174452  0.627823  1
  Sc  Sc13  1  0.669133  0.826377  0.373718  1
  Sc  Sc14  1  0.170033  0.673504  0.373055  1
  Sc  Sc15  1  0.668582  0.826145  0.125520  1
  Sc  Sc16  1  0.829078  0.324828  0.626703  1
  Sc  Sc17  1  0.330637  0.175515  0.874594  1
  Sc  Sc18  1  0.829168  0.323509  0.874235  1
  Sc  Sc19  1  0.173172  0.675317  0.124428  1
  Ga  Ga20  1  0.162834  0.461775  0.539702  1
  Ga  Ga21  1  0.838176  0.537604  0.461407  1
  Ga  Ga22  1  0.338295  0.962268  0.461468  1
  Ga  Ga23  1  0.838533  0.538182  0.038576  1
  Si  Si24  1  0.032696  0.114543  0.751129  1
  Si  Si25  1  0.967403  0.885199  0.249346  1
  Si  Si26  1  0.467759  0.613007  0.248531  1
  Si  Si27  1  0.532669  0.386991  0.751153  1
  Si  Si28  1  0.285745  0.869983  0.751124  1
  Si  Si29  1  0.714645  0.129613  0.248844  1
  Si  Si30  1  0.214320  0.370499  0.248915  1
  Si  Si31  1  0.786439  0.630544  0.751430  1
  Si  Si32  1  0.659171  0.035731  0.539271  1
  Si  Si33  1  0.159253  0.464324  0.960747  1
  Si  Si34  1  0.657673  0.035464  0.961240  1
  Si  Si35  1  0.343510  0.964424  0.037683  1
