# generated using pymatgen
data_Sc3GaP2IrRh2
_symmetry_space_group_name_H-M   'P 1'
_cell_length_a   6.50024700
_cell_length_b   6.49475220
_cell_length_c   3.88651700
_cell_angle_alpha   90.00000000
_cell_angle_beta   90.00000000
_cell_angle_gamma   120.02799572
_symmetry_Int_Tables_number   1
_chemical_formula_structural   Sc3GaP2IrRh2
_chemical_formula_sum   'Sc3 Ga1 P2 Ir1 Rh2'
_cell_volume   142.05648469
_cell_formula_units_Z   1
loop_
 _symmetry_equiv_pos_site_id
 _symmetry_equiv_pos_as_xyz
  1  'x, y, z'
loop_
 _atom_site_type_symbol
 _atom_site_label
 _atom_site_symmetry_multiplicity
 _atom_site_fract_x
 _atom_site_fract_y
 _atom_site_fract_z
 _atom_site_occupancy
  Sc  Sc0  1  0.999208  0.425555  0.500000  1
  Sc  Sc1  1  0.573653  0.574445  0.500000  1
  Sc  Sc2  1  0.427371  0.000000  0.500000  1
  Ga  Ga3  1  0.001900  0.000000  0.500000  1
  P  P4  1  0.666492  0.333088  0.000000  1
  P  P5  1  0.333403  0.666912  0.000000  1
  Ir  Ir6  1  0.745876  0.000000  0.000000  1
  Rh  Rh7  1  0.999067  0.746037  0.000000  1
  Rh  Rh8  1  0.253030  0.253963  0.000000  1
