# generated using pymatgen
data_Tm4B16Ir3Ru13
_symmetry_space_group_name_H-M   'P 1'
_cell_length_a   9.20552976
_cell_length_b   7.47911737
_cell_length_c   7.48382532
_cell_angle_alpha   90.00220280
_cell_angle_beta   114.01322015
_cell_angle_gamma   114.09633609
_symmetry_Int_Tables_number   1
_chemical_formula_structural   Tm4B16Ir3Ru13
_chemical_formula_sum   'Tm4 B16 Ir3 Ru13'
_cell_volume   421.02881027
_cell_formula_units_Z   1
loop_
 _symmetry_equiv_pos_site_id
 _symmetry_equiv_pos_as_xyz
  1  'x, y, z'
loop_
 _atom_site_type_symbol
 _atom_site_label
 _atom_site_symmetry_multiplicity
 _atom_site_fract_x
 _atom_site_fract_y
 _atom_site_fract_z
 _atom_site_occupancy
  Tm  Tm0  1  0.749753  0.875325  0.124367  1
  Tm  Tm1  1  0.251976  0.625705  0.375693  1
  Tm  Tm2  1  0.748697  0.374160  0.622689  1
  Tm  Tm3  1  0.248748  0.126327  0.872596  1
  B  B4  1  0.911388  0.283743  0.068034  1
  B  B5  1  0.414541  0.564125  0.125663  1
  B  B6  1  0.087254  0.215828  0.155138  1
  B  B7  1  0.586941  0.154667  0.211427  1
  B  B8  1  0.415345  0.068493  0.292325  1
  B  B9  1  0.912579  0.623191  0.352467  1
  B  B10  1  0.587090  0.651551  0.376739  1
  B  B11  1  0.086503  0.876590  0.439534  1
  B  B12  1  0.913222  0.124829  0.566590  1
  B  B13  1  0.414390  0.347188  0.624168  1
  B  B14  1  0.086111  0.374489  0.654139  1
  B  B15  1  0.588053  0.933391  0.711695  1
  B  B16  1  0.414280  0.845238  0.784610  1
  B  B17  1  0.912363  0.789314  0.844234  1
  B  B18  1  0.583809  0.431707  0.874963  1
  B  B19  1  0.085280  0.709484  0.929286  1
  Ir  Ir20  1  0.875860  0.551730  0.037025  1
  Ir  Ir21  1  0.376984  0.838565  0.050267  1
  Ir  Ir22  1  0.122354  0.948360  0.162020  1
  Ru  Ru23  1  0.626826  0.462699  0.176723  1
  Ru  Ru24  1  0.372700  0.334641  0.321358  1
  Ru  Ru25  1  0.873566  0.322205  0.336439  1
  Ru  Ru26  1  0.625736  0.962063  0.447666  1
  Ru  Ru27  1  0.127134  0.178360  0.462646  1
  Ru  Ru28  1  0.873389  0.823026  0.537772  1
  Ru  Ru29  1  0.372013  0.035764  0.550819  1
  Ru  Ru30  1  0.127837  0.677590  0.664289  1
  Ru  Ru31  1  0.625180  0.664355  0.676484  1
  Ru  Ru32  1  0.373266  0.537030  0.822822  1
  Ru  Ru33  1  0.873040  0.052445  0.834422  1
  Ru  Ru34  1  0.626939  0.166020  0.948664  1
  Ru  Ru35  1  0.128854  0.449805  0.964227  1
