# generated using pymatgen
data_Ac5SiBi2
_symmetry_space_group_name_H-M   'P 1'
_cell_length_a   13.25359700
_cell_length_b   10.05346600
_cell_length_c   8.88661000
_cell_angle_alpha   90.00000000
_cell_angle_beta   90.00000000
_cell_angle_gamma   90.00000000
_symmetry_Int_Tables_number   1
_chemical_formula_structural   Ac5SiBi2
_chemical_formula_sum   'Ac20 Si4 Bi8'
_cell_volume   1184.09267766
_cell_formula_units_Z   4
loop_
 _symmetry_equiv_pos_site_id
 _symmetry_equiv_pos_as_xyz
  1  'x, y, z'
loop_
 _atom_site_type_symbol
 _atom_site_label
 _atom_site_symmetry_multiplicity
 _atom_site_fract_x
 _atom_site_fract_y
 _atom_site_fract_z
 _atom_site_occupancy
  Ac  Ac0  1  0.060993  0.548631  0.817355  1
  Ac  Ac1  1  0.560993  0.951369  0.682645  1
  Ac  Ac2  1  0.939007  0.048631  0.182645  1
  Ac  Ac3  1  0.439007  0.451369  0.317355  1
  Ac  Ac4  1  0.939007  0.451369  0.182645  1
  Ac  Ac5  1  0.439007  0.048631  0.317355  1
  Ac  Ac6  1  0.060993  0.951369  0.817355  1
  Ac  Ac7  1  0.560993  0.548631  0.682645  1
  Ac  Ac8  1  0.002763  0.750000  0.467033  1
  Ac  Ac9  1  0.502763  0.750000  0.032967  1
  Ac  Ac10  1  0.997237  0.250000  0.532967  1
  Ac  Ac11  1  0.497237  0.250000  0.967033  1
  Ac  Ac12  1  0.213319  0.750000  0.162297  1
  Ac  Ac13  1  0.713319  0.750000  0.337703  1
  Ac  Ac14  1  0.786681  0.250000  0.837703  1
  Ac  Ac15  1  0.286681  0.250000  0.662297  1
  Ac  Ac16  1  0.293273  0.750000  0.635373  1
  Ac  Ac17  1  0.793273  0.750000  0.864627  1
  Ac  Ac18  1  0.706727  0.250000  0.364627  1
  Ac  Ac19  1  0.206727  0.250000  0.135373  1
  Si  Si20  1  0.478295  0.750000  0.414315  1
  Si  Si21  1  0.978295  0.750000  0.085685  1
  Si  Si22  1  0.521705  0.250000  0.585685  1
  Si  Si23  1  0.021705  0.250000  0.914315  1
  Bi  Bi24  1  0.325073  0.510414  0.927565  1
  Bi  Bi25  1  0.825073  0.989586  0.572435  1
  Bi  Bi26  1  0.674927  0.010414  0.072435  1
  Bi  Bi27  1  0.174927  0.489586  0.427565  1
  Bi  Bi28  1  0.674927  0.489586  0.072435  1
  Bi  Bi29  1  0.174927  0.010414  0.427565  1
  Bi  Bi30  1  0.325073  0.989586  0.927565  1
  Bi  Bi31  1  0.825073  0.510414  0.572435  1
