# generated using pymatgen
data_CaAc3(SnPt)4
_symmetry_space_group_name_H-M   'P 1'
_cell_length_a   4.76996100
_cell_length_b   7.74651001
_cell_length_c   8.24473900
_cell_angle_alpha   90.00384485
_cell_angle_beta   90.00000000
_cell_angle_gamma   90.00000000
_symmetry_Int_Tables_number   1
_chemical_formula_structural   CaAc3(SnPt)4
_chemical_formula_sum   'Ca1 Ac3 Sn4 Pt4'
_cell_volume   304.64764515
_cell_formula_units_Z   1
loop_
 _symmetry_equiv_pos_site_id
 _symmetry_equiv_pos_as_xyz
  1  'x, y, z'
loop_
 _atom_site_type_symbol
 _atom_site_label
 _atom_site_symmetry_multiplicity
 _atom_site_fract_x
 _atom_site_fract_y
 _atom_site_fract_z
 _atom_site_occupancy
  Ca  Ca0  1  0.750000  0.517508  0.804144  1
  Ac  Ac1  1  0.250000  0.981677  0.309442  1
  Ac  Ac2  1  0.250000  0.484305  0.186809  1
  Ac  Ac3  1  0.750000  0.018094  0.693528  1
  Sn  Sn4  1  0.250000  0.339170  0.588093  1
  Sn  Sn5  1  0.250000  0.822497  0.917379  1
  Sn  Sn6  1  0.750000  0.664106  0.427283  1
  Sn  Sn7  1  0.750000  0.174241  0.077539  1
  Pt  Pt8  1  0.250000  0.206983  0.901811  1
  Pt  Pt9  1  0.250000  0.706360  0.599570  1
  Pt  Pt10  1  0.750000  0.792705  0.089523  1
  Pt  Pt11  1  0.750000  0.292354  0.404879  1
