# generated using pymatgen
data_NdTa8AlSe16
_symmetry_space_group_name_H-M   'P 1'
_cell_length_a   7.01047300
_cell_length_b   7.01047127
_cell_length_c   13.81047200
_cell_angle_alpha   90.00000000
_cell_angle_beta   90.00000000
_cell_angle_gamma   120.00000345
_symmetry_Int_Tables_number   1
_chemical_formula_structural   NdTa8AlSe16
_chemical_formula_sum   'Nd1 Ta8 Al1 Se16'
_cell_volume   587.80553747
_cell_formula_units_Z   1
loop_
 _symmetry_equiv_pos_site_id
 _symmetry_equiv_pos_as_xyz
  1  'x, y, z'
loop_
 _atom_site_type_symbol
 _atom_site_label
 _atom_site_symmetry_multiplicity
 _atom_site_fract_x
 _atom_site_fract_y
 _atom_site_fract_z
 _atom_site_occupancy
  Nd  Nd0  1  0.000000  0.000000  0.500000  1
  Ta  Ta1  1  0.000000  0.000000  0.232367  1
  Ta  Ta2  1  0.000000  0.000000  0.767633  1
  Ta  Ta3  1  0.507539  0.015079  0.229022  1
  Ta  Ta4  1  0.984921  0.492461  0.229022  1
  Ta  Ta5  1  0.507539  0.492461  0.229022  1
  Ta  Ta6  1  0.492461  0.984921  0.770978  1
  Ta  Ta7  1  0.015079  0.507539  0.770978  1
  Ta  Ta8  1  0.492461  0.507539  0.770978  1
  Al  Al9  1  0.000000  0.000000  0.000000  1
  Se  Se10  1  0.333333  0.666667  0.894769  1
  Se  Se11  1  0.666667  0.333333  0.105231  1
  Se  Se12  1  0.666667  0.333333  0.354705  1
  Se  Se13  1  0.333333  0.666667  0.645295  1
  Se  Se14  1  0.170952  0.829048  0.349379  1
  Se  Se15  1  0.170952  0.341904  0.349379  1
  Se  Se16  1  0.658096  0.829048  0.349379  1
  Se  Se17  1  0.829048  0.170952  0.650621  1
  Se  Se18  1  0.829048  0.658096  0.650621  1
  Se  Se19  1  0.341904  0.170952  0.650621  1
  Se  Se20  1  0.831238  0.168762  0.889158  1
  Se  Se21  1  0.831238  0.662477  0.889158  1
  Se  Se22  1  0.337523  0.168762  0.889158  1
  Se  Se23  1  0.168762  0.831238  0.110842  1
  Se  Se24  1  0.168762  0.337523  0.110842  1
  Se  Se25  1  0.662477  0.831238  0.110842  1
