# generated using pymatgen
data_Gd3Y(TcB2)4
_symmetry_space_group_name_H-M   'P 1'
_cell_length_a   5.28659400
_cell_length_b   5.95019547
_cell_length_c   6.44084600
_cell_angle_alpha   90.02283090
_cell_angle_beta   90.00000000
_cell_angle_gamma   90.00000000
_symmetry_Int_Tables_number   1
_chemical_formula_structural   Gd3Y(TcB2)4
_chemical_formula_sum   'Gd3 Y1 Tc4 B8'
_cell_volume   202.60495980
_cell_formula_units_Z   1
loop_
 _symmetry_equiv_pos_site_id
 _symmetry_equiv_pos_as_xyz
  1  'x, y, z'
loop_
 _atom_site_type_symbol
 _atom_site_label
 _atom_site_symmetry_multiplicity
 _atom_site_fract_x
 _atom_site_fract_y
 _atom_site_fract_z
 _atom_site_occupancy
  Gd  Gd0  1  0.250000  0.011406  0.341366  1
  Gd  Gd1  1  0.250000  0.511663  0.159188  1
  Gd  Gd2  1  0.750000  0.987777  0.658467  1
  Y  Y3  1  0.750000  0.486840  0.839388  1
  Tc  Tc4  1  0.250000  0.182588  0.814516  1
  Tc  Tc5  1  0.250000  0.681428  0.686579  1
  Tc  Tc6  1  0.750000  0.818301  0.185440  1
  Tc  Tc7  1  0.750000  0.318599  0.314148  1
  B  B8  1  0.078442  0.372192  0.537103  1
  B  B9  1  0.421845  0.871871  0.962805  1
  B  B10  1  0.578620  0.628249  0.463801  1
  B  B11  1  0.921536  0.128388  0.036745  1
  B  B12  1  0.921380  0.628249  0.463801  1
  B  B13  1  0.578464  0.128388  0.036745  1
  B  B14  1  0.421558  0.372192  0.537103  1
  B  B15  1  0.078155  0.871871  0.962805  1
