# generated using pymatgen
data_Lu2Si5Rh3
_symmetry_space_group_name_H-M   'P 1'
_cell_length_a   8.06873519
_cell_length_b   8.06873501
_cell_length_c   5.64217927
_cell_angle_alpha   71.18376085
_cell_angle_beta   71.18376279
_cell_angle_gamma   93.25581619
_symmetry_Int_Tables_number   1
_chemical_formula_structural   Lu2Si5Rh3
_chemical_formula_sum   'Lu4 Si10 Rh6'
_cell_volume   323.77315536
_cell_formula_units_Z   2
loop_
 _symmetry_equiv_pos_site_id
 _symmetry_equiv_pos_as_xyz
  1  'x, y, z'
loop_
 _atom_site_type_symbol
 _atom_site_label
 _atom_site_symmetry_multiplicity
 _atom_site_fract_x
 _atom_site_fract_y
 _atom_site_fract_z
 _atom_site_occupancy
  Lu  Lu0  1  0.866386  0.596095  0.763873  1
  Lu  Lu1  1  0.403905  0.133614  0.736127  1
  Lu  Lu2  1  0.133614  0.403905  0.236127  1
  Lu  Lu3  1  0.596095  0.866386  0.263873  1
  Si  Si4  1  0.059831  0.266490  0.838284  1
  Si  Si5  1  0.733510  0.940169  0.661716  1
  Si  Si6  1  0.940169  0.733510  0.161716  1
  Si  Si7  1  0.266490  0.059831  0.338284  1
  Si  Si8  1  0.210331  0.789669  0.750000  1
  Si  Si9  1  0.789669  0.210331  0.250000  1
  Si  Si10  1  0.510755  0.489245  0.750000  1
  Si  Si11  1  0.489245  0.510755  0.250000  1
  Si  Si12  1  0.777659  0.222341  0.750000  1
  Si  Si13  1  0.222341  0.777659  0.250000  1
  Rh  Rh14  1  0.256102  0.538414  0.623378  1
  Rh  Rh15  1  0.461586  0.743898  0.876622  1
  Rh  Rh16  1  0.743898  0.461586  0.376622  1
  Rh  Rh17  1  0.538414  0.256102  0.123378  1
  Rh  Rh18  1  0.001248  0.998752  0.750000  1
  Rh  Rh19  1  0.998752  0.001248  0.250000  1
