# generated using pymatgen
data_CaEu3TiNb3O14
_symmetry_space_group_name_H-M   'P 1'
_cell_length_a   7.52975097
_cell_length_b   7.52975094
_cell_length_c   7.46200900
_cell_angle_alpha   59.69923573
_cell_angle_beta   59.69924547
_cell_angle_gamma   60.00000119
_symmetry_Int_Tables_number   1
_chemical_formula_structural   CaEu3TiNb3O14
_chemical_formula_sum   'Ca1 Eu3 Ti1 Nb3 O14'
_cell_volume   297.79175893
_cell_formula_units_Z   1
loop_
 _symmetry_equiv_pos_site_id
 _symmetry_equiv_pos_as_xyz
  1  'x, y, z'
loop_
 _atom_site_type_symbol
 _atom_site_label
 _atom_site_symmetry_multiplicity
 _atom_site_fract_x
 _atom_site_fract_y
 _atom_site_fract_z
 _atom_site_occupancy
  Ca  Ca0  1  0.125000  0.125000  0.625000  1
  Eu  Eu1  1  0.125000  0.625000  0.125000  1
  Eu  Eu2  1  0.625000  0.125000  0.125000  1
  Eu  Eu3  1  0.125000  0.125000  0.125000  1
  Ti  Ti4  1  0.625000  0.625000  0.125000  1
  Nb  Nb5  1  0.625000  0.125000  0.625000  1
  Nb  Nb6  1  0.125000  0.625000  0.625000  1
  Nb  Nb7  1  0.625000  0.625000  0.625000  1
  O  O8  1  0.001224  0.001224  0.996329  1
  O  O9  1  0.248776  0.248776  0.253671  1
  O  O10  1  0.304900  0.304900  0.697213  1
  O  O11  1  0.557722  0.557722  0.944438  1
  O  O12  1  0.692988  0.304900  0.697213  1
  O  O13  1  0.692278  0.309881  0.305562  1
  O  O14  1  0.304900  0.692988  0.697213  1
  O  O15  1  0.309881  0.692278  0.305562  1
  O  O16  1  0.692278  0.692278  0.305562  1
  O  O17  1  0.945100  0.557012  0.552787  1
  O  O18  1  0.557722  0.940119  0.944438  1
  O  O19  1  0.945100  0.945100  0.552787  1
  O  O20  1  0.940119  0.557722  0.944438  1
  O  O21  1  0.557012  0.945100  0.552787  1
