# generated using pymatgen
data_Yb5Th3(SiPd)8
_symmetry_space_group_name_H-M   'P 1'
_cell_length_a   5.83014125
_cell_length_b   7.81077102
_cell_length_c   10.64641387
_cell_angle_alpha   88.25069619
_cell_angle_beta   90.04355762
_cell_angle_gamma   90.22859933
_symmetry_Int_Tables_number   1
_chemical_formula_structural   Yb5Th3(SiPd)8
_chemical_formula_sum   'Yb5 Th3 Si8 Pd8'
_cell_volume   484.58541431
_cell_formula_units_Z   1
loop_
 _symmetry_equiv_pos_site_id
 _symmetry_equiv_pos_as_xyz
  1  'x, y, z'
loop_
 _atom_site_type_symbol
 _atom_site_label
 _atom_site_symmetry_multiplicity
 _atom_site_fract_x
 _atom_site_fract_y
 _atom_site_fract_z
 _atom_site_occupancy
  Yb  Yb0  1  0.874730  0.823799  0.365058  1
  Yb  Yb1  1  0.136711  0.471259  0.138035  1
  Yb  Yb2  1  0.636352  0.032159  0.864677  1
  Yb  Yb3  1  0.863524  0.532044  0.864285  1
  Yb  Yb4  1  0.361263  0.966217  0.138669  1
  Th  Th5  1  0.628262  0.326066  0.365842  1
  Th  Th6  1  0.125050  0.171994  0.634815  1
  Th  Th7  1  0.372764  0.674830  0.632426  1
  Si  Si8  1  0.631614  0.036458  0.576905  1
  Si  Si9  1  0.138417  0.460307  0.425828  1
  Si  Si10  1  0.367322  0.964823  0.422190  1
  Si  Si11  1  0.870262  0.533981  0.578104  1
  Si  Si12  1  0.859749  0.127740  0.140817  1
  Si  Si13  1  0.357042  0.376535  0.854620  1
  Si  Si14  1  0.143978  0.875320  0.855030  1
  Si  Si15  1  0.640486  0.628247  0.142959  1
  Pd  Pd16  1  0.901126  0.840610  0.052477  1
  Pd  Pd17  1  0.397242  0.659821  0.947293  1
  Pd  Pd18  1  0.105273  0.159872  0.947140  1
  Pd  Pd19  1  0.595945  0.340202  0.053017  1
  Pd  Pd20  1  0.887170  0.820259  0.670717  1
  Pd  Pd21  1  0.392601  0.678883  0.330141  1
  Pd  Pd22  1  0.106850  0.177792  0.327849  1
  Pd  Pd23  1  0.606266  0.320779  0.671105  1
