# generated using pymatgen
data_Ta3S5
_symmetry_space_group_name_H-M   'P 1'
_cell_length_a   7.90201792
_cell_length_b   8.85500700
_cell_length_c   9.22461813
_cell_angle_alpha   93.94052649
_cell_angle_beta   95.12101449
_cell_angle_gamma   113.37992743
_symmetry_Int_Tables_number   1
_chemical_formula_structural   Ta3S5
_chemical_formula_sum   'Ta12 S20'
_cell_volume   586.26583580
_cell_formula_units_Z   4
loop_
 _symmetry_equiv_pos_site_id
 _symmetry_equiv_pos_as_xyz
  1  'x, y, z'
loop_
 _atom_site_type_symbol
 _atom_site_label
 _atom_site_symmetry_multiplicity
 _atom_site_fract_x
 _atom_site_fract_y
 _atom_site_fract_z
 _atom_site_occupancy
  Ta  Ta0  1  0.007538  0.005188  0.999955  1
  Ta  Ta1  1  0.605170  0.403220  0.597420  1
  Ta  Ta2  1  0.502088  0.999358  0.503799  1
  Ta  Ta3  1  0.204140  0.800894  0.198039  1
  Ta  Ta4  1  0.097835  0.402105  0.099570  1
  Ta  Ta5  1  0.800109  0.200545  0.800209  1
  Ta  Ta6  1  0.705220  0.799538  0.696363  1
  Ta  Ta7  1  0.409498  0.604942  0.399151  1
  Ta  Ta8  1  0.299695  0.198344  0.291340  1
  Ta  Ta9  1  0.895592  0.592705  0.900384  1
  Ta  Ta10  1  0.862018  0.695795  0.396925  1
  Ta  Ta11  1  0.456255  0.090912  0.994305  1
  S  S12  1  0.072393  0.550531  0.330788  1
  S  S13  1  0.397056  0.651379  0.136880  1
  S  S14  1  0.670488  0.947387  0.927210  1
  S  S15  1  0.569079  0.548752  0.823604  1
  S  S16  1  0.998038  0.053996  0.738359  1
  S  S17  1  0.912066  0.649430  0.645710  1
  S  S18  1  0.277179  0.352466  0.522915  1
  S  S19  1  0.167860  0.949655  0.428231  1
  S  S20  1  0.595861  0.442362  0.327700  1
  S  S21  1  0.507502  0.050700  0.245810  1
  S  S22  1  0.868618  0.750207  0.129976  1
  S  S23  1  0.763265  0.345635  0.031880  1
  S  S24  1  0.190068  0.837692  0.930975  1
  S  S25  1  0.094831  0.448909  0.839468  1
  S  S26  1  0.465850  0.148997  0.729198  1
  S  S27  1  0.373932  0.746051  0.628590  1
  S  S28  1  0.798526  0.251591  0.540838  1
  S  S29  1  0.702894  0.868369  0.436445  1
  S  S30  1  0.971353  0.148669  0.227815  1
  S  S31  1  0.296379  0.265277  0.030547  1
