# generated using pymatgen
data_Tm4PaTc2
_symmetry_space_group_name_H-M   'P 1'
_cell_length_a   6.31298733
_cell_length_b   7.22055221
_cell_length_c   8.50634087
_cell_angle_alpha   96.34590136
_cell_angle_beta   111.78196330
_cell_angle_gamma   89.99999072
_symmetry_Int_Tables_number   1
_chemical_formula_structural   Tm4PaTc2
_chemical_formula_sum   'Tm8 Pa2 Tc4'
_cell_volume   357.50287037
_cell_formula_units_Z   2
loop_
 _symmetry_equiv_pos_site_id
 _symmetry_equiv_pos_as_xyz
  1  'x, y, z'
loop_
 _atom_site_type_symbol
 _atom_site_label
 _atom_site_symmetry_multiplicity
 _atom_site_fract_x
 _atom_site_fract_y
 _atom_site_fract_z
 _atom_site_occupancy
  Tm  Tm0  1  0.211538  0.917244  0.180835  1
  Tm  Tm1  1  0.030703  0.582756  0.819165  1
  Tm  Tm2  1  0.209880  0.183382  0.567008  1
  Tm  Tm3  1  0.642874  0.316618  0.432992  1
  Tm  Tm4  1  0.788371  0.812379  0.433817  1
  Tm  Tm5  1  0.354555  0.687621  0.566183  1
  Tm  Tm6  1  0.422029  0.250000  0.000000  1
  Tm  Tm7  1  0.589984  0.750000  0.000000  1
  Pa  Pa8  1  0.802137  0.094954  0.808460  1
  Pa  Pa9  1  0.993676  0.405046  0.191540  1
  Tc  Tc10  1  0.628340  0.396700  0.784096  1
  Tc  Tc11  1  0.844244  0.103300  0.215904  1
  Tc  Tc12  1  0.348675  0.564013  0.215681  1
  Tc  Tc13  1  0.132994  0.935987  0.784319  1
