# generated using pymatgen
data_Ho16In4PdRh3
_symmetry_space_group_name_H-M   'P 1'
_cell_length_a   9.64065103
_cell_length_b   9.63572982
_cell_length_c   9.64065100
_cell_angle_alpha   59.98310743
_cell_angle_beta   60.00000354
_cell_angle_gamma   59.98310823
_symmetry_Int_Tables_number   1
_chemical_formula_structural   Ho16In4PdRh3
_chemical_formula_sum   'Ho16 In4 Pd1 Rh3'
_cell_volume   633.09869493
_cell_formula_units_Z   1
loop_
 _symmetry_equiv_pos_site_id
 _symmetry_equiv_pos_as_xyz
  1  'x, y, z'
loop_
 _atom_site_type_symbol
 _atom_site_label
 _atom_site_symmetry_multiplicity
 _atom_site_fract_x
 _atom_site_fract_y
 _atom_site_fract_z
 _atom_site_occupancy
  Ho  Ho0  1  0.188498  0.187502  0.812000  1
  Ho  Ho1  1  0.602614  0.596158  0.198615  1
  Ho  Ho2  1  0.439154  0.065585  0.439154  1
  Ho  Ho3  1  0.438408  0.438809  0.061391  1
  Ho  Ho4  1  0.812000  0.187502  0.812000  1
  Ho  Ho5  1  0.187626  0.810992  0.187626  1
  Ho  Ho6  1  0.439154  0.065585  0.056107  1
  Ho  Ho7  1  0.187626  0.810992  0.813756  1
  Ho  Ho8  1  0.061391  0.438809  0.061391  1
  Ho  Ho9  1  0.813756  0.810992  0.187626  1
  Ho  Ho10  1  0.198615  0.596158  0.602614  1
  Ho  Ho11  1  0.061391  0.438809  0.438408  1
  Ho  Ho12  1  0.056107  0.065585  0.439154  1
  Ho  Ho13  1  0.812000  0.187502  0.188498  1
  Ho  Ho14  1  0.599461  0.201617  0.599461  1
  Ho  Ho15  1  0.602614  0.596158  0.602614  1
  In  In16  1  0.833200  0.833142  0.833200  1
  In  In17  1  0.833200  0.833142  0.500458  1
  In  In18  1  0.500458  0.833142  0.833200  1
  In  In19  1  0.832995  0.501015  0.832995  1
  Pd  Pd20  1  0.392844  0.821467  0.392844  1
  Rh  Rh21  1  0.392509  0.393114  0.392509  1
  Rh  Rh22  1  0.821868  0.393114  0.392509  1
  Rh  Rh23  1  0.392509  0.393114  0.821868  1
