# generated using pymatgen
data_LaErFe6(CoB4)2
_symmetry_space_group_name_H-M   'P 1'
_cell_length_a   7.00916005
_cell_length_b   7.01923204
_cell_length_c   3.80643900
_cell_angle_alpha   90.00000000
_cell_angle_beta   90.00000000
_cell_angle_gamma   90.24510565
_symmetry_Int_Tables_number   1
_chemical_formula_structural   LaErFe6(CoB4)2
_chemical_formula_sum   'La1 Er1 Fe6 Co2 B8'
_cell_volume   187.27097731
_cell_formula_units_Z   1
loop_
 _symmetry_equiv_pos_site_id
 _symmetry_equiv_pos_as_xyz
  1  'x, y, z'
loop_
 _atom_site_type_symbol
 _atom_site_label
 _atom_site_symmetry_multiplicity
 _atom_site_fract_x
 _atom_site_fract_y
 _atom_site_fract_z
 _atom_site_occupancy
  La  La0  1  0.500000  0.500000  0.503340  1
  Er  Er1  1  0.000000  0.000000  0.005490  1
  Fe  Fe2  1  0.384469  0.128486  0.893042  1
  Fe  Fe3  1  0.615531  0.871514  0.893042  1
  Fe  Fe4  1  0.364637  0.887010  0.392904  1
  Fe  Fe5  1  0.635363  0.112990  0.392904  1
  Fe  Fe6  1  0.112704  0.364752  0.605733  1
  Fe  Fe7  1  0.887296  0.635248  0.605733  1
  Co  Co8  1  0.132163  0.615574  0.107637  1
  Co  Co9  1  0.867837  0.384426  0.107637  1
  B  B10  1  0.802880  0.670649  0.102962  1
  B  B11  1  0.197120  0.329351  0.102962  1
  B  B12  1  0.840859  0.289277  0.605860  1
  B  B13  1  0.159141  0.710723  0.605860  1
  B  B14  1  0.707461  0.837885  0.392593  1
  B  B15  1  0.292539  0.162115  0.392593  1
  B  B16  1  0.668763  0.190932  0.894854  1
  B  B17  1  0.331237  0.809068  0.894854  1
