# generated using pymatgen
data_Ce2Al5GaPd2
_symmetry_space_group_name_H-M   'P 1'
_cell_length_a   6.12191538
_cell_length_b   6.12191555
_cell_length_c   5.86417600
_cell_angle_alpha   90.00000000
_cell_angle_beta   90.00000000
_cell_angle_gamma   117.19182110
_symmetry_Int_Tables_number   1
_chemical_formula_structural   Ce2Al5GaPd2
_chemical_formula_sum   'Ce2 Al5 Ga1 Pd2'
_cell_volume   195.48733602
_cell_formula_units_Z   1
loop_
 _symmetry_equiv_pos_site_id
 _symmetry_equiv_pos_as_xyz
  1  'x, y, z'
loop_
 _atom_site_type_symbol
 _atom_site_label
 _atom_site_symmetry_multiplicity
 _atom_site_fract_x
 _atom_site_fract_y
 _atom_site_fract_z
 _atom_site_occupancy
  Ce  Ce0  1  0.234874  0.765126  0.750000  1
  Ce  Ce1  1  0.765562  0.234438  0.250000  1
  Al  Al2  1  0.667472  0.332528  0.750000  1
  Al  Al3  1  0.718182  0.718155  0.999571  1
  Al  Al4  1  0.718182  0.718155  0.500429  1
  Al  Al5  1  0.281845  0.281818  0.999571  1
  Al  Al6  1  0.281845  0.281818  0.500429  1
  Ga  Ga7  1  0.334744  0.665256  0.250000  1
  Pd  Pd8  1  0.902809  0.097191  0.750000  1
  Pd  Pd9  1  0.094484  0.905516  0.250000  1
