# generated using pymatgen
data_Sc6TaNb3Ga12Os7
_symmetry_space_group_name_H-M   'P 1'
_cell_length_a   8.88543691
_cell_length_b   8.88543611
_cell_length_c   8.88543705
_cell_angle_alpha   60.00966451
_cell_angle_beta   60.00966521
_cell_angle_gamma   60.00966472
_symmetry_Int_Tables_number   1
_chemical_formula_structural   Sc6TaNb3Ga12Os7
_chemical_formula_sum   'Sc6 Ta1 Nb3 Ga12 Os7'
_cell_volume   496.15398204
_cell_formula_units_Z   1
loop_
 _symmetry_equiv_pos_site_id
 _symmetry_equiv_pos_as_xyz
  1  'x, y, z'
loop_
 _atom_site_type_symbol
 _atom_site_label
 _atom_site_symmetry_multiplicity
 _atom_site_fract_x
 _atom_site_fract_y
 _atom_site_fract_z
 _atom_site_occupancy
  Sc  Sc0  1  0.713810  0.713810  0.286324  1
  Sc  Sc1  1  0.286024  0.713912  0.286024  1
  Sc  Sc2  1  0.713912  0.286024  0.286024  1
  Sc  Sc3  1  0.286024  0.286024  0.713912  1
  Sc  Sc4  1  0.713810  0.286324  0.713810  1
  Sc  Sc5  1  0.286324  0.713810  0.713810  1
  Ta  Ta6  1  0.877983  0.877983  0.877983  1
  Nb  Nb7  1  0.877988  0.877988  0.365885  1
  Nb  Nb8  1  0.877988  0.365885  0.877988  1
  Nb  Nb9  1  0.365885  0.877988  0.877988  1
  Ga  Ga10  1  0.120711  0.120711  0.637891  1
  Ga  Ga11  1  0.120711  0.637891  0.120711  1
  Ga  Ga12  1  0.637891  0.120711  0.120711  1
  Ga  Ga13  1  0.120715  0.120715  0.120715  1
  Ga  Ga14  1  0.657732  0.657732  0.026729  1
  Ga  Ga15  1  0.657732  0.026729  0.657732  1
  Ga  Ga16  1  0.026729  0.657732  0.657732  1
  Ga  Ga17  1  0.657785  0.657785  0.657785  1
  Ga  Ga18  1  0.340383  0.340383  0.978789  1
  Ga  Ga19  1  0.340383  0.978789  0.340383  1
  Ga  Ga20  1  0.978789  0.340383  0.340383  1
  Ga  Ga21  1  0.340402  0.340402  0.340402  1
  Os  Os22  1  0.999677  0.999677  0.999677  1
  Os  Os23  1  0.997111  0.997111  0.503779  1
  Os  Os24  1  0.502633  0.997346  0.502633  1
  Os  Os25  1  0.997346  0.502633  0.502633  1
  Os  Os26  1  0.502633  0.502633  0.997346  1
  Os  Os27  1  0.997111  0.503779  0.997111  1
  Os  Os28  1  0.503779  0.997111  0.997111  1
