# generated using pymatgen
data_Y4Co2TcOs5
_symmetry_space_group_name_H-M   'P 1'
_cell_length_a   5.22027553
_cell_length_b   5.29601674
_cell_length_c   8.77342300
_cell_angle_alpha   89.99973936
_cell_angle_beta   89.99975081
_cell_angle_gamma   119.56910756
_symmetry_Int_Tables_number   1
_chemical_formula_structural   Y4Co2TcOs5
_chemical_formula_sum   'Y4 Co2 Tc1 Os5'
_cell_volume   210.96569259
_cell_formula_units_Z   1
loop_
 _symmetry_equiv_pos_site_id
 _symmetry_equiv_pos_as_xyz
  1  'x, y, z'
loop_
 _atom_site_type_symbol
 _atom_site_label
 _atom_site_symmetry_multiplicity
 _atom_site_fract_x
 _atom_site_fract_y
 _atom_site_fract_z
 _atom_site_occupancy
  Y  Y0  1  0.331055  0.672230  0.436500  1
  Y  Y1  1  0.667368  0.337064  0.564901  1
  Y  Y2  1  0.667366  0.337066  0.935101  1
  Y  Y3  1  0.331051  0.672230  0.063501  1
  Co  Co4  1  0.823980  0.649523  0.250001  1
  Co  Co5  1  0.174829  0.826398  0.749995  1
  Tc  Tc6  1  0.831542  0.160489  0.250000  1
  Os  Os7  1  0.997556  0.008599  0.499396  1
  Os  Os8  1  0.997554  0.008600  0.000604  1
  Os  Os9  1  0.346702  0.168723  0.250000  1
  Os  Os10  1  0.173733  0.335849  0.750000  1
  Os  Os11  1  0.657263  0.823230  0.750001  1
