# generated using pymatgen
data_Ce2PrCd3IrAu2
_symmetry_space_group_name_H-M   'P 1'
_cell_length_a   7.92557523
_cell_length_b   7.98838253
_cell_length_c   3.91166400
_cell_angle_alpha   90.00000000
_cell_angle_beta   90.00000000
_cell_angle_gamma   120.55319480
_symmetry_Int_Tables_number   1
_chemical_formula_structural   Ce2PrCd3IrAu2
_chemical_formula_sum   'Ce2 Pr1 Cd3 Ir1 Au2'
_cell_volume   213.27198784
_cell_formula_units_Z   1
loop_
 _symmetry_equiv_pos_site_id
 _symmetry_equiv_pos_as_xyz
  1  'x, y, z'
loop_
 _atom_site_type_symbol
 _atom_site_label
 _atom_site_symmetry_multiplicity
 _atom_site_fract_x
 _atom_site_fract_y
 _atom_site_fract_z
 _atom_site_occupancy
  Ce  Ce0  1  0.576716  0.974507  0.000000  1
  Ce  Ce1  1  0.026772  0.602506  0.000000  1
  Pr  Pr2  1  0.398703  0.414535  0.000000  1
  Cd  Cd3  1  0.262921  0.007173  0.500000  1
  Cd  Cd4  1  0.998126  0.259300  0.500000  1
  Cd  Cd5  1  0.738908  0.732536  0.500000  1
  Ir  Ir6  1  0.327925  0.681227  0.500000  1
  Au  Au7  1  0.674134  0.331885  0.500000  1
  Au  Au8  1  0.995796  0.996331  0.000000  1
