# generated using pymatgen
data_YTm3(LuPb)6
_symmetry_space_group_name_H-M   'P 1'
_cell_length_a   6.50079401
_cell_length_b   8.93410839
_cell_length_c   8.93643201
_cell_angle_alpha   119.99139513
_cell_angle_beta   89.99804602
_cell_angle_gamma   90.00390163
_symmetry_Int_Tables_number   1
_chemical_formula_structural   YTm3(LuPb)6
_chemical_formula_sum   'Y1 Tm3 Lu6 Pb6'
_cell_volume   449.52107595
_cell_formula_units_Z   1
loop_
 _symmetry_equiv_pos_site_id
 _symmetry_equiv_pos_as_xyz
  1  'x, y, z'
loop_
 _atom_site_type_symbol
 _atom_site_label
 _atom_site_symmetry_multiplicity
 _atom_site_fract_x
 _atom_site_fract_y
 _atom_site_fract_z
 _atom_site_occupancy
  Y  Y0  1  0.249995  0.763428  0.000000  1
  Tm  Tm1  1  0.750015  0.236627  0.000000  1
  Tm  Tm2  1  0.750003  0.763162  0.763007  1
  Tm  Tm3  1  0.750003  0.000157  0.236993  1
  Lu  Lu4  1  0.250001  0.236658  0.236562  1
  Lu  Lu5  1  0.250001  0.000095  0.763438  1
  Lu  Lu6  1  0.499907  0.333271  0.666638  1
  Lu  Lu7  1  0.499907  0.666633  0.333362  1
  Lu  Lu8  1  0.000087  0.666678  0.333346  1
  Lu  Lu9  1  0.000087  0.333333  0.666654  1
  Pb  Pb10  1  0.749986  0.605040  0.000000  1
  Pb  Pb11  1  0.750002  0.395077  0.395146  1
  Pb  Pb12  1  0.750002  0.999932  0.604854  1
  Pb  Pb13  1  0.249985  0.394413  0.000000  1
  Pb  Pb14  1  0.250009  0.605137  0.604778  1
  Pb  Pb15  1  0.250009  0.000358  0.395222  1
