# generated using pymatgen
data_Ru3AuF24
_symmetry_space_group_name_H-M   'P 1'
_cell_length_a   5.06035455
_cell_length_b   8.75310500
_cell_length_c   9.55703505
_cell_angle_alpha   90.00000000
_cell_angle_beta   90.05369386
_cell_angle_gamma   90.00000000
_symmetry_Int_Tables_number   1
_chemical_formula_structural   Ru3AuF24
_chemical_formula_sum   'Ru3 Au1 F24'
_cell_volume   423.31735425
_cell_formula_units_Z   1
loop_
 _symmetry_equiv_pos_site_id
 _symmetry_equiv_pos_as_xyz
  1  'x, y, z'
loop_
 _atom_site_type_symbol
 _atom_site_label
 _atom_site_symmetry_multiplicity
 _atom_site_fract_x
 _atom_site_fract_y
 _atom_site_fract_z
 _atom_site_occupancy
  Ru  Ru0  1  0.080865  0.250000  0.371402  1
  Ru  Ru1  1  0.419186  0.250000  0.870187  1
  Ru  Ru2  1  0.581232  0.750000  0.129261  1
  Au  Au3  1  0.919056  0.750000  0.629180  1
  F  F4  1  0.229228  0.750000  0.511023  1
  F  F5  1  0.782479  0.250000  0.484057  1
  F  F6  1  0.717399  0.250000  0.984256  1
  F  F7  1  0.283374  0.750000  0.016070  1
  F  F8  1  0.608913  0.750000  0.747733  1
  F  F9  1  0.379006  0.250000  0.257045  1
  F  F10  1  0.120602  0.250000  0.756972  1
  F  F11  1  0.878789  0.750000  0.242695  1
  F  F12  1  0.760409  0.593857  0.512317  1
  F  F13  1  0.233263  0.399320  0.482527  1
  F  F14  1  0.266962  0.399384  0.982619  1
  F  F15  1  0.233263  0.100680  0.482527  1
  F  F16  1  0.732873  0.600691  0.017463  1
  F  F17  1  0.760409  0.906143  0.512317  1
  F  F18  1  0.732873  0.899309  0.017463  1
  F  F19  1  0.266962  0.100616  0.982619  1
  F  F20  1  0.076685  0.593798  0.745805  1
  F  F21  1  0.929796  0.399694  0.259253  1
  F  F22  1  0.570111  0.399461  0.759333  1
  F  F23  1  0.929796  0.100306  0.259253  1
  F  F24  1  0.429835  0.600480  0.240743  1
  F  F25  1  0.076685  0.906202  0.745805  1
  F  F26  1  0.429835  0.899520  0.240743  1
  F  F27  1  0.570111  0.100539  0.759333  1
