# generated using pymatgen
data_Ta4NbSn(B2Ru5)2
_symmetry_space_group_name_H-M   'P 1'
_cell_length_a   9.47036750
_cell_length_b   9.47107850
_cell_length_c   3.03116200
_cell_angle_alpha   90.00000000
_cell_angle_beta   90.00000000
_cell_angle_gamma   90.08319052
_symmetry_Int_Tables_number   1
_chemical_formula_structural   Ta4NbSn(B2Ru5)2
_chemical_formula_sum   'Ta4 Nb1 Sn1 B4 Ru10'
_cell_volume   271.87855816
_cell_formula_units_Z   1
loop_
 _symmetry_equiv_pos_site_id
 _symmetry_equiv_pos_as_xyz
  1  'x, y, z'
loop_
 _atom_site_type_symbol
 _atom_site_label
 _atom_site_symmetry_multiplicity
 _atom_site_fract_x
 _atom_site_fract_y
 _atom_site_fract_z
 _atom_site_occupancy
  Ta  Ta0  1  0.175970  0.322813  0.000000  1
  Ta  Ta1  1  0.323077  0.824376  0.000000  1
  Ta  Ta2  1  0.676850  0.175669  0.000000  1
  Ta  Ta3  1  0.000001  0.999984  0.000000  1
  Nb  Nb4  1  0.824124  0.676815  0.000000  1
  Sn  Sn5  1  0.500307  0.500137  0.000000  1
  B  B6  1  0.619753  0.876684  0.000000  1
  B  B7  1  0.380309  0.123363  0.000000  1
  B  B8  1  0.123310  0.619625  0.000000  1
  B  B9  1  0.876762  0.380333  0.000000  1
  Ru  Ru10  1  0.573668  0.721701  0.500000  1
  Ru  Ru11  1  0.425324  0.278958  0.500000  1
  Ru  Ru12  1  0.069260  0.781603  0.500000  1
  Ru  Ru13  1  0.931373  0.218329  0.500000  1
  Ru  Ru14  1  0.279017  0.574546  0.500000  1
  Ru  Ru15  1  0.721079  0.424545  0.500000  1
  Ru  Ru16  1  0.218363  0.068724  0.500000  1
  Ru  Ru17  1  0.781245  0.932026  0.500000  1
  Ru  Ru18  1  0.499844  0.000142  0.500000  1
  Ru  Ru19  1  0.000362  0.499630  0.500000  1
