# generated using pymatgen
data_YEr5Al14(Si5Os4)2
_symmetry_space_group_name_H-M   'P 1'
_cell_length_a   8.69835102
_cell_length_b   8.69835077
_cell_length_c   9.29772700
_cell_angle_alpha   90.00000167
_cell_angle_beta   89.99999256
_cell_angle_gamma   120.05133426
_symmetry_Int_Tables_number   1
_chemical_formula_structural   YEr5Al14(Si5Os4)2
_chemical_formula_sum   'Y1 Er5 Al14 Si10 Os8'
_cell_volume   608.91459665
_cell_formula_units_Z   1
loop_
 _symmetry_equiv_pos_site_id
 _symmetry_equiv_pos_as_xyz
  1  'x, y, z'
loop_
 _atom_site_type_symbol
 _atom_site_label
 _atom_site_symmetry_multiplicity
 _atom_site_fract_x
 _atom_site_fract_y
 _atom_site_fract_z
 _atom_site_occupancy
  Y  Y0  1  0.806996  0.193004  0.749999  1
  Er  Er1  1  0.191527  0.385353  0.250002  1
  Er  Er2  1  0.808130  0.613115  0.750000  1
  Er  Er3  1  0.614647  0.808473  0.250002  1
  Er  Er4  1  0.386885  0.191870  0.750000  1
  Er  Er5  1  0.193662  0.806338  0.249999  1
  Al  Al6  1  0.165662  0.328807  0.578531  1
  Al  Al7  1  0.834852  0.668795  0.420410  1
  Al  Al8  1  0.671193  0.834338  0.578531  1
  Al  Al9  1  0.834849  0.668790  0.079591  1
  Al  Al10  1  0.331205  0.165148  0.420410  1
  Al  Al11  1  0.165660  0.328803  0.921470  1
  Al  Al12  1  0.163961  0.836039  0.578762  1
  Al  Al13  1  0.331210  0.165151  0.079591  1
  Al  Al14  1  0.833676  0.166324  0.421070  1
  Al  Al15  1  0.671197  0.834340  0.921470  1
  Al  Al16  1  0.833682  0.166318  0.078926  1
  Al  Al17  1  0.163965  0.836035  0.921235  1
  Al  Al18  1  0.435409  0.564591  0.750005  1
  Al  Al19  1  0.000650  0.999350  0.749994  1
  Si  Si20  1  0.334472  0.665528  0.042366  1
  Si  Si21  1  0.665709  0.334291  0.957507  1
  Si  Si22  1  0.665713  0.334287  0.542492  1
  Si  Si23  1  0.334476  0.665524  0.457634  1
  Si  Si24  1  0.560964  0.123941  0.249999  1
  Si  Si25  1  0.435109  0.874744  0.750000  1
  Si  Si26  1  0.876059  0.439036  0.249999  1
  Si  Si27  1  0.125256  0.564891  0.750000  1
  Si  Si28  1  0.562874  0.437126  0.250006  1
  Si  Si29  1  0.001349  0.998651  0.249995  1
  Os  Os30  1  0.499413  0.000265  0.000965  1
  Os  Os31  1  0.999735  0.500587  0.000965  1
  Os  Os32  1  0.499410  0.000265  0.499033  1
  Os  Os33  1  0.500782  0.499218  0.006650  1
  Os  Os34  1  0.999735  0.500590  0.499033  1
  Os  Os35  1  0.500794  0.499206  0.493373  1
  Os  Os36  1  0.999573  0.000427  0.007653  1
  Os  Os37  1  0.999557  0.000443  0.492334  1
