# generated using pymatgen
data_U3InPb3O13
_symmetry_space_group_name_H-M   'P 1'
_cell_length_a   7.78790150
_cell_length_b   7.78790121
_cell_length_c   7.78790283
_cell_angle_alpha   62.44483924
_cell_angle_beta   62.44483801
_cell_angle_gamma   62.44483944
_symmetry_Int_Tables_number   1
_chemical_formula_structural   U3InPb3O13
_chemical_formula_sum   'U3 In1 Pb3 O13'
_cell_volume   352.20508342
_cell_formula_units_Z   1
loop_
 _symmetry_equiv_pos_site_id
 _symmetry_equiv_pos_as_xyz
  1  'x, y, z'
loop_
 _atom_site_type_symbol
 _atom_site_label
 _atom_site_symmetry_multiplicity
 _atom_site_fract_x
 _atom_site_fract_y
 _atom_site_fract_z
 _atom_site_occupancy
  U  U0  1  0.999346  0.499699  0.499699  1
  U  U1  1  0.499699  0.499699  0.999346  1
  U  U2  1  0.499699  0.999346  0.499699  1
  In  In3  1  0.499548  0.499548  0.499548  1
  Pb  Pb4  1  0.478990  0.009580  0.009580  1
  Pb  Pb5  1  0.009580  0.009580  0.478990  1
  Pb  Pb6  1  0.009580  0.478990  0.009580  1
  O  O7  1  0.827800  0.424803  0.424803  1
  O  O8  1  0.439984  0.815466  0.815466  1
  O  O9  1  0.424803  0.424803  0.827800  1
  O  O10  1  0.815466  0.815466  0.439984  1
  O  O11  1  0.815466  0.439984  0.815466  1
  O  O12  1  0.424803  0.827800  0.424803  1
  O  O13  1  0.174136  0.569718  0.569718  1
  O  O14  1  0.558086  0.183209  0.183209  1
  O  O15  1  0.569718  0.569718  0.174136  1
  O  O16  1  0.183209  0.183209  0.558086  1
  O  O17  1  0.183209  0.558086  0.183209  1
  O  O18  1  0.569718  0.174136  0.569718  1
  O  O19  1  0.142159  0.142159  0.142159  1
