# generated using pymatgen
data_Ce2ErIn3Co2
_symmetry_space_group_name_H-M   'P 1'
_cell_length_a   8.19221046
_cell_length_b   8.19221060
_cell_length_c   4.82427424
_cell_angle_alpha   82.80083679
_cell_angle_beta   82.80083910
_cell_angle_gamma   34.38663495
_symmetry_Int_Tables_number   1
_chemical_formula_structural   Ce2ErIn3Co2
_chemical_formula_sum   'Ce2 Er1 In3 Co2'
_cell_volume   181.27587381
_cell_formula_units_Z   1
loop_
 _symmetry_equiv_pos_site_id
 _symmetry_equiv_pos_as_xyz
  1  'x, y, z'
loop_
 _atom_site_type_symbol
 _atom_site_label
 _atom_site_symmetry_multiplicity
 _atom_site_fract_x
 _atom_site_fract_y
 _atom_site_fract_z
 _atom_site_occupancy
  Ce  Ce0  1  0.829538  0.829538  0.581429  1
  Ce  Ce1  1  0.170462  0.170462  0.418571  1
  Er  Er2  1  0.000000  0.000000  0.000000  1
  In  In3  1  0.362887  0.362887  0.033126  1
  In  In4  1  0.500000  0.500000  0.500000  1
  In  In5  1  0.637113  0.637113  0.966874  1
  Co  Co6  1  0.801053  0.801053  0.150835  1
  Co  Co7  1  0.198947  0.198947  0.849165  1
