# generated using pymatgen
data_Hf16Ta2Co5Os
_symmetry_space_group_name_H-M   'P 1'
_cell_length_a   8.62080367
_cell_length_b   8.66854972
_cell_length_c   8.66854950
_cell_angle_alpha   60.43744607
_cell_angle_beta   60.17308407
_cell_angle_gamma   60.17308066
_symmetry_Int_Tables_number   1
_chemical_formula_structural   Hf16Ta2Co5Os
_chemical_formula_sum   'Hf16 Ta2 Co5 Os1'
_cell_volume   460.76515750
_cell_formula_units_Z   1
loop_
 _symmetry_equiv_pos_site_id
 _symmetry_equiv_pos_as_xyz
  1  'x, y, z'
loop_
 _atom_site_type_symbol
 _atom_site_label
 _atom_site_symmetry_multiplicity
 _atom_site_fract_x
 _atom_site_fract_y
 _atom_site_fract_z
 _atom_site_occupancy
  Hf  Hf0  1  0.200526  0.600147  0.600147  1
  Hf  Hf1  1  0.599300  0.199220  0.602071  1
  Hf  Hf2  1  0.599300  0.602071  0.199220  1
  Hf  Hf3  1  0.599559  0.598654  0.598654  1
  Hf  Hf4  1  0.815433  0.813309  0.182904  1
  Hf  Hf5  1  0.187820  0.183137  0.813985  1
  Hf  Hf6  1  0.815433  0.182904  0.813309  1
  Hf  Hf7  1  0.187820  0.813985  0.183137  1
  Hf  Hf8  1  0.191003  0.812927  0.812927  1
  Hf  Hf9  1  0.815464  0.184254  0.184254  1
  Hf  Hf10  1  0.447907  0.447634  0.052149  1
  Hf  Hf11  1  0.050369  0.049294  0.450794  1
  Hf  Hf12  1  0.447907  0.052149  0.447634  1
  Hf  Hf13  1  0.050369  0.450794  0.049294  1
  Hf  Hf14  1  0.048477  0.452209  0.452209  1
  Hf  Hf15  1  0.456309  0.043449  0.043449  1
  Ta  Ta16  1  0.827202  0.511272  0.832875  1
  Ta  Ta17  1  0.827202  0.832875  0.511272  1
  Co  Co18  1  0.827593  0.389908  0.389908  1
  Co  Co19  1  0.392057  0.828982  0.389050  1
  Co  Co20  1  0.392057  0.389050  0.828982  1
  Co  Co21  1  0.394125  0.389425  0.389425  1
  Co  Co22  1  0.491732  0.836433  0.836433  1
  Os  Os23  1  0.835040  0.835917  0.835917  1
