# generated using pymatgen
data_Ac8Lu12Ga5Si11
_symmetry_space_group_name_H-M   'P 1'
_cell_length_a   7.66569273
_cell_length_b   7.97036687
_cell_length_c   15.17356200
_cell_angle_alpha   89.99492485
_cell_angle_beta   90.09128381
_cell_angle_gamma   90.08036937
_symmetry_Int_Tables_number   1
_chemical_formula_structural   Ac8Lu12Ga5Si11
_chemical_formula_sum   'Ac8 Lu12 Ga5 Si11'
_cell_volume   927.07801604
_cell_formula_units_Z   1
loop_
 _symmetry_equiv_pos_site_id
 _symmetry_equiv_pos_as_xyz
  1  'x, y, z'
loop_
 _atom_site_type_symbol
 _atom_site_label
 _atom_site_symmetry_multiplicity
 _atom_site_fract_x
 _atom_site_fract_y
 _atom_site_fract_z
 _atom_site_occupancy
  Ac  Ac0  1  0.015223  0.173068  0.400718  1
  Ac  Ac1  1  0.515275  0.327226  0.400828  1
  Ac  Ac2  1  0.486449  0.674387  0.900032  1
  Ac  Ac3  1  0.485343  0.677467  0.598456  1
  Ac  Ac4  1  0.985341  0.822856  0.598531  1
  Ac  Ac5  1  0.984526  0.828891  0.900631  1
  Ac  Ac6  1  0.513784  0.324853  0.100426  1
  Ac  Ac7  1  0.012855  0.175769  0.100588  1
  Lu  Lu8  1  0.325299  0.172509  0.625675  1
  Lu  Lu9  1  0.676365  0.823569  0.374559  1
  Lu  Lu10  1  0.656965  0.002770  0.751238  1
  Lu  Lu11  1  0.175760  0.676545  0.374425  1
  Lu  Lu12  1  0.823127  0.324319  0.873950  1
  Lu  Lu13  1  0.825201  0.326492  0.625351  1
  Lu  Lu14  1  0.843534  0.503681  0.250927  1
  Lu  Lu15  1  0.344475  0.996048  0.251812  1
  Lu  Lu16  1  0.326437  0.174990  0.872765  1
  Lu  Lu17  1  0.174605  0.672653  0.127655  1
  Lu  Lu18  1  0.673550  0.826713  0.126770  1
  Lu  Lu19  1  0.155716  0.496753  0.750642  1
  Ga  Ga20  1  0.150756  0.458838  0.538558  1
  Ga  Ga21  1  0.848420  0.541900  0.039954  1
  Ga  Ga22  1  0.348855  0.958050  0.039013  1
  Ga  Ga23  1  0.149784  0.458416  0.959250  1
  Ga  Ga24  1  0.650602  0.040994  0.538584  1
  Si  Si25  1  0.285337  0.886322  0.749323  1
  Si  Si26  1  0.472191  0.628447  0.251715  1
  Si  Si27  1  0.027332  0.127916  0.748896  1
  Si  Si28  1  0.528634  0.372930  0.749259  1
  Si  Si29  1  0.972431  0.871837  0.251074  1
  Si  Si30  1  0.712415  0.113477  0.251103  1
  Si  Si31  1  0.354626  0.961190  0.458643  1
  Si  Si32  1  0.854720  0.538980  0.458739  1
  Si  Si33  1  0.786445  0.613404  0.749071  1
  Si  Si34  1  0.212751  0.385652  0.251282  1
  Si  Si35  1  0.644874  0.040089  0.959559  1
