# generated using pymatgen
data_ErTm9In8PdPt3
_symmetry_space_group_name_H-M   'P 1'
_cell_length_a   3.60029600
_cell_length_b   8.07508848
_cell_length_c   18.05366300
_cell_angle_alpha   90.03473896
_cell_angle_beta   90.00000000
_cell_angle_gamma   90.00000000
_symmetry_Int_Tables_number   1
_chemical_formula_structural   ErTm9In8PdPt3
_chemical_formula_sum   'Er1 Tm9 In8 Pd1 Pt3'
_cell_volume   524.86879015
_cell_formula_units_Z   1
loop_
 _symmetry_equiv_pos_site_id
 _symmetry_equiv_pos_as_xyz
  1  'x, y, z'
loop_
 _atom_site_type_symbol
 _atom_site_label
 _atom_site_symmetry_multiplicity
 _atom_site_fract_x
 _atom_site_fract_y
 _atom_site_fract_z
 _atom_site_occupancy
  Er  Er0  1  0.000000  0.501508  0.499331  1
  Tm  Tm1  1  0.000000  0.116994  0.415439  1
  Tm  Tm2  1  0.000000  0.884054  0.585212  1
  Tm  Tm3  1  0.000000  0.384639  0.915080  1
  Tm  Tm4  1  0.000000  0.616322  0.085618  1
  Tm  Tm5  1  0.000000  0.244305  0.219869  1
  Tm  Tm6  1  0.000000  0.756837  0.779254  1
  Tm  Tm7  1  0.000000  0.256434  0.721315  1
  Tm  Tm8  1  0.000000  0.740000  0.278438  1
  Tm  Tm9  1  0.000000  0.000313  0.000181  1
  In  In10  1  0.500000  0.421434  0.351552  1
  In  In11  1  0.500000  0.575710  0.647847  1
  In  In12  1  0.500000  0.076115  0.852738  1
  In  In13  1  0.500000  0.926165  0.148202  1
  In  In14  1  0.500000  0.291646  0.066123  1
  In  In15  1  0.500000  0.708879  0.934691  1
  In  In16  1  0.500000  0.208681  0.565943  1
  In  In17  1  0.500000  0.793149  0.432337  1
  Pd  Pd18  1  0.500000  0.023001  0.303602  1
  Pt  Pt19  1  0.500000  0.975332  0.696637  1
  Pt  Pt20  1  0.500000  0.475615  0.803796  1
  Pt  Pt21  1  0.500000  0.522867  0.196794  1
