# generated using pymatgen
data_HoFe3B4Os
_symmetry_space_group_name_H-M   'P 1'
_cell_length_a   6.98152932
_cell_length_b   7.22370607
_cell_length_c   3.88272900
_cell_angle_alpha   90.00000000
_cell_angle_beta   90.00000000
_cell_angle_gamma   88.36228352
_symmetry_Int_Tables_number   1
_chemical_formula_structural   HoFe3B4Os
_chemical_formula_sum   'Ho2 Fe6 B8 Os2'
_cell_volume   195.73580425
_cell_formula_units_Z   2
loop_
 _symmetry_equiv_pos_site_id
 _symmetry_equiv_pos_as_xyz
  1  'x, y, z'
loop_
 _atom_site_type_symbol
 _atom_site_label
 _atom_site_symmetry_multiplicity
 _atom_site_fract_x
 _atom_site_fract_y
 _atom_site_fract_z
 _atom_site_occupancy
  Ho  Ho0  1  0.000000  0.000000  0.079631  1
  Ho  Ho1  1  0.500000  0.500000  0.587242  1
  Fe  Fe2  1  0.889156  0.652166  0.605351  1
  Fe  Fe3  1  0.110844  0.347834  0.605351  1
  Fe  Fe4  1  0.621067  0.113201  0.376048  1
  Fe  Fe5  1  0.378933  0.886799  0.376048  1
  Fe  Fe6  1  0.623021  0.877972  0.875350  1
  Fe  Fe7  1  0.376979  0.122028  0.875350  1
  B  B8  1  0.339835  0.818295  0.877902  1
  B  B9  1  0.660165  0.181705  0.877902  1
  B  B10  1  0.312611  0.166854  0.380412  1
  B  B11  1  0.687389  0.833146  0.380412  1
  B  B12  1  0.171932  0.730023  0.597336  1
  B  B13  1  0.828068  0.269977  0.597336  1
  B  B14  1  0.206807  0.327008  0.100880  1
  B  B15  1  0.793193  0.672992  0.100880  1
  Os  Os16  1  0.851777  0.386630  0.103286  1
  Os  Os17  1  0.148223  0.613370  0.103286  1
