# generated using pymatgen
data_Ho16In3Co4Ag
_symmetry_space_group_name_H-M   'P 1'
_cell_length_a   9.47867818
_cell_length_b   9.47462037
_cell_length_c   9.47462000
_cell_angle_alpha   60.00000131
_cell_angle_beta   60.01416168
_cell_angle_gamma   60.01415986
_symmetry_Int_Tables_number   1
_chemical_formula_structural   Ho16In3Co4Ag
_chemical_formula_sum   'Ho16 In3 Co4 Ag1'
_cell_volume   601.79604147
_cell_formula_units_Z   1
loop_
 _symmetry_equiv_pos_site_id
 _symmetry_equiv_pos_as_xyz
  1  'x, y, z'
loop_
 _atom_site_type_symbol
 _atom_site_label
 _atom_site_symmetry_multiplicity
 _atom_site_fract_x
 _atom_site_fract_y
 _atom_site_fract_z
 _atom_site_occupancy
  Ho  Ho0  1  0.348079  0.346209  0.346209  1
  Ho  Ho1  1  0.348079  0.346209  0.959505  1
  Ho  Ho2  1  0.348079  0.959505  0.346209  1
  Ho  Ho3  1  0.958620  0.347127  0.347127  1
  Ho  Ho4  1  0.810824  0.188706  0.188706  1
  Ho  Ho5  1  0.186997  0.812829  0.812829  1
  Ho  Ho6  1  0.186997  0.812829  0.187345  1
  Ho  Ho7  1  0.810824  0.188706  0.811765  1
  Ho  Ho8  1  0.186997  0.187345  0.812829  1
  Ho  Ho9  1  0.810824  0.811765  0.188706  1
  Ho  Ho10  1  0.944310  0.560385  0.560385  1
  Ho  Ho11  1  0.563240  0.937491  0.937491  1
  Ho  Ho12  1  0.563240  0.937491  0.561778  1
  Ho  Ho13  1  0.944310  0.560385  0.934919  1
  Ho  Ho14  1  0.563240  0.561778  0.937491  1
  Ho  Ho15  1  0.944310  0.934919  0.560385  1
  In  In16  1  0.578480  0.582743  0.582743  1
  In  In17  1  0.578480  0.582743  0.256035  1
  In  In18  1  0.578480  0.256035  0.582743  1
  Co  Co19  1  0.139096  0.141280  0.141280  1
  Co  Co20  1  0.139096  0.141280  0.578344  1
  Co  Co21  1  0.139096  0.578344  0.141280  1
  Co  Co22  1  0.576067  0.141311  0.141311  1
  Ag  Ag23  1  0.252241  0.582586  0.582586  1
