# generated using pymatgen
data_NaPrPd4
_symmetry_space_group_name_H-M   'P 1'
_cell_length_a   5.47237242
_cell_length_b   5.47237082
_cell_length_c   5.47237103
_cell_angle_alpha   120.00287681
_cell_angle_beta   120.00285844
_cell_angle_gamma   89.99503391
_symmetry_Int_Tables_number   1
_chemical_formula_structural   NaPrPd4
_chemical_formula_sum   'Na1 Pr1 Pd4'
_cell_volume   115.87583395
_cell_formula_units_Z   1
loop_
 _symmetry_equiv_pos_site_id
 _symmetry_equiv_pos_as_xyz
  1  'x, y, z'
loop_
 _atom_site_type_symbol
 _atom_site_label
 _atom_site_symmetry_multiplicity
 _atom_site_fract_x
 _atom_site_fract_y
 _atom_site_fract_z
 _atom_site_occupancy
  Na  Na0  1  0.750001  0.250000  0.500001  1
  Pr  Pr1  1  0.000000  0.000000  0.000000  1
  Pd  Pd2  1  0.375064  0.624920  0.249856  1
  Pd  Pd3  1  0.874794  0.624937  0.249856  1
  Pd  Pd4  1  0.375064  0.125206  0.750145  1
  Pd  Pd5  1  0.375082  0.624938  0.750145  1
