# generated using pymatgen
data_Pr15Sm5Si15Ge
_symmetry_space_group_name_H-M   'P 1'
_cell_length_a   7.86372011
_cell_length_b   7.86643508
_cell_length_c   15.32539800
_cell_angle_alpha   89.84685534
_cell_angle_beta   89.92860358
_cell_angle_gamma   90.24147875
_symmetry_Int_Tables_number   1
_chemical_formula_structural   Pr15Sm5Si15Ge
_chemical_formula_sum   'Pr15 Sm5 Si15 Ge1'
_cell_volume   948.00803860
_cell_formula_units_Z   1
loop_
 _symmetry_equiv_pos_site_id
 _symmetry_equiv_pos_as_xyz
  1  'x, y, z'
loop_
 _atom_site_type_symbol
 _atom_site_label
 _atom_site_symmetry_multiplicity
 _atom_site_fract_x
 _atom_site_fract_y
 _atom_site_fract_z
 _atom_site_occupancy
  Pr  Pr0  1  0.487574  0.876874  0.696013  1
  Pr  Pr1  1  0.513515  0.121713  0.196706  1
  Pr  Pr2  1  0.878727  0.486494  0.303934  1
  Pr  Pr3  1  0.120519  0.515333  0.804401  1
  Pr  Pr4  1  0.621683  0.987796  0.946707  1
  Pr  Pr5  1  0.010526  0.379995  0.552333  1
  Pr  Pr6  1  0.988215  0.621389  0.054535  1
  Pr  Pr7  1  0.124196  0.978932  0.879056  1
  Pr  Pr8  1  0.522697  0.625819  0.127818  1
  Pr  Pr9  1  0.478179  0.374702  0.626974  1
  Pr  Pr10  1  0.626732  0.522884  0.872848  1
  Pr  Pr11  1  0.372823  0.477427  0.372906  1
  Pr  Pr12  1  0.875741  0.021328  0.378241  1
  Pr  Pr13  1  0.979287  0.124799  0.122556  1
  Pr  Pr14  1  0.019826  0.874392  0.620699  1
  Sm  Sm15  1  0.308484  0.308910  0.000088  1
  Sm  Sm16  1  0.192434  0.807778  0.250245  1
  Sm  Sm17  1  0.803934  0.191826  0.750466  1
  Sm  Sm18  1  0.691269  0.690712  0.498983  1
  Sm  Sm19  1  0.382513  0.009539  0.444575  1
  Si  Si20  1  0.330026  0.691839  0.956074  1
  Si  Si21  1  0.667357  0.306271  0.454702  1
  Si  Si22  1  0.691735  0.329526  0.044478  1
  Si  Si23  1  0.310688  0.673906  0.543505  1
  Si  Si24  1  0.809489  0.829103  0.206954  1
  Si  Si25  1  0.172033  0.189320  0.295134  1
  Si  Si26  1  0.829852  0.810114  0.793084  1
  Si  Si27  1  0.288125  0.920786  0.062019  1
  Si  Si28  1  0.577902  0.787298  0.312006  1
  Si  Si29  1  0.423666  0.213372  0.813153  1
  Si  Si30  1  0.787345  0.578590  0.688055  1
  Si  Si31  1  0.213553  0.420230  0.188780  1
  Si  Si32  1  0.710038  0.078054  0.561136  1
  Si  Si33  1  0.921172  0.287731  0.938648  1
  Si  Si34  1  0.080742  0.714420  0.438000  1
  Ge  Ge35  1  0.187406  0.170799  0.704190  1
