# generated using pymatgen
data_Eu2NiSn2Rh
_symmetry_space_group_name_H-M   'P 1'
_cell_length_a   4.56013800
_cell_length_b   7.39086400
_cell_length_c   7.97610800
_cell_angle_alpha   90.00000000
_cell_angle_beta   90.00000000
_cell_angle_gamma   90.00000000
_symmetry_Int_Tables_number   1
_chemical_formula_structural   Eu2NiSn2Rh
_chemical_formula_sum   'Eu4 Ni2 Sn4 Rh2'
_cell_volume   268.82163756
_cell_formula_units_Z   2
loop_
 _symmetry_equiv_pos_site_id
 _symmetry_equiv_pos_as_xyz
  1  'x, y, z'
loop_
 _atom_site_type_symbol
 _atom_site_label
 _atom_site_symmetry_multiplicity
 _atom_site_fract_x
 _atom_site_fract_y
 _atom_site_fract_z
 _atom_site_occupancy
  Eu  Eu0  1  0.250000  0.526557  0.182551  1
  Eu  Eu1  1  0.750000  0.474970  0.818753  1
  Eu  Eu2  1  0.250000  0.025030  0.318753  1
  Eu  Eu3  1  0.750000  0.973443  0.682551  1
  Ni  Ni4  1  0.750000  0.708712  0.390472  1
  Ni  Ni5  1  0.250000  0.791288  0.890472  1
  Sn  Sn6  1  0.250000  0.155523  0.926918  1
  Sn  Sn7  1  0.750000  0.344477  0.426918  1
  Sn  Sn8  1  0.250000  0.662814  0.571888  1
  Sn  Sn9  1  0.750000  0.837186  0.071888  1
  Rh  Rh10  1  0.750000  0.212983  0.109417  1
  Rh  Rh11  1  0.250000  0.287017  0.609417  1
