# generated using pymatgen
data_Ba3PaBi2O9
_symmetry_space_group_name_H-M   'P 1'
_cell_length_a   6.27776554
_cell_length_b   10.95759618
_cell_length_c   8.92065307
_cell_angle_alpha   65.53012537
_cell_angle_beta   89.83554594
_cell_angle_gamma   72.96161477
_symmetry_Int_Tables_number   1
_chemical_formula_structural   Ba3PaBi2O9
_chemical_formula_sum   'Ba6 Pa2 Bi4 O18'
_cell_volume   529.03810307
_cell_formula_units_Z   2
loop_
 _symmetry_equiv_pos_site_id
 _symmetry_equiv_pos_as_xyz
  1  'x, y, z'
loop_
 _atom_site_type_symbol
 _atom_site_label
 _atom_site_symmetry_multiplicity
 _atom_site_fract_x
 _atom_site_fract_y
 _atom_site_fract_z
 _atom_site_occupancy
  Ba  Ba0  1  0.827632  0.336579  0.079157  1
  Ba  Ba1  1  0.166319  0.663722  0.404253  1
  Ba  Ba2  1  0.498232  0.988458  0.756144  1
  Ba  Ba3  1  0.505671  0.996723  0.254188  1
  Ba  Ba4  1  0.835073  0.344849  0.577285  1
  Ba  Ba5  1  0.167052  0.669609  0.929129  1
  Pa  Pa6  1  0.999919  0.000227  0.499669  1
  Pa  Pa7  1  0.333384  0.333117  0.833711  1
  Bi  Bi8  1  0.994127  0.003538  0.997346  1
  Bi  Bi9  1  0.339204  0.329765  0.336063  1
  Bi  Bi10  1  0.666704  0.666652  0.666631  1
  Bi  Bi11  1  0.666712  0.666641  0.166612  1
  O  O12  1  0.962731  0.481740  0.221945  1
  O  O13  1  0.290936  0.814249  0.547599  1
  O  O14  1  0.624223  0.143734  0.885683  1
  O  O15  1  0.370689  0.851622  0.111196  1
  O  O16  1  0.709058  0.189579  0.447760  1
  O  O17  1  0.042427  0.519059  0.785848  1
  O  O18  1  0.607027  0.693936  0.909610  1
  O  O19  1  0.934875  0.035588  0.242917  1
  O  O20  1  0.273334  0.365328  0.577873  1
  O  O21  1  0.881491  0.801457  0.095905  1
  O  O22  1  0.227687  0.127105  0.437261  1
  O  O23  1  0.557421  0.461026  0.767787  1
  O  O24  1  0.726271  0.639453  0.423581  1
  O  O25  1  0.059876  0.968033  0.755501  1
  O  O26  1  0.398522  0.297770  0.090470  1
  O  O27  1  0.451937  0.531857  0.237377  1
  O  O28  1  0.775907  0.872319  0.565395  1
  O  O29  1  0.105558  0.206268  0.896102  1
