# generated using pymatgen
data_Ca2Al3SiPd6
_symmetry_space_group_name_H-M   'P 1'
_cell_length_a   6.83142345
_cell_length_b   6.85152341
_cell_length_c   6.83142369
_cell_angle_alpha   129.59948156
_cell_angle_beta   113.82249308
_cell_angle_gamma   87.53148635
_symmetry_Int_Tables_number   1
_chemical_formula_structural   Ca2Al3SiPd6
_chemical_formula_sum   'Ca2 Al3 Si1 Pd6'
_cell_volume   214.70469750
_cell_formula_units_Z   1
loop_
 _symmetry_equiv_pos_site_id
 _symmetry_equiv_pos_as_xyz
  1  'x, y, z'
loop_
 _atom_site_type_symbol
 _atom_site_label
 _atom_site_symmetry_multiplicity
 _atom_site_fract_x
 _atom_site_fract_y
 _atom_site_fract_z
 _atom_site_occupancy
  Ca  Ca0  1  0.001353  0.969280  0.967927  1
  Ca  Ca1  1  0.497708  0.051076  0.553369  1
  Al  Al2  1  0.348716  0.401868  0.053152  1
  Al  Al3  1  0.810056  0.246307  0.436252  1
  Al  Al4  1  0.652569  0.702983  0.050413  1
  Si  Si5  1  0.186689  0.624888  0.438200  1
  Pd  Pd6  1  0.965211  0.503554  0.966767  1
  Pd  Pd7  1  0.536786  0.503554  0.538343  1
  Pd  Pd8  1  0.044637  0.997556  0.543965  1
  Pd  Pd9  1  0.784323  0.493188  0.274831  1
  Pd  Pd10  1  0.218359  0.493188  0.708865  1
  Pd  Pd11  1  0.453592  0.997556  0.952919  1
