# generated using pymatgen
data_La3Nd13Cd2(HgPd2)2
_symmetry_space_group_name_H-M   'P 1'
_cell_length_a   10.05398117
_cell_length_b   10.06206689
_cell_length_c   10.07374500
_cell_angle_alpha   59.96160327
_cell_angle_beta   59.93495476
_cell_angle_gamma   59.92278580
_symmetry_Int_Tables_number   1
_chemical_formula_structural   La3Nd13Cd2(HgPd2)2
_chemical_formula_sum   'La3 Nd13 Cd2 Hg2 Pd4'
_cell_volume   719.62715448
_cell_formula_units_Z   1
loop_
 _symmetry_equiv_pos_site_id
 _symmetry_equiv_pos_as_xyz
  1  'x, y, z'
loop_
 _atom_site_type_symbol
 _atom_site_label
 _atom_site_symmetry_multiplicity
 _atom_site_fract_x
 _atom_site_fract_y
 _atom_site_fract_z
 _atom_site_occupancy
  La  La0  1  0.351250  0.352275  0.351628  1
  La  La1  1  0.351250  0.352275  0.944847  1
  La  La2  1  0.353701  0.939001  0.353649  1
  Nd  Nd3  1  0.937096  0.355038  0.353933  1
  Nd  Nd4  1  0.809870  0.190754  0.192083  1
  Nd  Nd5  1  0.190719  0.809704  0.808006  1
  Nd  Nd6  1  0.190719  0.809704  0.191572  1
  Nd  Nd7  1  0.809870  0.190754  0.807294  1
  Nd  Nd8  1  0.190291  0.190161  0.809774  1
  Nd  Nd9  1  0.807888  0.806969  0.192571  1
  Nd  Nd10  1  0.936003  0.563981  0.566363  1
  Nd  Nd11  1  0.564216  0.935862  0.933378  1
  Nd  Nd12  1  0.564216  0.935862  0.566543  1
  Nd  Nd13  1  0.936003  0.563981  0.933653  1
  Nd  Nd14  1  0.564574  0.564682  0.935372  1
  Nd  Nd15  1  0.934097  0.934294  0.565805  1
  Cd  Cd16  1  0.580625  0.258272  0.580552  1
  Cd  Cd17  1  0.257881  0.579524  0.581298  1
  Hg  Hg18  1  0.584767  0.583232  0.586082  1
  Hg  Hg19  1  0.584767  0.583232  0.245921  1
  Pd  Pd20  1  0.143515  0.143812  0.144758  1
  Pd  Pd21  1  0.143515  0.143812  0.567913  1
  Pd  Pd22  1  0.142746  0.569933  0.143660  1
  Pd  Pd23  1  0.570423  0.142884  0.143346  1
