# generated using pymatgen
data_Rb2H2SeO
_symmetry_space_group_name_H-M   'P 1'
_cell_length_a   5.00229743
_cell_length_b   4.92400455
_cell_length_c   6.27196675
_cell_angle_alpha   68.71643814
_cell_angle_beta   89.99175536
_cell_angle_gamma   89.98594876
_symmetry_Int_Tables_number   1
_chemical_formula_structural   Rb2H2SeO
_chemical_formula_sum   'Rb2 H2 Se1 O1'
_cell_volume   143.95019429
_cell_formula_units_Z   1
loop_
 _symmetry_equiv_pos_site_id
 _symmetry_equiv_pos_as_xyz
  1  'x, y, z'
loop_
 _atom_site_type_symbol
 _atom_site_label
 _atom_site_symmetry_multiplicity
 _atom_site_fract_x
 _atom_site_fract_y
 _atom_site_fract_z
 _atom_site_occupancy
  Rb  Rb0  1  0.727916  0.922301  0.226410  1
  Rb  Rb1  1  0.216202  0.187326  0.677147  1
  H  H2  1  0.056065  0.450898  0.059114  1
  H  H3  1  0.370310  0.449613  0.061666  1
  Se  Se4  1  0.713366  0.630653  0.811291  1
  O  O5  1  0.212215  0.359210  0.164372  1
