# generated using pymatgen
data_LiEu2Pd3
_symmetry_space_group_name_H-M   'P 1'
_cell_length_a   5.38664654
_cell_length_b   5.74708681
_cell_length_c   5.74708600
_cell_angle_alpha   60.00000467
_cell_angle_beta   57.76068704
_cell_angle_gamma   57.76068860
_symmetry_Int_Tables_number   1
_chemical_formula_structural   LiEu2Pd3
_chemical_formula_sum   'Li1 Eu2 Pd3'
_cell_volume   121.37752758
_cell_formula_units_Z   1
loop_
 _symmetry_equiv_pos_site_id
 _symmetry_equiv_pos_as_xyz
  1  'x, y, z'
loop_
 _atom_site_type_symbol
 _atom_site_label
 _atom_site_symmetry_multiplicity
 _atom_site_fract_x
 _atom_site_fract_y
 _atom_site_fract_z
 _atom_site_occupancy
  Li  Li0  1  0.625000  0.125000  0.125000  1
  Eu  Eu1  1  0.747784  0.750739  0.750739  1
  Eu  Eu2  1  0.502216  0.499261  0.499261  1
  Pd  Pd3  1  0.125000  0.125000  0.625000  1
  Pd  Pd4  1  0.125000  0.625000  0.125000  1
  Pd  Pd5  1  0.125000  0.125000  0.125000  1
