# generated using pymatgen
data_Sr8Li3Si12Ni
_symmetry_space_group_name_H-M   'P 1'
_cell_length_a   11.71335348
_cell_length_b   10.05684475
_cell_length_c   8.45280638
_cell_angle_alpha   77.98661947
_cell_angle_beta   57.27421091
_cell_angle_gamma   44.89695499
_symmetry_Int_Tables_number   1
_chemical_formula_structural   Sr8Li3Si12Ni
_chemical_formula_sum   'Sr8 Li3 Si12 Ni1'
_cell_volume   565.05668966
_cell_formula_units_Z   1
loop_
 _symmetry_equiv_pos_site_id
 _symmetry_equiv_pos_as_xyz
  1  'x, y, z'
loop_
 _atom_site_type_symbol
 _atom_site_label
 _atom_site_symmetry_multiplicity
 _atom_site_fract_x
 _atom_site_fract_y
 _atom_site_fract_z
 _atom_site_occupancy
  Sr  Sr0  1  0.879829  0.876132  0.126436  1
  Sr  Sr1  1  0.126436  0.117603  0.879829  1
  Sr  Sr2  1  0.369526  0.382770  0.127452  1
  Sr  Sr3  1  0.127452  0.120252  0.369526  1
  Sr  Sr4  1  0.625399  0.622601  0.374822  1
  Sr  Sr5  1  0.374822  0.377178  0.625399  1
  Sr  Sr6  1  0.618734  0.628823  0.878091  1
  Sr  Sr7  1  0.878091  0.874352  0.618734  1
  Li  Li8  1  0.832864  0.167136  0.832864  1
  Li  Li9  1  0.082694  0.417306  0.082694  1
  Li  Li10  1  0.416851  0.083149  0.416851  1
  Si  Si11  1  0.656320  0.336447  0.182599  1
  Si  Si12  1  0.841563  0.163397  0.329282  1
  Si  Si13  1  0.182599  0.824635  0.656320  1
  Si  Si14  1  0.329282  0.665757  0.841563  1
  Si  Si15  1  0.588270  0.911730  0.588270  1
  Si  Si16  1  0.911346  0.588654  0.911346  1
  Si  Si17  1  0.660716  0.339284  0.660716  1
  Si  Si18  1  0.329975  0.670025  0.329975  1
  Si  Si19  1  0.911125  0.588627  0.426868  1
  Si  Si20  1  0.070353  0.424572  0.591260  1
  Si  Si21  1  0.426868  0.073380  0.911125  1
  Si  Si22  1  0.591260  0.913815  0.070353  1
  Ni  Ni23  1  0.167625  0.832375  0.167625  1
