# generated using pymatgen
data_Sr8Yb5Ho7Pt16
_symmetry_space_group_name_H-M   'P 1'
_cell_length_a   7.70814592
_cell_length_b   7.82220510
_cell_length_c   14.84272831
_cell_angle_alpha   90.02338341
_cell_angle_beta   90.00112562
_cell_angle_gamma   90.05609841
_symmetry_Int_Tables_number   1
_chemical_formula_structural   Sr8Yb5Ho7Pt16
_chemical_formula_sum   'Sr8 Yb5 Ho7 Pt16'
_cell_volume   894.93732261
_cell_formula_units_Z   1
loop_
 _symmetry_equiv_pos_site_id
 _symmetry_equiv_pos_as_xyz
  1  'x, y, z'
loop_
 _atom_site_type_symbol
 _atom_site_label
 _atom_site_symmetry_multiplicity
 _atom_site_fract_x
 _atom_site_fract_y
 _atom_site_fract_z
 _atom_site_occupancy
  Sr  Sr0  1  0.498944  0.326181  0.903753  1
  Sr  Sr1  1  0.996487  0.175729  0.596815  1
  Sr  Sr2  1  0.502846  0.675853  0.403687  1
  Sr  Sr3  1  0.002137  0.822836  0.094694  1
  Sr  Sr4  1  0.502903  0.675985  0.095567  1
  Sr  Sr5  1  0.002955  0.823749  0.403671  1
  Sr  Sr6  1  0.497180  0.323879  0.597102  1
  Sr  Sr7  1  0.997123  0.177811  0.903358  1
  Yb  Yb8  1  0.839109  0.666235  0.877491  1
  Yb  Yb9  1  0.175282  0.493494  0.751060  1
  Yb  Yb10  1  0.679395  0.006133  0.750700  1
  Yb  Yb11  1  0.822301  0.508138  0.249691  1
  Yb  Yb12  1  0.321381  0.991066  0.249596  1
  Ho  Ho13  1  0.339289  0.834716  0.875933  1
  Ho  Ho14  1  0.839278  0.665683  0.623439  1
  Ho  Ho15  1  0.660003  0.166109  0.376050  1
  Ho  Ho16  1  0.160996  0.332766  0.124137  1
  Ho  Ho17  1  0.661031  0.165913  0.124072  1
  Ho  Ho18  1  0.160601  0.333246  0.376272  1
  Ho  Ho19  1  0.339135  0.832875  0.623886  1
  Pt  Pt20  1  0.333565  0.046632  0.044107  1
  Pt  Pt21  1  0.836395  0.452660  0.456164  1
  Pt  Pt22  1  0.663036  0.952160  0.543191  1
  Pt  Pt23  1  0.169601  0.545240  0.958397  1
  Pt  Pt24  1  0.659203  0.962220  0.957207  1
  Pt  Pt25  1  0.163037  0.546275  0.543010  1
  Pt  Pt26  1  0.336905  0.047006  0.456415  1
  Pt  Pt27  1  0.839592  0.450627  0.046085  1
  Pt  Pt28  1  0.541199  0.638359  0.748711  1
  Pt  Pt29  1  0.046526  0.862629  0.746168  1
  Pt  Pt30  1  0.456826  0.361485  0.250169  1
  Pt  Pt31  1  0.956989  0.137104  0.250965  1
  Pt  Pt32  1  0.304400  0.116424  0.751062  1
  Pt  Pt33  1  0.798083  0.383627  0.747371  1
  Pt  Pt34  1  0.697893  0.885009  0.249990  1
  Pt  Pt35  1  0.198373  0.614146  0.250015  1
