# generated using pymatgen
data_Dy5Er3Ti11Si16Os
_symmetry_space_group_name_H-M   'P 1'
_cell_length_a   7.00967207
_cell_length_b   7.00885521
_cell_length_c   12.86418400
_cell_angle_alpha   90.02821925
_cell_angle_beta   89.97082055
_cell_angle_gamma   89.95698900
_symmetry_Int_Tables_number   1
_chemical_formula_structural   Dy5Er3Ti11Si16Os
_chemical_formula_sum   'Dy5 Er3 Ti11 Si16 Os1'
_cell_volume   632.01414972
_cell_formula_units_Z   1
loop_
 _symmetry_equiv_pos_site_id
 _symmetry_equiv_pos_as_xyz
  1  'x, y, z'
loop_
 _atom_site_type_symbol
 _atom_site_label
 _atom_site_symmetry_multiplicity
 _atom_site_fract_x
 _atom_site_fract_y
 _atom_site_fract_z
 _atom_site_occupancy
  Dy  Dy0  1  0.340552  0.004122  0.467337  1
  Dy  Dy1  1  0.496944  0.840621  0.718261  1
  Dy  Dy2  1  0.500040  0.159375  0.214941  1
  Dy  Dy3  1  0.840818  0.496920  0.281756  1
  Dy  Dy4  1  0.159375  0.500069  0.785038  1
  Er  Er5  1  0.658186  0.998828  0.968653  1
  Er  Er6  1  0.003486  0.341014  0.532714  1
  Er  Er7  1  0.998841  0.658163  0.031409  1
  Ti  Ti8  1  0.174196  0.827577  0.248190  1
  Ti  Ti9  1  0.827664  0.174279  0.751777  1
  Ti  Ti10  1  0.674057  0.673787  0.499996  1
  Ti  Ti11  1  0.150898  0.003722  0.875422  1
  Ti  Ti12  1  0.492180  0.655484  0.124594  1
  Ti  Ti13  1  0.506941  0.348932  0.628007  1
  Ti  Ti14  1  0.655500  0.492240  0.875394  1
  Ti  Ti15  1  0.348861  0.506825  0.371998  1
  Ti  Ti16  1  0.848684  0.993929  0.375138  1
  Ti  Ti17  1  0.003640  0.150956  0.124602  1
  Ti  Ti18  1  0.993948  0.848641  0.624881  1
  Si  Si19  1  0.202519  0.131819  0.684750  1
  Si  Si20  1  0.372372  0.699961  0.933900  1
  Si  Si21  1  0.631849  0.297217  0.434750  1
  Si  Si22  1  0.700010  0.372413  0.066132  1
  Si  Si23  1  0.296603  0.630586  0.565416  1
  Si  Si24  1  0.796809  0.868119  0.183196  1
  Si  Si25  1  0.131285  0.203125  0.315058  1
  Si  Si26  1  0.868148  0.796711  0.816803  1
  Si  Si27  1  0.287384  0.954675  0.064094  1
  Si  Si28  1  0.546984  0.791853  0.315198  1
  Si  Si29  1  0.450723  0.208975  0.818547  1
  Si  Si30  1  0.792270  0.546583  0.684504  1
  Si  Si31  1  0.208902  0.450834  0.181448  1
  Si  Si32  1  0.709189  0.048524  0.565667  1
  Si  Si33  1  0.954667  0.287483  0.935981  1
  Si  Si34  1  0.047894  0.708022  0.434472  1
  Os  Os35  1  0.327581  0.327621  0.999973  1
