# generated using pymatgen
data_AuS8I3
_symmetry_space_group_name_H-M   'P 1'
_cell_length_a   8.76645828
_cell_length_b   11.32450926
_cell_length_c   12.36756970
_cell_angle_alpha   101.34018374
_cell_angle_beta   108.02061061
_cell_angle_gamma   104.48329615
_symmetry_Int_Tables_number   1
_chemical_formula_structural   AuS8I3
_chemical_formula_sum   'Au2 S16 I6'
_cell_volume   1079.24747528
_cell_formula_units_Z   2
loop_
 _symmetry_equiv_pos_site_id
 _symmetry_equiv_pos_as_xyz
  1  'x, y, z'
loop_
 _atom_site_type_symbol
 _atom_site_label
 _atom_site_symmetry_multiplicity
 _atom_site_fract_x
 _atom_site_fract_y
 _atom_site_fract_z
 _atom_site_occupancy
  Au  Au0  1  0.806847  0.961163  0.846241  1
  Au  Au1  1  0.193153  0.038837  0.153759  1
  S  S2  1  0.873849  0.509754  0.813636  1
  S  S3  1  0.126151  0.490246  0.186364  1
  S  S4  1  0.746517  0.432700  0.632030  1
  S  S5  1  0.253483  0.567300  0.367970  1
  S  S6  1  0.754754  0.250364  0.582545  1
  S  S7  1  0.245246  0.749636  0.417455  1
  S  S8  1  0.944962  0.255613  0.517666  1
  S  S9  1  0.055038  0.744387  0.482334  1
  S  S10  1  0.880006  0.380491  0.150351  1
  S  S11  1  0.119994  0.619509  0.849649  1
  S  S12  1  0.721356  0.486906  0.114244  1
  S  S13  1  0.278644  0.513094  0.885756  1
  S  S14  1  0.678860  0.556471  0.265112  1
  S  S15  1  0.321140  0.443529  0.734888  1
  S  S16  1  0.841281  0.742362  0.349389  1
  S  S17  1  0.158719  0.257638  0.650611  1
  I  I18  1  0.488922  0.954122  0.788154  1
  I  I19  1  0.511078  0.045878  0.211846  1
  I  I20  1  0.861959  0.018112  0.081219  1
  I  I21  1  0.138041  0.981888  0.918781  1
  I  I22  1  0.777266  0.891943  0.622469  1
  I  I23  1  0.222734  0.108057  0.377531  1
