# generated using pymatgen
data_LaY2Ni2Rh7
_symmetry_space_group_name_H-M   'P 1'
_cell_length_a   5.33018503
_cell_length_b   5.33013843
_cell_length_c   16.86482200
_cell_angle_alpha   90.00000000
_cell_angle_beta   90.00000000
_cell_angle_gamma   119.98679425
_symmetry_Int_Tables_number   1
_chemical_formula_structural   LaY2Ni2Rh7
_chemical_formula_sum   'La2 Y4 Ni4 Rh14'
_cell_volume   415.00271938
_cell_formula_units_Z   2
loop_
 _symmetry_equiv_pos_site_id
 _symmetry_equiv_pos_as_xyz
  1  'x, y, z'
loop_
 _atom_site_type_symbol
 _atom_site_label
 _atom_site_symmetry_multiplicity
 _atom_site_fract_x
 _atom_site_fract_y
 _atom_site_fract_z
 _atom_site_occupancy
  La  La0  1  0.333334  0.666654  0.750000  1
  La  La1  1  0.666666  0.333346  0.250000  1
  Y  Y2  1  0.333318  0.666649  0.959650  1
  Y  Y3  1  0.666682  0.333351  0.040350  1
  Y  Y4  1  0.666682  0.333351  0.459650  1
  Y  Y5  1  0.333318  0.666649  0.540350  1
  Ni  Ni6  1  0.333311  0.666719  0.250000  1
  Ni  Ni7  1  0.666689  0.333281  0.750000  1
  Ni  Ni8  1  0.999975  0.999843  0.250000  1
  Ni  Ni9  1  0.000025  0.000157  0.750000  1
  Rh  Rh10  1  0.167768  0.832293  0.371157  1
  Rh  Rh11  1  0.167738  0.335512  0.371152  1
  Rh  Rh12  1  0.664515  0.832309  0.371145  1
  Rh  Rh13  1  0.832232  0.167707  0.628843  1
  Rh  Rh14  1  0.832262  0.664488  0.628848  1
  Rh  Rh15  1  0.335485  0.167691  0.628855  1
  Rh  Rh16  1  0.832232  0.167707  0.871157  1
  Rh  Rh17  1  0.832262  0.664488  0.871152  1
  Rh  Rh18  1  0.335485  0.167691  0.871145  1
  Rh  Rh19  1  0.167768  0.832293  0.128843  1
  Rh  Rh20  1  0.167738  0.335512  0.128848  1
  Rh  Rh21  1  0.664515  0.832309  0.128855  1
  Rh  Rh22  1  0.000000  0.000000  0.500000  1
  Rh  Rh23  1  0.000000  0.000000  0.000000  1
