# generated using pymatgen
data_TbDy3Y6(CoBi2)2
_symmetry_space_group_name_H-M   'P 1'
_cell_length_a   8.05473111
_cell_length_b   8.83133411
_cell_length_c   12.43380520
_cell_angle_alpha   89.98624423
_cell_angle_beta   90.01535298
_cell_angle_gamma   90.01134117
_symmetry_Int_Tables_number   1
_chemical_formula_structural   TbDy3Y6(CoBi2)2
_chemical_formula_sum   'Tb2 Dy6 Y12 Co4 Bi8'
_cell_volume   884.46649305
_cell_formula_units_Z   2
loop_
 _symmetry_equiv_pos_site_id
 _symmetry_equiv_pos_as_xyz
  1  'x, y, z'
loop_
 _atom_site_type_symbol
 _atom_site_label
 _atom_site_symmetry_multiplicity
 _atom_site_fract_x
 _atom_site_fract_y
 _atom_site_fract_z
 _atom_site_occupancy
  Tb  Tb0  1  0.823257  0.465904  0.062881  1
  Tb  Tb1  1  0.176743  0.534096  0.937119  1
  Dy  Dy2  1  0.676235  0.034115  0.562797  1
  Dy  Dy3  1  0.323765  0.965885  0.437203  1
  Dy  Dy4  1  0.176295  0.965892  0.937192  1
  Dy  Dy5  1  0.323750  0.534114  0.437207  1
  Dy  Dy6  1  0.823705  0.034108  0.062808  1
  Dy  Dy7  1  0.676250  0.465886  0.562793  1
  Y  Y8  1  0.847760  0.750057  0.801162  1
  Y  Y9  1  0.152240  0.249943  0.198838  1
  Y  Y10  1  0.347878  0.249976  0.698731  1
  Y  Y11  1  0.652122  0.750024  0.301269  1
  Y  Y12  1  0.378982  0.750003  0.690914  1
  Y  Y13  1  0.621018  0.249997  0.309086  1
  Y  Y14  1  0.878911  0.249891  0.808945  1
  Y  Y15  1  0.121089  0.750109  0.191055  1
  Y  Y16  1  0.955418  0.750001  0.502059  1
  Y  Y17  1  0.044582  0.249999  0.497941  1
  Y  Y18  1  0.455454  0.249922  0.997945  1
  Y  Y19  1  0.544546  0.750078  0.002055  1
  Co  Co20  1  0.558865  0.749996  0.508370  1
  Co  Co21  1  0.441135  0.250004  0.491630  1
  Co  Co22  1  0.058954  0.249782  0.991574  1
  Co  Co23  1  0.941046  0.750218  0.008426  1
  Bi  Bi24  1  0.571123  0.492140  0.825602  1
  Bi  Bi25  1  0.428877  0.507860  0.174398  1
  Bi  Bi26  1  0.070932  0.507847  0.674296  1
  Bi  Bi27  1  0.429030  0.992156  0.174354  1
  Bi  Bi28  1  0.929068  0.492153  0.325704  1
  Bi  Bi29  1  0.570970  0.007844  0.825646  1
  Bi  Bi30  1  0.929026  0.007846  0.325653  1
  Bi  Bi31  1  0.070974  0.992154  0.674347  1
