# generated using pymatgen
data_Ca12PdRh7Pb8
_symmetry_space_group_name_H-M   'P 1'
_cell_length_a   6.07002802
_cell_length_b   8.21636966
_cell_length_c   14.32373800
_cell_angle_alpha   89.96964492
_cell_angle_beta   89.95322911
_cell_angle_gamma   89.89999104
_symmetry_Int_Tables_number   1
_chemical_formula_structural   Ca12PdRh7Pb8
_chemical_formula_sum   'Ca12 Pd1 Rh7 Pb8'
_cell_volume   714.37486901
_cell_formula_units_Z   1
loop_
 _symmetry_equiv_pos_site_id
 _symmetry_equiv_pos_as_xyz
  1  'x, y, z'
loop_
 _atom_site_type_symbol
 _atom_site_label
 _atom_site_symmetry_multiplicity
 _atom_site_fract_x
 _atom_site_fract_y
 _atom_site_fract_z
 _atom_site_occupancy
  Ca  Ca0  1  0.613096  0.254740  0.253065  1
  Ca  Ca1  1  0.385773  0.748956  0.748588  1
  Ca  Ca2  1  0.384015  0.748520  0.253446  1
  Ca  Ca3  1  0.614507  0.250814  0.748596  1
  Ca  Ca4  1  0.163114  0.401316  0.092093  1
  Ca  Ca5  1  0.837029  0.603162  0.907448  1
  Ca  Ca6  1  0.836766  0.602887  0.591602  1
  Ca  Ca7  1  0.837349  0.896650  0.409033  1
  Ca  Ca8  1  0.161986  0.396948  0.409123  1
  Ca  Ca9  1  0.161565  0.103037  0.591557  1
  Ca  Ca10  1  0.163535  0.104487  0.905242  1
  Ca  Ca11  1  0.842035  0.891866  0.090728  1
  Pd  Pd12  1  0.367332  0.038977  0.094011  1
  Rh  Rh13  1  0.634281  0.962073  0.908534  1
  Rh  Rh14  1  0.634063  0.959708  0.592825  1
  Rh  Rh15  1  0.634928  0.539947  0.406845  1
  Rh  Rh16  1  0.365380  0.039306  0.406354  1
  Rh  Rh17  1  0.365437  0.459741  0.592809  1
  Rh  Rh18  1  0.366600  0.454044  0.906895  1
  Rh  Rh19  1  0.632612  0.541144  0.093149  1
  Pb  Pb20  1  0.112488  0.098586  0.251160  1
  Pb  Pb21  1  0.880294  0.902320  0.750389  1
  Pb  Pb22  1  0.881394  0.598685  0.249991  1
  Pb  Pb23  1  0.116794  0.403809  0.749513  1
  Pb  Pb24  1  0.657649  0.251932  0.999884  1
  Pb  Pb25  1  0.350534  0.746821  0.996743  1
  Pb  Pb26  1  0.350744  0.750159  0.500505  1
  Pb  Pb27  1  0.648697  0.249367  0.499872  1
