# generated using pymatgen
data_TmZn2CdNi2
_symmetry_space_group_name_H-M   'P 1'
_cell_length_a   5.19382714
_cell_length_b   5.08547980
_cell_length_c   5.08547954
_cell_angle_alpha   60.27334982
_cell_angle_beta   59.29269245
_cell_angle_gamma   59.29269384
_symmetry_Int_Tables_number   1
_chemical_formula_structural   TmZn2CdNi2
_chemical_formula_sum   'Tm1 Zn2 Cd1 Ni2'
_cell_volume   94.14102789
_cell_formula_units_Z   1
loop_
 _symmetry_equiv_pos_site_id
 _symmetry_equiv_pos_as_xyz
  1  'x, y, z'
loop_
 _atom_site_type_symbol
 _atom_site_label
 _atom_site_symmetry_multiplicity
 _atom_site_fract_x
 _atom_site_fract_y
 _atom_site_fract_z
 _atom_site_occupancy
  Tm  Tm0  1  0.243162  0.256838  0.256838  1
  Zn  Zn1  1  0.626846  0.623567  0.122741  1
  Zn  Zn2  1  0.626846  0.122741  0.623567  1
  Cd  Cd3  1  0.001315  0.998685  0.998685  1
  Ni  Ni4  1  0.123981  0.624085  0.624085  1
  Ni  Ni5  1  0.627850  0.624085  0.624085  1
