# generated using pymatgen
data_Zr6Zn19SiPt4
_symmetry_space_group_name_H-M   'P 1'
_cell_length_a   8.82503737
_cell_length_b   8.82503639
_cell_length_c   8.82503732
_cell_angle_alpha   59.78952285
_cell_angle_beta   59.78952862
_cell_angle_gamma   59.78952168
_symmetry_Int_Tables_number   1
_chemical_formula_structural   Zr6Zn19SiPt4
_chemical_formula_sum   'Zr6 Zn19 Si1 Pt4'
_cell_volume   483.67590516
_cell_formula_units_Z   1
loop_
 _symmetry_equiv_pos_site_id
 _symmetry_equiv_pos_as_xyz
  1  'x, y, z'
loop_
 _atom_site_type_symbol
 _atom_site_label
 _atom_site_symmetry_multiplicity
 _atom_site_fract_x
 _atom_site_fract_y
 _atom_site_fract_z
 _atom_site_occupancy
  Zr  Zr0  1  0.706018  0.289571  0.289571  1
  Zr  Zr1  1  0.293982  0.710429  0.710429  1
  Zr  Zr2  1  0.289571  0.706018  0.289571  1
  Zr  Zr3  1  0.710429  0.293982  0.710429  1
  Zr  Zr4  1  0.289571  0.289571  0.706018  1
  Zr  Zr5  1  0.710429  0.710429  0.293982  1
  Zn  Zn6  1  0.121191  0.121191  0.121191  1
  Zn  Zn7  1  0.878809  0.878809  0.878809  1
  Zn  Zn8  1  0.123634  0.123634  0.631670  1
  Zn  Zn9  1  0.123634  0.631670  0.123634  1
  Zn  Zn10  1  0.876366  0.876366  0.368330  1
  Zn  Zn11  1  0.876366  0.368330  0.876366  1
  Zn  Zn12  1  0.631670  0.123634  0.123634  1
  Zn  Zn13  1  0.368330  0.876366  0.876366  1
  Zn  Zn14  1  0.500000  0.000000  0.000000  1
  Zn  Zn15  1  0.000000  0.500000  0.000000  1
  Zn  Zn16  1  0.000000  0.000000  0.500000  1
  Zn  Zn17  1  0.338046  0.338046  0.338046  1
  Zn  Zn18  1  0.661954  0.661954  0.661954  1
  Zn  Zn19  1  0.337221  0.337221  0.984042  1
  Zn  Zn20  1  0.337221  0.984042  0.337221  1
  Zn  Zn21  1  0.662779  0.662779  0.015958  1
  Zn  Zn22  1  0.662779  0.015958  0.662779  1
  Zn  Zn23  1  0.984042  0.337221  0.337221  1
  Zn  Zn24  1  0.015958  0.662779  0.662779  1
  Si  Si25  1  0.500000  0.500000  0.500000  1
  Pt  Pt26  1  0.000000  0.500000  0.500000  1
  Pt  Pt27  1  0.500000  0.000000  0.500000  1
  Pt  Pt28  1  0.500000  0.500000  0.000000  1
  Pt  Pt29  1  0.000000  0.000000  0.000000  1
