# generated using pymatgen
data_Er2ThIn3IrRh2
_symmetry_space_group_name_H-M   'P 1'
_cell_length_a   7.57503945
_cell_length_b   7.76249509
_cell_length_c   3.87410000
_cell_angle_alpha   90.00000000
_cell_angle_beta   90.00000000
_cell_angle_gamma   120.58811824
_symmetry_Int_Tables_number   1
_chemical_formula_structural   Er2ThIn3IrRh2
_chemical_formula_sum   'Er2 Th1 In3 Ir1 Rh2'
_cell_volume   196.10258690
_cell_formula_units_Z   1
loop_
 _symmetry_equiv_pos_site_id
 _symmetry_equiv_pos_as_xyz
  1  'x, y, z'
loop_
 _atom_site_type_symbol
 _atom_site_label
 _atom_site_symmetry_multiplicity
 _atom_site_fract_x
 _atom_site_fract_y
 _atom_site_fract_z
 _atom_site_occupancy
  Er  Er0  1  0.409029  0.402782  0.500000  1
  Er  Er1  1  0.597553  0.010313  0.500000  1
  Th  Th2  1  0.001851  0.582570  0.500000  1
  In  In3  1  0.266629  0.010780  0.000000  1
  In  In4  1  0.727786  0.743163  0.000000  1
  In  In5  1  0.003196  0.243589  0.000000  1
  Ir  Ir6  1  0.680460  0.346381  0.000000  1
  Rh  Rh7  1  0.315611  0.668539  0.000000  1
  Rh  Rh8  1  0.997885  0.991883  0.500000  1
