# generated using pymatgen
data_Mn3Mo4(PO4)6
_symmetry_space_group_name_H-M   'P 1'
_cell_length_a   6.61691812
_cell_length_b   8.97195695
_cell_length_c   9.10657192
_cell_angle_alpha   91.45513603
_cell_angle_beta   108.53276524
_cell_angle_gamma   106.97307902
_symmetry_Int_Tables_number   1
_chemical_formula_structural   Mn3Mo4(PO4)6
_chemical_formula_sum   'Mn3 Mo4 P6 O24'
_cell_volume   486.08285282
_cell_formula_units_Z   1
loop_
 _symmetry_equiv_pos_site_id
 _symmetry_equiv_pos_as_xyz
  1  'x, y, z'
loop_
 _atom_site_type_symbol
 _atom_site_label
 _atom_site_symmetry_multiplicity
 _atom_site_fract_x
 _atom_site_fract_y
 _atom_site_fract_z
 _atom_site_occupancy
  Mn  Mn0  1  0.254362  0.760649  0.239471  1
  Mn  Mn1  1  0.755978  0.235005  0.773590  1
  Mn  Mn2  1  0.033879  0.977158  0.984414  1
  Mo  Mo3  1  0.135173  0.874827  0.561819  1
  Mo  Mo4  1  0.362971  0.437739  0.122364  1
  Mo  Mo5  1  0.863192  0.125742  0.434761  1
  Mo  Mo6  1  0.633044  0.561907  0.877359  1
  P  P7  1  0.245732  0.206411  0.789161  1
  P  P8  1  0.753866  0.795107  0.208622  1
  P  P9  1  0.351510  0.143523  0.360249  1
  P  P10  1  0.127206  0.636990  0.851983  1
  P  P11  1  0.651245  0.853971  0.638113  1
  P  P12  1  0.870004  0.365992  0.146603  1
  O  O13  1  0.250020  0.036109  0.769540  1
  O  O14  1  0.227500  0.223624  0.956194  1
  O  O15  1  0.739893  0.960896  0.231471  1
  O  O16  1  0.773123  0.775848  0.042151  1
  O  O17  1  0.966018  0.761084  0.321940  1
  O  O18  1  0.538973  0.679023  0.230532  1
  O  O19  1  0.035136  0.241052  0.676303  1
  O  O20  1  0.461843  0.318712  0.767884  1
  O  O21  1  0.132309  0.686924  0.694925  1
  O  O22  1  0.348204  0.301187  0.305158  1
  O  O23  1  0.865155  0.314906  0.303743  1
  O  O24  1  0.652514  0.694885  0.691167  1
  O  O25  1  0.417284  0.840685  0.516967  1
  O  O26  1  0.096833  0.502002  0.169802  1
  O  O27  1  0.583602  0.158172  0.484267  1
  O  O28  1  0.903473  0.502532  0.833513  1
  O  O29  1  0.280841  0.011561  0.222048  1
  O  O30  1  0.158582  0.771887  0.975354  1
  O  O31  1  0.732390  0.983402  0.779780  1
  O  O32  1  0.838748  0.236487  0.021500  1
  O  O33  1  0.179232  0.091576  0.450853  1
  O  O34  1  0.321539  0.560169  0.915642  1
  O  O35  1  0.818869  0.905928  0.544314  1
  O  O36  1  0.676053  0.445226  0.085941  1
