# generated using pymatgen
data_Nb4Al4V3Ni
_symmetry_space_group_name_H-M   'P 1'
_cell_length_a   4.94083535
_cell_length_b   4.93988738
_cell_length_c   8.49206900
_cell_angle_alpha   90.00000000
_cell_angle_beta   90.00000000
_cell_angle_gamma   61.95710630
_symmetry_Int_Tables_number   1
_chemical_formula_structural   Nb4Al4V3Ni
_chemical_formula_sum   'Nb4 Al4 V3 Ni1'
_cell_volume   182.93333011
_cell_formula_units_Z   1
loop_
 _symmetry_equiv_pos_site_id
 _symmetry_equiv_pos_as_xyz
  1  'x, y, z'
loop_
 _atom_site_type_symbol
 _atom_site_label
 _atom_site_symmetry_multiplicity
 _atom_site_fract_x
 _atom_site_fract_y
 _atom_site_fract_z
 _atom_site_occupancy
  Nb  Nb0  1  0.337037  0.337077  0.558138  1
  Nb  Nb1  1  0.661536  0.661550  0.438405  1
  Nb  Nb2  1  0.661536  0.661550  0.061595  1
  Nb  Nb3  1  0.337037  0.337077  0.941862  1
  Al  Al4  1  0.992005  0.991888  0.504604  1
  Al  Al5  1  0.992005  0.991888  0.995396  1
  Al  Al6  1  0.837928  0.352400  0.750000  1
  Al  Al7  1  0.352411  0.837927  0.750000  1
  V  V8  1  0.167639  0.653097  0.250000  1
  V  V9  1  0.653051  0.167676  0.250000  1
  V  V10  1  0.168500  0.168563  0.250000  1
  Ni  Ni11  1  0.839315  0.839310  0.750000  1
