# generated using pymatgen
data_Ba3SmHoS6
_symmetry_space_group_name_H-M   'P 1'
_cell_length_a   8.55767283
_cell_length_b   8.55767074
_cell_length_c   8.55767200
_cell_angle_alpha   92.45145859
_cell_angle_beta   92.45145799
_cell_angle_gamma   92.45145775
_symmetry_Int_Tables_number   1
_chemical_formula_structural   Ba3SmHoS6
_chemical_formula_sum   'Ba6 Sm2 Ho2 S12'
_cell_volume   624.93895989
_cell_formula_units_Z   2
loop_
 _symmetry_equiv_pos_site_id
 _symmetry_equiv_pos_as_xyz
  1  'x, y, z'
loop_
 _atom_site_type_symbol
 _atom_site_label
 _atom_site_symmetry_multiplicity
 _atom_site_fract_x
 _atom_site_fract_y
 _atom_site_fract_z
 _atom_site_occupancy
  Ba  Ba0  1  0.372735  0.750000  0.127265  1
  Ba  Ba1  1  0.127265  0.372735  0.750000  1
  Ba  Ba2  1  0.750000  0.127265  0.372735  1
  Ba  Ba3  1  0.627265  0.250000  0.872735  1
  Ba  Ba4  1  0.872735  0.627265  0.250000  1
  Ba  Ba5  1  0.250000  0.872735  0.627265  1
  Sm  Sm6  1  0.250000  0.250000  0.250000  1
  Sm  Sm7  1  0.750000  0.750000  0.750000  1
  Ho  Ho8  1  0.500000  0.500000  0.500000  1
  Ho  Ho9  1  0.000000  0.000000  0.000000  1
  S  S10  1  0.540770  0.407496  0.199113  1
  S  S11  1  0.199113  0.540770  0.407496  1
  S  S12  1  0.407496  0.199113  0.540770  1
  S  S13  1  0.959230  0.300887  0.092504  1
  S  S14  1  0.092504  0.959230  0.300887  1
  S  S15  1  0.300887  0.092504  0.959230  1
  S  S16  1  0.459230  0.592504  0.800887  1
  S  S17  1  0.800887  0.459230  0.592504  1
  S  S18  1  0.592504  0.800887  0.459230  1
  S  S19  1  0.040770  0.699113  0.907496  1
  S  S20  1  0.699113  0.907496  0.040770  1
  S  S21  1  0.907496  0.040770  0.699113  1
