# generated using pymatgen
data_Ta2VP2Rh
_symmetry_space_group_name_H-M   'P 1'
_cell_length_a   3.52730900
_cell_length_b   6.40681491
_cell_length_c   7.54401955
_cell_angle_alpha   89.70232030
_cell_angle_beta   90.00000000
_cell_angle_gamma   90.00000000
_symmetry_Int_Tables_number   1
_chemical_formula_structural   Ta2VP2Rh
_chemical_formula_sum   'Ta4 V2 P4 Rh2'
_cell_volume   170.48360790
_cell_formula_units_Z   2
loop_
 _symmetry_equiv_pos_site_id
 _symmetry_equiv_pos_as_xyz
  1  'x, y, z'
loop_
 _atom_site_type_symbol
 _atom_site_label
 _atom_site_symmetry_multiplicity
 _atom_site_fract_x
 _atom_site_fract_y
 _atom_site_fract_z
 _atom_site_occupancy
  Ta  Ta0  1  0.250000  0.541671  0.158407  1
  Ta  Ta1  1  0.750000  0.458329  0.841593  1
  Ta  Ta2  1  0.750000  0.984020  0.665110  1
  Ta  Ta3  1  0.250000  0.015980  0.334890  1
  V  V4  1  0.750000  0.861792  0.059675  1
  V  V5  1  0.250000  0.138208  0.940325  1
  P  P6  1  0.250000  0.766033  0.862696  1
  P  P7  1  0.750000  0.233967  0.137304  1
  P  P8  1  0.750000  0.730322  0.365712  1
  P  P9  1  0.250000  0.269678  0.634288  1
  Rh  Rh10  1  0.250000  0.650733  0.569451  1
  Rh  Rh11  1  0.750000  0.349267  0.430549  1
