# generated using pymatgen
data_DyLuI18
_symmetry_space_group_name_H-M   'P 1'
_cell_length_a   10.41888824
_cell_length_b   10.41888904
_cell_length_c   10.41889026
_cell_angle_alpha   87.66773839
_cell_angle_beta   87.66773663
_cell_angle_gamma   87.66775577
_symmetry_Int_Tables_number   1
_chemical_formula_structural   DyLuI18
_chemical_formula_sum   'Dy1 Lu1 I18'
_cell_volume   1128.26774832
_cell_formula_units_Z   1
loop_
 _symmetry_equiv_pos_site_id
 _symmetry_equiv_pos_as_xyz
  1  'x, y, z'
loop_
 _atom_site_type_symbol
 _atom_site_label
 _atom_site_symmetry_multiplicity
 _atom_site_fract_x
 _atom_site_fract_y
 _atom_site_fract_z
 _atom_site_occupancy
  Dy  Dy0  1  0.500000  0.500000  0.500000  1
  Lu  Lu1  1  0.000000  0.000000  0.000000  1
  I  I2  1  0.714419  0.999931  0.037864  1
  I  I3  1  0.750895  0.122594  0.611180  1
  I  I4  1  0.037864  0.714419  0.999931  1
  I  I5  1  0.249105  0.877406  0.388820  1
  I  I6  1  0.122594  0.611180  0.750895  1
  I  I7  1  0.000069  0.962136  0.285581  1
  I  I8  1  0.611180  0.750895  0.122594  1
  I  I9  1  0.962136  0.285581  0.000069  1
  I  I10  1  0.877406  0.388820  0.249105  1
  I  I11  1  0.388820  0.249105  0.877406  1
  I  I12  1  0.999931  0.037864  0.714419  1
  I  I13  1  0.285581  0.000069  0.962136  1
  I  I14  1  0.792114  0.519590  0.485597  1
  I  I15  1  0.514403  0.207886  0.480410  1
  I  I16  1  0.480410  0.514403  0.207886  1
  I  I17  1  0.485597  0.792114  0.519590  1
  I  I18  1  0.519590  0.485597  0.792114  1
  I  I19  1  0.207886  0.480410  0.514403  1
