# generated using pymatgen
data_Ho5V2Co17P12
_symmetry_space_group_name_H-M   'P 1'
_cell_length_a   12.00823464
_cell_length_b   11.97157159
_cell_length_c   3.66043200
_cell_angle_alpha   90.00000000
_cell_angle_beta   90.00000000
_cell_angle_gamma   119.89905312
_symmetry_Int_Tables_number   1
_chemical_formula_structural   Ho5V2Co17P12
_chemical_formula_sum   'Ho5 V2 Co17 P12'
_cell_volume   456.17783194
_cell_formula_units_Z   1
loop_
 _symmetry_equiv_pos_site_id
 _symmetry_equiv_pos_as_xyz
  1  'x, y, z'
loop_
 _atom_site_type_symbol
 _atom_site_label
 _atom_site_symmetry_multiplicity
 _atom_site_fract_x
 _atom_site_fract_y
 _atom_site_fract_z
 _atom_site_occupancy
  Ho  Ho0  1  0.665156  0.332894  0.000000  1
  Ho  Ho1  1  0.334844  0.667739  0.000000  1
  Ho  Ho2  1  0.813367  0.814419  0.500000  1
  Ho  Ho3  1  0.186633  0.001053  0.500000  1
  Ho  Ho4  1  0.000000  0.188096  0.500000  1
  V  V5  1  0.442152  0.442444  0.000000  1
  V  V6  1  0.557848  0.000292  0.000000  1
  Co  Co7  1  0.873698  0.357653  0.500000  1
  Co  Co8  1  0.643927  0.518962  0.500000  1
  Co  Co9  1  0.482168  0.126687  0.500000  1
  Co  Co10  1  0.356073  0.875035  0.500000  1
  Co  Co11  1  0.517832  0.644518  0.500000  1
  Co  Co12  1  0.126302  0.483954  0.500000  1
  Co  Co13  1  0.000000  0.551346  0.000000  1
  Co  Co14  1  0.801539  0.178836  0.000000  1
  Co  Co15  1  0.823697  0.621772  0.000000  1
  Co  Co16  1  0.375276  0.198253  0.000000  1
  Co  Co17  1  0.176303  0.798076  0.000000  1
  Co  Co18  1  0.624724  0.822978  0.000000  1
  Co  Co19  1  0.198461  0.377298  0.000000  1
  Co  Co20  1  0.281416  0.281793  0.500000  1
  Co  Co21  1  0.718584  0.000377  0.500000  1
  Co  Co22  1  0.000000  0.715036  0.500000  1
  Co  Co23  1  0.000000  0.998205  0.000000  1
  P  P24  1  0.684787  0.165401  0.500000  1
  P  P25  1  0.834787  0.519591  0.500000  1
  P  P26  1  0.479477  0.315703  0.500000  1
  P  P27  1  0.165213  0.684805  0.500000  1
  P  P28  1  0.520523  0.836226  0.500000  1
  P  P29  1  0.315213  0.480614  0.500000  1
  P  P30  1  0.178517  0.179399  0.000000  1
  P  P31  1  0.821483  0.000882  0.000000  1
  P  P32  1  0.000000  0.818775  0.000000  1
  P  P33  1  0.636759  0.635327  0.000000  1
  P  P34  1  0.363241  0.998568  0.000000  1
  P  P35  1  0.000000  0.366992  0.000000  1
