# generated using pymatgen
data_Tb4Nb2Ir5Ru
_symmetry_space_group_name_H-M   'P 1'
_cell_length_a   5.65472264
_cell_length_b   5.65937926
_cell_length_c   8.28167400
_cell_angle_alpha   90.00000000
_cell_angle_beta   90.00000000
_cell_angle_gamma   120.02726040
_symmetry_Int_Tables_number   1
_chemical_formula_structural   Tb4Nb2Ir5Ru
_chemical_formula_sum   'Tb4 Nb2 Ir5 Ru1'
_cell_volume   229.46132985
_cell_formula_units_Z   1
loop_
 _symmetry_equiv_pos_site_id
 _symmetry_equiv_pos_as_xyz
  1  'x, y, z'
loop_
 _atom_site_type_symbol
 _atom_site_label
 _atom_site_symmetry_multiplicity
 _atom_site_fract_x
 _atom_site_fract_y
 _atom_site_fract_z
 _atom_site_occupancy
  Tb  Tb0  1  0.334242  0.667122  0.438164  1
  Tb  Tb1  1  0.666180  0.333089  0.561626  1
  Tb  Tb2  1  0.666180  0.333089  0.938374  1
  Tb  Tb3  1  0.334242  0.667122  0.061836  1
  Nb  Nb4  1  0.997316  0.998658  0.502815  1
  Nb  Nb5  1  0.997316  0.998658  0.997185  1
  Ir  Ir6  1  0.828422  0.172187  0.250000  1
  Ir  Ir7  1  0.828422  0.656235  0.250000  1
  Ir  Ir8  1  0.343925  0.171963  0.250000  1
  Ir  Ir9  1  0.173898  0.827629  0.750000  1
  Ir  Ir10  1  0.173898  0.346269  0.750000  1
  Ru  Ru11  1  0.655958  0.827979  0.750000  1
