# generated using pymatgen
data_AcNd2(BN2)2
_symmetry_space_group_name_H-M   'P 1'
_cell_length_a   6.55389352
_cell_length_b   6.55389374
_cell_length_c   6.55389353
_cell_angle_alpha   147.43255224
_cell_angle_beta   121.37645230
_cell_angle_gamma   68.68979486
_symmetry_Int_Tables_number   1
_chemical_formula_structural   AcNd2(BN2)2
_chemical_formula_sum   'Ac1 Nd2 B2 N4'
_cell_volume   127.62439669
_cell_formula_units_Z   1
loop_
 _symmetry_equiv_pos_site_id
 _symmetry_equiv_pos_as_xyz
  1  'x, y, z'
loop_
 _atom_site_type_symbol
 _atom_site_label
 _atom_site_symmetry_multiplicity
 _atom_site_fract_x
 _atom_site_fract_y
 _atom_site_fract_z
 _atom_site_occupancy
  Ac  Ac0  1  0.000000  0.000000  0.000000  1
  Nd  Nd1  1  0.700373  0.200373  0.500000  1
  Nd  Nd2  1  0.299627  0.799627  0.500000  1
  B  B3  1  0.360601  0.500000  0.860601  1
  B  B4  1  0.639399  0.500000  0.139399  1
  N  N5  1  0.371648  0.620684  0.750963  1
  N  N6  1  0.869721  0.620684  0.249037  1
  N  N7  1  0.130279  0.379316  0.750963  1
  N  N8  1  0.628352  0.379316  0.249037  1
