# generated using pymatgen
data_ZrNbInC
_symmetry_space_group_name_H-M   'P 1'
_cell_length_a   3.26339900
_cell_length_b   3.26339714
_cell_length_c   14.89291100
_cell_angle_alpha   90.00000000
_cell_angle_beta   90.00000000
_cell_angle_gamma   120.00002899
_symmetry_Int_Tables_number   1
_chemical_formula_structural   ZrNbInC
_chemical_formula_sum   'Zr2 Nb2 In2 C2'
_cell_volume   137.35681238
_cell_formula_units_Z   2
loop_
 _symmetry_equiv_pos_site_id
 _symmetry_equiv_pos_as_xyz
  1  'x, y, z'
loop_
 _atom_site_type_symbol
 _atom_site_label
 _atom_site_symmetry_multiplicity
 _atom_site_fract_x
 _atom_site_fract_y
 _atom_site_fract_z
 _atom_site_occupancy
  Zr  Zr0  1  0.333333  0.666667  0.083471  1
  Zr  Zr1  1  0.666667  0.333333  0.583471  1
  Nb  Nb2  1  0.666667  0.333333  0.916689  1
  Nb  Nb3  1  0.333333  0.666667  0.416689  1
  In  In4  1  0.333333  0.666667  0.753988  1
  In  In5  1  0.666667  0.333333  0.253988  1
  C  C6  1  0.000000  0.000000  0.995853  1
  C  C7  1  0.000000  0.000000  0.495853  1
