# generated using pymatgen
data_Nd2Sm5Er13Pb16
_symmetry_space_group_name_H-M   'P 1'
_cell_length_a   8.24076973
_cell_length_b   8.34139156
_cell_length_c   15.72377200
_cell_angle_alpha   90.04951756
_cell_angle_beta   90.48540313
_cell_angle_gamma   89.62272489
_symmetry_Int_Tables_number   1
_chemical_formula_structural   Nd2Sm5Er13Pb16
_chemical_formula_sum   'Nd2 Sm5 Er13 Pb16'
_cell_volume   1080.78145063
_cell_formula_units_Z   1
loop_
 _symmetry_equiv_pos_site_id
 _symmetry_equiv_pos_as_xyz
  1  'x, y, z'
loop_
 _atom_site_type_symbol
 _atom_site_label
 _atom_site_symmetry_multiplicity
 _atom_site_fract_x
 _atom_site_fract_y
 _atom_site_fract_z
 _atom_site_occupancy
  Nd  Nd0  1  0.972534  0.821758  0.901208  1
  Nd  Nd1  1  0.526554  0.322083  0.097329  1
  Sm  Sm2  1  0.032098  0.176721  0.401417  1
  Sm  Sm3  1  0.531839  0.324064  0.401142  1
  Sm  Sm4  1  0.028278  0.177578  0.098023  1
  Sm  Sm5  1  0.473111  0.677295  0.902105  1
  Sm  Sm6  1  0.968224  0.822581  0.599552  1
  Er  Er7  1  0.626880  0.158364  0.621414  1
  Er  Er8  1  0.131041  0.341514  0.877478  1
  Er  Er9  1  0.369692  0.841533  0.122737  1
  Er  Er10  1  0.873161  0.658663  0.378999  1
  Er  Er11  1  0.373993  0.841023  0.379255  1
  Er  Er12  1  0.868948  0.658499  0.122433  1
  Er  Er13  1  0.630274  0.157690  0.876620  1
  Er  Er14  1  0.127330  0.341755  0.620923  1
  Er  Er15  1  0.464974  0.674875  0.600047  1
  Er  Er16  1  0.795197  0.495595  0.748849  1
  Er  Er17  1  0.295808  0.005154  0.749034  1
  Er  Er18  1  0.204495  0.505306  0.251000  1
  Er  Er19  1  0.704489  0.994731  0.250686  1
  Pb  Pb20  1  0.713699  0.964738  0.456569  1
  Pb  Pb21  1  0.207926  0.541146  0.042862  1
  Pb  Pb22  1  0.292170  0.039828  0.957079  1
  Pb  Pb23  1  0.783074  0.466134  0.543855  1
  Pb  Pb24  1  0.288481  0.033998  0.543866  1
  Pb  Pb25  1  0.791481  0.459314  0.956413  1
  Pb  Pb26  1  0.709167  0.961314  0.043249  1
  Pb  Pb27  1  0.215116  0.538799  0.458163  1
  Pb  Pb28  1  0.433395  0.373201  0.749501  1
  Pb  Pb29  1  0.933598  0.128580  0.749212  1
  Pb  Pb30  1  0.567161  0.627978  0.250614  1
  Pb  Pb31  1  0.066794  0.871736  0.250502  1
  Pb  Pb32  1  0.655213  0.845784  0.748030  1
  Pb  Pb33  1  0.161264  0.650854  0.749022  1
  Pb  Pb34  1  0.340733  0.151317  0.250772  1
  Pb  Pb35  1  0.841804  0.348498  0.250045  1
