# generated using pymatgen
data_Gd4YMgSi4
_symmetry_space_group_name_H-M   'P 1'
_cell_length_a   7.39113400
_cell_length_b   7.39107000
_cell_length_c   4.26713500
_cell_angle_alpha   90.00000000
_cell_angle_beta   90.00000000
_cell_angle_gamma   89.99886821
_symmetry_Int_Tables_number   1
_chemical_formula_structural   Gd4YMgSi4
_chemical_formula_sum   'Gd4 Y1 Mg1 Si4'
_cell_volume   233.10670971
_cell_formula_units_Z   1
loop_
 _symmetry_equiv_pos_site_id
 _symmetry_equiv_pos_as_xyz
  1  'x, y, z'
loop_
 _atom_site_type_symbol
 _atom_site_label
 _atom_site_symmetry_multiplicity
 _atom_site_fract_x
 _atom_site_fract_y
 _atom_site_fract_z
 _atom_site_occupancy
  Gd  Gd0  1  0.669736  0.184884  0.500000  1
  Gd  Gd1  1  0.330264  0.815116  0.500000  1
  Gd  Gd2  1  0.184792  0.330348  0.500000  1
  Gd  Gd3  1  0.815208  0.669652  0.500000  1
  Y  Y4  1  0.000000  0.000000  0.000000  1
  Mg  Mg5  1  0.500000  0.500000  0.000000  1
  Si  Si6  1  0.113871  0.618347  0.000000  1
  Si  Si7  1  0.886129  0.381653  0.000000  1
  Si  Si8  1  0.618346  0.886119  0.000000  1
  Si  Si9  1  0.381654  0.113881  0.000000  1
