# generated using pymatgen
data_Tm5(CoHg)2
_symmetry_space_group_name_H-M   'P 1'
_cell_length_a   7.73112299
_cell_length_b   7.73112244
_cell_length_c   15.29507200
_cell_angle_alpha   90.00000000
_cell_angle_beta   90.00000000
_cell_angle_gamma   152.80677725
_symmetry_Int_Tables_number   1
_chemical_formula_structural   Tm5(CoHg)2
_chemical_formula_sum   'Tm10 Co4 Hg4'
_cell_volume   417.77835958
_cell_formula_units_Z   2
loop_
 _symmetry_equiv_pos_site_id
 _symmetry_equiv_pos_as_xyz
  1  'x, y, z'
loop_
 _atom_site_type_symbol
 _atom_site_label
 _atom_site_symmetry_multiplicity
 _atom_site_fract_x
 _atom_site_fract_y
 _atom_site_fract_z
 _atom_site_occupancy
  Tm  Tm0  1  0.608504  0.391496  0.250000  1
  Tm  Tm1  1  0.745356  0.254644  0.628495  1
  Tm  Tm2  1  0.961388  0.038612  0.126542  1
  Tm  Tm3  1  0.038612  0.961388  0.873458  1
  Tm  Tm4  1  0.391496  0.608504  0.750000  1
  Tm  Tm5  1  0.961388  0.038612  0.373458  1
  Tm  Tm6  1  0.038612  0.961388  0.626542  1
  Tm  Tm7  1  0.254644  0.745356  0.128495  1
  Tm  Tm8  1  0.254644  0.745356  0.371505  1
  Tm  Tm9  1  0.745356  0.254644  0.871505  1
  Co  Co10  1  0.409191  0.590809  0.250000  1
  Co  Co11  1  0.590809  0.409191  0.750000  1
  Co  Co12  1  0.811870  0.188130  0.250000  1
  Co  Co13  1  0.188130  0.811870  0.750000  1
  Hg  Hg14  1  0.611436  0.388564  0.031997  1
  Hg  Hg15  1  0.611436  0.388564  0.468003  1
  Hg  Hg16  1  0.388564  0.611436  0.531997  1
  Hg  Hg17  1  0.388564  0.611436  0.968003  1
