# generated using pymatgen
data_Tb6Ni20As13
_symmetry_space_group_name_H-M   'P 1'
_cell_length_a   13.12540900
_cell_length_b   13.13329834
_cell_length_c   3.90038800
_cell_angle_alpha   90.00000000
_cell_angle_beta   90.00000000
_cell_angle_gamma   120.06302364
_symmetry_Int_Tables_number   1
_chemical_formula_structural   Tb6Ni20As13
_chemical_formula_sum   'Tb6 Ni20 As13'
_cell_volume   581.90078293
_cell_formula_units_Z   1
loop_
 _symmetry_equiv_pos_site_id
 _symmetry_equiv_pos_as_xyz
  1  'x, y, z'
loop_
 _atom_site_type_symbol
 _atom_site_label
 _atom_site_symmetry_multiplicity
 _atom_site_fract_x
 _atom_site_fract_y
 _atom_site_fract_z
 _atom_site_occupancy
  Tb  Tb0  1  0.187524  0.470417  0.000000  1
  Tb  Tb1  1  0.529639  0.717019  0.000000  1
  Tb  Tb2  1  0.719724  0.188608  0.500000  1
  Tb  Tb3  1  0.811064  0.530827  0.500000  1
  Tb  Tb4  1  0.469005  0.279987  0.500000  1
  Tb  Tb5  1  0.283008  0.812741  0.000000  1
  Ni  Ni6  1  0.089796  0.199502  0.000000  1
  Ni  Ni7  1  0.800608  0.890305  0.000000  1
  Ni  Ni8  1  0.109280  0.910429  0.000000  1
  Ni  Ni9  1  0.333472  0.666576  0.500000  1
  Ni  Ni10  1  0.920032  0.066194  0.500000  1
  Ni  Ni11  1  0.933864  0.854171  0.500000  1
  Ni  Ni12  1  0.145808  0.080271  0.500000  1
  Ni  Ni13  1  0.666533  0.333333  0.000000  1
  Ni  Ni14  1  0.415624  0.436849  0.000000  1
  Ni  Ni15  1  0.563517  0.978931  0.000000  1
  Ni  Ni16  1  0.021019  0.584170  0.000000  1
  Ni  Ni17  1  0.244307  0.314284  0.500000  1
  Ni  Ni18  1  0.686200  0.930016  0.500000  1
  Ni  Ni19  1  0.069864  0.755691  0.500000  1
  Ni  Ni20  1  0.436454  0.021832  0.500000  1
  Ni  Ni21  1  0.977992  0.414276  0.500000  1
  Ni  Ni22  1  0.585475  0.563436  0.500000  1
  Ni  Ni23  1  0.923558  0.245893  0.000000  1
  Ni  Ni24  1  0.754322  0.677697  0.000000  1
  Ni  Ni25  1  0.322091  0.076682  0.000000  1
  As  As26  1  0.385022  0.522299  0.500000  1
  As  As27  1  0.477908  0.862653  0.500000  1
  As  As28  1  0.137408  0.615031  0.500000  1
  As  As29  1  0.044942  0.278199  0.500000  1
  As  As30  1  0.721817  0.766579  0.500000  1
  As  As31  1  0.233147  0.955254  0.500000  1
  As  As32  1  0.525131  0.137803  0.000000  1
  As  As33  1  0.861885  0.387087  0.000000  1
  As  As34  1  0.612687  0.474676  0.000000  1
  As  As35  1  0.768606  0.049870  0.000000  1
  As  As36  1  0.950242  0.718398  0.000000  1
  As  As37  1  0.281538  0.231802  0.000000  1
  As  As38  1  0.999890  0.000213  0.000000  1
