# generated using pymatgen
data_Eu3ErSb3
_symmetry_space_group_name_H-M   'P 1'
_cell_length_a   8.27237992
_cell_length_b   8.27237979
_cell_length_c   8.31930440
_cell_angle_alpha   70.60007379
_cell_angle_beta   70.60007768
_cell_angle_gamma   109.12123562
_symmetry_Int_Tables_number   1
_chemical_formula_structural   Eu3ErSb3
_chemical_formula_sum   'Eu6 Er2 Sb6'
_cell_volume   440.89561573
_cell_formula_units_Z   2
loop_
 _symmetry_equiv_pos_site_id
 _symmetry_equiv_pos_as_xyz
  1  'x, y, z'
loop_
 _atom_site_type_symbol
 _atom_site_label
 _atom_site_symmetry_multiplicity
 _atom_site_fract_x
 _atom_site_fract_y
 _atom_site_fract_z
 _atom_site_occupancy
  Eu  Eu0  1  0.000815  0.361456  0.494635  1
  Eu  Eu1  1  0.495558  0.495823  0.147062  1
  Eu  Eu2  1  0.642509  0.146186  0.359327  1
  Eu  Eu3  1  0.361456  0.000815  0.994635  1
  Eu  Eu4  1  0.495823  0.495558  0.647062  1
  Eu  Eu5  1  0.146186  0.642509  0.859327  1
  Er  Er6  1  0.858371  0.001577  0.997580  1
  Er  Er7  1  0.001577  0.858371  0.497580  1
  Sb  Sb8  1  0.642336  0.875327  0.748164  1
  Sb  Sb9  1  0.875327  0.642336  0.248164  1
  Sb  Sb10  1  0.231099  0.113173  0.632661  1
  Sb  Sb11  1  0.758335  0.377434  0.870569  1
  Sb  Sb12  1  0.377434  0.758335  0.370569  1
  Sb  Sb13  1  0.113173  0.231099  0.132661  1
