# generated using pymatgen
data_LiDy3Er13In3Rh4
_symmetry_space_group_name_H-M   'P 1'
_cell_length_a   9.56984552
_cell_length_b   9.59282109
_cell_length_c   9.57851400
_cell_angle_alpha   60.04932409
_cell_angle_beta   59.97003147
_cell_angle_gamma   60.18474053
_symmetry_Int_Tables_number   1
_chemical_formula_structural   LiDy3Er13In3Rh4
_chemical_formula_sum   'Li1 Dy3 Er13 In3 Rh4'
_cell_volume   622.73084157
_cell_formula_units_Z   1
loop_
 _symmetry_equiv_pos_site_id
 _symmetry_equiv_pos_as_xyz
  1  'x, y, z'
loop_
 _atom_site_type_symbol
 _atom_site_label
 _atom_site_symmetry_multiplicity
 _atom_site_fract_x
 _atom_site_fract_y
 _atom_site_fract_z
 _atom_site_occupancy
  Li  Li0  1  0.428313  0.714346  0.428670  1
  Dy  Dy1  1  0.189782  0.192433  0.808892  1
  Dy  Dy2  1  0.436488  0.061910  0.064458  1
  Dy  Dy3  1  0.436488  0.061910  0.437144  1
  Er  Er4  1  0.063696  0.436777  0.064336  1
  Er  Er5  1  0.648129  0.052784  0.649543  1
  Er  Er6  1  0.187421  0.812712  0.812730  1
  Er  Er7  1  0.059554  0.061395  0.439526  1
  Er  Er8  1  0.809228  0.191881  0.189962  1
  Er  Er9  1  0.814347  0.811573  0.187040  1
  Er  Er10  1  0.653264  0.649919  0.042968  1
  Er  Er11  1  0.653264  0.649919  0.653849  1
  Er  Er12  1  0.063696  0.436777  0.435192  1
  Er  Er13  1  0.046286  0.648750  0.652482  1
  Er  Er14  1  0.809228  0.191881  0.808928  1
  Er  Er15  1  0.436424  0.435488  0.064044  1
  Er  Er16  1  0.187421  0.812712  0.187138  1
  In  In17  1  0.416542  0.421831  0.746482  1
  In  In18  1  0.745614  0.423178  0.415604  1
  In  In19  1  0.416542  0.421831  0.415145  1
  Rh  Rh20  1  0.857459  0.427811  0.857364  1
  Rh  Rh21  1  0.857272  0.861359  0.426764  1
  Rh  Rh22  1  0.426269  0.859468  0.857132  1
  Rh  Rh23  1  0.857272  0.861359  0.854604  1
