# generated using pymatgen
data_PrNd2Bi(Pt2O7)2
_symmetry_space_group_name_H-M   'P 1'
_cell_length_a   7.43247285
_cell_length_b   7.43134479
_cell_length_c   7.43134566
_cell_angle_alpha   60.21281431
_cell_angle_beta   60.22849058
_cell_angle_gamma   60.22848272
_symmetry_Int_Tables_number   1
_chemical_formula_structural   PrNd2Bi(Pt2O7)2
_chemical_formula_sum   'Pr1 Nd2 Bi1 Pt4 O14'
_cell_volume   291.70434993
_cell_formula_units_Z   1
loop_
 _symmetry_equiv_pos_site_id
 _symmetry_equiv_pos_as_xyz
  1  'x, y, z'
loop_
 _atom_site_type_symbol
 _atom_site_label
 _atom_site_symmetry_multiplicity
 _atom_site_fract_x
 _atom_site_fract_y
 _atom_site_fract_z
 _atom_site_occupancy
  Pr  Pr0  1  0.625000  0.125000  0.125000  1
  Nd  Nd1  1  0.125000  0.125000  0.625000  1
  Nd  Nd2  1  0.125000  0.625000  0.125000  1
  Bi  Bi3  1  0.125000  0.125000  0.125000  1
  Pt  Pt4  1  0.625000  0.625000  0.125000  1
  Pt  Pt5  1  0.625000  0.125000  0.625000  1
  Pt  Pt6  1  0.125000  0.625000  0.625000  1
  Pt  Pt7  1  0.625000  0.625000  0.625000  1
  O  O8  1  0.248276  0.251217  0.251217  1
  O  O9  1  0.001724  0.998783  0.998783  1
  O  O10  1  0.539007  0.959946  0.540340  1
  O  O11  1  0.291241  0.707308  0.291156  1
  O  O12  1  0.539007  0.540340  0.959946  1
  O  O13  1  0.960166  0.539417  0.539417  1
  O  O14  1  0.542348  0.958509  0.958509  1
  O  O15  1  0.958759  0.958844  0.542692  1
  O  O16  1  0.958759  0.542692  0.958844  1
  O  O17  1  0.707652  0.291491  0.291491  1
  O  O18  1  0.289834  0.710583  0.710583  1
  O  O19  1  0.710993  0.290054  0.709660  1
  O  O20  1  0.291241  0.291156  0.707308  1
  O  O21  1  0.710993  0.709660  0.290054  1
