# generated using pymatgen
data_Dy5PuNiO12
_symmetry_space_group_name_H-M   'P 1'
_cell_length_a   6.97517700
_cell_length_b   6.97517699
_cell_length_c   7.47542100
_cell_angle_alpha   74.39914158
_cell_angle_beta   74.39913306
_cell_angle_gamma   51.11561573
_symmetry_Int_Tables_number   1
_chemical_formula_structural   Dy5PuNiO12
_chemical_formula_sum   'Dy5 Pu1 Ni1 O12'
_cell_volume   270.23904055
_cell_formula_units_Z   1
loop_
 _symmetry_equiv_pos_site_id
 _symmetry_equiv_pos_as_xyz
  1  'x, y, z'
loop_
 _atom_site_type_symbol
 _atom_site_label
 _atom_site_symmetry_multiplicity
 _atom_site_fract_x
 _atom_site_fract_y
 _atom_site_fract_z
 _atom_site_occupancy
  Dy  Dy0  1  0.323863  0.272874  0.361076  1
  Dy  Dy1  1  0.727126  0.676137  0.638924  1
  Dy  Dy2  1  0.306571  0.306412  0.828999  1
  Dy  Dy3  1  0.693588  0.693429  0.171001  1
  Dy  Dy4  1  0.013150  0.986850  0.500000  1
  Pu  Pu5  1  0.232682  0.767318  0.000000  1
  Ni  Ni6  1  0.742605  0.257395  0.000000  1
  O  O7  1  0.900638  0.443408  0.912336  1
  O  O8  1  0.423676  0.906571  0.912832  1
  O  O9  1  0.093429  0.576324  0.087168  1
  O  O10  1  0.556592  0.099362  0.087664  1
  O  O11  1  0.108778  0.591568  0.569702  1
  O  O12  1  0.603570  0.082675  0.577095  1
  O  O13  1  0.917325  0.396430  0.422905  1
  O  O14  1  0.408432  0.891222  0.430298  1
  O  O15  1  0.996256  0.001192  0.810703  1
  O  O16  1  0.998808  0.003744  0.189297  1
  O  O17  1  0.474875  0.521966  0.810671  1
  O  O18  1  0.478034  0.525125  0.189329  1
