# generated using pymatgen
data_NaMgCoH6
_symmetry_space_group_name_H-M   'P 1'
_cell_length_a   6.64653200
_cell_length_b   6.64653200
_cell_length_c   6.64653200
_cell_angle_alpha   90.00000000
_cell_angle_beta   90.00000000
_cell_angle_gamma   90.00000000
_symmetry_Int_Tables_number   1
_chemical_formula_structural   NaMgCoH6
_chemical_formula_sum   'Na4 Mg4 Co4 H24'
_cell_volume   293.61977401
_cell_formula_units_Z   4
loop_
 _symmetry_equiv_pos_site_id
 _symmetry_equiv_pos_as_xyz
  1  'x, y, z'
loop_
 _atom_site_type_symbol
 _atom_site_label
 _atom_site_symmetry_multiplicity
 _atom_site_fract_x
 _atom_site_fract_y
 _atom_site_fract_z
 _atom_site_occupancy
  Na  Na0  1  0.000000  0.000000  0.500000  1
  Na  Na1  1  0.000000  0.500000  0.000000  1
  Na  Na2  1  0.500000  0.000000  0.000000  1
  Na  Na3  1  0.000000  0.000000  0.000000  1
  Mg  Mg4  1  0.500000  0.500000  0.500000  1
  Mg  Mg5  1  0.000000  0.500000  0.500000  1
  Mg  Mg6  1  0.500000  0.000000  0.500000  1
  Mg  Mg7  1  0.500000  0.500000  0.000000  1
  Co  Co8  1  0.268664  0.731336  0.731336  1
  Co  Co9  1  0.731336  0.268664  0.731336  1
  Co  Co10  1  0.731336  0.731336  0.268664  1
  Co  Co11  1  0.268664  0.268664  0.268664  1
  H  H12  1  0.737279  0.737279  0.497341  1
  H  H13  1  0.262721  0.262721  0.497341  1
  H  H14  1  0.037479  0.734110  0.734110  1
  H  H15  1  0.265890  0.962521  0.734110  1
  H  H16  1  0.734110  0.037479  0.734110  1
  H  H17  1  0.962521  0.265890  0.734110  1
  H  H18  1  0.737279  0.497341  0.737279  1
  H  H19  1  0.497341  0.737279  0.737279  1
  H  H20  1  0.502659  0.262721  0.737279  1
  H  H21  1  0.262721  0.502659  0.737279  1
  H  H22  1  0.265890  0.734110  0.962521  1
  H  H23  1  0.734110  0.265890  0.962521  1
  H  H24  1  0.734110  0.734110  0.037479  1
  H  H25  1  0.265890  0.265890  0.037479  1
  H  H26  1  0.262721  0.497341  0.262721  1
  H  H27  1  0.502659  0.737279  0.262721  1
  H  H28  1  0.497341  0.262721  0.262721  1
  H  H29  1  0.737279  0.502659  0.262721  1
  H  H30  1  0.962521  0.734110  0.265890  1
  H  H31  1  0.734110  0.962521  0.265890  1
  H  H32  1  0.265890  0.037479  0.265890  1
  H  H33  1  0.037479  0.265890  0.265890  1
  H  H34  1  0.262721  0.737279  0.502659  1
  H  H35  1  0.737279  0.262721  0.502659  1
