# generated using pymatgen
data_Tb5Y8Ho7(CoSb2)4
_symmetry_space_group_name_H-M   'P 1'
_cell_length_a   7.92718621
_cell_length_b   8.74721822
_cell_length_c   12.21914733
_cell_angle_alpha   90.01841371
_cell_angle_beta   89.98098394
_cell_angle_gamma   90.01808540
_symmetry_Int_Tables_number   1
_chemical_formula_structural   Tb5Y8Ho7(CoSb2)4
_chemical_formula_sum   'Tb5 Y8 Ho7 Co4 Sb8'
_cell_volume   847.28565610
_cell_formula_units_Z   1
loop_
 _symmetry_equiv_pos_site_id
 _symmetry_equiv_pos_as_xyz
  1  'x, y, z'
loop_
 _atom_site_type_symbol
 _atom_site_label
 _atom_site_symmetry_multiplicity
 _atom_site_fract_x
 _atom_site_fract_y
 _atom_site_fract_z
 _atom_site_occupancy
  Tb  Tb0  1  0.623171  0.750244  0.305842  1
  Tb  Tb1  1  0.122734  0.250074  0.193765  1
  Tb  Tb2  1  0.377607  0.249649  0.694050  1
  Tb  Tb3  1  0.877303  0.749998  0.806230  1
  Tb  Tb4  1  0.321462  0.465542  0.435170  1
  Y  Y5  1  0.154594  0.750045  0.203370  1
  Y  Y6  1  0.654944  0.249805  0.296375  1
  Y  Y7  1  0.845300  0.249980  0.796428  1
  Y  Y8  1  0.345202  0.750127  0.703782  1
  Y  Y9  1  0.455788  0.750029  0.998172  1
  Y  Y10  1  0.955278  0.249787  0.501793  1
  Y  Y11  1  0.544159  0.249951  0.001766  1
  Y  Y12  1  0.043459  0.750312  0.498256  1
  Ho  Ho13  1  0.822944  0.965350  0.064849  1
  Ho  Ho14  1  0.322943  0.034574  0.435199  1
  Ho  Ho15  1  0.177110  0.465505  0.935139  1
  Ho  Ho16  1  0.677454  0.534593  0.565057  1
  Ho  Ho17  1  0.177105  0.034479  0.935099  1
  Ho  Ho18  1  0.677131  0.965324  0.564983  1
  Ho  Ho19  1  0.822911  0.534608  0.064830  1
  Co  Co20  1  0.437722  0.750323  0.490134  1
  Co  Co21  1  0.937302  0.249989  0.009835  1
  Co  Co22  1  0.563758  0.249464  0.510202  1
  Co  Co23  1  0.062673  0.750006  0.990103  1
  Sb  Sb24  1  0.928689  0.991800  0.327107  1
  Sb  Sb25  1  0.428547  0.008240  0.172808  1
  Sb  Sb26  1  0.071632  0.491777  0.672794  1
  Sb  Sb27  1  0.571446  0.508257  0.827210  1
  Sb  Sb28  1  0.071445  0.008244  0.672837  1
  Sb  Sb29  1  0.571530  0.991724  0.827309  1
  Sb  Sb30  1  0.927888  0.508367  0.326976  1
  Sb  Sb31  1  0.428769  0.491832  0.172531  1
