# generated using pymatgen
data_Pa3Al12CoOs3
_symmetry_space_group_name_H-M   'P 1'
_cell_length_a   8.84215800
_cell_length_b   8.84215847
_cell_length_c   9.36741200
_cell_angle_alpha   90.00000000
_cell_angle_beta   90.00000000
_cell_angle_gamma   119.99999823
_symmetry_Int_Tables_number   1
_chemical_formula_structural   Pa3Al12CoOs3
_chemical_formula_sum   'Pa6 Al24 Co2 Os6'
_cell_volume   634.25927489
_cell_formula_units_Z   2
loop_
 _symmetry_equiv_pos_site_id
 _symmetry_equiv_pos_as_xyz
  1  'x, y, z'
loop_
 _atom_site_type_symbol
 _atom_site_label
 _atom_site_symmetry_multiplicity
 _atom_site_fract_x
 _atom_site_fract_y
 _atom_site_fract_z
 _atom_site_occupancy
  Pa  Pa0  1  0.199246  0.398492  0.250000  1
  Pa  Pa1  1  0.800754  0.601508  0.750000  1
  Pa  Pa2  1  0.601508  0.800754  0.250000  1
  Pa  Pa3  1  0.398492  0.199246  0.750000  1
  Pa  Pa4  1  0.199246  0.800754  0.250000  1
  Pa  Pa5  1  0.800754  0.199246  0.750000  1
  Al  Al6  1  0.333333  0.666667  0.015627  1
  Al  Al7  1  0.666667  0.333333  0.984373  1
  Al  Al8  1  0.666667  0.333333  0.515627  1
  Al  Al9  1  0.333333  0.666667  0.484373  1
  Al  Al10  1  0.159021  0.318042  0.579116  1
  Al  Al11  1  0.840979  0.681958  0.420884  1
  Al  Al12  1  0.681958  0.840979  0.579116  1
  Al  Al13  1  0.840979  0.681958  0.079116  1
  Al  Al14  1  0.318042  0.159021  0.420884  1
  Al  Al15  1  0.159021  0.318042  0.920884  1
  Al  Al16  1  0.159021  0.840979  0.579116  1
  Al  Al17  1  0.318042  0.159021  0.079116  1
  Al  Al18  1  0.840979  0.159021  0.420884  1
  Al  Al19  1  0.681958  0.840979  0.920884  1
  Al  Al20  1  0.840979  0.159021  0.079116  1
  Al  Al21  1  0.159021  0.840979  0.920884  1
  Al  Al22  1  0.563409  0.126818  0.250000  1
  Al  Al23  1  0.436591  0.873182  0.750000  1
  Al  Al24  1  0.873182  0.436591  0.250000  1
  Al  Al25  1  0.126818  0.563409  0.750000  1
  Al  Al26  1  0.563409  0.436591  0.250000  1
  Al  Al27  1  0.436591  0.563409  0.750000  1
  Al  Al28  1  0.000000  0.000000  0.250000  1
  Al  Al29  1  0.000000  0.000000  0.750000  1
  Co  Co30  1  0.000000  0.000000  0.000000  1
  Co  Co31  1  0.000000  0.000000  0.500000  1
  Os  Os32  1  0.500000  0.000000  0.000000  1
  Os  Os33  1  0.000000  0.500000  0.000000  1
  Os  Os34  1  0.500000  0.000000  0.500000  1
  Os  Os35  1  0.500000  0.500000  0.000000  1
  Os  Os36  1  0.000000  0.500000  0.500000  1
  Os  Os37  1  0.500000  0.500000  0.500000  1
