# generated using pymatgen
data_HfSc7(Nb2Sn5)2
_symmetry_space_group_name_H-M   'P 1'
_cell_length_a   10.82762212
_cell_length_b   10.84399486
_cell_length_c   10.84399549
_cell_angle_alpha   149.07184577
_cell_angle_beta   131.60757432
_cell_angle_gamma   58.55885387
_symmetry_Int_Tables_number   1
_chemical_formula_structural   HfSc7(Nb2Sn5)2
_chemical_formula_sum   'Hf1 Sc7 Nb4 Sn10'
_cell_volume   485.47215175
_cell_formula_units_Z   1
loop_
 _symmetry_equiv_pos_site_id
 _symmetry_equiv_pos_as_xyz
  1  'x, y, z'
loop_
 _atom_site_type_symbol
 _atom_site_label
 _atom_site_symmetry_multiplicity
 _atom_site_fract_x
 _atom_site_fract_y
 _atom_site_fract_z
 _atom_site_occupancy
  Hf  Hf0  1  0.674348  0.436006  0.238342  1
  Sc  Sc1  1  0.324902  0.564069  0.760833  1
  Sc  Sc2  1  0.197506  0.935877  0.261631  1
  Sc  Sc3  1  0.802048  0.063843  0.738204  1
  Sc  Sc4  1  0.258977  0.146187  0.112792  1
  Sc  Sc5  1  0.740996  0.853960  0.887035  1
  Sc  Sc6  1  0.033377  0.646192  0.387185  1
  Sc  Sc7  1  0.966924  0.354122  0.612802  1
  Nb  Nb8  1  0.308459  0.557823  0.250173  1
  Nb  Nb9  1  0.691937  0.442301  0.750550  1
  Nb  Nb10  1  0.691937  0.941386  0.249636  1
  Nb  Nb11  1  0.308459  0.058286  0.750636  1
  Sn  Sn12  1  0.587273  0.287903  0.299371  1
  Sn  Sn13  1  0.413146  0.711981  0.701165  1
  Sn  Sn14  1  0.989175  0.788115  0.201060  1
  Sn  Sn15  1  0.010939  0.211869  0.799070  1
  Sn  Sn16  1  0.999651  0.249891  0.249904  1
  Sn  Sn17  1  0.999651  0.749748  0.749761  1
  Sn  Sn18  1  0.469406  0.070761  0.398643  1
  Sn  Sn19  1  0.531500  0.929629  0.601872  1
  Sn  Sn20  1  0.671839  0.570814  0.101025  1
  Sn  Sn21  1  0.327550  0.429239  0.898311  1
