# generated using pymatgen
data_Rb6DyLuF12
_symmetry_space_group_name_H-M   'P 1'
_cell_length_a   6.89455107
_cell_length_b   6.64128085
_cell_length_c   11.53968735
_cell_angle_alpha   55.29586546
_cell_angle_beta   89.89767016
_cell_angle_gamma   90.04211893
_symmetry_Int_Tables_number   1
_chemical_formula_structural   Rb6DyLuF12
_chemical_formula_sum   'Rb6 Dy1 Lu1 F12'
_cell_volume   434.38659452
_cell_formula_units_Z   1
loop_
 _symmetry_equiv_pos_site_id
 _symmetry_equiv_pos_as_xyz
  1  'x, y, z'
loop_
 _atom_site_type_symbol
 _atom_site_label
 _atom_site_symmetry_multiplicity
 _atom_site_fract_x
 _atom_site_fract_y
 _atom_site_fract_z
 _atom_site_occupancy
  Rb  Rb0  1  0.500000  0.500000  0.000000  1
  Rb  Rb1  1  0.000000  0.500000  0.500000  1
  Rb  Rb2  1  0.051893  0.736900  0.748790  1
  Rb  Rb3  1  0.948107  0.263100  0.251210  1
  Rb  Rb4  1  0.550181  0.271327  0.742204  1
  Rb  Rb5  1  0.449819  0.728673  0.257796  1
  Dy  Dy6  1  0.000000  0.000000  0.000000  1
  Lu  Lu7  1  0.500000  0.000000  0.500000  1
  F  F8  1  0.756359  0.778513  0.562286  1
  F  F9  1  0.243641  0.221487  0.437714  1
  F  F10  1  0.264614  0.227264  0.932908  1
  F  F11  1  0.735386  0.772736  0.067092  1
  F  F12  1  0.450690  0.891601  0.711225  1
  F  F13  1  0.549310  0.108399  0.288775  1
  F  F14  1  0.948136  0.111396  0.782558  1
  F  F15  1  0.051864  0.888604  0.217442  1
  F  F16  1  0.331261  0.693028  0.544350  1
  F  F17  1  0.668739  0.306972  0.455650  1
  F  F18  1  0.831583  0.319855  0.951791  1
  F  F19  1  0.168417  0.680145  0.048209  1
