# generated using pymatgen
data_Tb7Er2ThIr6
_symmetry_space_group_name_H-M   'P 1'
_cell_length_a   11.02484589
_cell_length_b   10.98625900
_cell_length_c   6.35967600
_cell_angle_alpha   90.00000000
_cell_angle_beta   89.65154629
_cell_angle_gamma   90.00000000
_symmetry_Int_Tables_number   1
_chemical_formula_structural   Tb7Er2ThIr6
_chemical_formula_sum   'Tb14 Er4 Th2 Ir12'
_cell_volume   770.28123769
_cell_formula_units_Z   2
loop_
 _symmetry_equiv_pos_site_id
 _symmetry_equiv_pos_as_xyz
  1  'x, y, z'
loop_
 _atom_site_type_symbol
 _atom_site_label
 _atom_site_symmetry_multiplicity
 _atom_site_fract_x
 _atom_site_fract_y
 _atom_site_fract_z
 _atom_site_occupancy
  Tb  Tb0  1  0.708633  0.088841  0.878736  1
  Tb  Tb1  1  0.708633  0.911159  0.378736  1
  Tb  Tb2  1  0.592930  0.789979  0.879142  1
  Tb  Tb3  1  0.592930  0.210021  0.379142  1
  Tb  Tb4  1  0.415185  0.786417  0.378277  1
  Tb  Tb5  1  0.415185  0.213583  0.878277  1
  Tb  Tb6  1  0.208551  0.412653  0.622293  1
  Tb  Tb7  1  0.208551  0.587347  0.122293  1
  Tb  Tb8  1  0.791051  0.412603  0.121106  1
  Tb  Tb9  1  0.791051  0.587397  0.621106  1
  Tb  Tb10  1  0.911305  0.708797  0.120879  1
  Tb  Tb11  1  0.911305  0.291203  0.620879  1
  Tb  Tb12  1  0.084977  0.707767  0.619038  1
  Tb  Tb13  1  0.084977  0.292233  0.119038  1
  Er  Er14  1  0.996284  0.999061  0.500784  1
  Er  Er15  1  0.996284  0.000939  0.000784  1
  Er  Er16  1  0.501223  0.500347  0.002185  1
  Er  Er17  1  0.501223  0.499653  0.502185  1
  Th  Th18  1  0.290591  0.092638  0.378211  1
  Th  Th19  1  0.290591  0.907362  0.878211  1
  Ir  Ir20  1  0.847862  0.152695  0.250246  1
  Ir  Ir21  1  0.847862  0.847305  0.750246  1
  Ir  Ir22  1  0.155138  0.149081  0.746297  1
  Ir  Ir23  1  0.155138  0.850919  0.246297  1
  Ir  Ir24  1  0.652849  0.348805  0.750536  1
  Ir  Ir25  1  0.652849  0.651195  0.250536  1
  Ir  Ir26  1  0.347467  0.346173  0.254297  1
  Ir  Ir27  1  0.347467  0.653827  0.754297  1
  Ir  Ir28  1  0.496559  0.001041  0.121759  1
  Ir  Ir29  1  0.496559  0.998959  0.621759  1
  Ir  Ir30  1  0.999393  0.499525  0.876214  1
  Ir  Ir31  1  0.999393  0.500475  0.376214  1
