# generated using pymatgen
data_Er10IrPb6Au
_symmetry_space_group_name_H-M   'P 1'
_cell_length_a   9.16225600
_cell_length_b   9.16225611
_cell_length_c   6.80576300
_cell_angle_alpha   90.00000000
_cell_angle_beta   90.00000000
_cell_angle_gamma   120.00000683
_symmetry_Int_Tables_number   1
_chemical_formula_structural   Er10IrPb6Au
_chemical_formula_sum   'Er10 Ir1 Pb6 Au1'
_cell_volume   494.78015530
_cell_formula_units_Z   1
loop_
 _symmetry_equiv_pos_site_id
 _symmetry_equiv_pos_as_xyz
  1  'x, y, z'
loop_
 _atom_site_type_symbol
 _atom_site_label
 _atom_site_symmetry_multiplicity
 _atom_site_fract_x
 _atom_site_fract_y
 _atom_site_fract_z
 _atom_site_occupancy
  Er  Er0  1  0.246510  0.000000  0.232861  1
  Er  Er1  1  0.753490  0.000000  0.767139  1
  Er  Er2  1  0.000000  0.246510  0.232861  1
  Er  Er3  1  0.000000  0.753490  0.767139  1
  Er  Er4  1  0.753490  0.753490  0.232861  1
  Er  Er5  1  0.246510  0.246510  0.767139  1
  Er  Er6  1  0.333333  0.666667  0.000000  1
  Er  Er7  1  0.666667  0.333333  0.000000  1
  Er  Er8  1  0.666667  0.333333  0.500000  1
  Er  Er9  1  0.333333  0.666667  0.500000  1
  Ir  Ir10  1  0.000000  0.000000  0.000000  1
  Pb  Pb11  1  0.600317  0.000000  0.252601  1
  Pb  Pb12  1  0.399683  0.000000  0.747399  1
  Pb  Pb13  1  0.000000  0.600317  0.252601  1
  Pb  Pb14  1  0.000000  0.399683  0.747399  1
  Pb  Pb15  1  0.399683  0.399683  0.252601  1
  Pb  Pb16  1  0.600317  0.600317  0.747399  1
  Au  Au17  1  0.000000  0.000000  0.500000  1
