# generated using pymatgen
data_LaGd2NbO7
_symmetry_space_group_name_H-M   'P 1'
_cell_length_a   6.59013310
_cell_length_b   6.59013262
_cell_length_c   7.72905000
_cell_angle_alpha   90.00000000
_cell_angle_beta   90.00000000
_cell_angle_gamma   109.37593058
_symmetry_Int_Tables_number   1
_chemical_formula_structural   LaGd2NbO7
_chemical_formula_sum   'La2 Gd4 Nb2 O14'
_cell_volume   316.65976648
_cell_formula_units_Z   2
loop_
 _symmetry_equiv_pos_site_id
 _symmetry_equiv_pos_as_xyz
  1  'x, y, z'
loop_
 _atom_site_type_symbol
 _atom_site_label
 _atom_site_symmetry_multiplicity
 _atom_site_fract_x
 _atom_site_fract_y
 _atom_site_fract_z
 _atom_site_occupancy
  La  La0  1  0.500000  0.500000  0.500000  1
  La  La1  1  0.500000  0.500000  0.000000  1
  Gd  Gd2  1  0.533803  0.000633  0.750000  1
  Gd  Gd3  1  0.000633  0.533803  0.250000  1
  Gd  Gd4  1  0.466197  0.999367  0.250000  1
  Gd  Gd5  1  0.999367  0.466197  0.750000  1
  Nb  Nb6  1  0.000000  0.000000  0.500000  1
  Nb  Nb7  1  0.000000  0.000000  0.000000  1
  O  O8  1  0.681776  0.931622  0.467814  1
  O  O9  1  0.931622  0.681776  0.532186  1
  O  O10  1  0.681776  0.931622  0.032186  1
  O  O11  1  0.931622  0.681776  0.967814  1
  O  O12  1  0.318224  0.068378  0.532186  1
  O  O13  1  0.068378  0.318224  0.467814  1
  O  O14  1  0.318224  0.068378  0.967814  1
  O  O15  1  0.068378  0.318224  0.032186  1
  O  O16  1  0.365025  0.634975  0.750000  1
  O  O17  1  0.634975  0.365025  0.250000  1
  O  O18  1  0.641008  0.358992  0.750000  1
  O  O19  1  0.358992  0.641008  0.250000  1
  O  O20  1  0.936191  0.063809  0.750000  1
  O  O21  1  0.063809  0.936191  0.250000  1
