# generated using pymatgen
data_Tb4Ho12Cd4TcPt3
_symmetry_space_group_name_H-M   'P 1'
_cell_length_a   9.69287612
_cell_length_b   9.69027210
_cell_length_c   9.69027332
_cell_angle_alpha   59.46338160
_cell_angle_beta   59.43971875
_cell_angle_gamma   59.43972131
_symmetry_Int_Tables_number   1
_chemical_formula_structural   Tb4Ho12Cd4TcPt3
_chemical_formula_sum   'Tb4 Ho12 Cd4 Tc1 Pt3'
_cell_volume   635.50255824
_cell_formula_units_Z   1
loop_
 _symmetry_equiv_pos_site_id
 _symmetry_equiv_pos_as_xyz
  1  'x, y, z'
loop_
 _atom_site_type_symbol
 _atom_site_label
 _atom_site_symmetry_multiplicity
 _atom_site_fract_x
 _atom_site_fract_y
 _atom_site_fract_z
 _atom_site_occupancy
  Tb  Tb0  1  0.564820  0.935825  0.564904  1
  Tb  Tb1  1  0.937928  0.556770  0.937812  1
  Tb  Tb2  1  0.564820  0.564904  0.935825  1
  Tb  Tb3  1  0.937928  0.937812  0.556770  1
  Ho  Ho4  1  0.351401  0.351623  0.351623  1
  Ho  Ho5  1  0.350398  0.350083  0.948925  1
  Ho  Ho6  1  0.350398  0.948925  0.350083  1
  Ho  Ho7  1  0.948590  0.350434  0.350434  1
  Ho  Ho8  1  0.815351  0.188128  0.188128  1
  Ho  Ho9  1  0.188903  0.809750  0.809750  1
  Ho  Ho10  1  0.188280  0.815326  0.188162  1
  Ho  Ho11  1  0.809752  0.188865  0.809615  1
  Ho  Ho12  1  0.188280  0.188162  0.815326  1
  Ho  Ho13  1  0.809752  0.809615  0.188865  1
  Ho  Ho14  1  0.936253  0.564342  0.564342  1
  Ho  Ho15  1  0.556133  0.938319  0.938319  1
  Cd  Cd16  1  0.580185  0.579771  0.579771  1
  Cd  Cd17  1  0.580753  0.581013  0.254560  1
  Cd  Cd18  1  0.580753  0.254560  0.581013  1
  Cd  Cd19  1  0.254577  0.580741  0.580741  1
  Tc  Tc20  1  0.144075  0.143624  0.143624  1
  Pt  Pt21  1  0.143848  0.144444  0.573022  1
  Pt  Pt22  1  0.143848  0.573022  0.144444  1
  Pt  Pt23  1  0.572975  0.143941  0.143941  1
