# generated using pymatgen
data_Y5Er15(Cd3Tc)2
_symmetry_space_group_name_H-M   'P 1'
_cell_length_a   9.51192201
_cell_length_b   9.51192218
_cell_length_c   9.88670700
_cell_angle_alpha   90.00000000
_cell_angle_beta   90.00000000
_cell_angle_gamma   119.99602087
_symmetry_Int_Tables_number   1
_chemical_formula_structural   Y5Er15(Cd3Tc)2
_chemical_formula_sum   'Y5 Er15 Cd6 Tc2'
_cell_volume   774.70485373
_cell_formula_units_Z   1
loop_
 _symmetry_equiv_pos_site_id
 _symmetry_equiv_pos_as_xyz
  1  'x, y, z'
loop_
 _atom_site_type_symbol
 _atom_site_label
 _atom_site_symmetry_multiplicity
 _atom_site_fract_x
 _atom_site_fract_y
 _atom_site_fract_z
 _atom_site_occupancy
  Y  Y0  1  0.539666  0.079737  0.250000  1
  Y  Y1  1  0.920263  0.460334  0.250000  1
  Y  Y2  1  0.460302  0.539698  0.750000  1
  Y  Y3  1  0.460521  0.921019  0.750000  1
  Y  Y4  1  0.078981  0.539479  0.750000  1
  Er  Er5  1  0.000016  0.999984  0.499937  1
  Er  Er6  1  0.000016  0.999984  0.000063  1
  Er  Er7  1  0.209985  0.790015  0.440852  1
  Er  Er8  1  0.210393  0.419648  0.440644  1
  Er  Er9  1  0.580352  0.789607  0.440644  1
  Er  Er10  1  0.790098  0.209902  0.559076  1
  Er  Er11  1  0.789630  0.580072  0.558741  1
  Er  Er12  1  0.419928  0.210370  0.558741  1
  Er  Er13  1  0.790098  0.209902  0.940924  1
  Er  Er14  1  0.789630  0.580072  0.941259  1
  Er  Er15  1  0.419928  0.210370  0.941259  1
  Er  Er16  1  0.209985  0.790015  0.059148  1
  Er  Er17  1  0.210393  0.419648  0.059356  1
  Er  Er18  1  0.580352  0.789607  0.059356  1
  Er  Er19  1  0.539190  0.460810  0.250000  1
  Cd  Cd20  1  0.886021  0.113979  0.250000  1
  Cd  Cd21  1  0.885220  0.771453  0.250000  1
  Cd  Cd22  1  0.228547  0.114780  0.250000  1
  Cd  Cd23  1  0.113948  0.886052  0.750000  1
  Cd  Cd24  1  0.114026  0.227955  0.750000  1
  Cd  Cd25  1  0.772045  0.885974  0.750000  1
  Tc  Tc26  1  0.333699  0.666301  0.250000  1
  Tc  Tc27  1  0.666765  0.333235  0.750000  1
