# generated using pymatgen
data_Er2LuSc3CoTe2
_symmetry_space_group_name_H-M   'P 1'
_cell_length_a   3.88881700
_cell_length_b   7.98106744
_cell_length_c   7.98106869
_cell_angle_alpha   120.52439579
_cell_angle_beta   90.00000000
_cell_angle_gamma   90.00000000
_symmetry_Int_Tables_number   1
_chemical_formula_structural   Er2LuSc3CoTe2
_chemical_formula_sum   'Er2 Lu1 Sc3 Co1 Te2'
_cell_volume   213.37864213
_cell_formula_units_Z   1
loop_
 _symmetry_equiv_pos_site_id
 _symmetry_equiv_pos_as_xyz
  1  'x, y, z'
loop_
 _atom_site_type_symbol
 _atom_site_label
 _atom_site_symmetry_multiplicity
 _atom_site_fract_x
 _atom_site_fract_y
 _atom_site_fract_z
 _atom_site_occupancy
  Er  Er0  1  0.000000  0.998486  0.607366  1
  Er  Er1  1  0.000000  0.607366  0.998486  1
  Lu  Lu2  1  0.000000  0.381068  0.381068  1
  Sc  Sc3  1  0.500000  0.771020  0.771020  1
  Sc  Sc4  1  0.500000  0.993141  0.224861  1
  Sc  Sc5  1  0.500000  0.224861  0.993141  1
  Co  Co6  1  0.000000  0.028891  0.028891  1
  Te  Te7  1  0.500000  0.663135  0.332033  1
  Te  Te8  1  0.500000  0.332033  0.663135  1
