# generated using pymatgen
data_Ac6Hg7Rh
_symmetry_space_group_name_H-M   'P 1'
_cell_length_a   8.85381643
_cell_length_b   8.85381658
_cell_length_c   8.85381687
_cell_angle_alpha   113.41327632
_cell_angle_beta   113.41327609
_cell_angle_gamma   113.41327483
_symmetry_Int_Tables_number   1
_chemical_formula_structural   Ac6Hg7Rh
_chemical_formula_sum   'Ac6 Hg7 Rh1'
_cell_volume   439.41233181
_cell_formula_units_Z   1
loop_
 _symmetry_equiv_pos_site_id
 _symmetry_equiv_pos_as_xyz
  1  'x, y, z'
loop_
 _atom_site_type_symbol
 _atom_site_label
 _atom_site_symmetry_multiplicity
 _atom_site_fract_x
 _atom_site_fract_y
 _atom_site_fract_z
 _atom_site_occupancy
  Ac  Ac0  1  0.992742  0.632018  0.749531  1
  Ac  Ac1  1  0.749531  0.992742  0.632018  1
  Ac  Ac2  1  0.632018  0.749531  0.992742  1
  Ac  Ac3  1  0.007258  0.367982  0.250469  1
  Ac  Ac4  1  0.250469  0.007258  0.367982  1
  Ac  Ac5  1  0.367982  0.250469  0.007258  1
  Hg  Hg6  1  0.500000  0.500000  0.500000  1
  Hg  Hg7  1  0.900657  0.739541  0.409182  1
  Hg  Hg8  1  0.409182  0.900657  0.739541  1
  Hg  Hg9  1  0.739541  0.409182  0.900657  1
  Hg  Hg10  1  0.099343  0.260459  0.590818  1
  Hg  Hg11  1  0.590818  0.099343  0.260459  1
  Hg  Hg12  1  0.260459  0.590818  0.099343  1
  Rh  Rh13  1  0.000000  0.000000  0.000000  1
