# generated using pymatgen
data_TmZr(B4Ir3)2
_symmetry_space_group_name_H-M   'P 1'
_cell_length_a   7.66419100
_cell_length_b   7.66419029
_cell_length_c   3.53838100
_cell_angle_alpha   90.00000000
_cell_angle_beta   90.00000000
_cell_angle_gamma   120.00000737
_symmetry_Int_Tables_number   1
_chemical_formula_structural   TmZr(B4Ir3)2
_chemical_formula_sum   'Tm1 Zr1 B8 Ir6'
_cell_volume   179.99804672
_cell_formula_units_Z   1
loop_
 _symmetry_equiv_pos_site_id
 _symmetry_equiv_pos_as_xyz
  1  'x, y, z'
loop_
 _atom_site_type_symbol
 _atom_site_label
 _atom_site_symmetry_multiplicity
 _atom_site_fract_x
 _atom_site_fract_y
 _atom_site_fract_z
 _atom_site_occupancy
  Tm  Tm0  1  0.333333  0.666667  0.250000  1
  Zr  Zr1  1  0.666667  0.333333  0.750000  1
  B  B2  1  0.396567  0.949101  0.750000  1
  B  B3  1  0.050899  0.447465  0.750000  1
  B  B4  1  0.552535  0.603433  0.750000  1
  B  B5  1  0.603259  0.052132  0.250000  1
  B  B6  1  0.947868  0.551127  0.250000  1
  B  B7  1  0.448873  0.396741  0.250000  1
  B  B8  1  0.000000  0.000000  0.500632  1
  B  B9  1  0.000000  0.000000  0.999368  1
  Ir  Ir10  1  0.070667  0.743892  0.750000  1
  Ir  Ir11  1  0.256108  0.326775  0.750000  1
  Ir  Ir12  1  0.673225  0.929333  0.750000  1
  Ir  Ir13  1  0.926025  0.255429  0.250000  1
  Ir  Ir14  1  0.744571  0.670596  0.250000  1
  Ir  Ir15  1  0.329404  0.073975  0.250000  1
