# generated using pymatgen
data_Ce2Dy2InNi4Hg
_symmetry_space_group_name_H-M   'P 1'
_cell_length_a   7.49699618
_cell_length_b   7.41821318
_cell_length_c   3.62830800
_cell_angle_alpha   90.00000000
_cell_angle_beta   90.00000000
_cell_angle_gamma   90.02503034
_symmetry_Int_Tables_number   1
_chemical_formula_structural   Ce2Dy2InNi4Hg
_chemical_formula_sum   'Ce2 Dy2 In1 Ni4 Hg1'
_cell_volume   201.78584783
_cell_formula_units_Z   1
loop_
 _symmetry_equiv_pos_site_id
 _symmetry_equiv_pos_as_xyz
  1  'x, y, z'
loop_
 _atom_site_type_symbol
 _atom_site_label
 _atom_site_symmetry_multiplicity
 _atom_site_fract_x
 _atom_site_fract_y
 _atom_site_fract_z
 _atom_site_occupancy
  Ce  Ce0  1  0.826086  0.673307  0.500000  1
  Ce  Ce1  1  0.323379  0.831158  0.500000  1
  Dy  Dy2  1  0.676224  0.171007  0.500000  1
  Dy  Dy3  1  0.170374  0.324083  0.500000  1
  In  In4  1  0.496819  0.493280  0.000000  1
  Ni  Ni5  1  0.876723  0.395001  0.000000  1
  Ni  Ni6  1  0.619754  0.862748  0.000000  1
  Ni  Ni7  1  0.129020  0.628808  0.000000  1
  Ni  Ni8  1  0.384427  0.113297  0.000000  1
  Hg  Hg9  1  0.997193  0.007312  0.000000  1
