# generated using pymatgen
data_Dy7Y5(TcOs)2
_symmetry_space_group_name_H-M   'P 1'
_cell_length_a   6.30697731
_cell_length_b   7.45745743
_cell_length_c   9.11970382
_cell_angle_alpha   90.00205481
_cell_angle_beta   90.07224945
_cell_angle_gamma   89.90752001
_symmetry_Int_Tables_number   1
_chemical_formula_structural   Dy7Y5(TcOs)2
_chemical_formula_sum   'Dy7 Y5 Tc2 Os2'
_cell_volume   428.93538397
_cell_formula_units_Z   1
loop_
 _symmetry_equiv_pos_site_id
 _symmetry_equiv_pos_as_xyz
  1  'x, y, z'
loop_
 _atom_site_type_symbol
 _atom_site_label
 _atom_site_symmetry_multiplicity
 _atom_site_fract_x
 _atom_site_fract_y
 _atom_site_fract_z
 _atom_site_occupancy
  Dy  Dy0  1  0.665146  0.324473  0.563279  1
  Dy  Dy1  1  0.834765  0.824703  0.936860  1
  Dy  Dy2  1  0.665154  0.324369  0.936827  1
  Dy  Dy3  1  0.834754  0.824603  0.563037  1
  Dy  Dy4  1  0.338036  0.675165  0.437391  1
  Dy  Dy5  1  0.162023  0.174810  0.062640  1
  Dy  Dy6  1  0.368470  0.958322  0.749982  1
  Y  Y7  1  0.338160  0.675394  0.062504  1
  Y  Y8  1  0.161940  0.175158  0.437460  1
  Y  Y9  1  0.876487  0.540402  0.250055  1
  Y  Y10  1  0.623585  0.040428  0.249942  1
  Y  Y11  1  0.131101  0.458974  0.750025  1
  Tc  Tc12  1  0.039086  0.884750  0.249827  1
  Tc  Tc13  1  0.460889  0.384666  0.250177  1
  Os  Os14  1  0.958807  0.116219  0.750213  1
  Os  Os15  1  0.541596  0.617564  0.749781  1
