# generated using pymatgen
data_Sr4TlCd2InAu4
_symmetry_space_group_name_H-M   'P 1'
_cell_length_a   4.58350100
_cell_length_b   7.93360116
_cell_length_c   9.09438910
_cell_angle_alpha   90.26423305
_cell_angle_beta   90.00000000
_cell_angle_gamma   90.00000000
_symmetry_Int_Tables_number   1
_chemical_formula_structural   Sr4TlCd2InAu4
_chemical_formula_sum   'Sr4 Tl1 Cd2 In1 Au4'
_cell_volume   330.70183687
_cell_formula_units_Z   1
loop_
 _symmetry_equiv_pos_site_id
 _symmetry_equiv_pos_as_xyz
  1  'x, y, z'
loop_
 _atom_site_type_symbol
 _atom_site_label
 _atom_site_symmetry_multiplicity
 _atom_site_fract_x
 _atom_site_fract_y
 _atom_site_fract_z
 _atom_site_occupancy
  Sr  Sr0  1  0.750000  0.969524  0.685024  1
  Sr  Sr1  1  0.250000  0.035487  0.314764  1
  Sr  Sr2  1  0.750000  0.465194  0.815077  1
  Sr  Sr3  1  0.250000  0.529943  0.185419  1
  Tl  Tl4  1  0.250000  0.646339  0.563577  1
  Cd  Cd5  1  0.750000  0.352407  0.434709  1
  Cd  Cd6  1  0.250000  0.145738  0.935325  1
  In  In7  1  0.750000  0.856069  0.061172  1
  Au  Au8  1  0.250000  0.764608  0.885853  1
  Au  Au9  1  0.250000  0.260097  0.624603  1
  Au  Au10  1  0.750000  0.741312  0.370721  1
  Au  Au11  1  0.750000  0.233281  0.123757  1
