# generated using pymatgen
data_Ca5Sb11AsRh19
_symmetry_space_group_name_H-M   'P 1'
_cell_length_a   13.78542200
_cell_length_b   13.76812447
_cell_length_c   4.20825500
_cell_angle_alpha   90.00000000
_cell_angle_beta   90.00000000
_cell_angle_gamma   120.04156831
_symmetry_Int_Tables_number   1
_chemical_formula_structural   Ca5Sb11AsRh19
_chemical_formula_sum   'Ca5 Sb11 As1 Rh19'
_cell_volume   691.42561277
_cell_formula_units_Z   1
loop_
 _symmetry_equiv_pos_site_id
 _symmetry_equiv_pos_as_xyz
  1  'x, y, z'
loop_
 _atom_site_type_symbol
 _atom_site_label
 _atom_site_symmetry_multiplicity
 _atom_site_fract_x
 _atom_site_fract_y
 _atom_site_fract_z
 _atom_site_occupancy
  Ca  Ca0  1  0.993013  0.180599  0.500000  1
  Ca  Ca1  1  0.812415  0.819401  0.500000  1
  Ca  Ca2  1  0.189297  0.000000  0.500000  1
  Ca  Ca3  1  0.666057  0.331025  0.000000  1
  Ca  Ca4  1  0.335030  0.668975  0.000000  1
  Sb  Sb5  1  0.482274  0.320533  0.500000  1
  Sb  Sb6  1  0.174380  0.176681  0.000000  1
  Sb  Sb7  1  0.997699  0.823319  0.000000  1
  Sb  Sb8  1  0.372173  0.000000  0.000000  1
  Sb  Sb9  1  0.680117  0.159030  0.500000  1
  Sb  Sb10  1  0.838191  0.515711  0.500000  1
  Sb  Sb11  1  0.521087  0.840970  0.500000  1
  Sb  Sb12  1  0.161740  0.679467  0.500000  1
  Sb  Sb13  1  0.322480  0.484289  0.500000  1
  Sb  Sb14  1  0.000173  0.370930  0.000000  1
  Sb  Sb15  1  0.629243  0.629070  0.000000  1
  As  As16  1  0.814424  0.000000  0.000000  1
  Rh  Rh17  1  0.806990  0.173445  0.000000  1
  Rh  Rh18  1  0.372102  0.192248  0.000000  1
  Rh  Rh19  1  0.649657  0.521418  0.500000  1
  Rh  Rh20  1  0.871805  0.347273  0.500000  1
  Rh  Rh21  1  0.351592  0.871419  0.500000  1
  Rh  Rh22  1  0.524532  0.652727  0.500000  1
  Rh  Rh23  1  0.128240  0.478582  0.500000  1
  Rh  Rh24  1  0.819686  0.624362  0.000000  1
  Rh  Rh25  1  0.633545  0.826555  0.000000  1
  Rh  Rh26  1  0.179854  0.807752  0.000000  1
  Rh  Rh27  1  0.195324  0.375638  0.000000  1
  Rh  Rh28  1  0.999529  0.719813  0.500000  1
  Rh  Rh29  1  0.279716  0.280187  0.500000  1
  Rh  Rh30  1  0.728581  0.000000  0.500000  1
  Rh  Rh31  1  0.002370  0.562850  0.000000  1
  Rh  Rh32  1  0.439520  0.437150  0.000000  1
  Rh  Rh33  1  0.562025  0.000000  0.000000  1
  Rh  Rh34  1  0.984965  0.000000  0.000000  1
  Rh  Rh35  1  0.480173  0.128581  0.500000  1
