# generated using pymatgen
data_DyLu9(CoSb2)2
_symmetry_space_group_name_H-M   'P 1'
_cell_length_a   7.68789500
_cell_length_b   8.68452300
_cell_length_c   11.94287700
_cell_angle_alpha   90.00000000
_cell_angle_beta   90.00000000
_cell_angle_gamma   90.00000000
_symmetry_Int_Tables_number   1
_chemical_formula_structural   DyLu9(CoSb2)2
_chemical_formula_sum   'Dy2 Lu18 Co4 Sb8'
_cell_volume   797.37455425
_cell_formula_units_Z   2
loop_
 _symmetry_equiv_pos_site_id
 _symmetry_equiv_pos_as_xyz
  1  'x, y, z'
loop_
 _atom_site_type_symbol
 _atom_site_label
 _atom_site_symmetry_multiplicity
 _atom_site_fract_x
 _atom_site_fract_y
 _atom_site_fract_z
 _atom_site_occupancy
  Dy  Dy0  1  0.378738  0.250000  0.692589  1
  Dy  Dy1  1  0.121262  0.250000  0.192589  1
  Lu  Lu2  1  0.155482  0.750000  0.203186  1
  Lu  Lu3  1  0.344518  0.750000  0.703186  1
  Lu  Lu4  1  0.845138  0.250000  0.797037  1
  Lu  Lu5  1  0.654862  0.250000  0.297037  1
  Lu  Lu6  1  0.449480  0.750000  0.998333  1
  Lu  Lu7  1  0.050520  0.750000  0.498333  1
  Lu  Lu8  1  0.551549  0.250000  0.001988  1
  Lu  Lu9  1  0.948451  0.250000  0.501988  1
  Lu  Lu10  1  0.619462  0.750000  0.308972  1
  Lu  Lu11  1  0.880538  0.750000  0.808972  1
  Lu  Lu12  1  0.823254  0.538365  0.064396  1
  Lu  Lu13  1  0.676746  0.961635  0.564396  1
  Lu  Lu14  1  0.175811  0.036045  0.934576  1
  Lu  Lu15  1  0.324189  0.463955  0.434576  1
  Lu  Lu16  1  0.175811  0.463955  0.934576  1
  Lu  Lu17  1  0.324189  0.036045  0.434576  1
  Lu  Lu18  1  0.823254  0.961635  0.064396  1
  Lu  Lu19  1  0.676746  0.538365  0.564396  1
  Co  Co20  1  0.432732  0.750000  0.490855  1
  Co  Co21  1  0.067268  0.750000  0.990855  1
  Co  Co22  1  0.567948  0.250000  0.508306  1
  Co  Co23  1  0.932052  0.250000  0.008306  1
  Sb  Sb24  1  0.928976  0.509753  0.328436  1
  Sb  Sb25  1  0.571024  0.990247  0.828436  1
  Sb  Sb26  1  0.068102  0.007936  0.671958  1
  Sb  Sb27  1  0.431898  0.492064  0.171958  1
  Sb  Sb28  1  0.068102  0.492064  0.671958  1
  Sb  Sb29  1  0.431898  0.007936  0.171958  1
  Sb  Sb30  1  0.928976  0.990247  0.328436  1
  Sb  Sb31  1  0.571024  0.509753  0.828436  1
