# generated using pymatgen
data_Tm11ThTc3Ru
_symmetry_space_group_name_H-M   'P 1'
_cell_length_a   6.24973200
_cell_length_b   7.35210607
_cell_length_c   9.14870100
_cell_angle_alpha   90.00000000
_cell_angle_beta   90.00000000
_cell_angle_gamma   90.48928084
_symmetry_Int_Tables_number   1
_chemical_formula_structural   Tm11ThTc3Ru
_chemical_formula_sum   'Tm11 Th1 Tc3 Ru1'
_cell_volume   420.35552227
_cell_formula_units_Z   1
loop_
 _symmetry_equiv_pos_site_id
 _symmetry_equiv_pos_as_xyz
  1  'x, y, z'
loop_
 _atom_site_type_symbol
 _atom_site_label
 _atom_site_symmetry_multiplicity
 _atom_site_fract_x
 _atom_site_fract_y
 _atom_site_fract_z
 _atom_site_occupancy
  Tm  Tm0  1  0.338034  0.677719  0.062613  1
  Tm  Tm1  1  0.162716  0.175191  0.438837  1
  Tm  Tm2  1  0.662874  0.321560  0.566718  1
  Tm  Tm3  1  0.835057  0.827025  0.934027  1
  Tm  Tm4  1  0.662874  0.321560  0.933282  1
  Tm  Tm5  1  0.835057  0.827025  0.565973  1
  Tm  Tm6  1  0.338034  0.677719  0.437387  1
  Tm  Tm7  1  0.162716  0.175191  0.061163  1
  Tm  Tm8  1  0.624226  0.041930  0.250000  1
  Tm  Tm9  1  0.130385  0.460821  0.750000  1
  Tm  Tm10  1  0.372155  0.955159  0.750000  1
  Th  Th11  1  0.865302  0.548431  0.250000  1
  Tc  Tc12  1  0.025999  0.870635  0.250000  1
  Tc  Tc13  1  0.481365  0.386552  0.250000  1
  Tc  Tc14  1  0.966140  0.116882  0.750000  1
  Ru  Ru15  1  0.537066  0.616601  0.750000  1
