# generated using pymatgen
data_Er4Hg3RhPb2
_symmetry_space_group_name_H-M   'P 1'
_cell_length_a   8.14225797
_cell_length_b   8.14225858
_cell_length_c   3.79860400
_cell_angle_alpha   90.00000000
_cell_angle_beta   90.00000000
_cell_angle_gamma   90.71682044
_symmetry_Int_Tables_number   1
_chemical_formula_structural   Er4Hg3RhPb2
_chemical_formula_sum   'Er4 Hg3 Rh1 Pb2'
_cell_volume   251.81394689
_cell_formula_units_Z   1
loop_
 _symmetry_equiv_pos_site_id
 _symmetry_equiv_pos_as_xyz
  1  'x, y, z'
loop_
 _atom_site_type_symbol
 _atom_site_label
 _atom_site_symmetry_multiplicity
 _atom_site_fract_x
 _atom_site_fract_y
 _atom_site_fract_z
 _atom_site_occupancy
  Er  Er0  1  0.635723  0.176664  0.500000  1
  Er  Er1  1  0.195507  0.304493  0.500000  1
  Er  Er2  1  0.831123  0.668877  0.500000  1
  Er  Er3  1  0.323336  0.864277  0.500000  1
  Hg  Hg4  1  0.133049  0.623996  0.000000  1
  Hg  Hg5  1  0.625736  0.874264  0.000000  1
  Hg  Hg6  1  0.876004  0.366951  0.000000  1
  Rh  Rh7  1  0.375436  0.124564  0.000000  1
  Pb  Pb8  1  0.006490  0.002405  0.000000  1
  Pb  Pb9  1  0.497595  0.493510  0.000000  1
