# generated using pymatgen
data_Tb6Er10Cd4PdRu3
_symmetry_space_group_name_H-M   'P 1'
_cell_length_a   9.62277298
_cell_length_b   9.65543646
_cell_length_c   9.65520480
_cell_angle_alpha   59.53156250
_cell_angle_beta   59.40705977
_cell_angle_gamma   59.40679340
_symmetry_Int_Tables_number   1
_chemical_formula_structural   Tb6Er10Cd4PdRu3
_chemical_formula_sum   'Tb6 Er10 Cd4 Pd1 Ru3'
_cell_volume   626.37385046
_cell_formula_units_Z   1
loop_
 _symmetry_equiv_pos_site_id
 _symmetry_equiv_pos_as_xyz
  1  'x, y, z'
loop_
 _atom_site_type_symbol
 _atom_site_label
 _atom_site_symmetry_multiplicity
 _atom_site_fract_x
 _atom_site_fract_y
 _atom_site_fract_z
 _atom_site_occupancy
  Tb  Tb0  1  0.935989  0.561933  0.561899  1
  Tb  Tb1  1  0.556027  0.939281  0.939201  1
  Tb  Tb2  1  0.555952  0.938836  0.565652  1
  Tb  Tb3  1  0.936424  0.561640  0.939720  1
  Tb  Tb4  1  0.556021  0.565619  0.938814  1
  Tb  Tb5  1  0.936413  0.939781  0.561582  1
  Er  Er6  1  0.344212  0.351620  0.351755  1
  Er  Er7  1  0.344957  0.351856  0.953285  1
  Er  Er8  1  0.344883  0.953317  0.351951  1
  Er  Er9  1  0.966162  0.344731  0.344832  1
  Er  Er10  1  0.816343  0.188523  0.188508  1
  Er  Er11  1  0.185395  0.811931  0.811845  1
  Er  Er12  1  0.186771  0.811613  0.188721  1
  Er  Er13  1  0.816694  0.188833  0.805093  1
  Er  Er14  1  0.186806  0.188633  0.811597  1
  Er  Er15  1  0.816667  0.805072  0.188838  1
  Cd  Cd16  1  0.581059  0.579380  0.579350  1
  Cd  Cd17  1  0.581079  0.579486  0.259502  1
  Cd  Cd18  1  0.581087  0.259499  0.579484  1
  Cd  Cd19  1  0.256402  0.581088  0.581082  1
  Pd  Pd20  1  0.573734  0.142789  0.142774  1
  Ru  Ru21  1  0.146292  0.138033  0.138028  1
  Ru  Ru22  1  0.147344  0.139323  0.577163  1
  Ru  Ru23  1  0.147287  0.577185  0.139325  1
