# generated using pymatgen
data_Tb15CeCdNi4Hg3
_symmetry_space_group_name_H-M   'P 1'
_cell_length_a   9.56573080
_cell_length_b   9.57594367
_cell_length_c   9.57594250
_cell_angle_alpha   59.86258224
_cell_angle_beta   59.83590063
_cell_angle_gamma   59.83589496
_symmetry_Int_Tables_number   1
_chemical_formula_structural   Tb15CeCdNi4Hg3
_chemical_formula_sum   'Tb15 Ce1 Cd1 Ni4 Hg3'
_cell_volume   618.06444877
_cell_formula_units_Z   1
loop_
 _symmetry_equiv_pos_site_id
 _symmetry_equiv_pos_as_xyz
  1  'x, y, z'
loop_
 _atom_site_type_symbol
 _atom_site_label
 _atom_site_symmetry_multiplicity
 _atom_site_fract_x
 _atom_site_fract_y
 _atom_site_fract_z
 _atom_site_occupancy
  Tb  Tb0  1  0.350333  0.349621  0.948252  1
  Tb  Tb1  1  0.350333  0.948252  0.349621  1
  Tb  Tb2  1  0.946203  0.350652  0.350652  1
  Tb  Tb3  1  0.811197  0.190571  0.190571  1
  Tb  Tb4  1  0.189561  0.811854  0.811854  1
  Tb  Tb5  1  0.189108  0.812504  0.189972  1
  Tb  Tb6  1  0.811316  0.190722  0.811334  1
  Tb  Tb7  1  0.189108  0.189972  0.812504  1
  Tb  Tb8  1  0.811316  0.811334  0.190722  1
  Tb  Tb9  1  0.938687  0.563439  0.563439  1
  Tb  Tb10  1  0.562599  0.936350  0.936350  1
  Tb  Tb11  1  0.562499  0.939810  0.563157  1
  Tb  Tb12  1  0.935254  0.563289  0.936449  1
  Tb  Tb13  1  0.562499  0.563157  0.939810  1
  Tb  Tb14  1  0.935254  0.936449  0.563289  1
  Ce  Ce15  1  0.343858  0.344315  0.344315  1
  Cd  Cd16  1  0.258802  0.579772  0.579772  1
  Ni  Ni17  1  0.143115  0.143468  0.143468  1
  Ni  Ni18  1  0.143900  0.143909  0.570454  1
  Ni  Ni19  1  0.143900  0.570454  0.143909  1
  Ni  Ni20  1  0.570227  0.144149  0.144149  1
  Hg  Hg21  1  0.583785  0.585462  0.585462  1
  Hg  Hg22  1  0.583572  0.585370  0.245122  1
  Hg  Hg23  1  0.583572  0.245122  0.585370  1
