# generated using pymatgen
data_Mg2Zr6Co16SiP11
_symmetry_space_group_name_H-M   'P 1'
_cell_length_a   12.05520073
_cell_length_b   12.08958273
_cell_length_c   3.65927800
_cell_angle_alpha   90.00000000
_cell_angle_beta   90.00000000
_cell_angle_gamma   120.03795280
_symmetry_Int_Tables_number   1
_chemical_formula_structural   Mg2Zr6Co16SiP11
_chemical_formula_sum   'Mg2 Zr6 Co16 Si1 P11'
_cell_volume   461.68479985
_cell_formula_units_Z   1
loop_
 _symmetry_equiv_pos_site_id
 _symmetry_equiv_pos_as_xyz
  1  'x, y, z'
loop_
 _atom_site_type_symbol
 _atom_site_label
 _atom_site_symmetry_multiplicity
 _atom_site_fract_x
 _atom_site_fract_y
 _atom_site_fract_z
 _atom_site_occupancy
  Mg  Mg0  1  0.442305  0.441322  0.000000  1
  Mg  Mg1  1  0.556310  0.999964  0.000000  1
  Zr  Zr2  1  0.000783  0.556306  0.000000  1
  Zr  Zr3  1  0.667960  0.333815  0.000000  1
  Zr  Zr4  1  0.333027  0.665192  0.000000  1
  Zr  Zr5  1  0.819102  0.818435  0.500000  1
  Zr  Zr6  1  0.182891  0.999028  0.500000  1
  Zr  Zr7  1  0.999291  0.179902  0.500000  1
  Co  Co8  1  0.196834  0.373604  0.000000  1
  Co  Co9  1  0.179905  0.808810  0.000000  1
  Co  Co10  1  0.823653  0.628777  0.000000  1
  Co  Co11  1  0.802300  0.177240  0.000000  1
  Co  Co12  1  0.373374  0.195666  0.000000  1
  Co  Co13  1  0.126474  0.478746  0.500000  1
  Co  Co14  1  0.356483  0.873181  0.500000  1
  Co  Co15  1  0.515209  0.644916  0.500000  1
  Co  Co16  1  0.642039  0.512852  0.500000  1
  Co  Co17  1  0.873930  0.352334  0.500000  1
  Co  Co18  1  0.480801  0.126452  0.500000  1
  Co  Co19  1  0.000648  0.001428  0.000000  1
  Co  Co20  1  0.719315  0.002156  0.500000  1
  Co  Co21  1  0.001866  0.723755  0.500000  1
  Co  Co22  1  0.625285  0.826290  0.000000  1
  Co  Co23  1  0.281025  0.281386  0.500000  1
  Si  Si24  1  0.643703  0.646932  0.000000  1
  P  P25  1  0.355719  0.002535  0.000000  1
  P  P26  1  0.999620  0.344791  0.000000  1
  P  P27  1  0.482017  0.309534  0.500000  1
  P  P28  1  0.687809  0.171577  0.500000  1
  P  P29  1  0.825366  0.518218  0.500000  1
  P  P30  1  0.517764  0.828256  0.500000  1
  P  P31  1  0.175650  0.692846  0.500000  1
  P  P32  1  0.822695  0.998987  0.000000  1
  P  P33  1  0.999856  0.825673  0.000000  1
  P  P34  1  0.311772  0.482899  0.500000  1
  P  P35  1  0.177219  0.176197  0.000000  1
