# generated using pymatgen
data_YErMnPtF14
_symmetry_space_group_name_H-M   'P 1'
_cell_length_a   5.47965951
_cell_length_b   8.78209782
_cell_length_c   11.83390180
_cell_angle_alpha   62.45344330
_cell_angle_beta   90.19394298
_cell_angle_gamma   90.22241085
_symmetry_Int_Tables_number   1
_chemical_formula_structural   YErMnPtF14
_chemical_formula_sum   'Y2 Er2 Mn2 Pt2 F28'
_cell_volume   504.91802162
_cell_formula_units_Z   2
loop_
 _symmetry_equiv_pos_site_id
 _symmetry_equiv_pos_as_xyz
  1  'x, y, z'
loop_
 _atom_site_type_symbol
 _atom_site_label
 _atom_site_symmetry_multiplicity
 _atom_site_fract_x
 _atom_site_fract_y
 _atom_site_fract_z
 _atom_site_occupancy
  Y  Y0  1  0.763460  0.190164  0.231336  1
  Y  Y1  1  0.236540  0.809836  0.768664  1
  Er  Er2  1  0.260000  0.816018  0.259653  1
  Er  Er3  1  0.740000  0.183982  0.740347  1
  Mn  Mn4  1  0.757573  0.726545  0.043648  1
  Mn  Mn5  1  0.242427  0.273455  0.956352  1
  Pt  Pt6  1  0.260469  0.273812  0.456745  1
  Pt  Pt7  1  0.739531  0.726188  0.543255  1
  F  F8  1  0.930139  0.702128  0.411859  1
  F  F9  1  0.069861  0.297872  0.588141  1
  F  F10  1  0.438235  0.293390  0.074918  1
  F  F11  1  0.561765  0.706610  0.925082  1
  F  F12  1  0.485523  0.732721  0.132487  1
  F  F13  1  0.514477  0.267279  0.867513  1
  F  F14  1  0.961311  0.280058  0.362747  1
  F  F15  1  0.038689  0.719942  0.637253  1
  F  F16  1  0.954037  0.744160  0.165263  1
  F  F17  1  0.045963  0.255840  0.834737  1
  F  F18  1  0.443327  0.257337  0.319612  1
  F  F19  1  0.556673  0.742663  0.680388  1
  F  F20  1  0.767472  0.490281  0.135794  1
  F  F21  1  0.232528  0.509719  0.864206  1
  F  F22  1  0.277590  0.525730  0.354608  1
  F  F23  1  0.722410  0.474270  0.645392  1
  F  F24  1  0.962785  0.283780  0.040678  1
  F  F25  1  0.037215  0.716220  0.959322  1
  F  F26  1  0.432639  0.723890  0.456434  1
  F  F27  1  0.567361  0.276110  0.543566  1
  F  F28  1  0.744290  0.977580  0.449421  1
  F  F29  1  0.255710  0.022420  0.550579  1
  F  F30  1  0.239891  0.038182  0.047829  1
  F  F31  1  0.760109  0.961818  0.952171  1
  F  F32  1  0.588328  0.968304  0.229382  1
  F  F33  1  0.411672  0.031696  0.770618  1
  F  F34  1  0.090668  0.028959  0.269628  1
  F  F35  1  0.909332  0.971041  0.730372  1
