# generated using pymatgen
data_Nd2Ta3Co9P7
_symmetry_space_group_name_H-M   'P 1'
_cell_length_a   3.72526400
_cell_length_b   9.29188522
_cell_length_c   9.29188500
_cell_angle_alpha   119.99999566
_cell_angle_beta   90.00000000
_cell_angle_gamma   90.00000000
_symmetry_Int_Tables_number   1
_chemical_formula_structural   Nd2Ta3Co9P7
_chemical_formula_sum   'Nd2 Ta3 Co9 P7'
_cell_volume   278.54500105
_cell_formula_units_Z   1
loop_
 _symmetry_equiv_pos_site_id
 _symmetry_equiv_pos_as_xyz
  1  'x, y, z'
loop_
 _atom_site_type_symbol
 _atom_site_label
 _atom_site_symmetry_multiplicity
 _atom_site_fract_x
 _atom_site_fract_y
 _atom_site_fract_z
 _atom_site_occupancy
  Nd  Nd0  1  0.000000  0.666667  0.333333  1
  Nd  Nd1  1  0.500000  0.333333  0.666667  1
  Ta  Ta2  1  0.500000  0.776328  0.896689  1
  Ta  Ta3  1  0.500000  0.120361  0.223672  1
  Ta  Ta4  1  0.500000  0.103311  0.879639  1
  Co  Co5  1  0.000000  0.570292  0.939280  1
  Co  Co6  1  0.000000  0.368988  0.429708  1
  Co  Co7  1  0.000000  0.060720  0.631012  1
  Co  Co8  1  0.000000  0.879086  0.158585  1
  Co  Co9  1  0.000000  0.279500  0.120914  1
  Co  Co10  1  0.000000  0.841415  0.720500  1
  Co  Co11  1  0.500000  0.948640  0.386023  1
  Co  Co12  1  0.500000  0.437381  0.051360  1
  Co  Co13  1  0.500000  0.613977  0.562619  1
  P  P14  1  0.000000  0.000000  0.000000  1
  P  P15  1  0.500000  0.708454  0.119303  1
  P  P16  1  0.500000  0.410849  0.291546  1
  P  P17  1  0.500000  0.880697  0.589151  1
  P  P18  1  0.000000  0.585709  0.690237  1
  P  P19  1  0.000000  0.104527  0.414291  1
  P  P20  1  0.000000  0.309763  0.895473  1
