# generated using pymatgen
data_Tb6WO12
_symmetry_space_group_name_H-M   'P 1'
_cell_length_a   6.52112805
_cell_length_b   6.52112890
_cell_length_c   6.52112875
_cell_angle_alpha   98.64543722
_cell_angle_beta   98.64544750
_cell_angle_gamma   98.64543710
_symmetry_Int_Tables_number   1
_chemical_formula_structural   Tb6WO12
_chemical_formula_sum   'Tb6 W1 O12'
_cell_volume   266.77030308
_cell_formula_units_Z   1
loop_
 _symmetry_equiv_pos_site_id
 _symmetry_equiv_pos_as_xyz
  1  'x, y, z'
loop_
 _atom_site_type_symbol
 _atom_site_label
 _atom_site_symmetry_multiplicity
 _atom_site_fract_x
 _atom_site_fract_y
 _atom_site_fract_z
 _atom_site_occupancy
  Tb  Tb0  1  0.144258  0.314871  0.611012  1
  Tb  Tb1  1  0.388988  0.855742  0.685129  1
  Tb  Tb2  1  0.685129  0.388988  0.855742  1
  Tb  Tb3  1  0.314871  0.611012  0.144258  1
  Tb  Tb4  1  0.611012  0.144258  0.314871  1
  Tb  Tb5  1  0.855742  0.685129  0.388988  1
  W  W6  1  0.000000  0.000000  0.000000  1
  O  O7  1  0.074879  0.295805  0.966108  1
  O  O8  1  0.033892  0.925121  0.704195  1
  O  O9  1  0.408908  0.566257  0.822627  1
  O  O10  1  0.177373  0.591092  0.433743  1
  O  O11  1  0.704195  0.033892  0.925121  1
  O  O12  1  0.433743  0.177373  0.591092  1
  O  O13  1  0.566257  0.822627  0.408908  1
  O  O14  1  0.295805  0.966108  0.074879  1
  O  O15  1  0.822627  0.408908  0.566257  1
  O  O16  1  0.591092  0.433743  0.177373  1
  O  O17  1  0.966108  0.074879  0.295805  1
  O  O18  1  0.925121  0.704195  0.033892  1
