# generated using pymatgen
data_Y9Tm(SiBi)4
_symmetry_space_group_name_H-M   'P 1'
_cell_length_a   8.66809732
_cell_length_b   8.66809878
_cell_length_c   7.93328500
_cell_angle_alpha   90.00067972
_cell_angle_beta   90.00067637
_cell_angle_gamma   125.61975753
_symmetry_Int_Tables_number   1
_chemical_formula_structural   Y9Tm(SiBi)4
_chemical_formula_sum   'Y9 Tm1 Si4 Bi4'
_cell_volume   484.54910759
_cell_formula_units_Z   1
loop_
 _symmetry_equiv_pos_site_id
 _symmetry_equiv_pos_as_xyz
  1  'x, y, z'
loop_
 _atom_site_type_symbol
 _atom_site_label
 _atom_site_symmetry_multiplicity
 _atom_site_fract_x
 _atom_site_fract_y
 _atom_site_fract_z
 _atom_site_occupancy
  Y  Y0  1  0.042533  0.286773  0.335224  1
  Y  Y1  1  0.957467  0.713227  0.664776  1
  Y  Y2  1  0.456988  0.212702  0.835652  1
  Y  Y3  1  0.787298  0.543012  0.164348  1
  Y  Y4  1  0.543012  0.787298  0.164348  1
  Y  Y5  1  0.212702  0.456988  0.835652  1
  Y  Y6  1  0.713227  0.957467  0.664776  1
  Y  Y7  1  0.286773  0.042533  0.335224  1
  Y  Y8  1  0.500000  0.500000  0.500000  1
  Tm  Tm9  1  0.000000  0.000000  0.000000  1
  Si  Si10  1  0.364807  0.364807  0.133117  1
  Si  Si11  1  0.635193  0.635193  0.866883  1
  Si  Si12  1  0.134344  0.134344  0.634039  1
  Si  Si13  1  0.865656  0.865656  0.365961  1
  Bi  Bi14  1  0.792929  0.207071  0.000000  1
  Bi  Bi15  1  0.207071  0.792929  0.000000  1
  Bi  Bi16  1  0.707546  0.292454  0.500000  1
  Bi  Bi17  1  0.292454  0.707546  0.500000  1
