# generated using pymatgen
data_Ho12InFe4Cu
_symmetry_space_group_name_H-M   'P 1'
_cell_length_a   8.31003219
_cell_length_b   8.30936240
_cell_length_c   8.31003203
_cell_angle_alpha   110.66978999
_cell_angle_beta   110.93544221
_cell_angle_gamma   106.84324012
_symmetry_Int_Tables_number   1
_chemical_formula_structural   Ho12InFe4Cu
_chemical_formula_sum   'Ho12 In1 Fe4 Cu1'
_cell_volume   441.01115556
_cell_formula_units_Z   1
loop_
 _symmetry_equiv_pos_site_id
 _symmetry_equiv_pos_as_xyz
  1  'x, y, z'
loop_
 _atom_site_type_symbol
 _atom_site_label
 _atom_site_symmetry_multiplicity
 _atom_site_fract_x
 _atom_site_fract_y
 _atom_site_fract_z
 _atom_site_occupancy
  Ho  Ho0  1  0.312874  0.613370  0.300496  1
  Ho  Ho1  1  0.687126  0.386630  0.699504  1
  Ho  Ho2  1  0.312890  0.012353  0.699465  1
  Ho  Ho3  1  0.687110  0.987647  0.300535  1
  Ho  Ho4  1  0.187158  0.290015  0.477175  1
  Ho  Ho5  1  0.812842  0.709985  0.522825  1
  Ho  Ho6  1  0.187160  0.709985  0.897141  1
  Ho  Ho7  1  0.812840  0.290015  0.102859  1
  Ho  Ho8  1  0.418238  0.217347  0.200930  1
  Ho  Ho9  1  0.581762  0.782653  0.799070  1
  Ho  Ho10  1  0.016416  0.217347  0.799108  1
  Ho  Ho11  1  0.983584  0.782653  0.200892  1
  In  In12  1  0.500000  0.500000  0.000000  1
  Fe  Fe13  1  0.108441  0.608409  0.499967  1
  Fe  Fe14  1  0.891559  0.391591  0.500033  1
  Fe  Fe15  1  0.384565  0.000000  0.384565  1
  Fe  Fe16  1  0.615435  0.000000  0.615435  1
  Cu  Cu17  1  0.000000  0.000000  0.000000  1
