# generated using pymatgen
data_TbNd2Dy(Zn5Sn)2
_symmetry_space_group_name_H-M   'P 1'
_cell_length_a   8.48615601
_cell_length_b   8.48615724
_cell_length_c   9.04578800
_cell_angle_alpha   90.00000000
_cell_angle_beta   90.00000000
_cell_angle_gamma   149.74333228
_symmetry_Int_Tables_number   1
_chemical_formula_structural   TbNd2Dy(Zn5Sn)2
_chemical_formula_sum   'Tb1 Nd2 Dy1 Zn10 Sn2'
_cell_volume   328.23952291
_cell_formula_units_Z   1
loop_
 _symmetry_equiv_pos_site_id
 _symmetry_equiv_pos_as_xyz
  1  'x, y, z'
loop_
 _atom_site_type_symbol
 _atom_site_label
 _atom_site_symmetry_multiplicity
 _atom_site_fract_x
 _atom_site_fract_y
 _atom_site_fract_z
 _atom_site_occupancy
  Tb  Tb0  1  0.204886  0.795114  0.250000  1
  Nd  Nd1  1  0.999993  0.000007  0.500016  1
  Nd  Nd2  1  0.999993  0.000007  0.999984  1
  Dy  Dy3  1  0.795106  0.204894  0.750000  1
  Zn  Zn4  1  0.812627  0.187373  0.390985  1
  Zn  Zn5  1  0.187386  0.812614  0.609062  1
  Zn  Zn6  1  0.812627  0.187373  0.109015  1
  Zn  Zn7  1  0.187386  0.812614  0.890938  1
  Zn  Zn8  1  0.657233  0.342767  0.482029  1
  Zn  Zn9  1  0.342769  0.657231  0.518011  1
  Zn  Zn10  1  0.657233  0.342767  0.017971  1
  Zn  Zn11  1  0.342769  0.657231  0.981989  1
  Zn  Zn12  1  0.393636  0.606364  0.250000  1
  Zn  Zn13  1  0.606383  0.393617  0.750000  1
  Sn  Sn14  1  0.556084  0.443916  0.250000  1
  Sn  Sn15  1  0.443889  0.556111  0.750000  1
