# generated using pymatgen
data_YbY5Ga2(SiIr3)4
_symmetry_space_group_name_H-M   'P 1'
_cell_length_a   5.57663600
_cell_length_b   5.57663748
_cell_length_c   15.44065800
_cell_angle_alpha   90.00000000
_cell_angle_beta   90.00000000
_cell_angle_gamma   120.00001494
_symmetry_Int_Tables_number   1
_chemical_formula_structural   YbY5Ga2(SiIr3)4
_chemical_formula_sum   'Yb1 Y5 Ga2 Si4 Ir12'
_cell_volume   415.85418985
_cell_formula_units_Z   1
loop_
 _symmetry_equiv_pos_site_id
 _symmetry_equiv_pos_as_xyz
  1  'x, y, z'
loop_
 _atom_site_type_symbol
 _atom_site_label
 _atom_site_symmetry_multiplicity
 _atom_site_fract_x
 _atom_site_fract_y
 _atom_site_fract_z
 _atom_site_occupancy
  Yb  Yb0  1  0.333333  0.666667  0.750000  1
  Y  Y1  1  0.333333  0.666667  0.543083  1
  Y  Y2  1  0.666667  0.333333  0.459969  1
  Y  Y3  1  0.666667  0.333333  0.040031  1
  Y  Y4  1  0.333333  0.666667  0.956917  1
  Y  Y5  1  0.666667  0.333333  0.250000  1
  Ga  Ga6  1  0.000000  0.000000  0.000446  1
  Ga  Ga7  1  0.000000  0.000000  0.499554  1
  Si  Si8  1  0.000000  0.000000  0.250000  1
  Si  Si9  1  0.000000  0.000000  0.750000  1
  Si  Si10  1  0.333333  0.666667  0.250000  1
  Si  Si11  1  0.666667  0.333333  0.750000  1
  Ir  Ir12  1  0.168277  0.336556  0.132894  1
  Ir  Ir13  1  0.831920  0.663838  0.867191  1
  Ir  Ir14  1  0.663444  0.831723  0.132894  1
  Ir  Ir15  1  0.831920  0.663838  0.632809  1
  Ir  Ir16  1  0.336162  0.168080  0.867191  1
  Ir  Ir17  1  0.168277  0.336556  0.367106  1
  Ir  Ir18  1  0.168277  0.831723  0.132894  1
  Ir  Ir19  1  0.336162  0.168080  0.632809  1
  Ir  Ir20  1  0.831920  0.168080  0.867191  1
  Ir  Ir21  1  0.663444  0.831723  0.367106  1
  Ir  Ir22  1  0.831920  0.168080  0.632809  1
  Ir  Ir23  1  0.168277  0.831723  0.367106  1
