# generated using pymatgen
data_CaSm3(Rh2O7)2
_symmetry_space_group_name_H-M   'P 1'
_cell_length_a   7.29296120
_cell_length_b   7.29296146
_cell_length_c   7.29296198
_cell_angle_alpha   60.41674279
_cell_angle_beta   60.41674231
_cell_angle_gamma   60.41673861
_symmetry_Int_Tables_number   1
_chemical_formula_structural   CaSm3(Rh2O7)2
_chemical_formula_sum   'Ca1 Sm3 Rh4 O14'
_cell_volume   276.86633226
_cell_formula_units_Z   1
loop_
 _symmetry_equiv_pos_site_id
 _symmetry_equiv_pos_as_xyz
  1  'x, y, z'
loop_
 _atom_site_type_symbol
 _atom_site_label
 _atom_site_symmetry_multiplicity
 _atom_site_fract_x
 _atom_site_fract_y
 _atom_site_fract_z
 _atom_site_occupancy
  Ca  Ca0  1  0.125000  0.125000  0.125000  1
  Sm  Sm1  1  0.625000  0.125000  0.125000  1
  Sm  Sm2  1  0.125000  0.625000  0.125000  1
  Sm  Sm3  1  0.125000  0.125000  0.625000  1
  Rh  Rh4  1  0.625000  0.625000  0.125000  1
  Rh  Rh5  1  0.625000  0.625000  0.625000  1
  Rh  Rh6  1  0.625000  0.125000  0.625000  1
  Rh  Rh7  1  0.125000  0.625000  0.625000  1
  O  O8  1  0.699604  0.296423  0.296423  1
  O  O9  1  0.707969  0.292962  0.707969  1
  O  O10  1  0.999980  0.999980  0.999980  1
  O  O11  1  0.296423  0.699604  0.296423  1
  O  O12  1  0.707969  0.707969  0.292962  1
  O  O13  1  0.957038  0.542031  0.542031  1
  O  O14  1  0.292962  0.707969  0.707969  1
  O  O15  1  0.250020  0.250020  0.250020  1
  O  O16  1  0.953577  0.550396  0.953577  1
  O  O17  1  0.542031  0.957038  0.542031  1
  O  O18  1  0.542031  0.542031  0.957038  1
  O  O19  1  0.953577  0.953577  0.550396  1
  O  O20  1  0.550396  0.953577  0.953577  1
  O  O21  1  0.296423  0.296423  0.699604  1
