# generated using pymatgen
data_SmCuHgPd3
_symmetry_space_group_name_H-M   'P 1'
_cell_length_a   5.24111960
_cell_length_b   5.47627446
_cell_length_c   5.47627400
_cell_angle_alpha   59.99999072
_cell_angle_beta   58.50435230
_cell_angle_gamma   58.50435229
_symmetry_Int_Tables_number   1
_chemical_formula_structural   SmCuHgPd3
_chemical_formula_sum   'Sm1 Cu1 Hg1 Pd3'
_cell_volume   108.56310401
_cell_formula_units_Z   1
loop_
 _symmetry_equiv_pos_site_id
 _symmetry_equiv_pos_as_xyz
  1  'x, y, z'
loop_
 _atom_site_type_symbol
 _atom_site_label
 _atom_site_symmetry_multiplicity
 _atom_site_fract_x
 _atom_site_fract_y
 _atom_site_fract_z
 _atom_site_occupancy
  Sm  Sm0  1  0.248642  0.250453  0.250453  1
  Cu  Cu1  1  0.124250  0.625250  0.625250  1
  Hg  Hg2  1  0.007891  0.997370  0.997370  1
  Pd  Pd3  1  0.623072  0.626670  0.626670  1
  Pd  Pd4  1  0.623072  0.626670  0.123587  1
  Pd  Pd5  1  0.623072  0.123587  0.626670  1
