# generated using pymatgen
data_Li17(CaCd)6
_symmetry_space_group_name_H-M   'P 1'
_cell_length_a   9.86594400
_cell_length_b   9.86594307
_cell_length_c   9.86594400
_cell_angle_alpha   119.99999642
_cell_angle_beta   90.00000000
_cell_angle_gamma   119.99999642
_symmetry_Int_Tables_number   1
_chemical_formula_structural   Li17(CaCd)6
_chemical_formula_sum   'Li17 Ca6 Cd6'
_cell_volume   679.04873762
_cell_formula_units_Z   1
loop_
 _symmetry_equiv_pos_site_id
 _symmetry_equiv_pos_as_xyz
  1  'x, y, z'
loop_
 _atom_site_type_symbol
 _atom_site_label
 _atom_site_symmetry_multiplicity
 _atom_site_fract_x
 _atom_site_fract_y
 _atom_site_fract_z
 _atom_site_occupancy
  Li  Li0  1  0.377296  0.754591  0.131888  1
  Li  Li1  1  0.826129  0.652256  0.173872  1
  Li  Li2  1  0.521616  0.347745  0.173872  1
  Li  Li3  1  0.826129  0.347745  0.173872  1
  Li  Li4  1  0.131888  0.754591  0.377296  1
  Li  Li5  1  0.622704  0.754591  0.377296  1
  Li  Li6  1  0.622704  0.245408  0.377296  1
  Li  Li7  1  0.826129  0.652256  0.478384  1
  Li  Li8  1  0.500000  0.000000  0.500000  1
  Li  Li9  1  0.173872  0.347745  0.521616  1
  Li  Li10  1  0.377296  0.754591  0.622704  1
  Li  Li11  1  0.377296  0.245408  0.622704  1
  Li  Li12  1  0.868112  0.245408  0.622704  1
  Li  Li13  1  0.173872  0.652256  0.826129  1
  Li  Li14  1  0.478384  0.652256  0.826129  1
  Li  Li15  1  0.173872  0.347745  0.826129  1
  Li  Li16  1  0.622704  0.245408  0.868112  1
  Ca  Ca17  1  0.795538  0.000000  0.204461  1
  Ca  Ca18  1  0.204462  0.408923  0.204462  1
  Ca  Ca19  1  0.204462  0.000000  0.204462  1
  Ca  Ca20  1  0.795538  0.000000  0.795538  1
  Ca  Ca21  1  0.204461  0.000000  0.795538  1
  Ca  Ca22  1  0.795538  0.591078  0.795538  1
  Cd  Cd23  1  0.500000  0.000000  0.000000  1
  Cd  Cd24  1  0.000000  0.500000  0.000000  1
  Cd  Cd25  1  0.500000  0.500000  0.000000  1
  Cd  Cd26  1  0.000000  0.000000  0.500000  1
  Cd  Cd27  1  0.000000  0.500000  0.500000  1
  Cd  Cd28  1  0.500000  0.500000  0.500000  1
