# generated using pymatgen
data_Sr10NbFe5(Mo2O15)2
_symmetry_space_group_name_H-M   'P 1'
_cell_length_a   5.66991608
_cell_length_b   7.99912399
_cell_length_c   14.91962575
_cell_angle_alpha   105.64607592
_cell_angle_beta   99.33337019
_cell_angle_gamma   89.91184565
_symmetry_Int_Tables_number   1
_chemical_formula_structural   Sr10NbFe5(Mo2O15)2
_chemical_formula_sum   'Sr10 Nb1 Fe5 Mo4 O30'
_cell_volume   642.33614132
_cell_formula_units_Z   1
loop_
 _symmetry_equiv_pos_site_id
 _symmetry_equiv_pos_as_xyz
  1  'x, y, z'
loop_
 _atom_site_type_symbol
 _atom_site_label
 _atom_site_symmetry_multiplicity
 _atom_site_fract_x
 _atom_site_fract_y
 _atom_site_fract_z
 _atom_site_occupancy
  Sr  Sr0  1  0.093864  0.350243  0.200881  1
  Sr  Sr1  1  0.696372  0.948974  0.399587  1
  Sr  Sr2  1  0.298959  0.549353  0.599068  1
  Sr  Sr3  1  0.902884  0.149993  0.798123  1
  Sr  Sr4  1  0.498177  0.749916  0.999048  1
  Sr  Sr5  1  0.501823  0.250084  0.000952  1
  Sr  Sr6  1  0.097116  0.850007  0.201877  1
  Sr  Sr7  1  0.701041  0.450647  0.400932  1
  Sr  Sr8  1  0.303628  0.051026  0.600413  1
  Sr  Sr9  1  0.906136  0.649757  0.799119  1
  Nb  Nb10  1  0.000000  0.500000  0.000000  1
  Fe  Fe11  1  0.000000  0.000000  0.000000  1
  Fe  Fe12  1  0.598899  0.600823  0.199964  1
  Fe  Fe13  1  0.198866  0.199881  0.399801  1
  Fe  Fe14  1  0.801134  0.800119  0.600199  1
  Fe  Fe15  1  0.401101  0.399177  0.800036  1
  Mo  Mo16  1  0.597094  0.099814  0.199956  1
  Mo  Mo17  1  0.199331  0.700071  0.400437  1
  Mo  Mo18  1  0.800669  0.299929  0.599563  1
  Mo  Mo19  1  0.402906  0.900186  0.800044  1
  O  O20  1  0.296818  0.049119  0.099125  1
  O  O21  1  0.895960  0.650976  0.301386  1
  O  O22  1  0.498360  0.250446  0.499676  1
  O  O23  1  0.100705  0.850399  0.700597  1
  O  O24  1  0.707834  0.448951  0.898608  1
  O  O25  1  0.292166  0.551049  0.101392  1
  O  O26  1  0.899295  0.149601  0.299403  1
  O  O27  1  0.501640  0.749554  0.500324  1
  O  O28  1  0.104040  0.349024  0.698614  1
  O  O29  1  0.703182  0.950881  0.900875  1
  O  O30  1  0.561559  0.858504  0.217223  1
  O  O31  1  0.165354  0.456898  0.416220  1
  O  O32  1  0.767958  0.056878  0.615963  1
  O  O33  1  0.371392  0.657436  0.816607  1
  O  O34  1  0.967983  0.258908  0.016451  1
  O  O35  1  0.628608  0.342564  0.183393  1
  O  O36  1  0.232042  0.943122  0.384037  1
  O  O37  1  0.834646  0.543102  0.583780  1
  O  O38  1  0.438441  0.141496  0.782777  1
  O  O39  1  0.032017  0.741092  0.983549  1
  O  O40  1  0.205806  0.409525  0.901594  1
  O  O41  1  0.791803  0.011445  0.102706  1
  O  O42  1  0.391001  0.611619  0.303130  1
  O  O43  1  0.991823  0.211211  0.501705  1
  O  O44  1  0.596528  0.810677  0.703231  1
  O  O45  1  0.403472  0.189323  0.296769  1
  O  O46  1  0.008177  0.788789  0.498295  1
  O  O47  1  0.608999  0.388381  0.696870  1
  O  O48  1  0.208197  0.988555  0.897294  1
  O  O49  1  0.794194  0.590475  0.098406  1
