# generated using pymatgen
data_Tb11Nd5(ErPb4)4
_symmetry_space_group_name_H-M   'P 1'
_cell_length_a   8.25236315
_cell_length_b   8.36308137
_cell_length_c   15.80017660
_cell_angle_alpha   90.03626905
_cell_angle_beta   89.72768218
_cell_angle_gamma   89.90360546
_symmetry_Int_Tables_number   1
_chemical_formula_structural   Tb11Nd5(ErPb4)4
_chemical_formula_sum   'Tb11 Nd5 Er4 Pb16'
_cell_volume   1090.43801909
_cell_formula_units_Z   1
loop_
 _symmetry_equiv_pos_site_id
 _symmetry_equiv_pos_as_xyz
  1  'x, y, z'
loop_
 _atom_site_type_symbol
 _atom_site_label
 _atom_site_symmetry_multiplicity
 _atom_site_fract_x
 _atom_site_fract_y
 _atom_site_fract_z
 _atom_site_occupancy
  Tb  Tb0  1  0.370615  0.841723  0.878197  1
  Tb  Tb1  1  0.872411  0.658236  0.620856  1
  Tb  Tb2  1  0.626848  0.158424  0.379391  1
  Tb  Tb3  1  0.128558  0.341564  0.121056  1
  Tb  Tb4  1  0.627515  0.157903  0.121657  1
  Tb  Tb5  1  0.125959  0.341612  0.379839  1
  Tb  Tb6  1  0.374336  0.842266  0.621232  1
  Tb  Tb7  1  0.871511  0.657761  0.878098  1
  Tb  Tb8  1  0.531159  0.323397  0.899804  1
  Tb  Tb9  1  0.033691  0.175922  0.600915  1
  Tb  Tb10  1  0.466561  0.675818  0.400327  1
  Nd  Nd11  1  0.971573  0.821052  0.098531  1
  Nd  Nd12  1  0.473253  0.676927  0.097111  1
  Nd  Nd13  1  0.971030  0.822481  0.402024  1
  Nd  Nd14  1  0.528348  0.322696  0.597917  1
  Nd  Nd15  1  0.026637  0.178921  0.902210  1
  Er  Er16  1  0.206092  0.504330  0.749536  1
  Er  Er17  1  0.706088  0.995724  0.749959  1
  Er  Er18  1  0.793548  0.495469  0.250287  1
  Er  Er19  1  0.294147  0.005231  0.251050  1
  Pb  Pb20  1  0.288939  0.036997  0.044099  1
  Pb  Pb21  1  0.782954  0.466988  0.455041  1
  Pb  Pb22  1  0.716822  0.967565  0.545269  1
  Pb  Pb23  1  0.214776  0.535016  0.955010  1
  Pb  Pb24  1  0.709056  0.963162  0.955853  1
  Pb  Pb25  1  0.212534  0.538666  0.542875  1
  Pb  Pb26  1  0.287126  0.037248  0.457726  1
  Pb  Pb27  1  0.787523  0.458317  0.041743  1
  Pb  Pb28  1  0.568513  0.626202  0.749977  1
  Pb  Pb29  1  0.068341  0.873012  0.749419  1
  Pb  Pb30  1  0.431148  0.373268  0.250617  1
  Pb  Pb31  1  0.931323  0.127983  0.250109  1
  Pb  Pb32  1  0.342285  0.152673  0.751543  1
  Pb  Pb33  1  0.841998  0.347494  0.748576  1
  Pb  Pb34  1  0.656034  0.847303  0.251744  1
  Pb  Pb35  1  0.160746  0.650647  0.250399  1
