# generated using pymatgen
data_Ho5Er3(Lu3Pb4)4
_symmetry_space_group_name_H-M   'P 1'
_cell_length_a   8.12276801
_cell_length_b   8.18078804
_cell_length_c   15.42800310
_cell_angle_alpha   89.98866677
_cell_angle_beta   89.99325615
_cell_angle_gamma   89.99836200
_symmetry_Int_Tables_number   1
_chemical_formula_structural   Ho5Er3(Lu3Pb4)4
_chemical_formula_sum   'Ho5 Er3 Lu12 Pb16'
_cell_volume   1025.20070548
_cell_formula_units_Z   1
loop_
 _symmetry_equiv_pos_site_id
 _symmetry_equiv_pos_as_xyz
  1  'x, y, z'
loop_
 _atom_site_type_symbol
 _atom_site_label
 _atom_site_symmetry_multiplicity
 _atom_site_fract_x
 _atom_site_fract_y
 _atom_site_fract_z
 _atom_site_occupancy
  Ho  Ho0  1  0.539183  0.323508  0.900591  1
  Ho  Ho1  1  0.039179  0.176471  0.599404  1
  Ho  Ho2  1  0.460809  0.676465  0.400539  1
  Ho  Ho3  1  0.960801  0.823506  0.099448  1
  Ho  Ho4  1  0.460806  0.676457  0.099493  1
  Er  Er5  1  0.960717  0.823562  0.400491  1
  Er  Er6  1  0.539243  0.323572  0.599497  1
  Er  Er7  1  0.039276  0.176448  0.900491  1
  Lu  Lu8  1  0.377172  0.842872  0.878097  1
  Lu  Lu9  1  0.877155  0.657123  0.621840  1
  Lu  Lu10  1  0.622837  0.157153  0.378183  1
  Lu  Lu11  1  0.122822  0.342809  0.121852  1
  Lu  Lu12  1  0.622843  0.157159  0.121878  1
  Lu  Lu13  1  0.122778  0.342859  0.378135  1
  Lu  Lu14  1  0.377230  0.842847  0.621884  1
  Lu  Lu15  1  0.877142  0.657094  0.878124  1
  Lu  Lu16  1  0.208760  0.505455  0.749963  1
  Lu  Lu17  1  0.708717  0.994470  0.750005  1
  Lu  Lu18  1  0.791313  0.494423  0.250028  1
  Lu  Lu19  1  0.291209  0.005571  0.250047  1
  Pb  Pb20  1  0.281726  0.034686  0.042775  1
  Pb  Pb21  1  0.781746  0.465593  0.457232  1
  Pb  Pb22  1  0.718291  0.965623  0.542779  1
  Pb  Pb23  1  0.218003  0.534177  0.957105  1
  Pb  Pb24  1  0.718379  0.965733  0.957145  1
  Pb  Pb25  1  0.218461  0.534159  0.542879  1
  Pb  Pb26  1  0.281504  0.034184  0.457022  1
  Pb  Pb27  1  0.781797  0.465593  0.042995  1
  Pb  Pb28  1  0.571059  0.627633  0.749974  1
  Pb  Pb29  1  0.071040  0.872461  0.749969  1
  Pb  Pb30  1  0.428882  0.372598  0.250018  1
  Pb  Pb31  1  0.929004  0.127556  0.249941  1
  Pb  Pb32  1  0.350156  0.156037  0.749874  1
  Pb  Pb33  1  0.850179  0.344103  0.750126  1
  Pb  Pb34  1  0.650040  0.844213  0.250005  1
  Pb  Pb35  1  0.149739  0.655829  0.250171  1
