# generated using pymatgen
data_Tb4ScIr3O14
_symmetry_space_group_name_H-M   'P 1'
_cell_length_a   7.27751557
_cell_length_b   7.27751465
_cell_length_c   7.34029620
_cell_angle_alpha   60.28253503
_cell_angle_beta   60.28253640
_cell_angle_gamma   60.00000004
_symmetry_Int_Tables_number   1
_chemical_formula_structural   Tb4ScIr3O14
_chemical_formula_sum   'Tb4 Sc1 Ir3 O14'
_cell_volume   276.06181840
_cell_formula_units_Z   1
loop_
 _symmetry_equiv_pos_site_id
 _symmetry_equiv_pos_as_xyz
  1  'x, y, z'
loop_
 _atom_site_type_symbol
 _atom_site_label
 _atom_site_symmetry_multiplicity
 _atom_site_fract_x
 _atom_site_fract_y
 _atom_site_fract_z
 _atom_site_occupancy
  Tb  Tb0  1  0.625000  0.125000  0.125000  1
  Tb  Tb1  1  0.125000  0.625000  0.125000  1
  Tb  Tb2  1  0.125000  0.125000  0.625000  1
  Tb  Tb3  1  0.125000  0.125000  0.125000  1
  Sc  Sc4  1  0.625000  0.625000  0.125000  1
  Ir  Ir5  1  0.125000  0.625000  0.625000  1
  Ir  Ir6  1  0.625000  0.125000  0.625000  1
  Ir  Ir7  1  0.625000  0.625000  0.625000  1
  O  O8  1  0.720029  0.720029  0.289638  1
  O  O9  1  0.296545  0.296545  0.687432  1
  O  O10  1  0.719478  0.296545  0.687432  1
  O  O11  1  0.270305  0.720029  0.289638  1
  O  O12  1  0.296545  0.719478  0.687432  1
  O  O13  1  0.720029  0.270305  0.289638  1
  O  O14  1  0.529971  0.529971  0.960362  1
  O  O15  1  0.953455  0.953455  0.562568  1
  O  O16  1  0.530522  0.953455  0.562568  1
  O  O17  1  0.979695  0.529971  0.960362  1
  O  O18  1  0.953455  0.530522  0.562568  1
  O  O19  1  0.529971  0.979695  0.960362  1
  O  O20  1  0.247202  0.247202  0.258394  1
  O  O21  1  0.002798  0.002798  0.991606  1
