# generated using pymatgen
data_Dy7Er9Cd4Os3Pt
_symmetry_space_group_name_H-M   'P 1'
_cell_length_a   9.54602703
_cell_length_b   9.66910702
_cell_length_c   9.69041500
_cell_angle_alpha   59.92707137
_cell_angle_beta   59.49837646
_cell_angle_gamma   59.46613020
_symmetry_Int_Tables_number   1
_chemical_formula_structural   Dy7Er9Cd4Os3Pt
_chemical_formula_sum   'Dy7 Er9 Cd4 Os3 Pt1'
_cell_volume   627.12893884
_cell_formula_units_Z   1
loop_
 _symmetry_equiv_pos_site_id
 _symmetry_equiv_pos_as_xyz
  1  'x, y, z'
loop_
 _atom_site_type_symbol
 _atom_site_label
 _atom_site_symmetry_multiplicity
 _atom_site_fract_x
 _atom_site_fract_y
 _atom_site_fract_z
 _atom_site_occupancy
  Dy  Dy0  1  0.814425  0.804484  0.190545  1
  Dy  Dy1  1  0.936539  0.560553  0.562174  1
  Dy  Dy2  1  0.550298  0.942019  0.941209  1
  Dy  Dy3  1  0.550298  0.942019  0.566474  1
  Dy  Dy4  1  0.936539  0.560552  0.940734  1
  Dy  Dy5  1  0.550300  0.565990  0.941855  1
  Dy  Dy6  1  0.936571  0.940726  0.561351  1
  Er  Er7  1  0.347507  0.350905  0.349824  1
  Er  Er8  1  0.347507  0.350905  0.951764  1
  Er  Er9  1  0.348003  0.952752  0.349623  1
  Er  Er10  1  0.971911  0.342710  0.342691  1
  Er  Er11  1  0.814354  0.189800  0.190471  1
  Er  Er12  1  0.184358  0.810933  0.811073  1
  Er  Er13  1  0.184358  0.810933  0.193636  1
  Er  Er14  1  0.814354  0.189800  0.805373  1
  Er  Er15  1  0.184893  0.191728  0.811690  1
  Cd  Cd16  1  0.581089  0.578949  0.579445  1
  Cd  Cd17  1  0.581089  0.578949  0.260517  1
  Cd  Cd18  1  0.581144  0.259942  0.579457  1
  Cd  Cd19  1  0.253742  0.581906  0.582176  1
  Os  Os20  1  0.150921  0.136231  0.134793  1
  Os  Os21  1  0.150921  0.136231  0.578057  1
  Os  Os22  1  0.151875  0.578012  0.135057  1
  Pt  Pt23  1  0.577007  0.142970  0.140012  1
