# generated using pymatgen
data_Nd11(Ni2Sn3)2
_symmetry_space_group_name_H-M   'P 1'
_cell_length_a   4.46577541
_cell_length_b   9.70411494
_cell_length_c   14.52621438
_cell_angle_alpha   106.17719231
_cell_angle_beta   90.02062093
_cell_angle_gamma   103.24761743
_symmetry_Int_Tables_number   1
_chemical_formula_structural   Nd11(Ni2Sn3)2
_chemical_formula_sum   'Nd11 Ni4 Sn6'
_cell_volume   587.10955483
_cell_formula_units_Z   1
loop_
 _symmetry_equiv_pos_site_id
 _symmetry_equiv_pos_as_xyz
  1  'x, y, z'
loop_
 _atom_site_type_symbol
 _atom_site_label
 _atom_site_symmetry_multiplicity
 _atom_site_fract_x
 _atom_site_fract_y
 _atom_site_fract_z
 _atom_site_occupancy
  Nd  Nd0  1  0.906654  0.811241  0.215704  1
  Nd  Nd1  1  0.854651  0.707039  0.644494  1
  Nd  Nd2  1  0.211496  0.422908  0.100721  1
  Nd  Nd3  1  0.548232  0.096781  0.123507  1
  Nd  Nd4  1  0.338462  0.679097  0.416310  1
  Nd  Nd5  1  0.452319  0.902762  0.877790  1
  Nd  Nd6  1  0.000206  0.999740  0.500540  1
  Nd  Nd7  1  0.145751  0.293035  0.356821  1
  Nd  Nd8  1  0.788700  0.576555  0.900322  1
  Nd  Nd9  1  0.661469  0.320939  0.584238  1
  Nd  Nd10  1  0.093689  0.188261  0.785463  1
  Ni  Ni11  1  0.749744  0.503273  0.455046  1
  Ni  Ni12  1  0.943239  0.886770  0.023461  1
  Ni  Ni13  1  0.056994  0.112444  0.977760  1
  Ni  Ni14  1  0.249838  0.497664  0.546099  1
  Sn  Sn15  1  0.631596  0.263572  0.949090  1
  Sn  Sn16  1  0.261376  0.520862  0.735912  1
  Sn  Sn17  1  0.738669  0.478387  0.264993  1
  Sn  Sn18  1  0.368826  0.735833  0.052102  1
  Sn  Sn19  1  0.515007  0.030699  0.349327  1
  Sn  Sn20  1  0.485678  0.969185  0.651822  1
