# generated using pymatgen
data_La2Dy3Ir2
_symmetry_space_group_name_H-M   'P 1'
_cell_length_a   6.60877444
_cell_length_b   7.23611332
_cell_length_c   8.86749635
_cell_angle_alpha   96.73581523
_cell_angle_beta   111.87854763
_cell_angle_gamma   89.99999154
_symmetry_Int_Tables_number   1
_chemical_formula_structural   La2Dy3Ir2
_chemical_formula_sum   'La4 Dy6 Ir4'
_cell_volume   390.36142154
_cell_formula_units_Z   2
loop_
 _symmetry_equiv_pos_site_id
 _symmetry_equiv_pos_as_xyz
  1  'x, y, z'
loop_
 _atom_site_type_symbol
 _atom_site_label
 _atom_site_symmetry_multiplicity
 _atom_site_fract_x
 _atom_site_fract_y
 _atom_site_fract_z
 _atom_site_occupancy
  La  La0  1  0.784966  0.083005  0.808327  1
  La  La1  1  0.976639  0.416995  0.191673  1
  La  La2  1  0.215034  0.916995  0.191673  1
  La  La3  1  0.023361  0.583005  0.808327  1
  Dy  Dy4  1  0.209204  0.183314  0.565841  1
  Dy  Dy5  1  0.643362  0.316686  0.434159  1
  Dy  Dy6  1  0.790796  0.816686  0.434159  1
  Dy  Dy7  1  0.356638  0.683314  0.565841  1
  Dy  Dy8  1  0.429996  0.250000  0.000000  1
  Dy  Dy9  1  0.570004  0.750000  0.000000  1
  Ir  Ir10  1  0.589836  0.424088  0.773479  1
  Ir  Ir11  1  0.816356  0.075912  0.226521  1
  Ir  Ir12  1  0.410164  0.575912  0.226521  1
  Ir  Ir13  1  0.183644  0.924088  0.773479  1
