# generated using pymatgen
data_ErTm11In2(CoSi)2
_symmetry_space_group_name_H-M   'P 1'
_cell_length_a   8.34530480
_cell_length_b   8.35071020
_cell_length_c   8.35071148
_cell_angle_alpha   113.41963630
_cell_angle_beta   111.07890527
_cell_angle_gamma   104.07989135
_symmetry_Int_Tables_number   1
_chemical_formula_structural   ErTm11In2(CoSi)2
_chemical_formula_sum   'Er1 Tm11 In2 Co2 Si2'
_cell_volume   444.70586283
_cell_formula_units_Z   1
loop_
 _symmetry_equiv_pos_site_id
 _symmetry_equiv_pos_as_xyz
  1  'x, y, z'
loop_
 _atom_site_type_symbol
 _atom_site_label
 _atom_site_symmetry_multiplicity
 _atom_site_fract_x
 _atom_site_fract_y
 _atom_site_fract_z
 _atom_site_occupancy
  Er  Er0  1  0.444002  0.242410  0.201592  1
  Tm  Tm1  1  0.555983  0.757815  0.798168  1
  Tm  Tm2  1  0.040073  0.242313  0.797761  1
  Tm  Tm3  1  0.959294  0.757816  0.201477  1
  Tm  Tm4  1  0.186815  0.288909  0.476062  1
  Tm  Tm5  1  0.813334  0.711481  0.524380  1
  Tm  Tm6  1  0.186815  0.710753  0.897906  1
  Tm  Tm7  1  0.813334  0.288954  0.101853  1
  Tm  Tm8  1  0.305439  0.616597  0.310934  1
  Tm  Tm9  1  0.694323  0.383502  0.689266  1
  Tm  Tm10  1  0.305439  0.994505  0.688842  1
  Tm  Tm11  1  0.694323  0.005057  0.310821  1
  In  In12  1  0.500088  0.499832  0.000256  1
  In  In13  1  0.000586  0.000379  0.000207  1
  Co  Co14  1  0.108399  0.608612  0.499787  1
  Co  Co15  1  0.891846  0.391322  0.500524  1
  Si  Si16  1  0.359467  0.999773  0.359695  1
  Si  Si17  1  0.640438  0.999970  0.640468  1
