# generated using pymatgen
data_Li(PrSn2)2
_symmetry_space_group_name_H-M   'P 1'
_cell_length_a   4.48601600
_cell_length_b   4.52006972
_cell_length_c   9.48209432
_cell_angle_alpha   76.21095457
_cell_angle_beta   90.00000000
_cell_angle_gamma   90.00000000
_symmetry_Int_Tables_number   1
_chemical_formula_structural   Li(PrSn2)2
_chemical_formula_sum   'Li1 Pr2 Sn4'
_cell_volume   186.72819262
_cell_formula_units_Z   1
loop_
 _symmetry_equiv_pos_site_id
 _symmetry_equiv_pos_as_xyz
  1  'x, y, z'
loop_
 _atom_site_type_symbol
 _atom_site_label
 _atom_site_symmetry_multiplicity
 _atom_site_fract_x
 _atom_site_fract_y
 _atom_site_fract_z
 _atom_site_occupancy
  Li  Li0  1  0.250000  0.679048  0.641904  1
  Pr  Pr1  1  0.250000  0.894459  0.211081  1
  Pr  Pr2  1  0.750000  0.104903  0.790193  1
  Sn  Sn3  1  0.250000  0.260526  0.478949  1
  Sn  Sn4  1  0.750000  0.758645  0.482709  1
  Sn  Sn5  1  0.250000  0.538876  0.922246  1
  Sn  Sn6  1  0.750000  0.436541  0.126917  1
