# generated using pymatgen
data_Ta9Nb(B2As)2
_symmetry_space_group_name_H-M   'P 1'
_cell_length_a   7.32792896
_cell_length_b   7.32567652
_cell_length_c   7.32535191
_cell_angle_alpha   129.35063556
_cell_angle_beta   129.35897296
_cell_angle_gamma   74.45529467
_symmetry_Int_Tables_number   1
_chemical_formula_structural   Ta9Nb(B2As)2
_chemical_formula_sum   'Ta9 Nb1 B4 As2'
_cell_volume   229.12270763
_cell_formula_units_Z   1
loop_
 _symmetry_equiv_pos_site_id
 _symmetry_equiv_pos_as_xyz
  1  'x, y, z'
loop_
 _atom_site_type_symbol
 _atom_site_label
 _atom_site_symmetry_multiplicity
 _atom_site_fract_x
 _atom_site_fract_y
 _atom_site_fract_z
 _atom_site_occupancy
  Ta  Ta0  1  0.197195  0.026890  0.500000  1
  Ta  Ta1  1  0.026737  0.526512  0.829457  1
  Ta  Ta2  1  0.697280  0.197056  0.170543  1
  Ta  Ta3  1  0.473382  0.302842  0.500000  1
  Ta  Ta4  1  0.802812  0.973509  0.500000  1
  Ta  Ta5  1  0.972828  0.473040  0.170075  1
  Ta  Ta6  1  0.302752  0.802964  0.829925  1
  Ta  Ta7  1  0.499924  0.500206  0.000398  1
  Ta  Ta8  1  0.999526  0.999808  0.999602  1
  Nb  Nb9  1  0.526753  0.696139  0.500000  1
  B  B10  1  0.880744  0.620013  0.500000  1
  B  B11  1  0.120699  0.379312  0.500000  1
  B  B12  1  0.379029  0.880141  0.258364  1
  B  B13  1  0.620662  0.121774  0.741636  1
  As  As14  1  0.249717  0.249775  0.999756  1
  As  As15  1  0.749961  0.750019  0.000244  1
