# generated using pymatgen
data_Tb3Zn3Cu2Rh
_symmetry_space_group_name_H-M   'P 1'
_cell_length_a   7.09230200
_cell_length_b   7.09230226
_cell_length_c   3.96510700
_cell_angle_alpha   90.00000000
_cell_angle_beta   90.00000000
_cell_angle_gamma   119.99999880
_symmetry_Int_Tables_number   1
_chemical_formula_structural   Tb3Zn3Cu2Rh
_chemical_formula_sum   'Tb3 Zn3 Cu2 Rh1'
_cell_volume   172.72691027
_cell_formula_units_Z   1
loop_
 _symmetry_equiv_pos_site_id
 _symmetry_equiv_pos_as_xyz
  1  'x, y, z'
loop_
 _atom_site_type_symbol
 _atom_site_label
 _atom_site_symmetry_multiplicity
 _atom_site_fract_x
 _atom_site_fract_y
 _atom_site_fract_z
 _atom_site_occupancy
  Tb  Tb0  1  0.583406  0.992105  0.500000  1
  Tb  Tb1  1  0.408699  0.416594  0.500000  1
  Tb  Tb2  1  0.007895  0.591301  0.500000  1
  Zn  Zn3  1  0.763213  0.762911  0.000000  1
  Zn  Zn4  1  0.999695  0.236787  0.000000  1
  Zn  Zn5  1  0.237089  0.000305  0.000000  1
  Cu  Cu6  1  0.000000  0.000000  0.500000  1
  Cu  Cu7  1  0.666667  0.333333  0.000000  1
  Rh  Rh8  1  0.333333  0.666667  0.000000  1
