# generated using pymatgen
data_Pr2Mn2Co10As7
_symmetry_space_group_name_H-M   'P 1'
_cell_length_a   9.50786063
_cell_length_b   9.50735005
_cell_length_c   3.80848300
_cell_angle_alpha   90.00000000
_cell_angle_beta   90.00000000
_cell_angle_gamma   120.21734803
_symmetry_Int_Tables_number   1
_chemical_formula_structural   Pr2Mn2Co10As7
_chemical_formula_sum   'Pr2 Mn2 Co10 As7'
_cell_volume   297.48810479
_cell_formula_units_Z   1
loop_
 _symmetry_equiv_pos_site_id
 _symmetry_equiv_pos_as_xyz
  1  'x, y, z'
loop_
 _atom_site_type_symbol
 _atom_site_label
 _atom_site_symmetry_multiplicity
 _atom_site_fract_x
 _atom_site_fract_y
 _atom_site_fract_z
 _atom_site_occupancy
  Pr  Pr0  1  0.664491  0.332493  0.000000  1
  Pr  Pr1  1  0.335039  0.669572  0.500000  1
  Mn  Mn2  1  0.896269  0.114171  0.000000  1
  Mn  Mn3  1  0.889975  0.782350  0.000000  1
  Co  Co4  1  0.425609  0.056568  0.500000  1
  Co  Co5  1  0.941820  0.369954  0.500000  1
  Co  Co6  1  0.628123  0.571075  0.500000  1
  Co  Co7  1  0.155684  0.277450  0.500000  1
  Co  Co8  1  0.728461  0.882524  0.500000  1
  Co  Co9  1  0.121153  0.846118  0.500000  1
  Co  Co10  1  0.380208  0.429171  0.000000  1
  Co  Co11  1  0.568029  0.949977  0.000000  1
  Co  Co12  1  0.050266  0.619048  0.000000  1
  Co  Co13  1  0.214737  0.096625  0.000000  1
  As  As14  1  0.112609  0.405603  0.000000  1
  As  As15  1  0.597305  0.707649  0.000000  1
  As  As16  1  0.290708  0.891541  0.000000  1
  As  As17  1  0.005001  0.003007  0.500000  1
  As  As18  1  0.405496  0.296460  0.500000  1
  As  As19  1  0.698503  0.109262  0.500000  1
  As  As20  1  0.890513  0.589381  0.500000  1
