# generated using pymatgen
data_H2IrF8
_symmetry_space_group_name_H-M   'P 1'
_cell_length_a   4.76924535
_cell_length_b   5.26183062
_cell_length_c   8.07894910
_cell_angle_alpha   117.76622166
_cell_angle_beta   95.24711051
_cell_angle_gamma   98.64245624
_symmetry_Int_Tables_number   1
_chemical_formula_structural   H2IrF8
_chemical_formula_sum   'H2 Ir1 F8'
_cell_volume   174.31261114
_cell_formula_units_Z   1
loop_
 _symmetry_equiv_pos_site_id
 _symmetry_equiv_pos_as_xyz
  1  'x, y, z'
loop_
 _atom_site_type_symbol
 _atom_site_label
 _atom_site_symmetry_multiplicity
 _atom_site_fract_x
 _atom_site_fract_y
 _atom_site_fract_z
 _atom_site_occupancy
  H  H0  1  0.481353  0.292805  0.753922  1
  H  H1  1  0.985498  0.274211  0.774179  1
  Ir  Ir2  1  0.596481  0.494480  0.339699  1
  F  F3  1  0.356559  0.720198  0.489809  1
  F  F4  1  0.835295  0.840502  0.375600  1
  F  F5  1  0.357412  0.147403  0.301643  1
  F  F6  1  0.298536  0.334667  0.723466  1
  F  F7  1  0.808923  0.531831  0.560136  1
  F  F8  1  0.384601  0.461242  0.120284  1
  F  F9  1  0.835177  0.266752  0.189619  1
  F  F10  1  0.796579  0.233994  0.803828  1
