# generated using pymatgen
data_NdBiMo2F14
_symmetry_space_group_name_H-M   'P 1'
_cell_length_a   5.83885218
_cell_length_b   6.25032535
_cell_length_c   8.45250500
_cell_angle_alpha   101.71418680
_cell_angle_beta   89.82517400
_cell_angle_gamma   90.02366965
_symmetry_Int_Tables_number   1
_chemical_formula_structural   NdBiMo2F14
_chemical_formula_sum   'Nd1 Bi1 Mo2 F14'
_cell_volume   302.04576359
_cell_formula_units_Z   1
loop_
 _symmetry_equiv_pos_site_id
 _symmetry_equiv_pos_as_xyz
  1  'x, y, z'
loop_
 _atom_site_type_symbol
 _atom_site_label
 _atom_site_symmetry_multiplicity
 _atom_site_fract_x
 _atom_site_fract_y
 _atom_site_fract_z
 _atom_site_occupancy
  Nd  Nd0  1  0.201813  0.333772  0.307377  1
  Bi  Bi1  1  0.692246  0.656471  0.675888  1
  Mo  Mo2  1  0.710552  0.808871  0.224117  1
  Mo  Mo3  1  0.210485  0.191665  0.774497  1
  F  F4  1  0.880696  0.449286  0.476490  1
  F  F5  1  0.389230  0.553969  0.526849  1
  F  F6  1  0.423910  0.939071  0.767314  1
  F  F7  1  0.927087  0.063976  0.231378  1
  F  F8  1  0.957550  0.977128  0.759034  1
  F  F9  1  0.449766  0.020047  0.240593  1
  F  F10  1  0.002528  0.443763  0.791857  1
  F  F11  1  0.492710  0.552422  0.214829  1
  F  F12  1  0.700465  0.762541  0.988984  1
  F  F13  1  0.204505  0.243533  0.020591  1
  F  F14  1  0.714022  0.863734  0.467481  1
  F  F15  1  0.216833  0.140739  0.528054  1
  F  F16  1  0.491524  0.379051  0.785483  1
  F  F17  1  0.986799  0.619961  0.219184  1
