# generated using pymatgen
data_Er4Os3Ru3W2
_symmetry_space_group_name_H-M   'P 1'
_cell_length_a   5.36039972
_cell_length_b   5.36323542
_cell_length_c   9.09412900
_cell_angle_alpha   90.00000000
_cell_angle_beta   90.00000000
_cell_angle_gamma   122.52170875
_symmetry_Int_Tables_number   1
_chemical_formula_structural   Er4Os3Ru3W2
_chemical_formula_sum   'Er4 Os3 Ru3 W2'
_cell_volume   220.44967634
_cell_formula_units_Z   1
loop_
 _symmetry_equiv_pos_site_id
 _symmetry_equiv_pos_as_xyz
  1  'x, y, z'
loop_
 _atom_site_type_symbol
 _atom_site_label
 _atom_site_symmetry_multiplicity
 _atom_site_fract_x
 _atom_site_fract_y
 _atom_site_fract_z
 _atom_site_occupancy
  Er  Er0  1  0.343265  0.670376  0.436140  1
  Er  Er1  1  0.669454  0.342215  0.563985  1
  Er  Er2  1  0.669454  0.342215  0.936015  1
  Er  Er3  1  0.343265  0.670376  0.063860  1
  Os  Os4  1  0.173686  0.825381  0.750000  1
  Os  Os5  1  0.817842  0.648567  0.250000  1
  Os  Os6  1  0.648193  0.819996  0.750000  1
  Ru  Ru7  1  0.017449  0.012735  0.000707  1
  Ru  Ru8  1  0.825747  0.176796  0.250000  1
  Ru  Ru9  1  0.017449  0.012735  0.499293  1
  W  W10  1  0.157266  0.318197  0.750000  1
  W  W11  1  0.316928  0.160414  0.250000  1
