# generated using pymatgen
data_Ac2Co2Sn2C
_symmetry_space_group_name_H-M   'P 1'
_cell_length_a   6.19629174
_cell_length_b   6.19629165
_cell_length_c   7.68789924
_cell_angle_alpha   124.46362924
_cell_angle_beta   124.46363172
_cell_angle_gamma   42.17402514
_symmetry_Int_Tables_number   1
_chemical_formula_structural   Ac2Co2Sn2C
_chemical_formula_sum   'Ac2 Co2 Sn2 C1'
_cell_volume   157.56392899
_cell_formula_units_Z   1
loop_
 _symmetry_equiv_pos_site_id
 _symmetry_equiv_pos_as_xyz
  1  'x, y, z'
loop_
 _atom_site_type_symbol
 _atom_site_label
 _atom_site_symmetry_multiplicity
 _atom_site_fract_x
 _atom_site_fract_y
 _atom_site_fract_z
 _atom_site_occupancy
  Ac  Ac0  1  0.441883  0.441883  0.176462  1
  Ac  Ac1  1  0.558117  0.558117  0.823539  1
  Co  Co2  1  0.175984  0.175984  0.243381  1
  Co  Co3  1  0.824015  0.824015  0.756618  1
  Sn  Sn4  1  0.819106  0.819106  0.401612  1
  Sn  Sn5  1  0.180893  0.180893  0.598388  1
  C  C6  1  0.000000  0.000000  0.000000  1
