# generated using pymatgen
data_Np3Pa5H24
_symmetry_space_group_name_H-M   'P 1'
_cell_length_a   6.61746400
_cell_length_b   6.58222000
_cell_length_c   6.58222000
_cell_angle_alpha   90.00000000
_cell_angle_beta   90.00000000
_cell_angle_gamma   90.00000000
_symmetry_Int_Tables_number   1
_chemical_formula_structural   Np3Pa5H24
_chemical_formula_sum   'Np3 Pa5 H24'
_cell_volume   286.70573148
_cell_formula_units_Z   1
loop_
 _symmetry_equiv_pos_site_id
 _symmetry_equiv_pos_as_xyz
  1  'x, y, z'
loop_
 _atom_site_type_symbol
 _atom_site_label
 _atom_site_symmetry_multiplicity
 _atom_site_fract_x
 _atom_site_fract_y
 _atom_site_fract_z
 _atom_site_occupancy
  Np  Np0  1  0.000244  0.000000  0.000000  1
  Np  Np1  1  0.499756  0.500000  0.500000  1
  Np  Np2  1  0.250000  0.000000  0.500000  1
  Pa  Pa3  1  0.750000  0.000000  0.500000  1
  Pa  Pa4  1  0.999155  0.500000  0.249670  1
  Pa  Pa5  1  0.999155  0.500000  0.750330  1
  Pa  Pa6  1  0.500845  0.749670  0.000000  1
  Pa  Pa7  1  0.500845  0.250330  0.000000  1
  H  H8  1  0.999556  0.155087  0.305151  1
  H  H9  1  0.500444  0.194849  0.655087  1
  H  H10  1  0.500444  0.805151  0.344913  1
  H  H11  1  0.804840  0.654790  0.500000  1
  H  H12  1  0.195733  0.654980  0.500000  1
  H  H13  1  0.344390  0.500000  0.804703  1
  H  H14  1  0.654844  0.500000  0.804698  1
  H  H15  1  0.304267  0.000000  0.154980  1
  H  H16  1  0.155610  0.304703  0.000000  1
  H  H17  1  0.845156  0.695302  0.000000  1
  H  H18  1  0.304267  0.000000  0.845020  1
  H  H19  1  0.845156  0.304698  0.000000  1
  H  H20  1  0.695160  0.000000  0.154790  1
  H  H21  1  0.695160  0.000000  0.845210  1
  H  H22  1  0.155610  0.695297  0.000000  1
  H  H23  1  0.999556  0.844913  0.694849  1
  H  H24  1  0.999556  0.155087  0.694849  1
  H  H25  1  0.999556  0.844913  0.305151  1
  H  H26  1  0.654844  0.500000  0.195302  1
  H  H27  1  0.344390  0.500000  0.195297  1
  H  H28  1  0.804840  0.345210  0.500000  1
  H  H29  1  0.195733  0.345020  0.500000  1
  H  H30  1  0.500444  0.805151  0.655087  1
  H  H31  1  0.500444  0.194849  0.344913  1
