# generated using pymatgen
data_CaLa(Be12Cu)2
_symmetry_space_group_name_H-M   'P 1'
_cell_length_a   7.37069478
_cell_length_b   7.41695195
_cell_length_c   7.34085493
_cell_angle_alpha   59.92377719
_cell_angle_beta   59.89846710
_cell_angle_gamma   59.52561618
_symmetry_Int_Tables_number   1
_chemical_formula_structural   CaLa(Be12Cu)2
_chemical_formula_sum   'Ca1 La1 Be24 Cu2'
_cell_volume   282.36032904
_cell_formula_units_Z   1
loop_
 _symmetry_equiv_pos_site_id
 _symmetry_equiv_pos_as_xyz
  1  'x, y, z'
loop_
 _atom_site_type_symbol
 _atom_site_label
 _atom_site_symmetry_multiplicity
 _atom_site_fract_x
 _atom_site_fract_y
 _atom_site_fract_z
 _atom_site_occupancy
  Ca  Ca0  1  0.252226  0.247774  0.252226  1
  La  La1  1  0.747510  0.752490  0.747510  1
  Be  Be2  1  0.499968  0.500032  0.499968  1
  Be  Be3  1  0.000123  0.999877  0.000123  1
  Be  Be4  1  0.566411  0.789817  0.433023  1
  Be  Be5  1  0.433023  0.210750  0.566411  1
  Be  Be6  1  0.287465  0.934469  0.712489  1
  Be  Be7  1  0.712489  0.065578  0.287465  1
  Be  Be8  1  0.929811  0.277784  0.070035  1
  Be  Be9  1  0.070035  0.722369  0.929811  1
  Be  Be10  1  0.212180  0.795305  0.559987  1
  Be  Be11  1  0.788513  0.205574  0.438674  1
  Be  Be12  1  0.438674  0.567239  0.788513  1
  Be  Be13  1  0.559987  0.432528  0.212180  1
  Be  Be14  1  0.713655  0.284121  0.934986  1
  Be  Be15  1  0.286246  0.717154  0.064815  1
  Be  Be16  1  0.064815  0.931785  0.286246  1
  Be  Be17  1  0.934986  0.067237  0.713655  1
  Be  Be18  1  0.568832  0.209928  0.788035  1
  Be  Be19  1  0.431474  0.789974  0.212488  1
  Be  Be20  1  0.788035  0.433206  0.568832  1
  Be  Be21  1  0.212488  0.566063  0.431474  1
  Be  Be22  1  0.935186  0.716104  0.286218  1
  Be  Be23  1  0.064314  0.283976  0.713514  1
  Be  Be24  1  0.286218  0.062492  0.935186  1
  Be  Be25  1  0.713514  0.938195  0.064314  1
  Cu  Cu26  1  0.801388  0.558525  0.200433  1
  Cu  Cu27  1  0.200433  0.439654  0.801388  1
