# generated using pymatgen
data_Nb12AlPt7N4
_symmetry_space_group_name_H-M   'P 1'
_cell_length_a   7.07915240
_cell_length_b   7.07915240
_cell_length_c   7.07915240
_cell_angle_alpha   89.70624852
_cell_angle_beta   89.70624852
_cell_angle_gamma   89.70624852
_symmetry_Int_Tables_number   1
_chemical_formula_structural   Nb12AlPt7N4
_chemical_formula_sum   'Nb12 Al1 Pt7 N4'
_cell_volume   354.75352586
_cell_formula_units_Z   1
loop_
 _symmetry_equiv_pos_site_id
 _symmetry_equiv_pos_as_xyz
  1  'x, y, z'
loop_
 _atom_site_type_symbol
 _atom_site_label
 _atom_site_symmetry_multiplicity
 _atom_site_fract_x
 _atom_site_fract_y
 _atom_site_fract_z
 _atom_site_occupancy
  Nb  Nb0  1  0.790145  0.950834  0.379436  1
  Nb  Nb1  1  0.700721  0.043269  0.873090  1
  Nb  Nb2  1  0.206135  0.459391  0.129567  1
  Nb  Nb3  1  0.296693  0.546202  0.625462  1
  Nb  Nb4  1  0.950834  0.379436  0.790145  1
  Nb  Nb5  1  0.043269  0.873090  0.700721  1
  Nb  Nb6  1  0.459391  0.129567  0.206135  1
  Nb  Nb7  1  0.546202  0.625462  0.296693  1
  Nb  Nb8  1  0.379436  0.790145  0.950834  1
  Nb  Nb9  1  0.873090  0.700721  0.043269  1
  Nb  Nb10  1  0.129567  0.206135  0.459391  1
  Nb  Nb11  1  0.625462  0.296693  0.546202  1
  Al  Al12  1  0.068256  0.068256  0.068256  1
  Pt  Pt13  1  0.180115  0.827885  0.299954  1
  Pt  Pt14  1  0.299954  0.180115  0.827885  1
  Pt  Pt15  1  0.827885  0.299954  0.180115  1
  Pt  Pt16  1  0.686753  0.686753  0.686753  1
  Pt  Pt17  1  0.562162  0.431975  0.938600  1
  Pt  Pt18  1  0.431975  0.938600  0.562162  1
  Pt  Pt19  1  0.938600  0.562162  0.431975  1
  N  N20  1  0.874390  0.125896  0.624975  1
  N  N21  1  0.624975  0.874390  0.125896  1
  N  N22  1  0.125896  0.624975  0.874390  1
  N  N23  1  0.378095  0.378095  0.378095  1
