# generated using pymatgen
data_Tm6Al23VOs8
_symmetry_space_group_name_H-M   'P 1'
_cell_length_a   8.81914600
_cell_length_b   8.81914645
_cell_length_c   9.50965500
_cell_angle_alpha   90.00000000
_cell_angle_beta   90.00000000
_cell_angle_gamma   119.99999830
_symmetry_Int_Tables_number   1
_chemical_formula_structural   Tm6Al23VOs8
_chemical_formula_sum   'Tm6 Al23 V1 Os8'
_cell_volume   640.54329238
_cell_formula_units_Z   1
loop_
 _symmetry_equiv_pos_site_id
 _symmetry_equiv_pos_as_xyz
  1  'x, y, z'
loop_
 _atom_site_type_symbol
 _atom_site_label
 _atom_site_symmetry_multiplicity
 _atom_site_fract_x
 _atom_site_fract_y
 _atom_site_fract_z
 _atom_site_occupancy
  Tm  Tm0  1  0.196659  0.393320  0.246524  1
  Tm  Tm1  1  0.806284  0.612567  0.749812  1
  Tm  Tm2  1  0.606680  0.803341  0.246524  1
  Tm  Tm3  1  0.387433  0.193716  0.749812  1
  Tm  Tm4  1  0.196659  0.803341  0.246524  1
  Tm  Tm5  1  0.806284  0.193716  0.749812  1
  Al  Al6  1  0.666667  0.333333  0.976744  1
  Al  Al7  1  0.666667  0.333333  0.520190  1
  Al  Al8  1  0.333333  0.666667  0.482442  1
  Al  Al9  1  0.162111  0.324224  0.575840  1
  Al  Al10  1  0.837214  0.674428  0.424195  1
  Al  Al11  1  0.675776  0.837889  0.575840  1
  Al  Al12  1  0.835800  0.671601  0.076599  1
  Al  Al13  1  0.325572  0.162786  0.424195  1
  Al  Al14  1  0.160400  0.320801  0.925227  1
  Al  Al15  1  0.162111  0.837889  0.575840  1
  Al  Al16  1  0.328399  0.164200  0.076599  1
  Al  Al17  1  0.837214  0.162786  0.424195  1
  Al  Al18  1  0.679199  0.839600  0.925227  1
  Al  Al19  1  0.835800  0.164200  0.076599  1
  Al  Al20  1  0.160400  0.839600  0.925227  1
  Al  Al21  1  0.561997  0.123994  0.253036  1
  Al  Al22  1  0.441351  0.882701  0.751297  1
  Al  Al23  1  0.876006  0.438003  0.253036  1
  Al  Al24  1  0.117299  0.558649  0.751297  1
  Al  Al25  1  0.561997  0.438003  0.253036  1
  Al  Al26  1  0.441351  0.558649  0.751297  1
  Al  Al27  1  0.000000  0.000000  0.250108  1
  Al  Al28  1  0.000000  0.000000  0.749482  1
  V  V29  1  0.333333  0.666667  0.987997  1
  Os  Os30  1  0.495503  0.991004  0.005020  1
  Os  Os31  1  0.008996  0.504497  0.005020  1
  Os  Os32  1  0.499457  0.998912  0.503536  1
  Os  Os33  1  0.495503  0.504497  0.005020  1
  Os  Os34  1  0.001088  0.500543  0.503536  1
  Os  Os35  1  0.499457  0.500543  0.503536  1
  Os  Os36  1  0.000000  0.000000  0.000632  1
  Os  Os37  1  0.000000  0.000000  0.499150  1
