# generated using pymatgen
data_Tc2ClF11
_symmetry_space_group_name_H-M   'P 1'
_cell_length_a   5.52020874
_cell_length_b   9.02681000
_cell_length_c   9.97049409
_cell_angle_alpha   90.00000000
_cell_angle_beta   90.82983718
_cell_angle_gamma   90.00000000
_symmetry_Int_Tables_number   1
_chemical_formula_structural   Tc2ClF11
_chemical_formula_sum   'Tc4 Cl2 F22'
_cell_volume   496.77637058
_cell_formula_units_Z   2
loop_
 _symmetry_equiv_pos_site_id
 _symmetry_equiv_pos_as_xyz
  1  'x, y, z'
loop_
 _atom_site_type_symbol
 _atom_site_label
 _atom_site_symmetry_multiplicity
 _atom_site_fract_x
 _atom_site_fract_y
 _atom_site_fract_z
 _atom_site_occupancy
  Tc  Tc0  1  0.917721  0.750000  0.635912  1
  Tc  Tc1  1  0.082279  0.250000  0.364088  1
  Tc  Tc2  1  0.416482  0.250000  0.875592  1
  Tc  Tc3  1  0.583518  0.750000  0.124408  1
  Cl  Cl4  1  0.242917  0.750000  0.505326  1
  Cl  Cl5  1  0.757083  0.250000  0.494674  1
  F  F6  1  0.692686  0.250000  0.984492  1
  F  F7  1  0.307314  0.750000  0.015508  1
  F  F8  1  0.638487  0.750000  0.743482  1
  F  F9  1  0.361513  0.250000  0.256518  1
  F  F10  1  0.140660  0.250000  0.765231  1
  F  F11  1  0.859340  0.750000  0.234769  1
  F  F12  1  0.766875  0.605432  0.529827  1
  F  F13  1  0.233125  0.394568  0.470173  1
  F  F14  1  0.281266  0.397391  0.980638  1
  F  F15  1  0.233125  0.105432  0.470173  1
  F  F16  1  0.718734  0.602609  0.019362  1
  F  F17  1  0.766875  0.894568  0.529827  1
  F  F18  1  0.718734  0.897391  0.019362  1
  F  F19  1  0.281266  0.102609  0.980638  1
  F  F20  1  0.048041  0.602601  0.745324  1
  F  F21  1  0.951959  0.397399  0.254676  1
  F  F22  1  0.551409  0.396294  0.768171  1
  F  F23  1  0.951959  0.102601  0.254676  1
  F  F24  1  0.448591  0.603706  0.231829  1
  F  F25  1  0.048041  0.897399  0.745324  1
  F  F26  1  0.448591  0.896294  0.231829  1
  F  F27  1  0.551409  0.103706  0.768171  1
