# generated using pymatgen
data_La4YHo5Pb8
_symmetry_space_group_name_H-M   'P 1'
_cell_length_a   8.44387900
_cell_length_b   8.58364200
_cell_length_c   16.15756700
_cell_angle_alpha   90.00000000
_cell_angle_beta   90.00000000
_cell_angle_gamma   90.00000000
_symmetry_Int_Tables_number   1
_chemical_formula_structural   La4YHo5Pb8
_chemical_formula_sum   'La8 Y2 Ho10 Pb16'
_cell_volume   1171.08808637
_cell_formula_units_Z   2
loop_
 _symmetry_equiv_pos_site_id
 _symmetry_equiv_pos_as_xyz
  1  'x, y, z'
loop_
 _atom_site_type_symbol
 _atom_site_label
 _atom_site_symmetry_multiplicity
 _atom_site_fract_x
 _atom_site_fract_y
 _atom_site_fract_z
 _atom_site_occupancy
  La  La0  1  0.478003  0.678361  0.597606  1
  La  La1  1  0.978003  0.821639  0.902394  1
  La  La2  1  0.521320  0.321804  0.095916  1
  La  La3  1  0.021320  0.178196  0.404084  1
  La  La4  1  0.521320  0.321804  0.404084  1
  La  La5  1  0.021320  0.178196  0.095916  1
  La  La6  1  0.478003  0.678361  0.902394  1
  La  La7  1  0.978003  0.821639  0.597606  1
  Y  Y8  1  0.803909  0.493959  0.750000  1
  Y  Y9  1  0.303909  0.006041  0.750000  1
  Ho  Ho10  1  0.637473  0.157282  0.624046  1
  Ho  Ho11  1  0.137473  0.342718  0.875954  1
  Ho  Ho12  1  0.362687  0.841561  0.122151  1
  Ho  Ho13  1  0.862687  0.658439  0.377849  1
  Ho  Ho14  1  0.362687  0.841561  0.377849  1
  Ho  Ho15  1  0.862687  0.658439  0.122151  1
  Ho  Ho16  1  0.637473  0.157282  0.875954  1
  Ho  Ho17  1  0.137473  0.342718  0.624046  1
  Ho  Ho18  1  0.196847  0.505066  0.250000  1
  Ho  Ho19  1  0.696847  0.994934  0.250000  1
  Pb  Pb20  1  0.702078  0.958535  0.456806  1
  Pb  Pb21  1  0.202078  0.541465  0.043194  1
  Pb  Pb22  1  0.297318  0.041046  0.954426  1
  Pb  Pb23  1  0.797318  0.458954  0.545574  1
  Pb  Pb24  1  0.297318  0.041046  0.545574  1
  Pb  Pb25  1  0.797318  0.458954  0.954426  1
  Pb  Pb26  1  0.702078  0.958535  0.043194  1
  Pb  Pb27  1  0.202078  0.541465  0.456806  1
  Pb  Pb28  1  0.443231  0.370674  0.750000  1
  Pb  Pb29  1  0.943231  0.129326  0.750000  1
  Pb  Pb30  1  0.558085  0.630303  0.250000  1
  Pb  Pb31  1  0.058085  0.869697  0.250000  1
  Pb  Pb32  1  0.666636  0.848169  0.750000  1
  Pb  Pb33  1  0.166636  0.651831  0.750000  1
  Pb  Pb34  1  0.333536  0.149708  0.250000  1
  Pb  Pb35  1  0.833536  0.350292  0.250000  1
