# generated using pymatgen
data_Ho2LuGa5Ir
_symmetry_space_group_name_H-M   'P 1'
_cell_length_a   6.91398804
_cell_length_b   6.92521378
_cell_length_c   4.25226600
_cell_angle_alpha   90.00000000
_cell_angle_beta   90.00000000
_cell_angle_gamma   120.05373354
_symmetry_Int_Tables_number   1
_chemical_formula_structural   Ho2LuGa5Ir
_chemical_formula_sum   'Ho2 Lu1 Ga5 Ir1'
_cell_volume   176.22903324
_cell_formula_units_Z   1
loop_
 _symmetry_equiv_pos_site_id
 _symmetry_equiv_pos_as_xyz
  1  'x, y, z'
loop_
 _atom_site_type_symbol
 _atom_site_label
 _atom_site_symmetry_multiplicity
 _atom_site_fract_x
 _atom_site_fract_y
 _atom_site_fract_z
 _atom_site_occupancy
  Ho  Ho0  1  0.587600  0.000572  0.500000  1
  Ho  Ho1  1  0.412400  0.412973  0.500000  1
  Lu  Lu2  1  0.000000  0.589559  0.500000  1
  Ga  Ga3  1  0.237079  0.999827  0.000000  1
  Ga  Ga4  1  0.000000  0.237369  0.000000  1
  Ga  Ga5  1  0.668445  0.334443  0.000000  1
  Ga  Ga6  1  0.331555  0.665999  0.000000  1
  Ga  Ga7  1  0.762921  0.762748  0.000000  1
  Ir  Ir8  1  0.000000  0.996509  0.500000  1
