# generated using pymatgen
data_Sc6Ti16Ir7
_symmetry_space_group_name_H-M   'P 1'
_cell_length_a   9.00112756
_cell_length_b   9.00112704
_cell_length_c   9.00112800
_cell_angle_alpha   59.99999646
_cell_angle_beta   59.99999837
_cell_angle_gamma   59.99999488
_symmetry_Int_Tables_number   1
_chemical_formula_structural   Sc6Ti16Ir7
_chemical_formula_sum   'Sc6 Ti16 Ir7'
_cell_volume   515.67456803
_cell_formula_units_Z   1
loop_
 _symmetry_equiv_pos_site_id
 _symmetry_equiv_pos_as_xyz
  1  'x, y, z'
loop_
 _atom_site_type_symbol
 _atom_site_label
 _atom_site_symmetry_multiplicity
 _atom_site_fract_x
 _atom_site_fract_y
 _atom_site_fract_z
 _atom_site_occupancy
  Sc  Sc0  1  0.695179  0.304819  0.304819  1
  Sc  Sc1  1  0.304818  0.695181  0.695181  1
  Sc  Sc2  1  0.304819  0.695179  0.304819  1
  Sc  Sc3  1  0.304819  0.304819  0.695179  1
  Sc  Sc4  1  0.695181  0.304818  0.695181  1
  Sc  Sc5  1  0.695181  0.695181  0.304818  1
  Ti  Ti6  1  0.329511  0.329511  0.329511  1
  Ti  Ti7  1  0.329511  0.329511  0.011466  1
  Ti  Ti8  1  0.011466  0.329511  0.329511  1
  Ti  Ti9  1  0.329511  0.011466  0.329511  1
  Ti  Ti10  1  0.670489  0.670489  0.670489  1
  Ti  Ti11  1  0.670489  0.670489  0.988533  1
  Ti  Ti12  1  0.670489  0.988533  0.670489  1
  Ti  Ti13  1  0.988533  0.670489  0.670489  1
  Ti  Ti14  1  0.118115  0.118115  0.118115  1
  Ti  Ti15  1  0.118115  0.118115  0.645656  1
  Ti  Ti16  1  0.645656  0.118115  0.118115  1
  Ti  Ti17  1  0.118115  0.645656  0.118115  1
  Ti  Ti18  1  0.881885  0.881885  0.881885  1
  Ti  Ti19  1  0.881885  0.881885  0.354344  1
  Ti  Ti20  1  0.881885  0.354344  0.881885  1
  Ti  Ti21  1  0.354344  0.881885  0.881885  1
  Ir  Ir22  1  0.000000  0.000000  0.000000  1
  Ir  Ir23  1  0.500000  0.000000  0.000000  1
  Ir  Ir24  1  0.000001  0.499999  0.499999  1
  Ir  Ir25  1  0.000000  0.500000  0.000000  1
  Ir  Ir26  1  0.000000  0.000000  0.500000  1
  Ir  Ir27  1  0.499999  0.000001  0.499999  1
  Ir  Ir28  1  0.499999  0.499999  0.000001  1
