# generated using pymatgen
data_Dy4BI5
_symmetry_space_group_name_H-M   'P 1'
_cell_length_a   9.65508294
_cell_length_b   9.65508338
_cell_length_c   8.59674212
_cell_angle_alpha   102.45434068
_cell_angle_beta   102.45433980
_cell_angle_gamma   24.54647627
_symmetry_Int_Tables_number   1
_chemical_formula_structural   Dy4BI5
_chemical_formula_sum   'Dy4 B1 I5'
_cell_volume   324.71422344
_cell_formula_units_Z   1
loop_
 _symmetry_equiv_pos_site_id
 _symmetry_equiv_pos_as_xyz
  1  'x, y, z'
loop_
 _atom_site_type_symbol
 _atom_site_label
 _atom_site_symmetry_multiplicity
 _atom_site_fract_x
 _atom_site_fract_y
 _atom_site_fract_z
 _atom_site_occupancy
  Dy  Dy0  1  0.636198  0.636198  0.070002  1
  Dy  Dy1  1  0.999327  0.999327  0.193199  1
  Dy  Dy2  1  0.000673  0.000673  0.806801  1
  Dy  Dy3  1  0.363803  0.363803  0.929998  1
  B  B4  1  0.500000  0.500000  0.000000  1
  I  I5  1  0.827999  0.827999  0.174556  1
  I  I6  1  0.166094  0.166094  0.343860  1
  I  I7  1  0.500000  0.500000  0.500000  1
  I  I8  1  0.833905  0.833905  0.656140  1
  I  I9  1  0.172001  0.172001  0.825444  1
