# generated using pymatgen
data_Tm5Sc5(In2Pt)4
_symmetry_space_group_name_H-M   'P 1'
_cell_length_a   3.56536500
_cell_length_b   7.89158662
_cell_length_c   17.68911051
_cell_angle_alpha   90.15397026
_cell_angle_beta   90.00000000
_cell_angle_gamma   90.00000000
_symmetry_Int_Tables_number   1
_chemical_formula_structural   Tm5Sc5(In2Pt)4
_chemical_formula_sum   'Tm5 Sc5 In8 Pt4'
_cell_volume   497.70585689
_cell_formula_units_Z   1
loop_
 _symmetry_equiv_pos_site_id
 _symmetry_equiv_pos_as_xyz
  1  'x, y, z'
loop_
 _atom_site_type_symbol
 _atom_site_label
 _atom_site_symmetry_multiplicity
 _atom_site_fract_x
 _atom_site_fract_y
 _atom_site_fract_z
 _atom_site_occupancy
  Tm  Tm0  1  0.000000  0.240861  0.215344  1
  Tm  Tm1  1  0.000000  0.759139  0.784656  1
  Tm  Tm2  1  0.000000  0.257094  0.718742  1
  Tm  Tm3  1  0.000000  0.742906  0.281258  1
  Tm  Tm4  1  0.000000  0.500000  0.500000  1
  Sc  Sc5  1  0.000000  0.117578  0.412623  1
  Sc  Sc6  1  0.000000  0.882422  0.587377  1
  Sc  Sc7  1  0.000000  0.386080  0.915439  1
  Sc  Sc8  1  0.000000  0.613920  0.084561  1
  Sc  Sc9  1  0.000000  0.000000  0.000000  1
  In  In10  1  0.500000  0.415209  0.350509  1
  In  In11  1  0.500000  0.584791  0.649491  1
  In  In12  1  0.500000  0.085941  0.856162  1
  In  In13  1  0.500000  0.914059  0.143838  1
  In  In14  1  0.500000  0.296061  0.058557  1
  In  In15  1  0.500000  0.703939  0.941443  1
  In  In16  1  0.500000  0.194673  0.560260  1
  In  In17  1  0.500000  0.805327  0.439740  1
  Pt  Pt18  1  0.500000  0.030205  0.304932  1
  Pt  Pt19  1  0.500000  0.969795  0.695068  1
  Pt  Pt20  1  0.500000  0.470842  0.807914  1
  Pt  Pt21  1  0.500000  0.529158  0.192086  1
