# generated using pymatgen
data_Tb5Dy4Ho3Rh4
_symmetry_space_group_name_H-M   'P 1'
_cell_length_a   6.29018216
_cell_length_b   7.17462906
_cell_length_c   9.51081622
_cell_angle_alpha   90.01763556
_cell_angle_beta   89.92316129
_cell_angle_gamma   89.94390141
_symmetry_Int_Tables_number   1
_chemical_formula_structural   Tb5Dy4Ho3Rh4
_chemical_formula_sum   'Tb5 Dy4 Ho3 Rh4'
_cell_volume   429.21989609
_cell_formula_units_Z   1
loop_
 _symmetry_equiv_pos_site_id
 _symmetry_equiv_pos_as_xyz
  1  'x, y, z'
loop_
 _atom_site_type_symbol
 _atom_site_label
 _atom_site_symmetry_multiplicity
 _atom_site_fract_x
 _atom_site_fract_y
 _atom_site_fract_z
 _atom_site_occupancy
  Tb  Tb0  1  0.169802  0.177118  0.062532  1
  Tb  Tb1  1  0.865578  0.532446  0.250294  1
  Tb  Tb2  1  0.634305  0.031664  0.250249  1
  Tb  Tb3  1  0.133876  0.467815  0.749716  1
  Tb  Tb4  1  0.366168  0.967768  0.749717  1
  Dy  Dy5  1  0.330503  0.676855  0.063253  1
  Dy  Dy6  1  0.169698  0.176895  0.437340  1
  Dy  Dy7  1  0.669580  0.323380  0.563124  1
  Dy  Dy8  1  0.830068  0.822939  0.936623  1
  Ho  Ho9  1  0.669522  0.323298  0.936476  1
  Ho  Ho10  1  0.830167  0.823093  0.563115  1
  Ho  Ho11  1  0.330281  0.676929  0.436824  1
  Rh  Rh12  1  0.061880  0.881545  0.250839  1
  Rh  Rh13  1  0.438895  0.382589  0.250292  1
  Rh  Rh14  1  0.937944  0.117782  0.749550  1
  Rh  Rh15  1  0.561733  0.617883  0.750056  1
