# generated using pymatgen
data_Ho4Pa4Re(B8W)3
_symmetry_space_group_name_H-M   'P 1'
_cell_length_a   3.73620300
_cell_length_b   9.20284128
_cell_length_c   11.55341136
_cell_angle_alpha   89.97155708
_cell_angle_beta   90.00000000
_cell_angle_gamma   90.00000000
_symmetry_Int_Tables_number   1
_chemical_formula_structural   Ho4Pa4Re(B8W)3
_chemical_formula_sum   'Ho4 Pa4 Re1 B24 W3'
_cell_volume   397.24878713
_cell_formula_units_Z   1
loop_
 _symmetry_equiv_pos_site_id
 _symmetry_equiv_pos_as_xyz
  1  'x, y, z'
loop_
 _atom_site_type_symbol
 _atom_site_label
 _atom_site_symmetry_multiplicity
 _atom_site_fract_x
 _atom_site_fract_y
 _atom_site_fract_z
 _atom_site_occupancy
  Ho  Ho0  1  0.000000  0.946091  0.374981  1
  Ho  Ho1  1  0.000000  0.054247  0.626008  1
  Ho  Ho2  1  0.000000  0.446031  0.125227  1
  Ho  Ho3  1  0.000000  0.554774  0.874342  1
  Pa  Pa4  1  0.000000  0.321896  0.412640  1
  Pa  Pa5  1  0.000000  0.676740  0.586068  1
  Pa  Pa6  1  0.000000  0.822042  0.087822  1
  Pa  Pa7  1  0.000000  0.178617  0.913052  1
  Re  Re8  1  0.000000  0.861635  0.822279  1
  B  B9  1  0.500000  0.552740  0.433336  1
  B  B10  1  0.500000  0.447337  0.566925  1
  B  B11  1  0.500000  0.052386  0.066142  1
  B  B12  1  0.500000  0.946390  0.932322  1
  B  B13  1  0.500000  0.748279  0.421083  1
  B  B14  1  0.500000  0.251735  0.579383  1
  B  B15  1  0.500000  0.248479  0.079024  1
  B  B16  1  0.500000  0.751950  0.919773  1
  B  B17  1  0.500000  0.793917  0.265341  1
  B  B18  1  0.500000  0.206019  0.734741  1
  B  B19  1  0.500000  0.293544  0.234527  1
  B  B20  1  0.500000  0.707629  0.766255  1
  B  B21  1  0.500000  0.633488  0.184850  1
  B  B22  1  0.500000  0.366681  0.815113  1
  B  B23  1  0.500000  0.132923  0.314761  1
  B  B24  1  0.500000  0.867172  0.685997  1
  B  B25  1  0.500000  0.981497  0.213085  1
  B  B26  1  0.500000  0.016657  0.786941  1
  B  B27  1  0.500000  0.481686  0.286631  1
  B  B28  1  0.500000  0.518417  0.713386  1
  B  B29  1  0.500000  0.613231  0.030683  1
  B  B30  1  0.500000  0.387564  0.968622  1
  B  B31  1  0.500000  0.112370  0.468823  1
  B  B32  1  0.500000  0.887391  0.532127  1
  W  W33  1  0.000000  0.638871  0.321849  1
  W  W34  1  0.000000  0.361557  0.678529  1
  W  W35  1  0.000000  0.138016  0.177331  1
