# generated using pymatgen
data_NdTaTiBi2O9
_symmetry_space_group_name_H-M   'P 1'
_cell_length_a   5.49343600
_cell_length_b   5.46300489
_cell_length_c   13.04170406
_cell_angle_alpha   78.08225055
_cell_angle_beta   90.00000000
_cell_angle_gamma   90.00000000
_symmetry_Int_Tables_number   1
_chemical_formula_structural   NdTaTiBi2O9
_chemical_formula_sum   'Nd2 Ta2 Ti2 Bi4 O18'
_cell_volume   382.95385328
_cell_formula_units_Z   2
loop_
 _symmetry_equiv_pos_site_id
 _symmetry_equiv_pos_as_xyz
  1  'x, y, z'
loop_
 _atom_site_type_symbol
 _atom_site_label
 _atom_site_symmetry_multiplicity
 _atom_site_fract_x
 _atom_site_fract_y
 _atom_site_fract_z
 _atom_site_occupancy
  Nd  Nd0  1  0.509088  0.244541  0.999603  1
  Nd  Nd1  1  0.009088  0.755459  0.000397  1
  Ta  Ta2  1  0.541885  0.826461  0.831250  1
  Ta  Ta3  1  0.041885  0.173539  0.168750  1
  Ti  Ti4  1  0.538311  0.666058  0.172703  1
  Ti  Ti5  1  0.038311  0.333942  0.827297  1
  Bi  Bi6  1  0.469389  0.023158  0.398709  1
  Bi  Bi7  1  0.468340  0.422542  0.601722  1
  Bi  Bi8  1  0.969389  0.976842  0.601291  1
  Bi  Bi9  1  0.968340  0.577458  0.398278  1
  O  O10  1  0.739795  0.260464  0.498840  1
  O  O11  1  0.739553  0.758320  0.500957  1
  O  O12  1  0.239795  0.739536  0.501160  1
  O  O13  1  0.239553  0.241680  0.499043  1
  O  O14  1  0.569338  0.676352  0.996669  1
  O  O15  1  0.069338  0.323648  0.003331  1
  O  O16  1  0.845489  0.465158  0.171111  1
  O  O17  1  0.849699  0.628171  0.828901  1
  O  O18  1  0.345489  0.534842  0.828889  1
  O  O19  1  0.349699  0.371829  0.171099  1
  O  O20  1  0.547786  0.673435  0.309161  1
  O  O21  1  0.548436  0.981330  0.687201  1
  O  O22  1  0.047786  0.326565  0.690839  1
  O  O23  1  0.048436  0.018670  0.312799  1
  O  O24  1  0.775595  0.970027  0.123921  1
  O  O25  1  0.777094  0.090757  0.876014  1
  O  O26  1  0.275595  0.029973  0.876079  1
  O  O27  1  0.277094  0.909243  0.123986  1
