# generated using pymatgen
data_PrHoGeO5
_symmetry_space_group_name_H-M   'P 1'
_cell_length_a   8.34138598
_cell_length_b   8.34143686
_cell_length_c   10.85912101
_cell_angle_alpha   61.23628432
_cell_angle_beta   61.23641138
_cell_angle_gamma   49.78435585
_symmetry_Int_Tables_number   1
_chemical_formula_structural   PrHoGeO5
_chemical_formula_sum   'Pr4 Ho4 Ge4 O20'
_cell_volume   489.09400386
_cell_formula_units_Z   4
loop_
 _symmetry_equiv_pos_site_id
 _symmetry_equiv_pos_as_xyz
  1  'x, y, z'
loop_
 _atom_site_type_symbol
 _atom_site_label
 _atom_site_symmetry_multiplicity
 _atom_site_fract_x
 _atom_site_fract_y
 _atom_site_fract_z
 _atom_site_occupancy
  Pr  Pr0  1  0.722079  0.207489  0.963796  1
  Pr  Pr1  1  0.792515  0.277916  0.536200  1
  Pr  Pr2  1  0.277921  0.792511  0.036204  1
  Pr  Pr3  1  0.207485  0.722084  0.463800  1
  Ho  Ho4  1  0.986884  0.735593  0.837608  1
  Ho  Ho5  1  0.264416  0.013111  0.662392  1
  Ho  Ho6  1  0.013116  0.264407  0.162392  1
  Ho  Ho7  1  0.735584  0.986889  0.337608  1
  Ge  Ge8  1  0.778051  0.596096  0.690484  1
  Ge  Ge9  1  0.403897  0.221947  0.809520  1
  Ge  Ge10  1  0.221949  0.403904  0.309516  1
  Ge  Ge11  1  0.596103  0.778053  0.190480  1
  O  O12  1  0.785317  0.628918  0.056860  1
  O  O13  1  0.371085  0.214679  0.443140  1
  O  O14  1  0.214683  0.371082  0.943140  1
  O  O15  1  0.628915  0.785321  0.556860  1
  O  O16  1  0.585989  0.586994  0.359695  1
  O  O17  1  0.413014  0.414004  0.140308  1
  O  O18  1  0.414011  0.413006  0.640305  1
  O  O19  1  0.586986  0.585996  0.859692  1
  O  O20  1  0.948294  0.656858  0.683655  1
  O  O21  1  0.343139  0.051704  0.816350  1
  O  O22  1  0.051706  0.343142  0.316345  1
  O  O23  1  0.656861  0.948296  0.183650  1
  O  O24  1  0.885883  0.080980  0.390484  1
  O  O25  1  0.919025  0.114117  0.109514  1
  O  O26  1  0.114117  0.919020  0.609516  1
  O  O27  1  0.080975  0.885883  0.890486  1
  O  O28  1  0.076575  0.675302  0.325108  1
  O  O29  1  0.324700  0.923430  0.174888  1
  O  O30  1  0.923425  0.324698  0.674892  1
  O  O31  1  0.675300  0.076570  0.825112  1
