# generated using pymatgen
data_Cr20Cu(TcC3)2
_symmetry_space_group_name_H-M   'P 1'
_cell_length_a   7.51079142
_cell_length_b   7.51079122
_cell_length_c   7.51079200
_cell_angle_alpha   59.99999658
_cell_angle_beta   59.99999743
_cell_angle_gamma   59.99999490
_symmetry_Int_Tables_number   1
_chemical_formula_structural   Cr20Cu(TcC3)2
_chemical_formula_sum   'Cr20 Cu1 Tc2 C6'
_cell_volume   299.60019536
_cell_formula_units_Z   1
loop_
 _symmetry_equiv_pos_site_id
 _symmetry_equiv_pos_as_xyz
  1  'x, y, z'
loop_
 _atom_site_type_symbol
 _atom_site_label
 _atom_site_symmetry_multiplicity
 _atom_site_fract_x
 _atom_site_fract_y
 _atom_site_fract_z
 _atom_site_occupancy
  Cr  Cr0  1  0.617200  0.617200  0.148399  1
  Cr  Cr1  1  0.617200  0.148399  0.617200  1
  Cr  Cr2  1  0.148399  0.617200  0.617200  1
  Cr  Cr3  1  0.617200  0.617200  0.617200  1
  Cr  Cr4  1  0.382800  0.382800  0.851601  1
  Cr  Cr5  1  0.382800  0.851601  0.382800  1
  Cr  Cr6  1  0.851601  0.382800  0.382800  1
  Cr  Cr7  1  0.382800  0.382800  0.382800  1
  Cr  Cr8  1  0.000000  0.000000  0.341585  1
  Cr  Cr9  1  0.658415  0.000000  0.341585  1
  Cr  Cr10  1  0.000000  0.658415  0.341585  1
  Cr  Cr11  1  0.658415  0.341585  0.000000  1
  Cr  Cr12  1  0.000000  0.341585  0.000000  1
  Cr  Cr13  1  0.000000  0.341585  0.658415  1
  Cr  Cr14  1  0.341585  0.658415  0.000000  1
  Cr  Cr15  1  0.341585  0.000000  0.658415  1
  Cr  Cr16  1  0.341585  0.000000  0.000000  1
  Cr  Cr17  1  0.000000  0.000000  0.658415  1
  Cr  Cr18  1  0.000000  0.658415  0.000000  1
  Cr  Cr19  1  0.658415  0.000000  0.000000  1
  Cu  Cu20  1  0.000000  0.000000  0.000000  1
  Tc  Tc21  1  0.750000  0.750000  0.750000  1
  Tc  Tc22  1  0.250000  0.250000  0.250000  1
  C  C23  1  0.723277  0.723277  0.276723  1
  C  C24  1  0.276723  0.723277  0.276723  1
  C  C25  1  0.723277  0.276723  0.276723  1
  C  C26  1  0.276723  0.276723  0.723277  1
  C  C27  1  0.723277  0.276723  0.723277  1
  C  C28  1  0.276723  0.723277  0.723277  1
