# generated using pymatgen
data_Pr4Zn4PdRh3
_symmetry_space_group_name_H-M   'P 1'
_cell_length_a   4.04676500
_cell_length_b   7.40887000
_cell_length_c   16.77576500
_cell_angle_alpha   90.00000000
_cell_angle_beta   90.00000000
_cell_angle_gamma   90.00000000
_symmetry_Int_Tables_number   1
_chemical_formula_structural   Pr4Zn4PdRh3
_chemical_formula_sum   'Pr8 Zn8 Pd2 Rh6'
_cell_volume   502.97024483
_cell_formula_units_Z   2
loop_
 _symmetry_equiv_pos_site_id
 _symmetry_equiv_pos_as_xyz
  1  'x, y, z'
loop_
 _atom_site_type_symbol
 _atom_site_label
 _atom_site_symmetry_multiplicity
 _atom_site_fract_x
 _atom_site_fract_y
 _atom_site_fract_z
 _atom_site_occupancy
  Pr  Pr0  1  0.750000  0.455661  0.217957  1
  Pr  Pr1  1  0.750000  0.950509  0.284531  1
  Pr  Pr2  1  0.750000  0.826944  0.060356  1
  Pr  Pr3  1  0.250000  0.044339  0.717957  1
  Pr  Pr4  1  0.250000  0.167519  0.935819  1
  Pr  Pr5  1  0.250000  0.549491  0.784531  1
  Pr  Pr6  1  0.750000  0.332481  0.435819  1
  Pr  Pr7  1  0.250000  0.673056  0.560356  1
  Zn  Zn8  1  0.250000  0.995872  0.437566  1
  Zn  Zn9  1  0.750000  0.504128  0.937566  1
  Zn  Zn10  1  0.750000  0.998931  0.560246  1
  Zn  Zn11  1  0.250000  0.624618  0.349907  1
  Zn  Zn12  1  0.750000  0.378558  0.652898  1
  Zn  Zn13  1  0.750000  0.875382  0.849907  1
  Zn  Zn14  1  0.250000  0.501069  0.060246  1
  Zn  Zn15  1  0.250000  0.121442  0.152898  1
  Pd  Pd16  1  0.250000  0.241874  0.565798  1
  Pd  Pd17  1  0.750000  0.258126  0.065798  1
  Rh  Rh18  1  0.250000  0.247973  0.313919  1
  Rh  Rh19  1  0.750000  0.252027  0.813919  1
  Rh  Rh20  1  0.250000  0.743475  0.935211  1
  Rh  Rh21  1  0.750000  0.751558  0.685793  1
  Rh  Rh22  1  0.750000  0.756525  0.435211  1
  Rh  Rh23  1  0.250000  0.748442  0.185793  1
