# generated using pymatgen
data_Tm3In2GaCoPt2
_symmetry_space_group_name_H-M   'P 1'
_cell_length_a   7.49800464
_cell_length_b   7.51393200
_cell_length_c   3.72261900
_cell_angle_alpha   90.00000000
_cell_angle_beta   90.00000000
_cell_angle_gamma   120.07028624
_symmetry_Int_Tables_number   1
_chemical_formula_structural   Tm3In2GaCoPt2
_chemical_formula_sum   'Tm3 In2 Ga1 Co1 Pt2'
_cell_volume   181.50314793
_cell_formula_units_Z   1
loop_
 _symmetry_equiv_pos_site_id
 _symmetry_equiv_pos_as_xyz
  1  'x, y, z'
loop_
 _atom_site_type_symbol
 _atom_site_label
 _atom_site_symmetry_multiplicity
 _atom_site_fract_x
 _atom_site_fract_y
 _atom_site_fract_z
 _atom_site_occupancy
  Tm  Tm0  1  0.393109  0.399473  0.500000  1
  Tm  Tm1  1  0.606891  0.006364  0.500000  1
  Tm  Tm2  1  0.000000  0.572087  0.500000  1
  In  In3  1  0.758286  0.752524  0.000000  1
  In  In4  1  0.241714  0.994238  0.000000  1
  Ga  Ga5  1  0.000000  0.247952  0.000000  1
  Co  Co6  1  0.000000  0.034372  0.500000  1
  Pt  Pt7  1  0.665902  0.329446  0.000000  1
  Pt  Pt8  1  0.334098  0.663544  0.000000  1
