# generated using pymatgen
data_Tb2Nd2TcB12Ru
_symmetry_space_group_name_H-M   'P 1'
_cell_length_a   3.74347400
_cell_length_b   9.25811875
_cell_length_c   11.69758903
_cell_angle_alpha   89.84113347
_cell_angle_beta   90.00000000
_cell_angle_gamma   90.00000000
_symmetry_Int_Tables_number   1
_chemical_formula_structural   Tb2Nd2TcB12Ru
_chemical_formula_sum   'Tb4 Nd4 Tc2 B24 Ru2'
_cell_volume   405.40794744
_cell_formula_units_Z   2
loop_
 _symmetry_equiv_pos_site_id
 _symmetry_equiv_pos_as_xyz
  1  'x, y, z'
loop_
 _atom_site_type_symbol
 _atom_site_label
 _atom_site_symmetry_multiplicity
 _atom_site_fract_x
 _atom_site_fract_y
 _atom_site_fract_z
 _atom_site_occupancy
  Tb  Tb0  1  0.000000  0.941623  0.369866  1
  Tb  Tb1  1  0.000000  0.058377  0.630134  1
  Tb  Tb2  1  0.000000  0.442948  0.130734  1
  Tb  Tb3  1  0.000000  0.557052  0.869266  1
  Nd  Nd4  1  0.000000  0.324776  0.415088  1
  Nd  Nd5  1  0.000000  0.675224  0.584912  1
  Nd  Nd6  1  0.000000  0.822043  0.087021  1
  Nd  Nd7  1  0.000000  0.177957  0.912979  1
  Tc  Tc8  1  0.000000  0.639343  0.319240  1
  Tc  Tc9  1  0.000000  0.360657  0.680760  1
  B  B10  1  0.500000  0.554750  0.430881  1
  B  B11  1  0.500000  0.445250  0.569119  1
  B  B12  1  0.500000  0.055535  0.069391  1
  B  B13  1  0.500000  0.944465  0.930609  1
  B  B14  1  0.500000  0.748509  0.416771  1
  B  B15  1  0.500000  0.251491  0.583229  1
  B  B16  1  0.500000  0.248612  0.083208  1
  B  B17  1  0.500000  0.751388  0.916792  1
  B  B18  1  0.500000  0.789934  0.266337  1
  B  B19  1  0.500000  0.210066  0.733663  1
  B  B20  1  0.500000  0.289164  0.233141  1
  B  B21  1  0.500000  0.710836  0.766859  1
  B  B22  1  0.500000  0.630637  0.186228  1
  B  B23  1  0.500000  0.369363  0.813772  1
  B  B24  1  0.500000  0.130142  0.312926  1
  B  B25  1  0.500000  0.869858  0.687074  1
  B  B26  1  0.500000  0.985402  0.212471  1
  B  B27  1  0.500000  0.014598  0.787529  1
  B  B28  1  0.500000  0.485251  0.287022  1
  B  B29  1  0.500000  0.514749  0.712978  1
  B  B30  1  0.500000  0.600995  0.027746  1
  B  B31  1  0.500000  0.399005  0.972254  1
  B  B32  1  0.500000  0.100323  0.472175  1
  B  B33  1  0.500000  0.899677  0.527825  1
  Ru  Ru34  1  0.000000  0.138389  0.179609  1
  Ru  Ru35  1  0.000000  0.861611  0.820391  1
