# generated using pymatgen
data_Dy7Er6Lu3(CdPt)4
_symmetry_space_group_name_H-M   'P 1'
_cell_length_a   9.61632572
_cell_length_b   9.61118650
_cell_length_c   9.60026037
_cell_angle_alpha   60.07300911
_cell_angle_beta   60.01985486
_cell_angle_gamma   60.14446870
_symmetry_Int_Tables_number   1
_chemical_formula_structural   Dy7Er6Lu3(CdPt)4
_chemical_formula_sum   'Dy7 Er6 Lu3 Cd4 Pt4'
_cell_volume   628.53726800
_cell_formula_units_Z   1
loop_
 _symmetry_equiv_pos_site_id
 _symmetry_equiv_pos_as_xyz
  1  'x, y, z'
loop_
 _atom_site_type_symbol
 _atom_site_label
 _atom_site_symmetry_multiplicity
 _atom_site_fract_x
 _atom_site_fract_y
 _atom_site_fract_z
 _atom_site_occupancy
  Dy  Dy0  1  0.812673  0.812673  0.187327  1
  Dy  Dy1  1  0.936946  0.563071  0.564331  1
  Dy  Dy2  1  0.563071  0.936946  0.935651  1
  Dy  Dy3  1  0.563255  0.936968  0.564234  1
  Dy  Dy4  1  0.936968  0.563254  0.935542  1
  Dy  Dy5  1  0.565085  0.565085  0.934915  1
  Dy  Dy6  1  0.937555  0.937555  0.562444  1
  Er  Er7  1  0.351315  0.352029  0.351486  1
  Er  Er8  1  0.352029  0.351315  0.945170  1
  Er  Er9  1  0.353038  0.941444  0.352490  1
  Er  Er10  1  0.941444  0.353038  0.353030  1
  Er  Er11  1  0.812181  0.189471  0.187448  1
  Er  Er12  1  0.189471  0.812181  0.810899  1
  Lu  Lu13  1  0.189750  0.811820  0.187959  1
  Lu  Lu14  1  0.811820  0.189750  0.810471  1
  Lu  Lu15  1  0.188536  0.188536  0.811464  1
  Cd  Cd16  1  0.580723  0.580468  0.582718  1
  Cd  Cd17  1  0.580468  0.580723  0.256090  1
  Cd  Cd18  1  0.580406  0.254925  0.582485  1
  Cd  Cd19  1  0.254925  0.580406  0.582182  1
  Pt  Pt20  1  0.142971  0.141290  0.144328  1
  Pt  Pt21  1  0.141290  0.142971  0.571413  1
  Pt  Pt22  1  0.143546  0.570537  0.143786  1
  Pt  Pt23  1  0.570537  0.143546  0.142133  1
