# generated using pymatgen
data_Li3V2Ni9P7
_symmetry_space_group_name_H-M   'P 1'
_cell_length_a   9.05934619
_cell_length_b   9.04814636
_cell_length_c   3.58447200
_cell_angle_alpha   90.00000000
_cell_angle_beta   90.00000000
_cell_angle_gamma   119.75523267
_symmetry_Int_Tables_number   1
_chemical_formula_structural   Li3V2Ni9P7
_chemical_formula_sum   'Li3 V2 Ni9 P7'
_cell_volume   255.08104162
_cell_formula_units_Z   1
loop_
 _symmetry_equiv_pos_site_id
 _symmetry_equiv_pos_as_xyz
  1  'x, y, z'
loop_
 _atom_site_type_symbol
 _atom_site_label
 _atom_site_symmetry_multiplicity
 _atom_site_fract_x
 _atom_site_fract_y
 _atom_site_fract_z
 _atom_site_occupancy
  Li  Li0  1  0.222599  0.099889  0.500000  1
  Li  Li1  1  0.332675  0.665906  0.000000  1
  Li  Li2  1  0.666992  0.333831  0.500000  1
  V  V3  1  0.872542  0.781542  0.500000  1
  V  V4  1  0.902439  0.122132  0.500000  1
  Ni  Ni5  1  0.711287  0.877132  0.000000  1
  Ni  Ni6  1  0.165993  0.281586  0.000000  1
  Ni  Ni7  1  0.124108  0.842048  0.000000  1
  Ni  Ni8  1  0.626715  0.567721  0.000000  1
  Ni  Ni9  1  0.939716  0.373313  0.000000  1
  Ni  Ni10  1  0.435049  0.061216  0.000000  1
  Ni  Ni11  1  0.560363  0.948597  0.500000  1
  Ni  Ni12  1  0.388811  0.434640  0.500000  1
  Ni  Ni13  1  0.050351  0.612103  0.500000  1
  P  P14  1  0.584591  0.709694  0.500000  1
  P  P15  1  0.122820  0.411555  0.500000  1
  P  P16  1  0.289521  0.871160  0.500000  1
  P  P17  1  0.993901  0.997604  0.000000  1
  P  P18  1  0.879876  0.585649  0.000000  1
  P  P19  1  0.704534  0.122688  0.000000  1
  P  P20  1  0.425116  0.299995  0.000000  1
