# generated using pymatgen
data_Zr3ScMo8
_symmetry_space_group_name_H-M   'P 1'
_cell_length_a   9.35400756
_cell_length_b   9.35400793
_cell_length_c   9.35400851
_cell_angle_alpha   33.43205624
_cell_angle_beta   33.43205074
_cell_angle_gamma   33.43205902
_symmetry_Int_Tables_number   1
_chemical_formula_structural   Zr3ScMo8
_chemical_formula_sum   'Zr3 Sc1 Mo8'
_cell_volume   221.24202797
_cell_formula_units_Z   1
loop_
 _symmetry_equiv_pos_site_id
 _symmetry_equiv_pos_as_xyz
  1  'x, y, z'
loop_
 _atom_site_type_symbol
 _atom_site_label
 _atom_site_symmetry_multiplicity
 _atom_site_fract_x
 _atom_site_fract_y
 _atom_site_fract_z
 _atom_site_occupancy
  Zr  Zr0  1  0.624923  0.624923  0.624923  1
  Zr  Zr1  1  0.000334  0.000334  0.000334  1
  Zr  Zr2  1  0.499883  0.499883  0.499883  1
  Sc  Sc3  1  0.125060  0.125060  0.125060  1
  Mo  Mo4  1  0.562432  0.062848  0.562432  1
  Mo  Mo5  1  0.062630  0.561913  0.062630  1
  Mo  Mo6  1  0.062848  0.562432  0.562432  1
  Mo  Mo7  1  0.561913  0.062630  0.062630  1
  Mo  Mo8  1  0.812392  0.812392  0.812392  1
  Mo  Mo9  1  0.312523  0.312523  0.312523  1
  Mo  Mo10  1  0.562432  0.562432  0.062848  1
  Mo  Mo11  1  0.062630  0.062630  0.561913  1
