# generated using pymatgen
data_Tb14Pr2MgAg3Ir4
_symmetry_space_group_name_H-M   'P 1'
_cell_length_a   9.67892212
_cell_length_b   9.68829229
_cell_length_c   9.67665400
_cell_angle_alpha   60.03972304
_cell_angle_beta   60.00774465
_cell_angle_gamma   59.80545780
_symmetry_Int_Tables_number   1
_chemical_formula_structural   Tb14Pr2MgAg3Ir4
_chemical_formula_sum   'Tb14 Pr2 Mg1 Ag3 Ir4'
_cell_volume   640.90997453
_cell_formula_units_Z   1
loop_
 _symmetry_equiv_pos_site_id
 _symmetry_equiv_pos_as_xyz
  1  'x, y, z'
loop_
 _atom_site_type_symbol
 _atom_site_label
 _atom_site_symmetry_multiplicity
 _atom_site_fract_x
 _atom_site_fract_y
 _atom_site_fract_z
 _atom_site_occupancy
  Tb  Tb0  1  0.348826  0.348778  0.346694  1
  Tb  Tb1  1  0.348826  0.348778  0.955702  1
  Tb  Tb2  1  0.347154  0.957039  0.347904  1
  Tb  Tb3  1  0.944140  0.351050  0.352406  1
  Tb  Tb4  1  0.809730  0.188417  0.190023  1
  Tb  Tb5  1  0.185035  0.813620  0.814360  1
  Tb  Tb6  1  0.185035  0.813620  0.186985  1
  Tb  Tb7  1  0.809730  0.188417  0.811829  1
  Tb  Tb8  1  0.187121  0.187974  0.812453  1
  Tb  Tb9  1  0.808259  0.809178  0.191281  1
  Tb  Tb10  1  0.937785  0.558098  0.560776  1
  Tb  Tb11  1  0.559557  0.940625  0.940080  1
  Tb  Tb12  1  0.559557  0.940625  0.559739  1
  Tb  Tb13  1  0.937785  0.558098  0.943342  1
  Pr  Pr14  1  0.564951  0.565915  0.934568  1
  Pr  Pr15  1  0.935614  0.931830  0.566279  1
  Mg  Mg16  1  0.292097  0.569321  0.569291  1
  Ag  Ag17  1  0.584160  0.586260  0.578448  1
  Ag  Ag18  1  0.584160  0.586260  0.251133  1
  Ag  Ag19  1  0.577132  0.252067  0.585401  1
  Ir  Ir20  1  0.140951  0.145685  0.138880  1
  Ir  Ir21  1  0.140951  0.145685  0.574483  1
  Ir  Ir22  1  0.136844  0.573638  0.144758  1
  Ir  Ir23  1  0.574597  0.139027  0.143187  1
