# generated using pymatgen
data_Ho2Al8ReSiPd2
_symmetry_space_group_name_H-M   'P 1'
_cell_length_a   7.59547119
_cell_length_b   7.59547115
_cell_length_c   9.39208000
_cell_angle_alpha   90.00000000
_cell_angle_beta   90.00000000
_cell_angle_gamma   119.21110782
_symmetry_Int_Tables_number   1
_chemical_formula_structural   Ho2Al8ReSiPd2
_chemical_formula_sum   'Ho4 Al16 Re2 Si2 Pd4'
_cell_volume   472.93301599
_cell_formula_units_Z   2
loop_
 _symmetry_equiv_pos_site_id
 _symmetry_equiv_pos_as_xyz
  1  'x, y, z'
loop_
 _atom_site_type_symbol
 _atom_site_label
 _atom_site_symmetry_multiplicity
 _atom_site_fract_x
 _atom_site_fract_y
 _atom_site_fract_z
 _atom_site_occupancy
  Ho  Ho0  1  0.994735  0.679935  0.250000  1
  Ho  Ho1  1  0.005265  0.320065  0.750000  1
  Ho  Ho2  1  0.679935  0.994735  0.250000  1
  Ho  Ho3  1  0.320065  0.005265  0.750000  1
  Al  Al4  1  0.001765  0.334943  0.078475  1
  Al  Al5  1  0.998235  0.665057  0.921525  1
  Al  Al6  1  0.998235  0.665057  0.578475  1
  Al  Al7  1  0.334943  0.001765  0.421525  1
  Al  Al8  1  0.001765  0.334943  0.421525  1
  Al  Al9  1  0.665057  0.998235  0.578475  1
  Al  Al10  1  0.665057  0.998235  0.921525  1
  Al  Al11  1  0.334943  0.001765  0.078475  1
  Al  Al12  1  0.332034  0.332034  0.555927  1
  Al  Al13  1  0.667966  0.667967  0.444073  1
  Al  Al14  1  0.667966  0.667967  0.055927  1
  Al  Al15  1  0.332034  0.332034  0.944073  1
  Al  Al16  1  0.339559  0.549394  0.250000  1
  Al  Al17  1  0.660441  0.450606  0.750000  1
  Al  Al18  1  0.549394  0.339559  0.250000  1
  Al  Al19  1  0.450606  0.660441  0.750000  1
  Re  Re20  1  0.000000  0.000000  0.000000  1
  Re  Re21  1  0.000000  0.000000  0.500000  1
  Si  Si22  1  0.127005  0.127005  0.250000  1
  Si  Si23  1  0.872995  0.872995  0.750000  1
  Pd  Pd24  1  0.672351  0.327649  0.000000  1
  Pd  Pd25  1  0.327649  0.672351  0.000000  1
  Pd  Pd26  1  0.327649  0.672351  0.500000  1
  Pd  Pd27  1  0.672351  0.327649  0.500000  1
