# generated using pymatgen
data_LaNd3(SeO4)6
_symmetry_space_group_name_H-M   'P 1'
_cell_length_a   10.29565195
_cell_length_b   10.29563689
_cell_length_c   10.29562819
_cell_angle_alpha   58.03136924
_cell_angle_beta   58.03118333
_cell_angle_gamma   58.03124479
_symmetry_Int_Tables_number   1
_chemical_formula_structural   LaNd3(SeO4)6
_chemical_formula_sum   'La1 Nd3 Se6 O24'
_cell_volume   736.84944089
_cell_formula_units_Z   1
loop_
 _symmetry_equiv_pos_site_id
 _symmetry_equiv_pos_as_xyz
  1  'x, y, z'
loop_
 _atom_site_type_symbol
 _atom_site_label
 _atom_site_symmetry_multiplicity
 _atom_site_fract_x
 _atom_site_fract_y
 _atom_site_fract_z
 _atom_site_occupancy
  La  La0  1  0.857981  0.857976  0.857981  1
  Nd  Nd1  1  0.643169  0.643175  0.643171  1
  Nd  Nd2  1  0.357723  0.357726  0.357724  1
  Nd  Nd3  1  0.142930  0.142936  0.142927  1
  Se  Se4  1  0.751245  0.034253  0.463051  1
  Se  Se5  1  0.966074  0.530774  0.254086  1
  Se  Se6  1  0.530775  0.254087  0.966072  1
  Se  Se7  1  0.463051  0.751246  0.034253  1
  Se  Se8  1  0.034252  0.463056  0.751245  1
  Se  Se9  1  0.254084  0.966071  0.530777  1
  O  O10  1  0.914875  0.060886  0.297829  1
  O  O11  1  0.775654  0.005737  0.624909  1
  O  O12  1  0.995020  0.370288  0.227302  1
  O  O13  1  0.696885  0.090918  0.939749  1
  O  O14  1  0.588582  0.200035  0.435238  1
  O  O15  1  0.872118  0.492776  0.726369  1
  O  O16  1  0.501472  0.280275  0.126887  1
  O  O17  1  0.800454  0.556982  0.417464  1
  O  O18  1  0.939749  0.696885  0.090917  1
  O  O19  1  0.556987  0.417460  0.800454  1
  O  O20  1  0.370290  0.227302  0.995019  1
  O  O21  1  0.280275  0.126887  0.501475  1
  O  O22  1  0.726368  0.872121  0.492777  1
  O  O23  1  0.624909  0.775653  0.005736  1
  O  O24  1  0.435238  0.588581  0.200036  1
  O  O25  1  0.060887  0.297829  0.914876  1
  O  O26  1  0.200038  0.435237  0.588581  1
  O  O27  1  0.492777  0.726369  0.872119  1
  O  O28  1  0.126889  0.501472  0.280275  1
  O  O29  1  0.417460  0.800454  0.556984  1
  O  O30  1  0.297829  0.914877  0.060885  1
  O  O31  1  0.005737  0.624909  0.775655  1
  O  O32  1  0.227304  0.995017  0.370287  1
  O  O33  1  0.090917  0.939746  0.696889  1
