# generated using pymatgen
data_Dy10Er10CoBi8Ir3
_symmetry_space_group_name_H-M   'P 1'
_cell_length_a   7.96523487
_cell_length_b   8.96509900
_cell_length_c   12.47303782
_cell_angle_alpha   90.00000000
_cell_angle_beta   90.22761153
_cell_angle_gamma   90.00000000
_symmetry_Int_Tables_number   1
_chemical_formula_structural   Dy10Er10CoBi8Ir3
_chemical_formula_sum   'Dy10 Er10 Co1 Bi8 Ir3'
_cell_volume   890.68161681
_cell_formula_units_Z   1
loop_
 _symmetry_equiv_pos_site_id
 _symmetry_equiv_pos_as_xyz
  1  'x, y, z'
loop_
 _atom_site_type_symbol
 _atom_site_label
 _atom_site_symmetry_multiplicity
 _atom_site_fract_x
 _atom_site_fract_y
 _atom_site_fract_z
 _atom_site_occupancy
  Dy  Dy0  1  0.657539  0.750000  0.699998  1
  Dy  Dy1  1  0.338856  0.250000  0.292765  1
  Dy  Dy2  1  0.160704  0.250000  0.792933  1
  Dy  Dy3  1  0.839103  0.750000  0.206977  1
  Dy  Dy4  1  0.123383  0.750000  0.807826  1
  Dy  Dy5  1  0.874928  0.250000  0.191661  1
  Dy  Dy6  1  0.624747  0.250000  0.691716  1
  Dy  Dy7  1  0.380483  0.750000  0.314278  1
  Dy  Dy8  1  0.447206  0.250000  0.001293  1
  Dy  Dy9  1  0.054823  0.250000  0.501564  1
  Er  Er10  1  0.556637  0.750000  0.997375  1
  Er  Er11  1  0.946674  0.750000  0.498345  1
  Er  Er12  1  0.826003  0.457554  0.933338  1
  Er  Er13  1  0.175073  0.542161  0.066617  1
  Er  Er14  1  0.325705  0.544037  0.565418  1
  Er  Er15  1  0.175073  0.957839  0.066617  1
  Er  Er16  1  0.672676  0.464688  0.435983  1
  Er  Er17  1  0.826003  0.042446  0.933338  1
  Er  Er18  1  0.672676  0.035312  0.435983  1
  Er  Er19  1  0.325705  0.955963  0.565418  1
  Co  Co20  1  0.567419  0.750000  0.492240  1
  Bi  Bi21  1  0.932383  0.008285  0.671789  1
  Bi  Bi22  1  0.066165  0.990530  0.327942  1
  Bi  Bi23  1  0.434129  0.990171  0.826722  1
  Bi  Bi24  1  0.066165  0.509470  0.327942  1
  Bi  Bi25  1  0.565817  0.007495  0.173339  1
  Bi  Bi26  1  0.932383  0.491715  0.671789  1
  Bi  Bi27  1  0.565817  0.492505  0.173339  1
  Bi  Bi28  1  0.434129  0.509829  0.826722  1
  Ir  Ir29  1  0.929156  0.750000  0.991817  1
  Ir  Ir30  1  0.071956  0.250000  0.008944  1
  Ir  Ir31  1  0.430480  0.250000  0.507969  1
