# generated using pymatgen
data_SrFeNi(Sb6Os)2
_symmetry_space_group_name_H-M   'P 1'
_cell_length_a   8.06741500
_cell_length_b   8.12187546
_cell_length_c   8.05829144
_cell_angle_alpha   109.53687063
_cell_angle_beta   109.11672372
_cell_angle_gamma   109.50996816
_symmetry_Int_Tables_number   1
_chemical_formula_structural   SrFeNi(Sb6Os)2
_chemical_formula_sum   'Sr1 Fe1 Ni1 Sb12 Os2'
_cell_volume   407.69894478
_cell_formula_units_Z   1
loop_
 _symmetry_equiv_pos_site_id
 _symmetry_equiv_pos_as_xyz
  1  'x, y, z'
loop_
 _atom_site_type_symbol
 _atom_site_label
 _atom_site_symmetry_multiplicity
 _atom_site_fract_x
 _atom_site_fract_y
 _atom_site_fract_z
 _atom_site_occupancy
  Sr  Sr0  1  0.000000  0.000000  0.000000  1
  Fe  Fe1  1  0.500000  0.500000  0.500000  1
  Ni  Ni2  1  0.000000  0.500000  0.000000  1
  Sb  Sb3  1  0.343492  0.167524  0.498180  1
  Sb  Sb4  1  0.339614  0.840186  0.184590  1
  Sb  Sb5  1  0.660386  0.159814  0.815410  1
  Sb  Sb6  1  0.815808  0.656528  0.155642  1
  Sb  Sb7  1  0.164442  0.497618  0.342172  1
  Sb  Sb8  1  0.502084  0.658176  0.833992  1
  Sb  Sb9  1  0.842167  0.183330  0.341915  1
  Sb  Sb10  1  0.656508  0.832476  0.501820  1
  Sb  Sb11  1  0.184192  0.343472  0.844358  1
  Sb  Sb12  1  0.157833  0.816670  0.658085  1
  Sb  Sb13  1  0.497916  0.341824  0.166008  1
  Sb  Sb14  1  0.835558  0.502382  0.657828  1
  Os  Os15  1  0.500000  0.000000  0.000000  1
  Os  Os16  1  0.000000  0.000000  0.500000  1
