# generated using pymatgen
data_La4InCo2Au
_symmetry_space_group_name_H-M   'P 1'
_cell_length_a   9.08776967
_cell_length_b   9.08776993
_cell_length_c   9.08777100
_cell_angle_alpha   130.98086822
_cell_angle_beta   130.98086126
_cell_angle_gamma   71.84348017
_symmetry_Int_Tables_number   1
_chemical_formula_structural   La4InCo2Au
_chemical_formula_sum   'La8 In2 Co4 Au2'
_cell_volume   418.40043401
_cell_formula_units_Z   2
loop_
 _symmetry_equiv_pos_site_id
 _symmetry_equiv_pos_as_xyz
  1  'x, y, z'
loop_
 _atom_site_type_symbol
 _atom_site_label
 _atom_site_symmetry_multiplicity
 _atom_site_fract_x
 _atom_site_fract_y
 _atom_site_fract_z
 _atom_site_occupancy
  La  La0  1  0.794791  0.294791  0.842515  1
  La  La1  1  0.205209  0.705209  0.157486  1
  La  La2  1  0.452379  0.952379  0.157679  1
  La  La3  1  0.295278  0.451535  0.500025  1
  La  La4  1  0.048465  0.204722  0.499975  1
  La  La5  1  0.547621  0.047621  0.842321  1
  La  La6  1  0.704722  0.548465  0.499975  1
  La  La7  1  0.951535  0.795278  0.500025  1
  In  In8  1  0.000000  0.000000  0.000000  1
  In  In9  1  0.500000  0.500000  0.000000  1
  Co  Co10  1  0.132450  0.632450  0.764898  1
  Co  Co11  1  0.867550  0.367550  0.235102  1
  Co  Co12  1  0.632829  0.867171  0.500000  1
  Co  Co13  1  0.367171  0.132829  0.500000  1
  Au  Au14  1  0.250019  0.249981  0.000000  1
  Au  Au15  1  0.749981  0.750019  0.000000  1
