# generated using pymatgen
data_Tb2Er3CoBi2
_symmetry_space_group_name_H-M   'P 1'
_cell_length_a   7.96361200
_cell_length_b   8.88298800
_cell_length_c   12.40231300
_cell_angle_alpha   90.00000000
_cell_angle_beta   90.00000000
_cell_angle_gamma   90.00000000
_symmetry_Int_Tables_number   1
_chemical_formula_structural   Tb2Er3CoBi2
_chemical_formula_sum   'Tb8 Er12 Co4 Bi8'
_cell_volume   877.34792909
_cell_formula_units_Z   4
loop_
 _symmetry_equiv_pos_site_id
 _symmetry_equiv_pos_as_xyz
  1  'x, y, z'
loop_
 _atom_site_type_symbol
 _atom_site_label
 _atom_site_symmetry_multiplicity
 _atom_site_fract_x
 _atom_site_fract_y
 _atom_site_fract_z
 _atom_site_occupancy
  Tb  Tb0  1  0.655960  0.750000  0.700408  1
  Tb  Tb1  1  0.344040  0.250000  0.299592  1
  Tb  Tb2  1  0.155960  0.250000  0.799592  1
  Tb  Tb3  1  0.844040  0.750000  0.200408  1
  Tb  Tb4  1  0.125070  0.750000  0.814168  1
  Tb  Tb5  1  0.874930  0.250000  0.185832  1
  Tb  Tb6  1  0.625070  0.250000  0.685832  1
  Tb  Tb7  1  0.374930  0.750000  0.314168  1
  Er  Er8  1  0.554118  0.750000  0.996372  1
  Er  Er9  1  0.445882  0.250000  0.003628  1
  Er  Er10  1  0.054118  0.250000  0.503628  1
  Er  Er11  1  0.945882  0.750000  0.496372  1
  Er  Er12  1  0.827434  0.463611  0.935075  1
  Er  Er13  1  0.172566  0.536389  0.064925  1
  Er  Er14  1  0.327434  0.536389  0.564925  1
  Er  Er15  1  0.172566  0.963611  0.064925  1
  Er  Er16  1  0.672566  0.463611  0.435075  1
  Er  Er17  1  0.827434  0.036389  0.935075  1
  Er  Er18  1  0.672566  0.036389  0.435075  1
  Er  Er19  1  0.327434  0.963611  0.564925  1
  Co  Co20  1  0.936758  0.750000  0.993158  1
  Co  Co21  1  0.063242  0.250000  0.006842  1
  Co  Co22  1  0.436758  0.250000  0.506842  1
  Co  Co23  1  0.563242  0.750000  0.493158  1
  Bi  Bi24  1  0.935933  0.006059  0.672011  1
  Bi  Bi25  1  0.064067  0.993941  0.327989  1
  Bi  Bi26  1  0.435933  0.993941  0.827989  1
  Bi  Bi27  1  0.064067  0.506059  0.327989  1
  Bi  Bi28  1  0.564067  0.006059  0.172011  1
  Bi  Bi29  1  0.935933  0.493941  0.672011  1
  Bi  Bi30  1  0.564067  0.493941  0.172011  1
  Bi  Bi31  1  0.435933  0.506059  0.827989  1
