# generated using pymatgen
data_Er8Zr12Si15Pb
_symmetry_space_group_name_H-M   'P 1'
_cell_length_a   7.38529856
_cell_length_b   7.34977377
_cell_length_c   13.51154544
_cell_angle_alpha   89.99425854
_cell_angle_beta   89.75716302
_cell_angle_gamma   89.87464577
_symmetry_Int_Tables_number   1
_chemical_formula_structural   Er8Zr12Si15Pb
_chemical_formula_sum   'Er8 Zr12 Si15 Pb1'
_cell_volume   733.40203814
_cell_formula_units_Z   1
loop_
 _symmetry_equiv_pos_site_id
 _symmetry_equiv_pos_as_xyz
  1  'x, y, z'
loop_
 _atom_site_type_symbol
 _atom_site_label
 _atom_site_symmetry_multiplicity
 _atom_site_fract_x
 _atom_site_fract_y
 _atom_site_fract_z
 _atom_site_occupancy
  Er  Er0  1  0.348847  0.999814  0.458410  1
  Er  Er1  1  0.504917  0.838121  0.716353  1
  Er  Er2  1  0.503649  0.154642  0.214291  1
  Er  Er3  1  0.845464  0.495653  0.284247  1
  Er  Er4  1  0.152935  0.512570  0.789726  1
  Er  Er5  1  0.656917  0.995019  0.967157  1
  Er  Er6  1  0.990259  0.354887  0.528547  1
  Er  Er7  1  0.997541  0.653373  0.037149  1
  Zr  Zr8  1  0.324413  0.324752  0.001109  1
  Zr  Zr9  1  0.175637  0.824512  0.249554  1
  Zr  Zr10  1  0.816600  0.173807  0.752700  1
  Zr  Zr11  1  0.673273  0.675276  0.498541  1
  Zr  Zr12  1  0.147463  0.003206  0.880765  1
  Zr  Zr13  1  0.496980  0.645763  0.125438  1
  Zr  Zr14  1  0.513278  0.361699  0.626502  1
  Zr  Zr15  1  0.649087  0.497949  0.877297  1
  Zr  Zr16  1  0.352531  0.505183  0.373664  1
  Zr  Zr17  1  0.851602  0.997352  0.374549  1
  Zr  Zr18  1  0.004333  0.147225  0.125216  1
  Zr  Zr19  1  0.982730  0.839365  0.620354  1
  Si  Si20  1  0.361162  0.706141  0.934870  1
  Si  Si21  1  0.636986  0.293755  0.431634  1
  Si  Si22  1  0.707323  0.359545  0.068479  1
  Si  Si23  1  0.294092  0.641388  0.566567  1
  Si  Si24  1  0.793693  0.860087  0.182557  1
  Si  Si25  1  0.139629  0.206075  0.316658  1
  Si  Si26  1  0.861320  0.795464  0.818249  1
  Si  Si27  1  0.298421  0.949916  0.064974  1
  Si  Si28  1  0.551992  0.795436  0.311705  1
  Si  Si29  1  0.459152  0.203335  0.819959  1
  Si  Si30  1  0.799675  0.547582  0.689038  1
  Si  Si31  1  0.203709  0.449481  0.186753  1
  Si  Si32  1  0.700416  0.051257  0.562908  1
  Si  Si33  1  0.950454  0.297033  0.937251  1
  Si  Si34  1  0.050631  0.705500  0.433935  1
  Pb  Pb35  1  0.202887  0.137836  0.672892  1
