# generated using pymatgen
data_Nd2YMg3Ga2Hg
_symmetry_space_group_name_H-M   'P 1'
_cell_length_a   7.50336899
_cell_length_b   7.56216748
_cell_length_c   4.49001100
_cell_angle_alpha   90.00000000
_cell_angle_beta   90.00000000
_cell_angle_gamma   120.25955866
_symmetry_Int_Tables_number   1
_chemical_formula_structural   Nd2YMg3Ga2Hg
_chemical_formula_sum   'Nd2 Y1 Mg3 Ga2 Hg1'
_cell_volume   220.05882493
_cell_formula_units_Z   1
loop_
 _symmetry_equiv_pos_site_id
 _symmetry_equiv_pos_as_xyz
  1  'x, y, z'
loop_
 _atom_site_type_symbol
 _atom_site_label
 _atom_site_symmetry_multiplicity
 _atom_site_fract_x
 _atom_site_fract_y
 _atom_site_fract_z
 _atom_site_occupancy
  Nd  Nd0  1  0.574236  0.573524  0.000000  1
  Nd  Nd1  1  0.425764  0.999287  0.000000  1
  Y  Y2  1  0.000000  0.424938  0.000000  1
  Mg  Mg3  1  0.000000  0.750753  0.500000  1
  Mg  Mg4  1  0.246494  0.248270  0.500000  1
  Mg  Mg5  1  0.753506  0.001776  0.500000  1
  Ga  Ga6  1  0.670764  0.334352  0.500000  1
  Ga  Ga7  1  0.329236  0.663589  0.500000  1
  Hg  Hg8  1  0.000000  0.003512  0.000000  1
