# generated using pymatgen
data_NdU(SnRh)2
_symmetry_space_group_name_H-M   'P 1'
_cell_length_a   7.47866200
_cell_length_b   7.47866312
_cell_length_c   8.18348700
_cell_angle_alpha   90.00000000
_cell_angle_beta   90.00000000
_cell_angle_gamma   120.00000387
_symmetry_Int_Tables_number   1
_chemical_formula_structural   NdU(SnRh)2
_chemical_formula_sum   'Nd3 U3 Sn6 Rh6'
_cell_volume   396.38470485
_cell_formula_units_Z   3
loop_
 _symmetry_equiv_pos_site_id
 _symmetry_equiv_pos_as_xyz
  1  'x, y, z'
loop_
 _atom_site_type_symbol
 _atom_site_label
 _atom_site_symmetry_multiplicity
 _atom_site_fract_x
 _atom_site_fract_y
 _atom_site_fract_z
 _atom_site_occupancy
  Nd  Nd0  1  0.000030  0.412214  0.750000  1
  Nd  Nd1  1  0.587786  0.587816  0.750000  1
  Nd  Nd2  1  0.412184  0.999970  0.750000  1
  U  U3  1  0.999516  0.413119  0.250000  1
  U  U4  1  0.586881  0.586398  0.250000  1
  U  U5  1  0.413602  0.000484  0.250000  1
  Sn  Sn6  1  0.253319  0.253517  0.498481  1
  Sn  Sn7  1  0.000198  0.746681  0.498481  1
  Sn  Sn8  1  0.000198  0.746681  0.001519  1
  Sn  Sn9  1  0.746483  0.999802  0.498481  1
  Sn  Sn10  1  0.746483  0.999802  0.001519  1
  Sn  Sn11  1  0.253319  0.253517  0.001519  1
  Rh  Rh12  1  0.333333  0.666667  0.460860  1
  Rh  Rh13  1  0.666667  0.333333  0.461844  1
  Rh  Rh14  1  0.333333  0.666667  0.039140  1
  Rh  Rh15  1  0.000000  0.000000  0.750000  1
  Rh  Rh16  1  0.000000  0.000000  0.250000  1
  Rh  Rh17  1  0.666667  0.333333  0.038156  1
