# generated using pymatgen
data_Er2Ni9As7Pd3
_symmetry_space_group_name_H-M   'P 1'
_cell_length_a   9.51344600
_cell_length_b   9.51344484
_cell_length_c   3.88534900
_cell_angle_alpha   90.00000000
_cell_angle_beta   90.00000000
_cell_angle_gamma   120.00001098
_symmetry_Int_Tables_number   1
_chemical_formula_structural   Er2Ni9As7Pd3
_chemical_formula_sum   'Er2 Ni9 As7 Pd3'
_cell_volume   304.53434635
_cell_formula_units_Z   1
loop_
 _symmetry_equiv_pos_site_id
 _symmetry_equiv_pos_as_xyz
  1  'x, y, z'
loop_
 _atom_site_type_symbol
 _atom_site_label
 _atom_site_symmetry_multiplicity
 _atom_site_fract_x
 _atom_site_fract_y
 _atom_site_fract_z
 _atom_site_occupancy
  Er  Er0  1  0.333333  0.666667  0.000000  1
  Er  Er1  1  0.000000  0.000000  0.500000  1
  Ni  Ni2  1  0.284815  0.387058  0.500000  1
  Ni  Ni3  1  0.612942  0.897756  0.500000  1
  Ni  Ni4  1  0.102244  0.715185  0.500000  1
  Ni  Ni5  1  0.510979  0.460633  0.000000  1
  Ni  Ni6  1  0.539367  0.050347  0.000000  1
  Ni  Ni7  1  0.949653  0.489021  0.000000  1
  Ni  Ni8  1  0.729745  0.762915  0.000000  1
  Ni  Ni9  1  0.237085  0.966830  0.000000  1
  Ni  Ni10  1  0.033170  0.270255  0.000000  1
  As  As11  1  0.971791  0.749244  0.000000  1
  As  As12  1  0.250756  0.222547  0.000000  1
  As  As13  1  0.777453  0.028209  0.000000  1
  As  As14  1  0.666667  0.333333  0.000000  1
  As  As15  1  0.548027  0.628578  0.500000  1
  As  As16  1  0.371422  0.919449  0.500000  1
  As  As17  1  0.080551  0.451973  0.500000  1
  Pd  Pd18  1  0.769712  0.554807  0.500000  1
  Pd  Pd19  1  0.445193  0.214907  0.500000  1
  Pd  Pd20  1  0.785093  0.230288  0.500000  1
