# generated using pymatgen
data_Y2Tm2V(ReN4)3
_symmetry_space_group_name_H-M   'P 1'
_cell_length_a   7.31000983
_cell_length_b   7.35135366
_cell_length_c   6.21065475
_cell_angle_alpha   72.91307839
_cell_angle_beta   73.36985247
_cell_angle_gamma   82.27666235
_symmetry_Int_Tables_number   1
_chemical_formula_structural   Y2Tm2V(ReN4)3
_chemical_formula_sum   'Y2 Tm2 V1 Re3 N12'
_cell_volume   305.21409075
_cell_formula_units_Z   1
loop_
 _symmetry_equiv_pos_site_id
 _symmetry_equiv_pos_as_xyz
  1  'x, y, z'
loop_
 _atom_site_type_symbol
 _atom_site_label
 _atom_site_symmetry_multiplicity
 _atom_site_fract_x
 _atom_site_fract_y
 _atom_site_fract_z
 _atom_site_occupancy
  Y  Y0  1  0.707200  0.281077  0.252711  1
  Y  Y1  1  0.294471  0.711374  0.745962  1
  Tm  Tm2  1  0.903861  0.084811  0.761412  1
  Tm  Tm3  1  0.091339  0.906396  0.251813  1
  V  V4  1  0.621015  0.801526  0.280620  1
  Re  Re5  1  0.200952  0.377894  0.220691  1
  Re  Re6  1  0.377423  0.202787  0.721539  1
  Re  Re7  1  0.793292  0.623002  0.782327  1
  N  N8  1  0.665997  0.632575  0.079268  1
  N  N9  1  0.382979  0.873454  0.333115  1
  N  N10  1  0.363577  0.333063  0.418714  1
  N  N11  1  0.128513  0.627872  0.161362  1
  N  N12  1  0.005727  0.215274  0.341901  1
  N  N13  1  0.784308  0.992104  0.156060  1
  N  N14  1  0.216944  0.005689  0.842409  1
  N  N15  1  0.629493  0.130456  0.662736  1
  N  N16  1  0.334524  0.364883  0.917488  1
  N  N17  1  0.875775  0.378563  0.827961  1
  N  N18  1  0.630885  0.672244  0.585354  1
  N  N19  1  0.991725  0.784957  0.656557  1
