# generated using pymatgen
data_Zr2Co2Sn2Ru
_symmetry_space_group_name_H-M   'P 1'
_cell_length_a   7.61867208
_cell_length_b   7.61867225
_cell_length_c   7.61867108
_cell_angle_alpha   33.97934238
_cell_angle_beta   33.97934050
_cell_angle_gamma   33.97935207
_symmetry_Int_Tables_number   1
_chemical_formula_structural   Zr2Co2Sn2Ru
_chemical_formula_sum   'Zr2 Co2 Sn2 Ru1'
_cell_volume   123.12401446
_cell_formula_units_Z   1
loop_
 _symmetry_equiv_pos_site_id
 _symmetry_equiv_pos_as_xyz
  1  'x, y, z'
loop_
 _atom_site_type_symbol
 _atom_site_label
 _atom_site_symmetry_multiplicity
 _atom_site_fract_x
 _atom_site_fract_y
 _atom_site_fract_z
 _atom_site_occupancy
  Zr  Zr0  1  0.505712  0.505712  0.505712  1
  Zr  Zr1  1  0.995887  0.995887  0.995887  1
  Co  Co2  1  0.377936  0.377936  0.377936  1
  Co  Co3  1  0.872220  0.872220  0.872220  1
  Sn  Sn4  1  0.253892  0.253892  0.253892  1
  Sn  Sn5  1  0.744974  0.744974  0.744974  1
  Ru  Ru6  1  0.124379  0.124379  0.124379  1
