# generated using pymatgen
data_HoPu4(SiB4)2
_symmetry_space_group_name_H-M   'P 1'
_cell_length_a   7.20276800
_cell_length_b   7.20276800
_cell_length_c   8.09519700
_cell_angle_alpha   90.00000000
_cell_angle_beta   90.00000000
_cell_angle_gamma   90.00000000
_symmetry_Int_Tables_number   1
_chemical_formula_structural   HoPu4(SiB4)2
_chemical_formula_sum   'Ho2 Pu8 Si4 B16'
_cell_volume   419.97774258
_cell_formula_units_Z   2
loop_
 _symmetry_equiv_pos_site_id
 _symmetry_equiv_pos_as_xyz
  1  'x, y, z'
loop_
 _atom_site_type_symbol
 _atom_site_label
 _atom_site_symmetry_multiplicity
 _atom_site_fract_x
 _atom_site_fract_y
 _atom_site_fract_z
 _atom_site_occupancy
  Ho  Ho0  1  0.000000  0.000000  0.500000  1
  Ho  Ho1  1  0.500000  0.500000  0.500000  1
  Pu  Pu2  1  0.681520  0.181520  0.227839  1
  Pu  Pu3  1  0.318480  0.818480  0.772161  1
  Pu  Pu4  1  0.318480  0.818480  0.227839  1
  Pu  Pu5  1  0.818480  0.681520  0.227839  1
  Pu  Pu6  1  0.818480  0.681520  0.772161  1
  Pu  Pu7  1  0.681520  0.181520  0.772161  1
  Pu  Pu8  1  0.181520  0.318480  0.772161  1
  Pu  Pu9  1  0.181520  0.318480  0.227839  1
  Si  Si10  1  0.115173  0.615173  0.500000  1
  Si  Si11  1  0.884827  0.384827  0.500000  1
  Si  Si12  1  0.384827  0.115173  0.500000  1
  Si  Si13  1  0.615173  0.884827  0.500000  1
  B  B14  1  0.173067  0.040489  0.000000  1
  B  B15  1  0.826933  0.959511  0.000000  1
  B  B16  1  0.959511  0.173067  0.000000  1
  B  B17  1  0.326933  0.540489  0.000000  1
  B  B18  1  0.040489  0.826933  0.000000  1
  B  B19  1  0.673067  0.459511  0.000000  1
  B  B20  1  0.540489  0.673067  0.000000  1
  B  B21  1  0.459511  0.326933  0.000000  1
  B  B22  1  0.090351  0.590351  0.000000  1
  B  B23  1  0.909649  0.409649  0.000000  1
  B  B24  1  0.409649  0.090351  0.000000  1
  B  B25  1  0.590351  0.909649  0.000000  1
  B  B26  1  0.000000  0.000000  0.161436  1
  B  B27  1  0.000000  0.000000  0.838564  1
  B  B28  1  0.500000  0.500000  0.838564  1
  B  B29  1  0.500000  0.500000  0.161436  1
