# generated using pymatgen
data_Cs6YHoF12
_symmetry_space_group_name_H-M   'P 1'
_cell_length_a   7.13944703
_cell_length_b   6.89511627
_cell_length_c   11.95871800
_cell_angle_alpha   55.21623416
_cell_angle_beta   89.96918307
_cell_angle_gamma   90.13307300
_symmetry_Int_Tables_number   1
_chemical_formula_structural   Cs6YHoF12
_chemical_formula_sum   'Cs6 Y1 Ho1 F12'
_cell_volume   483.49955983
_cell_formula_units_Z   1
loop_
 _symmetry_equiv_pos_site_id
 _symmetry_equiv_pos_as_xyz
  1  'x, y, z'
loop_
 _atom_site_type_symbol
 _atom_site_label
 _atom_site_symmetry_multiplicity
 _atom_site_fract_x
 _atom_site_fract_y
 _atom_site_fract_z
 _atom_site_occupancy
  Cs  Cs0  1  0.500000  0.500000  0.000000  1
  Cs  Cs1  1  0.045025  0.737220  0.750700  1
  Cs  Cs2  1  0.954975  0.262780  0.249300  1
  Cs  Cs3  1  0.547335  0.266425  0.747244  1
  Cs  Cs4  1  0.452665  0.733575  0.252756  1
  Cs  Cs5  1  0.000000  0.500000  0.500000  1
  Y  Y6  1  0.500000  0.000000  0.500000  1
  Ho  Ho7  1  0.000000  0.000000  0.000000  1
  F  F8  1  0.751388  0.777114  0.557824  1
  F  F9  1  0.248612  0.222886  0.442176  1
  F  F10  1  0.253624  0.216707  0.941565  1
  F  F11  1  0.746376  0.783293  0.058435  1
  F  F12  1  0.456246  0.884874  0.711551  1
  F  F13  1  0.543754  0.115126  0.288449  1
  F  F14  1  0.957992  0.118272  0.789231  1
  F  F15  1  0.042008  0.881728  0.210769  1
  F  F16  1  0.327597  0.702045  0.540703  1
  F  F17  1  0.672403  0.297955  0.459297  1
  F  F18  1  0.834888  0.300683  0.958470  1
  F  F19  1  0.165112  0.699317  0.041530  1
