# generated using pymatgen
data_TmLu(ZrSn)3
_symmetry_space_group_name_H-M   'P 1'
_cell_length_a   5.98975500
_cell_length_b   8.68872879
_cell_length_c   8.67197363
_cell_angle_alpha   120.21388973
_cell_angle_beta   90.00300116
_cell_angle_gamma   89.99749467
_symmetry_Int_Tables_number   1
_chemical_formula_structural   TmLu(ZrSn)3
_chemical_formula_sum   'Tm2 Lu2 Zr6 Sn6'
_cell_volume   390.00826134
_cell_formula_units_Z   2
loop_
 _symmetry_equiv_pos_site_id
 _symmetry_equiv_pos_as_xyz
  1  'x, y, z'
loop_
 _atom_site_type_symbol
 _atom_site_label
 _atom_site_symmetry_multiplicity
 _atom_site_fract_x
 _atom_site_fract_y
 _atom_site_fract_z
 _atom_site_occupancy
  Tm  Tm0  1  0.250028  0.237380  0.239477  1
  Tm  Tm1  1  0.249866  0.998492  0.756713  1
  Lu  Lu2  1  0.750004  0.244662  0.001435  1
  Lu  Lu3  1  0.750091  0.760874  0.763289  1
  Zr  Zr4  1  0.499896  0.333498  0.665790  1
  Zr  Zr5  1  0.499771  0.668279  0.331966  1
  Zr  Zr6  1  0.000214  0.668354  0.332046  1
  Zr  Zr7  1  0.000122  0.333453  0.665792  1
  Zr  Zr8  1  0.749998  0.998644  0.244701  1
  Zr  Zr9  1  0.249991  0.753835  0.001231  1
  Sn  Sn10  1  0.749919  0.607052  0.001685  1
  Sn  Sn11  1  0.750138  0.394216  0.396918  1
  Sn  Sn12  1  0.749403  0.000110  0.600369  1
  Sn  Sn13  1  0.250145  0.399901  0.999479  1
  Sn  Sn14  1  0.250436  0.603157  0.606778  1
  Sn  Sn15  1  0.249979  0.998091  0.392331  1
