# generated using pymatgen
data_ErCu2NiAgPt
_symmetry_space_group_name_H-M   'P 1'
_cell_length_a   4.98891877
_cell_length_b   5.02375035
_cell_length_c   5.14157114
_cell_angle_alpha   61.69348912
_cell_angle_beta   60.97738200
_cell_angle_gamma   60.22909547
_symmetry_Int_Tables_number   1
_chemical_formula_structural   ErCu2NiAgPt
_chemical_formula_sum   'Er1 Cu2 Ni1 Ag1 Pt1'
_cell_volume   93.07528247
_cell_formula_units_Z   1
loop_
 _symmetry_equiv_pos_site_id
 _symmetry_equiv_pos_as_xyz
  1  'x, y, z'
loop_
 _atom_site_type_symbol
 _atom_site_label
 _atom_site_symmetry_multiplicity
 _atom_site_fract_x
 _atom_site_fract_y
 _atom_site_fract_z
 _atom_site_occupancy
  Er  Er0  1  0.995986  0.004027  0.004002  1
  Cu  Cu1  1  0.128922  0.624930  0.619649  1
  Cu  Cu2  1  0.626497  0.624930  0.619649  1
  Ni  Ni3  1  0.626700  0.127587  0.619012  1
  Ag  Ag4  1  0.244581  0.243408  0.267430  1
  Pt  Pt5  1  0.627314  0.625117  0.120255  1
