# generated using pymatgen
data_Th2Al19Re4W
_symmetry_space_group_name_H-M   'P 1'
_cell_length_a   6.94531072
_cell_length_b   6.94531244
_cell_length_c   9.25751001
_cell_angle_alpha   89.99631680
_cell_angle_beta   90.00368636
_cell_angle_gamma   97.18943783
_symmetry_Int_Tables_number   1
_chemical_formula_structural   Th2Al19Re4W
_chemical_formula_sum   'Th2 Al19 Re4 W1'
_cell_volume   443.04684428
_cell_formula_units_Z   1
loop_
 _symmetry_equiv_pos_site_id
 _symmetry_equiv_pos_as_xyz
  1  'x, y, z'
loop_
 _atom_site_type_symbol
 _atom_site_label
 _atom_site_symmetry_multiplicity
 _atom_site_fract_x
 _atom_site_fract_y
 _atom_site_fract_z
 _atom_site_occupancy
  Th  Th0  1  0.870856  0.124248  0.747314  1
  Th  Th1  1  0.124248  0.870856  0.252686  1
  Al  Al2  1  0.517046  0.779727  0.755518  1
  Al  Al3  1  0.482290  0.217898  0.252630  1
  Al  Al4  1  0.594588  0.859804  0.248935  1
  Al  Al5  1  0.163928  0.843873  0.603633  1
  Al  Al6  1  0.229636  0.229636  0.000000  1
  Al  Al7  1  0.142449  0.404865  0.251553  1
  Al  Al8  1  0.626572  0.378351  0.952926  1
  Al  Al9  1  0.845239  0.146353  0.098545  1
  Al  Al10  1  0.378092  0.621879  0.454426  1
  Al  Al11  1  0.146353  0.845239  0.901455  1
  Al  Al12  1  0.217898  0.482290  0.747370  1
  Al  Al13  1  0.378351  0.626572  0.047074  1
  Al  Al14  1  0.843873  0.163928  0.396367  1
  Al  Al15  1  0.621879  0.378092  0.545574  1
  Al  Al16  1  0.404865  0.142449  0.748447  1
  Al  Al17  1  0.779727  0.517046  0.244482  1
  Al  Al18  1  0.776381  0.776381  0.500000  1
  Al  Al19  1  0.227180  0.227180  0.500000  1
  Al  Al20  1  0.859804  0.594588  0.751065  1
  Re  Re21  1  0.998669  0.507595  0.497510  1
  Re  Re22  1  0.005874  0.495847  0.000533  1
  Re  Re23  1  0.495847  0.005874  0.999467  1
  Re  Re24  1  0.507595  0.998669  0.502490  1
  W  W25  1  0.760760  0.760760  0.000000  1
