# generated using pymatgen
data_Sm4Lu(AlTe)2
_symmetry_space_group_name_H-M   'P 1'
_cell_length_a   8.82427795
_cell_length_b   8.82427798
_cell_length_c   8.08076800
_cell_angle_alpha   90.00000000
_cell_angle_beta   90.00000000
_cell_angle_gamma   125.88194384
_symmetry_Int_Tables_number   1
_chemical_formula_structural   Sm4Lu(AlTe)2
_chemical_formula_sum   'Sm8 Lu2 Al4 Te4'
_cell_volume   509.82060294
_cell_formula_units_Z   2
loop_
 _symmetry_equiv_pos_site_id
 _symmetry_equiv_pos_as_xyz
  1  'x, y, z'
loop_
 _atom_site_type_symbol
 _atom_site_label
 _atom_site_symmetry_multiplicity
 _atom_site_fract_x
 _atom_site_fract_y
 _atom_site_fract_z
 _atom_site_occupancy
  Sm  Sm0  1  0.799849  0.537504  0.168484  1
  Sm  Sm1  1  0.462496  0.200151  0.831516  1
  Sm  Sm2  1  0.962496  0.700151  0.668484  1
  Sm  Sm3  1  0.299849  0.037504  0.331516  1
  Sm  Sm4  1  0.200151  0.462496  0.831516  1
  Sm  Sm5  1  0.537504  0.799849  0.168484  1
  Sm  Sm6  1  0.037504  0.299849  0.331516  1
  Sm  Sm7  1  0.700151  0.962496  0.668484  1
  Lu  Lu8  1  0.000000  0.000000  0.000000  1
  Lu  Lu9  1  0.500000  0.500000  0.500000  1
  Al  Al10  1  0.875864  0.875864  0.376999  1
  Al  Al11  1  0.124136  0.124136  0.623001  1
  Al  Al12  1  0.624136  0.624136  0.876999  1
  Al  Al13  1  0.375864  0.375864  0.123001  1
  Te  Te14  1  0.201879  0.798121  0.000000  1
  Te  Te15  1  0.701879  0.298121  0.500000  1
  Te  Te16  1  0.798121  0.201879  0.000000  1
  Te  Te17  1  0.298121  0.701879  0.500000  1
