# generated using pymatgen
data_Zn3TcH5
_symmetry_space_group_name_H-M   'P 1'
_cell_length_a   4.99939042
_cell_length_b   7.40193611
_cell_length_c   5.05118660
_cell_angle_alpha   79.53292480
_cell_angle_beta   98.74700941
_cell_angle_gamma   138.06114499
_symmetry_Int_Tables_number   1
_chemical_formula_structural   Zn3TcH5
_chemical_formula_sum   'Zn3 Tc1 H5'
_cell_volume   122.80597102
_cell_formula_units_Z   1
loop_
 _symmetry_equiv_pos_site_id
 _symmetry_equiv_pos_as_xyz
  1  'x, y, z'
loop_
 _atom_site_type_symbol
 _atom_site_label
 _atom_site_symmetry_multiplicity
 _atom_site_fract_x
 _atom_site_fract_y
 _atom_site_fract_z
 _atom_site_occupancy
  Zn  Zn0  1  0.244753  0.611005  0.563102  1
  Zn  Zn1  1  0.191227  0.097239  0.569438  1
  Zn  Zn2  1  0.726083  0.655628  0.967847  1
  Tc  Tc3  1  0.729716  0.610915  0.483195  1
  H  H4  1  0.752464  0.458875  0.280094  1
  H  H5  1  0.243503  0.874650  0.433923  1
  H  H6  1  0.756208  0.825281  0.240038  1
  H  H7  1  0.741798  0.433388  0.760211  1
  H  H8  1  0.239074  0.375001  0.364041  1
