# generated using pymatgen
data_La3Y2Pb3Cl
_symmetry_space_group_name_H-M   'P 1'
_cell_length_a   9.46738200
_cell_length_b   9.46738036
_cell_length_c   6.76543200
_cell_angle_alpha   90.00000000
_cell_angle_beta   90.00000000
_cell_angle_gamma   119.99999875
_symmetry_Int_Tables_number   1
_chemical_formula_structural   La3Y2Pb3Cl
_chemical_formula_sum   'La6 Y4 Pb6 Cl2'
_cell_volume   525.15305560
_cell_formula_units_Z   2
loop_
 _symmetry_equiv_pos_site_id
 _symmetry_equiv_pos_as_xyz
  1  'x, y, z'
loop_
 _atom_site_type_symbol
 _atom_site_label
 _atom_site_symmetry_multiplicity
 _atom_site_fract_x
 _atom_site_fract_y
 _atom_site_fract_z
 _atom_site_occupancy
  La  La0  1  0.260003  0.000000  0.750000  1
  La  La1  1  0.739997  0.000000  0.250000  1
  La  La2  1  0.000000  0.260003  0.750000  1
  La  La3  1  0.000000  0.739997  0.250000  1
  La  La4  1  0.739997  0.739997  0.750000  1
  La  La5  1  0.260003  0.260003  0.250000  1
  Y  Y6  1  0.333333  0.666667  0.500000  1
  Y  Y7  1  0.666667  0.333333  0.500000  1
  Y  Y8  1  0.666667  0.333333  0.000000  1
  Y  Y9  1  0.333333  0.666667  0.000000  1
  Pb  Pb10  1  0.607190  0.000000  0.750000  1
  Pb  Pb11  1  0.392810  0.000000  0.250000  1
  Pb  Pb12  1  0.000000  0.607190  0.750000  1
  Pb  Pb13  1  0.000000  0.392810  0.250000  1
  Pb  Pb14  1  0.392810  0.392810  0.750000  1
  Pb  Pb15  1  0.607190  0.607190  0.250000  1
  Cl  Cl16  1  0.000000  0.000000  0.500000  1
  Cl  Cl17  1  0.000000  0.000000  0.000000  1
