# generated using pymatgen
data_CsFeMoF6
_symmetry_space_group_name_H-M   'P 1'
_cell_length_a   7.77708818
_cell_length_b   7.77708847
_cell_length_c   7.77708832
_cell_angle_alpha   119.42315332
_cell_angle_beta   121.55573525
_cell_angle_gamma   89.16439710
_symmetry_Int_Tables_number   1
_chemical_formula_structural   CsFeMoF6
_chemical_formula_sum   'Cs2 Fe2 Mo2 F12'
_cell_volume   329.96637009
_cell_formula_units_Z   2
loop_
 _symmetry_equiv_pos_site_id
 _symmetry_equiv_pos_as_xyz
  1  'x, y, z'
loop_
 _atom_site_type_symbol
 _atom_site_label
 _atom_site_symmetry_multiplicity
 _atom_site_fract_x
 _atom_site_fract_y
 _atom_site_fract_z
 _atom_site_occupancy
  Cs  Cs0  1  0.381452  0.631452  0.750000  1
  Cs  Cs1  1  0.618548  0.368548  0.250000  1
  Fe  Fe2  1  0.000000  0.000000  0.000000  1
  Fe  Fe3  1  0.500000  0.000000  0.500000  1
  Mo  Mo4  1  0.000000  0.000000  0.500000  1
  Mo  Mo5  1  0.000000  0.500000  0.000000  1
  F  F6  1  0.315977  0.065977  0.250000  1
  F  F7  1  0.926710  0.676710  0.250000  1
  F  F8  1  0.324572  0.673824  0.250565  1
  F  F9  1  0.923259  0.074007  0.249435  1
  F  F10  1  0.324572  0.074007  0.650748  1
  F  F11  1  0.923259  0.673824  0.849252  1
  F  F12  1  0.684023  0.934023  0.750000  1
  F  F13  1  0.073290  0.323290  0.750000  1
  F  F14  1  0.675428  0.326176  0.749435  1
  F  F15  1  0.076741  0.925993  0.750565  1
  F  F16  1  0.675428  0.925993  0.349252  1
  F  F17  1  0.076741  0.326176  0.150748  1
