# generated using pymatgen
data_Nd16CdHg3IrRu3
_symmetry_space_group_name_H-M   'P 1'
_cell_length_a   9.89346279
_cell_length_b   9.90460350
_cell_length_c   9.90460400
_cell_angle_alpha   59.99999832
_cell_angle_beta   59.96274130
_cell_angle_gamma   59.96274261
_symmetry_Int_Tables_number   1
_chemical_formula_structural   Nd16CdHg3IrRu3
_chemical_formula_sum   'Nd16 Cd1 Hg3 Ir1 Ru3'
_cell_volume   685.90303924
_cell_formula_units_Z   1
loop_
 _symmetry_equiv_pos_site_id
 _symmetry_equiv_pos_as_xyz
  1  'x, y, z'
loop_
 _atom_site_type_symbol
 _atom_site_label
 _atom_site_symmetry_multiplicity
 _atom_site_fract_x
 _atom_site_fract_y
 _atom_site_fract_z
 _atom_site_occupancy
  Nd  Nd0  1  0.346359  0.349016  0.349016  1
  Nd  Nd1  1  0.346359  0.349016  0.955609  1
  Nd  Nd2  1  0.346359  0.955609  0.349016  1
  Nd  Nd3  1  0.953270  0.348910  0.348910  1
  Nd  Nd4  1  0.810430  0.191414  0.191414  1
  Nd  Nd5  1  0.190463  0.810088  0.810088  1
  Nd  Nd6  1  0.190463  0.810088  0.189361  1
  Nd  Nd7  1  0.810430  0.191414  0.806742  1
  Nd  Nd8  1  0.190463  0.189361  0.810088  1
  Nd  Nd9  1  0.810430  0.806742  0.191414  1
  Nd  Nd10  1  0.938525  0.561741  0.561741  1
  Nd  Nd11  1  0.559706  0.939248  0.939248  1
  Nd  Nd12  1  0.559706  0.939248  0.561798  1
  Nd  Nd13  1  0.938525  0.561741  0.937993  1
  Nd  Nd14  1  0.559706  0.561798  0.939248  1
  Nd  Nd15  1  0.938525  0.937993  0.561741  1
  Cd  Cd16  1  0.263619  0.578794  0.578794  1
  Hg  Hg17  1  0.582545  0.584336  0.584336  1
  Hg  Hg18  1  0.582545  0.584336  0.248782  1
  Hg  Hg19  1  0.582545  0.248782  0.584336  1
  Ir  Ir20  1  0.578571  0.140476  0.140476  1
  Ru  Ru21  1  0.140149  0.137564  0.137564  1
  Ru  Ru22  1  0.140149  0.137564  0.584722  1
  Ru  Ru23  1  0.140149  0.584722  0.137564  1
