# generated using pymatgen
data_Ho16Zr3ScRh12
_symmetry_space_group_name_H-M   'P 1'
_cell_length_a   10.80539000
_cell_length_b   10.80539000
_cell_length_c   6.25433100
_cell_angle_alpha   90.00000000
_cell_angle_beta   90.00000000
_cell_angle_gamma   90.00000000
_symmetry_Int_Tables_number   1
_chemical_formula_structural   Ho16Zr3ScRh12
_chemical_formula_sum   'Ho16 Zr3 Sc1 Rh12'
_cell_volume   730.23350377
_cell_formula_units_Z   1
loop_
 _symmetry_equiv_pos_site_id
 _symmetry_equiv_pos_as_xyz
  1  'x, y, z'
loop_
 _atom_site_type_symbol
 _atom_site_label
 _atom_site_symmetry_multiplicity
 _atom_site_fract_x
 _atom_site_fract_y
 _atom_site_fract_z
 _atom_site_occupancy
  Ho  Ho0  1  0.289449  0.086637  0.375104  1
  Ho  Ho1  1  0.289067  0.912626  0.875449  1
  Ho  Ho2  1  0.710933  0.087374  0.875449  1
  Ho  Ho3  1  0.710551  0.913363  0.375104  1
  Ho  Ho4  1  0.587308  0.789116  0.876846  1
  Ho  Ho5  1  0.586390  0.212254  0.375808  1
  Ho  Ho6  1  0.413610  0.787746  0.375808  1
  Ho  Ho7  1  0.412692  0.210884  0.876846  1
  Ho  Ho8  1  0.212254  0.413610  0.624192  1
  Ho  Ho9  1  0.210884  0.587308  0.123154  1
  Ho  Ho10  1  0.789116  0.412692  0.123154  1
  Ho  Ho11  1  0.787746  0.586390  0.624192  1
  Ho  Ho12  1  0.912626  0.710933  0.124551  1
  Ho  Ho13  1  0.913363  0.289449  0.624896  1
  Ho  Ho14  1  0.086637  0.710551  0.624896  1
  Ho  Ho15  1  0.087374  0.289067  0.124551  1
  Zr  Zr16  1  0.000000  0.000000  0.500000  1
  Zr  Zr17  1  0.000000  0.000000  0.000000  1
  Zr  Zr18  1  0.500000  0.500000  0.000000  1
  Sc  Sc19  1  0.500000  0.500000  0.500000  1
  Rh  Rh20  1  0.853374  0.146378  0.250787  1
  Rh  Rh21  1  0.853622  0.853374  0.749213  1
  Rh  Rh22  1  0.146378  0.146626  0.749213  1
  Rh  Rh23  1  0.146626  0.853622  0.250787  1
  Rh  Rh24  1  0.646777  0.351763  0.753107  1
  Rh  Rh25  1  0.648237  0.646777  0.246893  1
  Rh  Rh26  1  0.351763  0.353223  0.246893  1
  Rh  Rh27  1  0.353223  0.648237  0.753107  1
  Rh  Rh28  1  0.500000  0.000000  0.123182  1
  Rh  Rh29  1  0.500000  0.000000  0.622639  1
  Rh  Rh30  1  0.000000  0.500000  0.876818  1
  Rh  Rh31  1  0.000000  0.500000  0.377361  1
