# generated using pymatgen
data_Zr4ScPb3
_symmetry_space_group_name_H-M   'P 1'
_cell_length_a   8.64820500
_cell_length_b   8.66961421
_cell_length_c   5.92716000
_cell_angle_alpha   90.00000000
_cell_angle_beta   90.00000000
_cell_angle_gamma   119.91834851
_symmetry_Int_Tables_number   1
_chemical_formula_structural   Zr4ScPb3
_chemical_formula_sum   'Zr8 Sc2 Pb6'
_cell_volume   385.17648830
_cell_formula_units_Z   2
loop_
 _symmetry_equiv_pos_site_id
 _symmetry_equiv_pos_as_xyz
  1  'x, y, z'
loop_
 _atom_site_type_symbol
 _atom_site_label
 _atom_site_symmetry_multiplicity
 _atom_site_fract_x
 _atom_site_fract_y
 _atom_site_fract_z
 _atom_site_occupancy
  Zr  Zr0  1  0.758647  0.000000  0.750000  1
  Zr  Zr1  1  0.332344  0.669026  0.500234  1
  Zr  Zr2  1  0.246861  0.000000  0.250000  1
  Zr  Zr3  1  0.663319  0.330974  0.500234  1
  Zr  Zr4  1  0.001258  0.759492  0.750000  1
  Zr  Zr5  1  0.332344  0.669026  0.999766  1
  Zr  Zr6  1  0.241766  0.240508  0.750000  1
  Zr  Zr7  1  0.663319  0.330974  0.999766  1
  Sc  Sc8  1  0.757180  0.755323  0.250000  1
  Sc  Sc9  1  0.001858  0.244677  0.250000  1
  Pb  Pb10  1  0.609996  0.610211  0.750000  1
  Pb  Pb11  1  0.391189  0.000000  0.750000  1
  Pb  Pb12  1  0.614434  0.000000  0.250000  1
  Pb  Pb13  1  0.999784  0.389789  0.750000  1
  Pb  Pb14  1  0.388683  0.391666  0.250000  1
  Pb  Pb15  1  0.997018  0.608334  0.250000  1
