# generated using pymatgen
data_Sr4Ho2SbRhO12
_symmetry_space_group_name_H-M   'P 1'
_cell_length_a   5.82283806
_cell_length_b   5.88828905
_cell_length_c   8.26321602
_cell_angle_alpha   90.28024295
_cell_angle_beta   90.29869593
_cell_angle_gamma   90.08036998
_symmetry_Int_Tables_number   1
_chemical_formula_structural   Sr4Ho2SbRhO12
_chemical_formula_sum   'Sr4 Ho2 Sb1 Rh1 O12'
_cell_volume   283.30967074
_cell_formula_units_Z   1
loop_
 _symmetry_equiv_pos_site_id
 _symmetry_equiv_pos_as_xyz
  1  'x, y, z'
loop_
 _atom_site_type_symbol
 _atom_site_label
 _atom_site_symmetry_multiplicity
 _atom_site_fract_x
 _atom_site_fract_y
 _atom_site_fract_z
 _atom_site_occupancy
  Sr  Sr0  1  0.508196  0.460671  0.744213  1
  Sr  Sr1  1  0.990554  0.965739  0.745568  1
  Sr  Sr2  1  0.491813  0.539332  0.255781  1
  Sr  Sr3  1  0.009438  0.034263  0.254431  1
  Ho  Ho4  1  0.999999  0.499971  0.500011  1
  Ho  Ho5  1  0.500005  0.999990  0.000017  1
  Sb  Sb6  1  0.999995  0.500004  0.999996  1
  Rh  Rh7  1  0.500009  0.999976  0.500006  1
  O  O8  1  0.771465  0.202381  0.538039  1
  O  O9  1  0.725787  0.700196  0.959014  1
  O  O10  1  0.228541  0.797635  0.461955  1
  O  O11  1  0.274207  0.299813  0.040986  1
  O  O12  1  0.802962  0.224175  0.956615  1
  O  O13  1  0.699214  0.727535  0.539459  1
  O  O14  1  0.197028  0.775830  0.043382  1
  O  O15  1  0.300791  0.272468  0.460537  1
  O  O16  1  0.425676  0.019982  0.734507  1
  O  O17  1  0.077842  0.520087  0.763182  1
  O  O18  1  0.574318  0.980029  0.265486  1
  O  O19  1  0.922159  0.479919  0.236811  1
