# generated using pymatgen
data_Tb7Y5Rh4
_symmetry_space_group_name_H-M   'P 1'
_cell_length_a   6.28770951
_cell_length_b   7.19285055
_cell_length_c   9.56952004
_cell_angle_alpha   90.00046063
_cell_angle_beta   89.98921083
_cell_angle_gamma   90.04482041
_symmetry_Int_Tables_number   1
_chemical_formula_structural   Tb7Y5Rh4
_chemical_formula_sum   'Tb7 Y5 Rh4'
_cell_volume   432.79628251
_cell_formula_units_Z   1
loop_
 _symmetry_equiv_pos_site_id
 _symmetry_equiv_pos_as_xyz
  1  'x, y, z'
loop_
 _atom_site_type_symbol
 _atom_site_label
 _atom_site_symmetry_multiplicity
 _atom_site_fract_x
 _atom_site_fract_y
 _atom_site_fract_z
 _atom_site_occupancy
  Tb  Tb0  1  0.169626  0.177379  0.436473  1
  Tb  Tb1  1  0.669585  0.322567  0.563544  1
  Tb  Tb2  1  0.830300  0.822635  0.936572  1
  Tb  Tb3  1  0.669756  0.322625  0.936622  1
  Tb  Tb4  1  0.830435  0.822510  0.563519  1
  Tb  Tb5  1  0.330417  0.677441  0.436334  1
  Tb  Tb6  1  0.169507  0.177372  0.063430  1
  Y  Y7  1  0.330652  0.677452  0.063180  1
  Y  Y8  1  0.865312  0.531919  0.249869  1
  Y  Y9  1  0.634652  0.031770  0.249918  1
  Y  Y10  1  0.134732  0.468234  0.749885  1
  Y  Y11  1  0.365181  0.968294  0.749981  1
  Rh  Rh12  1  0.061501  0.882699  0.250366  1
  Rh  Rh13  1  0.438468  0.381911  0.250249  1
  Rh  Rh14  1  0.938038  0.117648  0.749945  1
  Rh  Rh15  1  0.561838  0.617546  0.750113  1
