# generated using pymatgen
data_SmHo3(Si5Os3)2
_symmetry_space_group_name_H-M   'P 1'
_cell_length_a   8.14757044
_cell_length_b   8.13808888
_cell_length_c   5.80636338
_cell_angle_alpha   70.52033809
_cell_angle_beta   70.47548731
_cell_angle_gamma   93.93079198
_symmetry_Int_Tables_number   1
_chemical_formula_structural   SmHo3(Si5Os3)2
_chemical_formula_sum   'Sm1 Ho3 Si10 Os6'
_cell_volume   334.99417868
_cell_formula_units_Z   1
loop_
 _symmetry_equiv_pos_site_id
 _symmetry_equiv_pos_as_xyz
  1  'x, y, z'
loop_
 _atom_site_type_symbol
 _atom_site_label
 _atom_site_symmetry_multiplicity
 _atom_site_fract_x
 _atom_site_fract_y
 _atom_site_fract_z
 _atom_site_occupancy
  Sm  Sm0  1  0.867170  0.602996  0.753329  1
  Ho  Ho1  1  0.399746  0.129433  0.746562  1
  Ho  Ho2  1  0.130350  0.399015  0.246533  1
  Ho  Ho3  1  0.602042  0.867332  0.255158  1
  Si  Si4  1  0.070325  0.261650  0.833625  1
  Si  Si5  1  0.737460  0.935998  0.665973  1
  Si  Si6  1  0.933029  0.739020  0.165193  1
  Si  Si7  1  0.260935  0.068068  0.334465  1
  Si  Si8  1  0.207026  0.793912  0.751343  1
  Si  Si9  1  0.793708  0.206767  0.249115  1
  Si  Si10  1  0.510221  0.484792  0.751690  1
  Si  Si11  1  0.486361  0.511494  0.249855  1
  Si  Si12  1  0.774155  0.224628  0.750237  1
  Si  Si13  1  0.226422  0.774260  0.248063  1
  Os  Os14  1  0.256811  0.544352  0.630578  1
  Os  Os15  1  0.456722  0.744142  0.867389  1
  Os  Os16  1  0.743257  0.455496  0.369654  1
  Os  Os17  1  0.543032  0.253605  0.132426  1
  Os  Os18  1  0.002925  0.999465  0.749376  1
  Os  Os19  1  0.998303  0.003575  0.249434  1
