# generated using pymatgen
data_Dy3SnBiRh3Pb
_symmetry_space_group_name_H-M   'P 1'
_cell_length_a   7.68181375
_cell_length_b   7.64994310
_cell_length_c   3.88861400
_cell_angle_alpha   90.00000000
_cell_angle_beta   90.00000000
_cell_angle_gamma   119.61154321
_symmetry_Int_Tables_number   1
_chemical_formula_structural   Dy3SnBiRh3Pb
_chemical_formula_sum   'Dy3 Sn1 Bi1 Rh3 Pb1'
_cell_volume   198.67085051
_cell_formula_units_Z   1
loop_
 _symmetry_equiv_pos_site_id
 _symmetry_equiv_pos_as_xyz
  1  'x, y, z'
loop_
 _atom_site_type_symbol
 _atom_site_label
 _atom_site_symmetry_multiplicity
 _atom_site_fract_x
 _atom_site_fract_y
 _atom_site_fract_z
 _atom_site_occupancy
  Dy  Dy0  1  0.397786  0.402858  0.500000  1
  Dy  Dy1  1  0.598775  0.007801  0.500000  1
  Dy  Dy2  1  0.002918  0.590840  0.500000  1
  Sn  Sn3  1  0.001108  0.264463  0.000000  1
  Bi  Bi4  1  0.736534  0.737199  0.000000  1
  Rh  Rh5  1  0.673108  0.330274  0.000000  1
  Rh  Rh6  1  0.325773  0.655843  0.000000  1
  Rh  Rh7  1  0.998506  0.009327  0.500000  1
  Pb  Pb8  1  0.265491  0.001395  0.000000  1
