# generated using pymatgen
data_TmAl4(GaFe3)2
_symmetry_space_group_name_H-M   'P 1'
_cell_length_a   4.95380097
_cell_length_b   6.55815360
_cell_length_c   6.55815436
_cell_angle_alpha   80.84108792
_cell_angle_beta   67.80978629
_cell_angle_gamma   67.80979158
_symmetry_Int_Tables_number   1
_chemical_formula_structural   TmAl4(GaFe3)2
_chemical_formula_sum   'Tm1 Al4 Ga2 Fe6'
_cell_volume   182.63422469
_cell_formula_units_Z   1
loop_
 _symmetry_equiv_pos_site_id
 _symmetry_equiv_pos_as_xyz
  1  'x, y, z'
loop_
 _atom_site_type_symbol
 _atom_site_label
 _atom_site_symmetry_multiplicity
 _atom_site_fract_x
 _atom_site_fract_y
 _atom_site_fract_z
 _atom_site_occupancy
  Tm  Tm0  1  0.000000  0.000000  0.000000  1
  Al  Al1  1  0.000000  0.664232  0.335768  1
  Al  Al2  1  0.000000  0.335768  0.664232  1
  Al  Al3  1  0.346509  0.653491  0.653491  1
  Al  Al4  1  0.653491  0.346509  0.346509  1
  Ga  Ga5  1  0.314848  0.185152  0.185152  1
  Ga  Ga6  1  0.685152  0.814848  0.814848  1
  Fe  Fe7  1  0.500000  0.243308  0.756692  1
  Fe  Fe8  1  0.500000  0.756692  0.243308  1
  Fe  Fe9  1  0.000000  0.500000  0.000000  1
  Fe  Fe10  1  0.500000  0.500000  0.000000  1
  Fe  Fe11  1  0.000000  0.000000  0.500000  1
  Fe  Fe12  1  0.500000  0.000000  0.500000  1
