# generated using pymatgen
data_Er4AlFe3B16
_symmetry_space_group_name_H-M   'P 1'
_cell_length_a   3.39018600
_cell_length_b   5.88330061
_cell_length_c   11.37192104
_cell_angle_alpha   90.10784879
_cell_angle_beta   90.00000000
_cell_angle_gamma   90.00000000
_symmetry_Int_Tables_number   1
_chemical_formula_structural   Er4AlFe3B16
_chemical_formula_sum   'Er4 Al1 Fe3 B16'
_cell_volume   226.81805984
_cell_formula_units_Z   1
loop_
 _symmetry_equiv_pos_site_id
 _symmetry_equiv_pos_as_xyz
  1  'x, y, z'
loop_
 _atom_site_type_symbol
 _atom_site_label
 _atom_site_symmetry_multiplicity
 _atom_site_fract_x
 _atom_site_fract_y
 _atom_site_fract_z
 _atom_site_occupancy
  Er  Er0  1  0.000000  0.628430  0.351340  1
  Er  Er1  1  0.000000  0.373138  0.649581  1
  Er  Er2  1  0.000000  0.124986  0.151752  1
  Er  Er3  1  0.000000  0.876198  0.847247  1
  Al  Al4  1  0.000000  0.631755  0.086591  1
  Fe  Fe5  1  0.000000  0.373921  0.912751  1
  Fe  Fe6  1  0.000000  0.134058  0.417051  1
  Fe  Fe7  1  0.000000  0.864432  0.588592  1
  B  B8  1  0.500000  0.788565  0.188417  1
  B  B9  1  0.500000  0.217013  0.815592  1
  B  B10  1  0.500000  0.280279  0.316195  1
  B  B11  1  0.500000  0.717201  0.683292  1
  B  B12  1  0.500000  0.866796  0.029871  1
  B  B13  1  0.500000  0.137734  0.966198  1
  B  B14  1  0.500000  0.361403  0.468175  1
  B  B15  1  0.500000  0.637781  0.531747  1
  B  B16  1  0.500000  0.888332  0.454183  1
  B  B17  1  0.500000  0.111397  0.546681  1
  B  B18  1  0.500000  0.382157  0.043844  1
  B  B19  1  0.500000  0.610045  0.949785  1
  B  B20  1  0.500000  0.977336  0.309954  1
  B  B21  1  0.500000  0.024380  0.690321  1
  B  B22  1  0.500000  0.470764  0.193050  1
  B  B23  1  0.500000  0.521898  0.807788  1
