# generated using pymatgen
data_TbSmSi2(Ru2C)2
_symmetry_space_group_name_H-M   'P 1'
_cell_length_a   5.89386438
_cell_length_b   5.89386458
_cell_length_c   7.18366200
_cell_angle_alpha   90.00000000
_cell_angle_beta   90.00000000
_cell_angle_gamma   141.81800843
_symmetry_Int_Tables_number   1
_chemical_formula_structural   TbSmSi2(Ru2C)2
_chemical_formula_sum   'Tb1 Sm1 Si2 Ru4 C2'
_cell_volume   154.25812206
_cell_formula_units_Z   1
loop_
 _symmetry_equiv_pos_site_id
 _symmetry_equiv_pos_as_xyz
  1  'x, y, z'
loop_
 _atom_site_type_symbol
 _atom_site_label
 _atom_site_symmetry_multiplicity
 _atom_site_fract_x
 _atom_site_fract_y
 _atom_site_fract_z
 _atom_site_occupancy
  Tb  Tb0  1  0.548687  0.451313  0.250000  1
  Sm  Sm1  1  0.451091  0.548909  0.750000  1
  Si  Si2  1  0.269426  0.730574  0.250000  1
  Si  Si3  1  0.729792  0.270208  0.750000  1
  Ru  Ru4  1  0.835731  0.164269  0.058587  1
  Ru  Ru5  1  0.164348  0.835652  0.943706  1
  Ru  Ru6  1  0.164348  0.835652  0.556294  1
  Ru  Ru7  1  0.835731  0.164269  0.441413  1
  C  C8  1  0.000422  0.999578  0.003618  1
  C  C9  1  0.000422  0.999578  0.496382  1
