# generated using pymatgen
data_Sc12Co5Sb
_symmetry_space_group_name_H-M   'P 1'
_cell_length_a   7.70359731
_cell_length_b   7.70359664
_cell_length_c   7.70359689
_cell_angle_alpha   111.27064914
_cell_angle_beta   110.67725269
_cell_angle_gamma   106.50642040
_symmetry_Int_Tables_number   1
_chemical_formula_structural   Sc12Co5Sb
_chemical_formula_sum   'Sc12 Co5 Sb1'
_cell_volume   351.21990815
_cell_formula_units_Z   1
loop_
 _symmetry_equiv_pos_site_id
 _symmetry_equiv_pos_as_xyz
  1  'x, y, z'
loop_
 _atom_site_type_symbol
 _atom_site_label
 _atom_site_symmetry_multiplicity
 _atom_site_fract_x
 _atom_site_fract_y
 _atom_site_fract_z
 _atom_site_occupancy
  Sc  Sc0  1  0.415133  0.220315  0.194817  1
  Sc  Sc1  1  0.584867  0.779685  0.805183  1
  Sc  Sc2  1  0.025499  0.220315  0.805183  1
  Sc  Sc3  1  0.974501  0.779685  0.194817  1
  Sc  Sc4  1  0.320780  0.630095  0.309314  1
  Sc  Sc5  1  0.679220  0.369905  0.690686  1
  Sc  Sc6  1  0.320780  0.011466  0.690686  1
  Sc  Sc7  1  0.679220  0.988534  0.309314  1
  Sc  Sc8  1  0.181768  0.278187  0.459956  1
  Sc  Sc9  1  0.818232  0.721812  0.540044  1
  Sc  Sc10  1  0.181768  0.721812  0.903581  1
  Sc  Sc11  1  0.818232  0.278187  0.096419  1
  Co  Co12  1  0.000000  0.000000  0.000000  1
  Co  Co13  1  0.348062  0.000000  0.348062  1
  Co  Co14  1  0.651938  0.000000  0.651938  1
  Co  Co15  1  0.119540  0.619540  0.500000  1
  Co  Co16  1  0.880460  0.380460  0.500000  1
  Sb  Sb17  1  0.500000  0.500000  0.000000  1
