# generated using pymatgen
data_Er8Co3Si12Ag
_symmetry_space_group_name_H-M   'P 1'
_cell_length_a   8.04129200
_cell_length_b   8.04129187
_cell_length_c   7.85332700
_cell_angle_alpha   90.00000000
_cell_angle_beta   90.00000000
_cell_angle_gamma   120.00000054
_symmetry_Int_Tables_number   1
_chemical_formula_structural   Er8Co3Si12Ag
_chemical_formula_sum   'Er8 Co3 Si12 Ag1'
_cell_volume   439.78050023
_cell_formula_units_Z   1
loop_
 _symmetry_equiv_pos_site_id
 _symmetry_equiv_pos_as_xyz
  1  'x, y, z'
loop_
 _atom_site_type_symbol
 _atom_site_label
 _atom_site_symmetry_multiplicity
 _atom_site_fract_x
 _atom_site_fract_y
 _atom_site_fract_z
 _atom_site_occupancy
  Er  Er0  1  0.977201  0.488602  0.243172  1
  Er  Er1  1  0.511398  0.488602  0.243172  1
  Er  Er2  1  0.497460  0.994919  0.753975  1
  Er  Er3  1  0.005081  0.502540  0.753975  1
  Er  Er4  1  0.497460  0.502540  0.753975  1
  Er  Er5  1  0.511398  0.022799  0.243172  1
  Er  Er6  1  0.000000  0.000000  0.754496  1
  Er  Er7  1  0.000000  0.000000  0.248347  1
  Co  Co8  1  0.333333  0.666667  0.027435  1
  Co  Co9  1  0.666667  0.333333  0.966306  1
  Co  Co10  1  0.666667  0.333333  0.536828  1
  Si  Si11  1  0.159723  0.840277  0.503318  1
  Si  Si12  1  0.159723  0.319446  0.503318  1
  Si  Si13  1  0.680554  0.840277  0.503318  1
  Si  Si14  1  0.340822  0.170411  0.997384  1
  Si  Si15  1  0.825951  0.651902  0.500088  1
  Si  Si16  1  0.829589  0.170411  0.997384  1
  Si  Si17  1  0.829589  0.659178  0.997384  1
  Si  Si18  1  0.172398  0.344796  0.002793  1
  Si  Si19  1  0.655204  0.827602  0.002793  1
  Si  Si20  1  0.348098  0.174049  0.500088  1
  Si  Si21  1  0.825951  0.174049  0.500088  1
  Si  Si22  1  0.172398  0.827602  0.002793  1
  Ag  Ag23  1  0.333333  0.666667  0.464397  1
