# generated using pymatgen
data_DyCo2(PRh)3
_symmetry_space_group_name_H-M   'P 1'
_cell_length_a   3.79539400
_cell_length_b   10.63913300
_cell_length_c   12.22573600
_cell_angle_alpha   90.00000000
_cell_angle_beta   90.00000000
_cell_angle_gamma   90.00000000
_symmetry_Int_Tables_number   1
_chemical_formula_structural   DyCo2(PRh)3
_chemical_formula_sum   'Dy4 Co8 P12 Rh12'
_cell_volume   493.67157095
_cell_formula_units_Z   4
loop_
 _symmetry_equiv_pos_site_id
 _symmetry_equiv_pos_as_xyz
  1  'x, y, z'
loop_
 _atom_site_type_symbol
 _atom_site_label
 _atom_site_symmetry_multiplicity
 _atom_site_fract_x
 _atom_site_fract_y
 _atom_site_fract_z
 _atom_site_occupancy
  Dy  Dy0  1  0.250000  0.583500  0.708777  1
  Dy  Dy1  1  0.250000  0.916500  0.208777  1
  Dy  Dy2  1  0.750000  0.416500  0.291223  1
  Dy  Dy3  1  0.750000  0.083500  0.791223  1
  Co  Co4  1  0.250000  0.884636  0.696938  1
  Co  Co5  1  0.250000  0.615364  0.196938  1
  Co  Co6  1  0.750000  0.115364  0.303062  1
  Co  Co7  1  0.750000  0.384636  0.803062  1
  Co  Co8  1  0.250000  0.464145  0.932854  1
  Co  Co9  1  0.250000  0.035855  0.432854  1
  Co  Co10  1  0.750000  0.535855  0.067146  1
  Co  Co11  1  0.750000  0.964145  0.567146  1
  P  P12  1  0.250000  0.430414  0.110689  1
  P  P13  1  0.250000  0.069586  0.610689  1
  P  P14  1  0.750000  0.569586  0.889311  1
  P  P15  1  0.750000  0.930414  0.389311  1
  P  P16  1  0.250000  0.274671  0.871037  1
  P  P17  1  0.250000  0.225329  0.371037  1
  P  P18  1  0.750000  0.725329  0.128963  1
  P  P19  1  0.750000  0.774671  0.628963  1
  P  P20  1  0.250000  0.600152  0.381488  1
  P  P21  1  0.250000  0.899848  0.881488  1
  P  P22  1  0.750000  0.399848  0.618512  1
  P  P23  1  0.750000  0.100152  0.118512  1
  Rh  Rh24  1  0.250000  0.715788  0.991078  1
  Rh  Rh25  1  0.250000  0.784212  0.491078  1
  Rh  Rh26  1  0.750000  0.284212  0.008922  1
  Rh  Rh27  1  0.750000  0.215788  0.508922  1
  Rh  Rh28  1  0.250000  0.408331  0.479436  1
  Rh  Rh29  1  0.250000  0.091669  0.979436  1
  Rh  Rh30  1  0.750000  0.591669  0.520564  1
  Rh  Rh31  1  0.750000  0.908331  0.020564  1
  Rh  Rh32  1  0.250000  0.225602  0.179970  1
  Rh  Rh33  1  0.250000  0.274398  0.679970  1
  Rh  Rh34  1  0.750000  0.774398  0.820030  1
  Rh  Rh35  1  0.750000  0.725602  0.320030  1
