# generated using pymatgen
data_Tb5Pr2ThS12
_symmetry_space_group_name_H-M   'P 1'
_cell_length_a   3.96099600
_cell_length_b   10.50725321
_cell_length_c   10.82912624
_cell_angle_alpha   89.80050712
_cell_angle_beta   90.00000000
_cell_angle_gamma   90.00000000
_symmetry_Int_Tables_number   1
_chemical_formula_structural   Tb5Pr2ThS12
_chemical_formula_sum   'Tb5 Pr2 Th1 S12'
_cell_volume   450.69670843
_cell_formula_units_Z   1
loop_
 _symmetry_equiv_pos_site_id
 _symmetry_equiv_pos_as_xyz
  1  'x, y, z'
loop_
 _atom_site_type_symbol
 _atom_site_label
 _atom_site_symmetry_multiplicity
 _atom_site_fract_x
 _atom_site_fract_y
 _atom_site_fract_z
 _atom_site_occupancy
  Tb  Tb0  1  0.250000  0.504784  0.307575  1
  Tb  Tb1  1  0.250000  0.190879  0.485024  1
  Tb  Tb2  1  0.750000  0.811218  0.508549  1
  Tb  Tb3  1  0.750000  0.683203  0.013285  1
  Tb  Tb4  1  0.250000  0.315532  0.993816  1
  Pr  Pr5  1  0.750000  0.999866  0.195904  1
  Pr  Pr6  1  0.750000  0.494237  0.692706  1
  Th  Th7  1  0.250000  0.002382  0.806001  1
  S  S8  1  0.250000  0.290839  0.731268  1
  S  S9  1  0.750000  0.699762  0.271342  1
  S  S10  1  0.750000  0.803237  0.772518  1
  S  S11  1  0.250000  0.201762  0.227891  1
  S  S12  1  0.250000  0.946379  0.387191  1
  S  S13  1  0.750000  0.054598  0.616175  1
  S  S14  1  0.750000  0.445789  0.122279  1
  S  S15  1  0.250000  0.554352  0.884422  1
  S  S16  1  0.250000  0.868196  0.040616  1
  S  S17  1  0.750000  0.130683  0.951957  1
  S  S18  1  0.750000  0.372230  0.449088  1
  S  S19  1  0.250000  0.630075  0.542394  1
