# generated using pymatgen
data_YbNd5NpO12
_symmetry_space_group_name_H-M   'P 1'
_cell_length_a   6.73988852
_cell_length_b   6.74905531
_cell_length_c   6.75659200
_cell_angle_alpha   98.80749216
_cell_angle_beta   98.59350414
_cell_angle_gamma   98.85617911
_symmetry_Int_Tables_number   1
_chemical_formula_structural   YbNd5NpO12
_chemical_formula_sum   'Yb1 Nd5 Np1 O12'
_cell_volume   295.35039658
_cell_formula_units_Z   1
loop_
 _symmetry_equiv_pos_site_id
 _symmetry_equiv_pos_as_xyz
  1  'x, y, z'
loop_
 _atom_site_type_symbol
 _atom_site_label
 _atom_site_symmetry_multiplicity
 _atom_site_fract_x
 _atom_site_fract_y
 _atom_site_fract_z
 _atom_site_occupancy
  Yb  Yb0  1  0.393545  0.674057  0.849452  1
  Nd  Nd1  1  0.856129  0.391548  0.682561  1
  Nd  Nd2  1  0.677022  0.852455  0.387135  1
  Nd  Nd3  1  0.608107  0.322608  0.144942  1
  Nd  Nd4  1  0.152901  0.611444  0.323258  1
  Nd  Nd5  1  0.318728  0.146117  0.616434  1
  Np  Np6  1  0.997945  0.998372  0.999814  1
  O  O7  1  0.178131  0.432449  0.589568  1
  O  O8  1  0.591289  0.177816  0.433955  1
  O  O9  1  0.434529  0.593914  0.171847  1
  O  O10  1  0.822661  0.566432  0.408769  1
  O  O11  1  0.409570  0.821225  0.568858  1
  O  O12  1  0.566740  0.404297  0.822739  1
  O  O13  1  0.932089  0.039013  0.702643  1
  O  O14  1  0.960356  0.294895  0.069410  1
  O  O15  1  0.291921  0.077036  0.968040  1
  O  O16  1  0.067169  0.959906  0.297111  1
  O  O17  1  0.036930  0.707556  0.929301  1
  O  O18  1  0.704240  0.928859  0.034164  1
