# generated using pymatgen
data_Mg4CoNi2(As3Ir2)2
_symmetry_space_group_name_H-M   'P 1'
_cell_length_a   7.01314200
_cell_length_b   6.95814680
_cell_length_c   6.97761386
_cell_angle_alpha   109.24312399
_cell_angle_beta   109.93464227
_cell_angle_gamma   109.45103138
_symmetry_Int_Tables_number   1
_chemical_formula_structural   Mg4CoNi2(As3Ir2)2
_chemical_formula_sum   'Mg4 Co1 Ni2 As6 Ir4'
_cell_volume   261.40886303
_cell_formula_units_Z   1
loop_
 _symmetry_equiv_pos_site_id
 _symmetry_equiv_pos_as_xyz
  1  'x, y, z'
loop_
 _atom_site_type_symbol
 _atom_site_label
 _atom_site_symmetry_multiplicity
 _atom_site_fract_x
 _atom_site_fract_y
 _atom_site_fract_z
 _atom_site_occupancy
  Mg  Mg0  1  0.995668  0.991337  0.495668  1
  Mg  Mg1  1  0.499554  0.999109  0.999554  1
  Mg  Mg2  1  0.005117  0.504668  0.009018  1
  Mg  Mg3  1  0.499551  0.504668  0.495649  1
  Co  Co4  1  0.246206  0.492413  0.746206  1
  Ni  Ni5  1  0.753280  0.253574  0.507287  1
  Ni  Ni6  1  0.500294  0.253574  0.746287  1
  As  As7  1  0.674012  0.676225  0.984880  1
  As  As8  1  0.307454  0.311257  0.985069  1
  As  As9  1  0.002214  0.676225  0.691345  1
  As  As10  1  0.003803  0.311257  0.326188  1
  As  As11  1  0.690734  0.012945  0.690081  1
  As  As12  1  0.322211  0.012945  0.322864  1
  Ir  Ir13  1  0.999639  0.999278  0.999639  1
  Ir  Ir14  1  0.500594  0.756067  0.244923  1
  Ir  Ir15  1  0.744196  0.488392  0.244196  1
  Ir  Ir16  1  0.255473  0.756067  0.511144  1
