# generated using pymatgen
data_I11Br
_symmetry_space_group_name_H-M   'P 1'
_cell_length_a   10.36942590
_cell_length_b   9.64152119
_cell_length_c   9.32253071
_cell_angle_alpha   91.71269359
_cell_angle_beta   80.48568654
_cell_angle_gamma   122.52638515
_symmetry_Int_Tables_number   1
_chemical_formula_structural   I11Br
_chemical_formula_sum   'I11 Br1'
_cell_volume   773.08068287
_cell_formula_units_Z   1
loop_
 _symmetry_equiv_pos_site_id
 _symmetry_equiv_pos_as_xyz
  1  'x, y, z'
loop_
 _atom_site_type_symbol
 _atom_site_label
 _atom_site_symmetry_multiplicity
 _atom_site_fract_x
 _atom_site_fract_y
 _atom_site_fract_z
 _atom_site_occupancy
  I  I0  1  0.297782  0.197728  0.100852  1
  I  I1  1  0.000000  0.000000  0.000000  1
  I  I2  1  0.702218  0.802272  0.899148  1
  I  I3  1  0.500926  0.250713  0.824324  1
  I  I4  1  0.499074  0.749287  0.175676  1
  I  I5  1  0.983801  0.850955  0.511212  1
  I  I6  1  0.999567  0.499145  0.146174  1
  I  I7  1  0.016199  0.149045  0.488788  1
  I  I8  1  0.326288  0.713276  0.470541  1
  I  I9  1  0.673712  0.286724  0.529459  1
  I  I10  1  0.000433  0.500855  0.853826  1
  Br  Br11  1  0.000000  0.500000  0.500000  1
