# generated using pymatgen
data_Lu2B(IrRh)3
_symmetry_space_group_name_H-M   'P 1'
_cell_length_a   5.78111009
_cell_length_b   5.78110998
_cell_length_c   5.78132806
_cell_angle_alpha   60.00124881
_cell_angle_beta   60.00124609
_cell_angle_gamma   60.00000307
_symmetry_Int_Tables_number   1
_chemical_formula_structural   Lu2B(IrRh)3
_chemical_formula_sum   'Lu2 B1 Ir3 Rh3'
_cell_volume   136.62912465
_cell_formula_units_Z   1
loop_
 _symmetry_equiv_pos_site_id
 _symmetry_equiv_pos_as_xyz
  1  'x, y, z'
loop_
 _atom_site_type_symbol
 _atom_site_label
 _atom_site_symmetry_multiplicity
 _atom_site_fract_x
 _atom_site_fract_y
 _atom_site_fract_z
 _atom_site_occupancy
  Lu  Lu0  1  0.750094  0.750094  0.749718  1
  Lu  Lu1  1  0.249856  0.249856  0.250432  1
  B  B2  1  0.000317  0.000317  0.999050  1
  Ir  Ir3  1  0.258568  0.258568  0.742025  1
  Ir  Ir4  1  0.740839  0.258568  0.742025  1
  Ir  Ir5  1  0.258568  0.740839  0.742025  1
  Rh  Rh6  1  0.741904  0.741904  0.258241  1
  Rh  Rh7  1  0.257951  0.741904  0.258241  1
  Rh  Rh8  1  0.741904  0.257951  0.258241  1
