# generated using pymatgen
data_Nd3GaS6
_symmetry_space_group_name_H-M   'P 1'
_cell_length_a   8.80452489
_cell_length_b   8.80452568
_cell_length_c   6.65981600
_cell_angle_alpha   90.00000000
_cell_angle_beta   90.00000000
_cell_angle_gamma   102.21731888
_symmetry_Int_Tables_number   1
_chemical_formula_structural   Nd3GaS6
_chemical_formula_sum   'Nd6 Ga2 S12'
_cell_volume   504.57428552
_cell_formula_units_Z   2
loop_
 _symmetry_equiv_pos_site_id
 _symmetry_equiv_pos_as_xyz
  1  'x, y, z'
loop_
 _atom_site_type_symbol
 _atom_site_label
 _atom_site_symmetry_multiplicity
 _atom_site_fract_x
 _atom_site_fract_y
 _atom_site_fract_z
 _atom_site_occupancy
  Nd  Nd0  1  0.284132  0.084794  0.225582  1
  Nd  Nd1  1  0.915206  0.715868  0.225582  1
  Nd  Nd2  1  0.715868  0.915206  0.725582  1
  Nd  Nd3  1  0.084794  0.284132  0.725582  1
  Nd  Nd4  1  0.400245  0.599755  0.139683  1
  Nd  Nd5  1  0.599755  0.400245  0.639683  1
  Ga  Ga6  1  0.200442  0.799558  0.764157  1
  Ga  Ga7  1  0.799558  0.200442  0.264157  1
  S  S8  1  0.572802  0.101340  0.435955  1
  S  S9  1  0.898660  0.427198  0.435955  1
  S  S10  1  0.427198  0.898660  0.935955  1
  S  S11  1  0.101340  0.572802  0.935955  1
  S  S12  1  0.634589  0.688888  0.432440  1
  S  S13  1  0.311112  0.365411  0.432440  1
  S  S14  1  0.365411  0.311112  0.932440  1
  S  S15  1  0.688888  0.634589  0.932440  1
  S  S16  1  0.217844  0.782156  0.421422  1
  S  S17  1  0.782156  0.217844  0.921422  1
  S  S18  1  0.957843  0.042157  0.401785  1
  S  S19  1  0.042157  0.957843  0.901785  1
