# generated using pymatgen
data_Th3In2GeRh3
_symmetry_space_group_name_H-M   'P 1'
_cell_length_a   7.63368700
_cell_length_b   7.59669781
_cell_length_c   3.99343400
_cell_angle_alpha   90.00000000
_cell_angle_beta   90.00000000
_cell_angle_gamma   120.16119579
_symmetry_Int_Tables_number   1
_chemical_formula_structural   Th3In2GeRh3
_chemical_formula_sum   'Th3 In2 Ge1 Rh3'
_cell_volume   200.22975549
_cell_formula_units_Z   1
loop_
 _symmetry_equiv_pos_site_id
 _symmetry_equiv_pos_as_xyz
  1  'x, y, z'
loop_
 _atom_site_type_symbol
 _atom_site_label
 _atom_site_symmetry_multiplicity
 _atom_site_fract_x
 _atom_site_fract_y
 _atom_site_fract_z
 _atom_site_occupancy
  Th  Th0  1  0.428691  0.000000  0.500000  1
  Th  Th1  1  0.997411  0.406197  0.500000  1
  Th  Th2  1  0.591214  0.593803  0.500000  1
  In  In3  1  0.007147  0.757928  0.000000  1
  In  In4  1  0.249220  0.242072  0.000000  1
  Ge  Ge5  1  0.747332  0.000000  0.000000  1
  Rh  Rh6  1  0.346034  0.673774  0.000000  1
  Rh  Rh7  1  0.672262  0.326226  0.000000  1
  Rh  Rh8  1  0.960688  0.000000  0.500000  1
