# generated using pymatgen
data_Ho2Al9Ni2Os
_symmetry_space_group_name_H-M   'P 1'
_cell_length_a   7.47788175
_cell_length_b   7.47788248
_cell_length_c   9.32012460
_cell_angle_alpha   89.71809624
_cell_angle_beta   89.71809018
_cell_angle_gamma   119.89494905
_symmetry_Int_Tables_number   1
_chemical_formula_structural   Ho2Al9Ni2Os
_chemical_formula_sum   'Ho4 Al18 Ni4 Os2'
_cell_volume   451.80119258
_cell_formula_units_Z   2
loop_
 _symmetry_equiv_pos_site_id
 _symmetry_equiv_pos_as_xyz
  1  'x, y, z'
loop_
 _atom_site_type_symbol
 _atom_site_label
 _atom_site_symmetry_multiplicity
 _atom_site_fract_x
 _atom_site_fract_y
 _atom_site_fract_z
 _atom_site_occupancy
  Ho  Ho0  1  0.994661  0.665971  0.251741  1
  Ho  Ho1  1  0.005339  0.334029  0.748259  1
  Ho  Ho2  1  0.665971  0.994661  0.251741  1
  Ho  Ho3  1  0.334029  0.005339  0.748259  1
  Al  Al4  1  0.119761  0.119761  0.249031  1
  Al  Al5  1  0.880239  0.880239  0.750969  1
  Al  Al6  1  0.997488  0.332458  0.073409  1
  Al  Al7  1  0.002512  0.667542  0.926591  1
  Al  Al8  1  0.998694  0.666567  0.573560  1
  Al  Al9  1  0.333433  0.001306  0.426440  1
  Al  Al10  1  0.001306  0.333433  0.426440  1
  Al  Al11  1  0.666567  0.998694  0.573560  1
  Al  Al12  1  0.667542  0.002512  0.926591  1
  Al  Al13  1  0.332458  0.997488  0.073409  1
  Al  Al14  1  0.332380  0.332380  0.547148  1
  Al  Al15  1  0.667620  0.667620  0.452852  1
  Al  Al16  1  0.668348  0.668348  0.051256  1
  Al  Al17  1  0.331652  0.331652  0.948744  1
  Al  Al18  1  0.338295  0.548375  0.247041  1
  Al  Al19  1  0.661705  0.451625  0.752959  1
  Al  Al20  1  0.548375  0.338295  0.247041  1
  Al  Al21  1  0.451625  0.661705  0.752959  1
  Ni  Ni22  1  0.671944  0.328056  0.000000  1
  Ni  Ni23  1  0.328056  0.671944  0.000000  1
  Ni  Ni24  1  0.000000  0.000000  0.000000  1
  Ni  Ni25  1  0.000000  0.000000  0.500000  1
  Os  Os26  1  0.327947  0.672053  0.500000  1
  Os  Os27  1  0.672053  0.327947  0.500000  1
