# generated using pymatgen
data_Tb9Sm8Dy3Sn16
_symmetry_space_group_name_H-M   'P 1'
_cell_length_a   8.07957600
_cell_length_b   8.25693532
_cell_length_c   15.59998300
_cell_angle_alpha   90.00000000
_cell_angle_beta   90.00000000
_cell_angle_gamma   89.93493889
_symmetry_Int_Tables_number   1
_chemical_formula_structural   Tb9Sm8Dy3Sn16
_chemical_formula_sum   'Tb9 Sm8 Dy3 Sn16'
_cell_volume   1040.71376389
_cell_formula_units_Z   1
loop_
 _symmetry_equiv_pos_site_id
 _symmetry_equiv_pos_as_xyz
  1  'x, y, z'
loop_
 _atom_site_type_symbol
 _atom_site_label
 _atom_site_symmetry_multiplicity
 _atom_site_fract_x
 _atom_site_fract_y
 _atom_site_fract_z
 _atom_site_occupancy
  Tb  Tb0  1  0.362212  0.836247  0.877679  1
  Tb  Tb1  1  0.862153  0.663495  0.622477  1
  Tb  Tb2  1  0.637926  0.163811  0.377496  1
  Tb  Tb3  1  0.137911  0.336480  0.122937  1
  Tb  Tb4  1  0.637926  0.163811  0.122504  1
  Tb  Tb5  1  0.137911  0.336480  0.377063  1
  Tb  Tb6  1  0.362212  0.836247  0.622321  1
  Tb  Tb7  1  0.862153  0.663495  0.877523  1
  Tb  Tb8  1  0.194783  0.501861  0.750000  1
  Sm  Sm9  1  0.515258  0.320223  0.903300  1
  Sm  Sm10  1  0.014986  0.179210  0.596642  1
  Sm  Sm11  1  0.484506  0.679553  0.402863  1
  Sm  Sm12  1  0.984602  0.820775  0.096892  1
  Sm  Sm13  1  0.484506  0.679553  0.097137  1
  Sm  Sm14  1  0.984602  0.820775  0.403108  1
  Sm  Sm15  1  0.515258  0.320223  0.596700  1
  Sm  Sm16  1  0.014986  0.179210  0.903358  1
  Dy  Dy17  1  0.694782  0.997179  0.750000  1
  Dy  Dy18  1  0.805369  0.497925  0.250000  1
  Dy  Dy19  1  0.305511  0.002528  0.250000  1
  Sn  Sn20  1  0.298971  0.038599  0.042081  1
  Sn  Sn21  1  0.799142  0.461985  0.457825  1
  Sn  Sn22  1  0.700936  0.961382  0.541962  1
  Sn  Sn23  1  0.201045  0.538704  0.958554  1
  Sn  Sn24  1  0.700936  0.961382  0.958038  1
  Sn  Sn25  1  0.201045  0.538704  0.541446  1
  Sn  Sn26  1  0.298971  0.038599  0.457919  1
  Sn  Sn27  1  0.799142  0.461985  0.042175  1
  Sn  Sn28  1  0.561120  0.619640  0.750000  1
  Sn  Sn29  1  0.060500  0.880657  0.750000  1
  Sn  Sn30  1  0.439878  0.381102  0.250000  1
  Sn  Sn31  1  0.939473  0.119234  0.250000  1
  Sn  Sn32  1  0.324277  0.144415  0.750000  1
  Sn  Sn33  1  0.823381  0.353759  0.750000  1
  Sn  Sn34  1  0.675859  0.854516  0.250000  1
  Sn  Sn35  1  0.175772  0.646259  0.250000  1
