# generated using pymatgen
data_Nd3Ho3SbRuO14
_symmetry_space_group_name_H-M   'P 1'
_cell_length_a   6.43108465
_cell_length_b   6.65423236
_cell_length_c   7.58220600
_cell_angle_alpha   106.61438734
_cell_angle_beta   89.30094949
_cell_angle_gamma   98.28101093
_symmetry_Int_Tables_number   1
_chemical_formula_structural   Nd3Ho3SbRuO14
_chemical_formula_sum   'Nd3 Ho3 Sb1 Ru1 O14'
_cell_volume   307.54036373
_cell_formula_units_Z   1
loop_
 _symmetry_equiv_pos_site_id
 _symmetry_equiv_pos_as_xyz
  1  'x, y, z'
loop_
 _atom_site_type_symbol
 _atom_site_label
 _atom_site_symmetry_multiplicity
 _atom_site_fract_x
 _atom_site_fract_y
 _atom_site_fract_z
 _atom_site_occupancy
  Nd  Nd0  1  0.736422  0.463067  0.113891  1
  Nd  Nd1  1  0.741703  0.468099  0.616953  1
  Nd  Nd2  1  0.254446  0.530331  0.386379  1
  Ho  Ho3  1  0.541248  0.991781  0.746754  1
  Ho  Ho4  1  0.457058  0.004886  0.253478  1
  Ho  Ho5  1  0.265056  0.534353  0.884279  1
  Sb  Sb6  1  0.004375  0.000160  0.998336  1
  Ru  Ru7  1  0.001238  0.003316  0.501465  1
  O  O8  1  0.437077  0.655990  0.160322  1
  O  O9  1  0.543904  0.340179  0.832370  1
  O  O10  1  0.297053  0.939494  0.956617  1
  O  O11  1  0.709944  0.056942  0.046051  1
  O  O12  1  0.288467  0.935126  0.516121  1
  O  O13  1  0.713327  0.066498  0.484560  1
  O  O14  1  0.540400  0.352845  0.340914  1
  O  O15  1  0.451998  0.645555  0.666528  1
  O  O16  1  0.935516  0.679092  0.942015  1
  O  O17  1  0.079176  0.318016  0.044729  1
  O  O18  1  0.078906  0.320517  0.614456  1
  O  O19  1  0.922130  0.685793  0.392536  1
  O  O20  1  0.901682  0.944865  0.733220  1
  O  O21  1  0.098872  0.063095  0.268027  1
