# generated using pymatgen
data_HoTa(NiP)3
_symmetry_space_group_name_H-M   'P 1'
_cell_length_a   3.66839300
_cell_length_b   10.09200100
_cell_length_c   12.10776000
_cell_angle_alpha   90.00000000
_cell_angle_beta   90.00000000
_cell_angle_gamma   90.00000000
_symmetry_Int_Tables_number   1
_chemical_formula_structural   HoTa(NiP)3
_chemical_formula_sum   'Ho4 Ta4 Ni12 P12'
_cell_volume   448.24653874
_cell_formula_units_Z   4
loop_
 _symmetry_equiv_pos_site_id
 _symmetry_equiv_pos_as_xyz
  1  'x, y, z'
loop_
 _atom_site_type_symbol
 _atom_site_label
 _atom_site_symmetry_multiplicity
 _atom_site_fract_x
 _atom_site_fract_y
 _atom_site_fract_z
 _atom_site_occupancy
  Ho  Ho0  1  0.250000  0.072918  0.206937  1
  Ho  Ho1  1  0.750000  0.927082  0.793063  1
  Ho  Ho2  1  0.750000  0.572918  0.293063  1
  Ho  Ho3  1  0.250000  0.427082  0.706937  1
  Ta  Ta4  1  0.250000  0.165225  0.494725  1
  Ta  Ta5  1  0.750000  0.834775  0.505275  1
  Ta  Ta6  1  0.750000  0.665225  0.005275  1
  Ta  Ta7  1  0.250000  0.334775  0.994725  1
  Ni  Ni8  1  0.250000  0.730179  0.665640  1
  Ni  Ni9  1  0.750000  0.269821  0.334360  1
  Ni  Ni10  1  0.750000  0.230179  0.834360  1
  Ni  Ni11  1  0.250000  0.769821  0.165640  1
  Ni  Ni12  1  0.250000  0.369276  0.214126  1
  Ni  Ni13  1  0.750000  0.630724  0.785874  1
  Ni  Ni14  1  0.750000  0.869276  0.285874  1
  Ni  Ni15  1  0.250000  0.130724  0.714126  1
  Ni  Ni16  1  0.250000  0.599721  0.483093  1
  Ni  Ni17  1  0.750000  0.400279  0.516907  1
  Ni  Ni18  1  0.750000  0.099721  0.016907  1
  Ni  Ni19  1  0.250000  0.900279  0.983093  1
  P  P20  1  0.250000  0.945059  0.616820  1
  P  P21  1  0.750000  0.054941  0.383180  1
  P  P22  1  0.750000  0.445059  0.883180  1
  P  P23  1  0.250000  0.554941  0.116820  1
  P  P24  1  0.250000  0.391311  0.401481  1
  P  P25  1  0.750000  0.608689  0.598519  1
  P  P26  1  0.750000  0.891311  0.098519  1
  P  P27  1  0.250000  0.108689  0.901481  1
  P  P28  1  0.250000  0.771473  0.358620  1
  P  P29  1  0.750000  0.228527  0.641380  1
  P  P30  1  0.750000  0.271473  0.141380  1
  P  P31  1  0.250000  0.728527  0.858620  1
