# generated using pymatgen
data_DyLu3CrOsC4
_symmetry_space_group_name_H-M   'P 1'
_cell_length_a   4.97728400
_cell_length_b   6.43092774
_cell_length_c   9.62798288
_cell_angle_alpha   89.93686112
_cell_angle_beta   90.00000000
_cell_angle_gamma   90.00000000
_symmetry_Int_Tables_number   1
_chemical_formula_structural   DyLu3CrOsC4
_chemical_formula_sum   'Dy2 Lu6 Cr2 Os2 C8'
_cell_volume   308.17762003
_cell_formula_units_Z   2
loop_
 _symmetry_equiv_pos_site_id
 _symmetry_equiv_pos_as_xyz
  1  'x, y, z'
loop_
 _atom_site_type_symbol
 _atom_site_label
 _atom_site_symmetry_multiplicity
 _atom_site_fract_x
 _atom_site_fract_y
 _atom_site_fract_z
 _atom_site_occupancy
  Dy  Dy0  1  0.750000  0.971319  0.714953  1
  Dy  Dy1  1  0.250000  0.028681  0.285047  1
  Lu  Lu2  1  0.250000  0.678913  0.559647  1
  Lu  Lu3  1  0.750000  0.321087  0.440353  1
  Lu  Lu4  1  0.750000  0.825153  0.055667  1
  Lu  Lu5  1  0.250000  0.174847  0.944333  1
  Lu  Lu6  1  0.250000  0.532650  0.216699  1
  Lu  Lu7  1  0.750000  0.467350  0.783301  1
  Cr  Cr8  1  0.250000  0.723651  0.863914  1
  Cr  Cr9  1  0.750000  0.276349  0.136086  1
  Os  Os10  1  0.750000  0.774688  0.364437  1
  Os  Os11  1  0.250000  0.225312  0.635563  1
  C  C12  1  0.250000  0.461973  0.765492  1
  C  C13  1  0.750000  0.538027  0.234508  1
  C  C14  1  0.750000  0.048725  0.256367  1
  C  C15  1  0.250000  0.951275  0.743633  1
  C  C16  1  0.250000  0.815343  0.043470  1
  C  C17  1  0.750000  0.184657  0.956530  1
  C  C18  1  0.750000  0.669807  0.551666  1
  C  C19  1  0.250000  0.330193  0.448334  1
