# generated using pymatgen
data_Li3CdHg2
_symmetry_space_group_name_H-M   'P 1'
_cell_length_a   4.72545773
_cell_length_b   4.72545955
_cell_length_c   5.74351834
_cell_angle_alpha   90.05056367
_cell_angle_beta   90.05056444
_cell_angle_gamma   60.06501341
_symmetry_Int_Tables_number   1
_chemical_formula_structural   Li3CdHg2
_chemical_formula_sum   'Li3 Cd1 Hg2'
_cell_volume   111.14258469
_cell_formula_units_Z   1
loop_
 _symmetry_equiv_pos_site_id
 _symmetry_equiv_pos_as_xyz
  1  'x, y, z'
loop_
 _atom_site_type_symbol
 _atom_site_label
 _atom_site_symmetry_multiplicity
 _atom_site_fract_x
 _atom_site_fract_y
 _atom_site_fract_z
 _atom_site_occupancy
  Li  Li0  1  0.832572  0.832572  0.185943  1
  Li  Li1  1  0.500000  0.500000  0.500001  1
  Li  Li2  1  0.167429  0.167429  0.814056  1
  Cd  Cd3  1  0.500000  0.500000  0.000000  1
  Hg  Hg4  1  0.166386  0.166386  0.314522  1
  Hg  Hg5  1  0.833614  0.833614  0.685478  1
