# generated using pymatgen
data_Y4HoRuRh
_symmetry_space_group_name_H-M   'P 1'
_cell_length_a   6.42097558
_cell_length_b   7.27587396
_cell_length_c   8.56194011
_cell_angle_alpha   96.81918333
_cell_angle_beta   112.02258206
_cell_angle_gamma   90.00000272
_symmetry_Int_Tables_number   1
_chemical_formula_structural   Y4HoRuRh
_chemical_formula_sum   'Y8 Ho2 Ru2 Rh2'
_cell_volume   367.75891098
_cell_formula_units_Z   2
loop_
 _symmetry_equiv_pos_site_id
 _symmetry_equiv_pos_as_xyz
  1  'x, y, z'
loop_
 _atom_site_type_symbol
 _atom_site_label
 _atom_site_symmetry_multiplicity
 _atom_site_fract_x
 _atom_site_fract_y
 _atom_site_fract_z
 _atom_site_occupancy
  Y  Y0  1  0.980668  0.917625  0.188036  1
  Y  Y1  1  0.792632  0.582375  0.811964  1
  Y  Y2  1  0.024656  0.085724  0.814657  1
  Y  Y3  1  0.210000  0.414276  0.185343  1
  Y  Y4  1  0.641855  0.816265  0.433545  1
  Y  Y5  1  0.208309  0.683735  0.566455  1
  Y  Y6  1  0.354833  0.187418  0.563421  1
  Y  Y7  1  0.791413  0.312582  0.436579  1
  Ho  Ho8  1  0.422510  0.750000  0.000000  1
  Ho  Ho9  1  0.574925  0.250000  0.000000  1
  Ru  Ru10  1  0.180764  0.426251  0.782412  1
  Ru  Ru11  1  0.398352  0.073749  0.217588  1
  Rh  Rh12  1  0.818676  0.575208  0.218272  1
  Rh  Rh13  1  0.600405  0.924792  0.781728  1
