# generated using pymatgen
data_Rb4V2PdSe8
_symmetry_space_group_name_H-M   'P 1'
_cell_length_a   13.56297400
_cell_length_b   7.56044135
_cell_length_c   9.85415226
_cell_angle_alpha   84.57741038
_cell_angle_beta   90.00000000
_cell_angle_gamma   90.00000000
_symmetry_Int_Tables_number   1
_chemical_formula_structural   Rb4V2PdSe8
_chemical_formula_sum   'Rb8 V4 Pd2 Se16'
_cell_volume   1005.94311585
_cell_formula_units_Z   2
loop_
 _symmetry_equiv_pos_site_id
 _symmetry_equiv_pos_as_xyz
  1  'x, y, z'
loop_
 _atom_site_type_symbol
 _atom_site_label
 _atom_site_symmetry_multiplicity
 _atom_site_fract_x
 _atom_site_fract_y
 _atom_site_fract_z
 _atom_site_occupancy
  Rb  Rb0  1  0.132922  0.820661  0.676230  1
  Rb  Rb1  1  0.632922  0.179339  0.823770  1
  Rb  Rb2  1  0.867078  0.179339  0.323770  1
  Rb  Rb3  1  0.367078  0.820661  0.176230  1
  Rb  Rb4  1  0.351150  0.273773  0.540515  1
  Rb  Rb5  1  0.851150  0.726227  0.959485  1
  Rb  Rb6  1  0.648850  0.726227  0.459485  1
  Rb  Rb7  1  0.148850  0.273773  0.040515  1
  V  V8  1  0.425148  0.750058  0.766726  1
  V  V9  1  0.925148  0.249942  0.733274  1
  V  V10  1  0.574852  0.249942  0.233274  1
  V  V11  1  0.074852  0.750058  0.266726  1
  Pd  Pd12  1  0.000000  0.500000  0.500000  1
  Pd  Pd13  1  0.500000  0.500000  0.000000  1
  Se  Se14  1  0.090655  0.302606  0.675955  1
  Se  Se15  1  0.590655  0.697394  0.824045  1
  Se  Se16  1  0.909345  0.697394  0.324045  1
  Se  Se17  1  0.409345  0.302606  0.175955  1
  Se  Se18  1  0.397979  0.757479  0.539981  1
  Se  Se19  1  0.897979  0.242521  0.960019  1
  Se  Se20  1  0.602021  0.242521  0.460019  1
  Se  Se21  1  0.102021  0.757479  0.039981  1
  Se  Se22  1  0.160534  0.514398  0.377978  1
  Se  Se23  1  0.660534  0.485602  0.122022  1
  Se  Se24  1  0.839466  0.485602  0.622022  1
  Se  Se25  1  0.339466  0.514398  0.877978  1
  Se  Se26  1  0.371392  0.008952  0.839544  1
  Se  Se27  1  0.871392  0.991048  0.660456  1
  Se  Se28  1  0.628608  0.991048  0.160456  1
  Se  Se29  1  0.128608  0.008952  0.339544  1
