# generated using pymatgen
data_Lu16Cd4IrRh3
_symmetry_space_group_name_H-M   'P 1'
_cell_length_a   9.45464841
_cell_length_b   9.42119835
_cell_length_c   9.42801300
_cell_angle_alpha   59.97606599
_cell_angle_beta   60.09314425
_cell_angle_gamma   60.05807454
_symmetry_Int_Tables_number   1
_chemical_formula_structural   Lu16Cd4IrRh3
_chemical_formula_sum   'Lu16 Cd4 Ir1 Rh3'
_cell_volume   594.39234943
_cell_formula_units_Z   1
loop_
 _symmetry_equiv_pos_site_id
 _symmetry_equiv_pos_as_xyz
  1  'x, y, z'
loop_
 _atom_site_type_symbol
 _atom_site_label
 _atom_site_symmetry_multiplicity
 _atom_site_fract_x
 _atom_site_fract_y
 _atom_site_fract_z
 _atom_site_occupancy
  Lu  Lu0  1  0.350001  0.349752  0.349660  1
  Lu  Lu1  1  0.350001  0.349752  0.950586  1
  Lu  Lu2  1  0.349390  0.951364  0.349622  1
  Lu  Lu3  1  0.950035  0.350018  0.349973  1
  Lu  Lu4  1  0.810586  0.189285  0.189524  1
  Lu  Lu5  1  0.189530  0.810612  0.810685  1
  Lu  Lu6  1  0.189530  0.810612  0.189173  1
  Lu  Lu7  1  0.810586  0.189285  0.810605  1
  Lu  Lu8  1  0.189790  0.189230  0.810490  1
  Lu  Lu9  1  0.810615  0.810240  0.189573  1
  Lu  Lu10  1  0.936287  0.563754  0.563886  1
  Lu  Lu11  1  0.563855  0.936997  0.937031  1
  Lu  Lu12  1  0.563855  0.936997  0.562116  1
  Lu  Lu13  1  0.936287  0.563754  0.936073  1
  Lu  Lu14  1  0.563724  0.561931  0.937173  1
  Lu  Lu15  1  0.936205  0.935899  0.563948  1
  Cd  Cd16  1  0.581531  0.581447  0.581561  1
  Cd  Cd17  1  0.581531  0.581447  0.255461  1
  Cd  Cd18  1  0.582188  0.255482  0.581165  1
  Cd  Cd19  1  0.255200  0.581442  0.581679  1
  Ir  Ir20  1  0.573978  0.141968  0.142026  1
  Rh  Rh21  1  0.141271  0.143178  0.141465  1
  Rh  Rh22  1  0.141271  0.143178  0.574086  1
  Rh  Rh23  1  0.142751  0.572374  0.142437  1
