# generated using pymatgen
data_UPa5F24
_symmetry_space_group_name_H-M   'P 1'
_cell_length_a   8.49066322
_cell_length_b   8.49066436
_cell_length_c   8.51211717
_cell_angle_alpha   63.07030608
_cell_angle_beta   63.07030360
_cell_angle_gamma   80.24652082
_symmetry_Int_Tables_number   1
_chemical_formula_structural   UPa5F24
_chemical_formula_sum   'U1 Pa5 F24'
_cell_volume   487.28862827
_cell_formula_units_Z   1
loop_
 _symmetry_equiv_pos_site_id
 _symmetry_equiv_pos_as_xyz
  1  'x, y, z'
loop_
 _atom_site_type_symbol
 _atom_site_label
 _atom_site_symmetry_multiplicity
 _atom_site_fract_x
 _atom_site_fract_y
 _atom_site_fract_z
 _atom_site_occupancy
  U  U0  1  0.787439  0.212561  0.250000  1
  Pa  Pa1  1  0.225048  0.366808  0.331079  1
  Pa  Pa2  1  0.633192  0.774952  0.168921  1
  Pa  Pa3  1  0.776959  0.633413  0.668152  1
  Pa  Pa4  1  0.366587  0.223041  0.831848  1
  Pa  Pa5  1  0.213598  0.786402  0.750000  1
  F  F6  1  0.723572  0.021255  0.153112  1
  F  F7  1  0.978745  0.276428  0.346888  1
  F  F8  1  0.275514  0.973726  0.845185  1
  F  F9  1  0.026274  0.724486  0.654815  1
  F  F10  1  0.498598  0.258962  0.289521  1
  F  F11  1  0.741038  0.501402  0.210479  1
  F  F12  1  0.497340  0.998689  0.001333  1
  F  F13  1  0.001311  0.502660  0.498667  1
  F  F14  1  0.397543  0.602457  0.250000  1
  F  F15  1  0.598811  0.401189  0.750000  1
  F  F16  1  0.809663  0.403317  0.924599  1
  F  F17  1  0.596683  0.190337  0.575401  1
  F  F18  1  0.191740  0.600684  0.069978  1
  F  F19  1  0.399316  0.808260  0.430022  1
  F  F20  1  0.073788  0.173260  0.041169  1
  F  F21  1  0.826740  0.926212  0.458831  1
  F  F22  1  0.934055  0.823820  0.954170  1
  F  F23  1  0.176180  0.065945  0.545830  1
  F  F24  1  0.677169  0.739171  0.895796  1
  F  F25  1  0.260829  0.322831  0.604204  1
  F  F26  1  0.323945  0.264614  0.101869  1
  F  F27  1  0.735386  0.676055  0.398131  1
  F  F28  1  0.255448  0.502510  0.789422  1
  F  F29  1  0.497490  0.744552  0.710578  1
