# generated using pymatgen
data_Tb3HoGa18(OsPd)3
_symmetry_space_group_name_H-M   'P 1'
_cell_length_a   7.62656551
_cell_length_b   7.62583273
_cell_length_c   9.57118239
_cell_angle_alpha   89.91167738
_cell_angle_beta   89.90338688
_cell_angle_gamma   119.85692133
_symmetry_Int_Tables_number   1
_chemical_formula_structural   Tb3HoGa18(OsPd)3
_chemical_formula_sum   'Tb3 Ho1 Ga18 Os3 Pd3'
_cell_volume   482.76368399
_cell_formula_units_Z   1
loop_
 _symmetry_equiv_pos_site_id
 _symmetry_equiv_pos_as_xyz
  1  'x, y, z'
loop_
 _atom_site_type_symbol
 _atom_site_label
 _atom_site_symmetry_multiplicity
 _atom_site_fract_x
 _atom_site_fract_y
 _atom_site_fract_z
 _atom_site_occupancy
  Tb  Tb0  1  0.995364  0.668941  0.251443  1
  Tb  Tb1  1  0.002422  0.329669  0.747889  1
  Tb  Tb2  1  0.670272  0.997560  0.252093  1
  Ho  Ho3  1  0.331048  0.004346  0.748461  1
  Ga  Ga4  1  0.133166  0.129999  0.250185  1
  Ga  Ga5  1  0.870288  0.867019  0.749965  1
  Ga  Ga6  1  0.005343  0.337788  0.080334  1
  Ga  Ga7  1  0.003202  0.665655  0.918970  1
  Ga  Ga8  1  0.000566  0.661726  0.578146  1
  Ga  Ga9  1  0.338779  0.999797  0.423046  1
  Ga  Ga10  1  0.001217  0.338937  0.421008  1
  Ga  Ga11  1  0.660446  0.999028  0.579579  1
  Ga  Ga12  1  0.661856  0.995207  0.919016  1
  Ga  Ga13  1  0.335127  0.997757  0.079630  1
  Ga  Ga14  1  0.339408  0.338606  0.564851  1
  Ga  Ga15  1  0.660532  0.660191  0.436166  1
  Ga  Ga16  1  0.660504  0.665213  0.068557  1
  Ga  Ga17  1  0.334670  0.338758  0.930366  1
  Ga  Ga18  1  0.336432  0.550682  0.250861  1
  Ga  Ga19  1  0.665470  0.454762  0.747074  1
  Ga  Ga20  1  0.544606  0.334057  0.252982  1
  Ga  Ga21  1  0.449288  0.663961  0.749164  1
  Os  Os22  1  0.327719  0.672517  0.999763  1
  Os  Os23  1  0.327385  0.672523  0.500278  1
  Os  Os24  1  0.672921  0.326991  0.500196  1
  Pd  Pd25  1  0.671803  0.328888  0.999845  1
  Pd  Pd26  1  0.000718  0.999160  0.999894  1
  Pd  Pd27  1  0.999444  0.000261  0.500240  1
