# generated using pymatgen
data_Dy3(TmSe2)4
_symmetry_space_group_name_H-M   'P 1'
_cell_length_a   8.02024049
_cell_length_b   8.01712446
_cell_length_c   8.02024000
_cell_angle_alpha   119.99660646
_cell_angle_beta   90.02008864
_cell_angle_gamma   120.00591055
_symmetry_Int_Tables_number   1
_chemical_formula_structural   Dy3(TmSe2)4
_chemical_formula_sum   'Dy3 Tm4 Se8'
_cell_volume   364.57395897
_cell_formula_units_Z   1
loop_
 _symmetry_equiv_pos_site_id
 _symmetry_equiv_pos_as_xyz
  1  'x, y, z'
loop_
 _atom_site_type_symbol
 _atom_site_label
 _atom_site_symmetry_multiplicity
 _atom_site_fract_x
 _atom_site_fract_y
 _atom_site_fract_z
 _atom_site_occupancy
  Dy  Dy0  1  0.750019  0.000009  0.249989  1
  Dy  Dy1  1  0.249989  0.500001  0.749991  1
  Dy  Dy2  1  0.249984  0.000000  0.750018  1
  Tm  Tm3  1  0.249998  0.999997  0.250002  1
  Tm  Tm4  1  0.250002  0.500009  0.250006  1
  Tm  Tm5  1  0.750004  0.000004  0.750004  1
  Tm  Tm6  1  0.750003  0.499991  0.750000  1
  Se  Se7  1  0.999998  0.000002  0.000000  1
  Se  Se8  1  0.500006  0.000002  0.500000  1
  Se  Se9  1  0.993697  0.987472  0.493681  1
  Se  Se10  1  0.993683  0.499896  0.493682  1
  Se  Se11  1  0.506734  0.499971  0.493242  1
  Se  Se12  1  0.993265  0.500020  0.006763  1
  Se  Se13  1  0.506307  0.500098  0.006305  1
  Se  Se14  1  0.506314  0.012531  0.006326  1
