# generated using pymatgen
data_Lu3In2
_symmetry_space_group_name_H-M   'P 1'
_cell_length_a   11.38090681
_cell_length_b   11.38090639
_cell_length_c   11.38090700
_cell_angle_alpha   116.90016330
_cell_angle_beta   116.90016222
_cell_angle_gamma   95.45854416
_symmetry_Int_Tables_number   1
_chemical_formula_structural   Lu3In2
_chemical_formula_sum   'Lu24 In16'
_cell_volume   1085.85956927
_cell_formula_units_Z   8
loop_
 _symmetry_equiv_pos_site_id
 _symmetry_equiv_pos_as_xyz
  1  'x, y, z'
loop_
 _atom_site_type_symbol
 _atom_site_label
 _atom_site_symmetry_multiplicity
 _atom_site_fract_x
 _atom_site_fract_y
 _atom_site_fract_z
 _atom_site_occupancy
  Lu  Lu0  1  0.146894  0.646894  0.500000  1
  Lu  Lu1  1  0.646894  0.146894  0.500000  1
  Lu  Lu2  1  0.853106  0.353106  0.500000  1
  Lu  Lu3  1  0.353106  0.853106  0.500000  1
  Lu  Lu4  1  0.669068  0.169068  0.838135  1
  Lu  Lu5  1  0.330932  0.830932  0.161865  1
  Lu  Lu6  1  0.169068  0.330932  0.500000  1
  Lu  Lu7  1  0.830932  0.669068  0.500000  1
  Lu  Lu8  1  0.069402  0.930101  0.269871  1
  Lu  Lu9  1  0.660230  0.799530  0.730129  1
  Lu  Lu10  1  0.569402  0.299530  0.139300  1
  Lu  Lu11  1  0.160230  0.430101  0.860700  1
  Lu  Lu12  1  0.799530  0.069402  0.139300  1
  Lu  Lu13  1  0.930101  0.660230  0.860700  1
  Lu  Lu14  1  0.430101  0.569402  0.269871  1
  Lu  Lu15  1  0.299530  0.160230  0.730129  1
  Lu  Lu16  1  0.930598  0.069899  0.730129  1
  Lu  Lu17  1  0.339770  0.200470  0.269871  1
  Lu  Lu18  1  0.430598  0.700470  0.860700  1
  Lu  Lu19  1  0.839770  0.569899  0.139300  1
  Lu  Lu20  1  0.200470  0.930598  0.860700  1
  Lu  Lu21  1  0.069899  0.339770  0.139300  1
  Lu  Lu22  1  0.569899  0.430598  0.730129  1
  Lu  Lu23  1  0.700470  0.839770  0.269871  1
  In  In24  1  0.750000  0.750000  0.000000  1
  In  In25  1  0.250000  0.250000  0.000000  1
  In  In26  1  0.000000  0.000000  0.000000  1
  In  In27  1  0.500000  0.500000  0.000000  1
  In  In28  1  0.118424  0.618424  0.736849  1
  In  In29  1  0.881576  0.381576  0.263151  1
  In  In30  1  0.618424  0.881576  0.500000  1
  In  In31  1  0.381576  0.118424  0.500000  1
  In  In32  1  0.874094  0.374094  0.847751  1
  In  In33  1  0.526343  0.026343  0.152249  1
  In  In34  1  0.374094  0.526343  0.500000  1
  In  In35  1  0.026343  0.874094  0.500000  1
  In  In36  1  0.125906  0.625906  0.152249  1
  In  In37  1  0.473657  0.973657  0.847751  1
  In  In38  1  0.625906  0.473657  0.500000  1
  In  In39  1  0.973657  0.125906  0.500000  1
