# generated using pymatgen
data_Ba2NiSb4Rh
_symmetry_space_group_name_H-M   'P 1'
_cell_length_a   9.61516946
_cell_length_b   9.61516966
_cell_length_c   4.88766000
_cell_angle_alpha   90.00000000
_cell_angle_beta   90.00000000
_cell_angle_gamma   150.57762940
_symmetry_Int_Tables_number   1
_chemical_formula_structural   Ba2NiSb4Rh
_chemical_formula_sum   'Ba2 Ni1 Sb4 Rh1'
_cell_volume   221.97907087
_cell_formula_units_Z   1
loop_
 _symmetry_equiv_pos_site_id
 _symmetry_equiv_pos_as_xyz
  1  'x, y, z'
loop_
 _atom_site_type_symbol
 _atom_site_label
 _atom_site_symmetry_multiplicity
 _atom_site_fract_x
 _atom_site_fract_y
 _atom_site_fract_z
 _atom_site_occupancy
  Ba  Ba0  1  0.393256  0.606744  0.750000  1
  Ba  Ba1  1  0.606258  0.393742  0.250000  1
  Ni  Ni2  1  0.811277  0.188723  0.250000  1
  Sb  Sb3  1  0.047675  0.952325  0.750000  1
  Sb  Sb4  1  0.948539  0.051461  0.250000  1
  Sb  Sb5  1  0.251364  0.748636  0.250000  1
  Sb  Sb6  1  0.752011  0.247989  0.750000  1
  Rh  Rh7  1  0.189621  0.810379  0.750000  1
