# generated using pymatgen
data_Tm10RuRh3
_symmetry_space_group_name_H-M   'P 1'
_cell_length_a   6.35178121
_cell_length_b   7.13485382
_cell_length_c   8.41278485
_cell_angle_alpha   96.63957916
_cell_angle_beta   111.96315079
_cell_angle_gamma   90.03104322
_symmetry_Int_Tables_number   1
_chemical_formula_structural   Tm10RuRh3
_chemical_formula_sum   'Tm10 Ru1 Rh3'
_cell_volume   350.82076316
_cell_formula_units_Z   1
loop_
 _symmetry_equiv_pos_site_id
 _symmetry_equiv_pos_as_xyz
  1  'x, y, z'
loop_
 _atom_site_type_symbol
 _atom_site_label
 _atom_site_symmetry_multiplicity
 _atom_site_fract_x
 _atom_site_fract_y
 _atom_site_fract_z
 _atom_site_occupancy
  Tm  Tm0  1  0.791631  0.082610  0.812058  1
  Tm  Tm1  1  0.978086  0.417440  0.187014  1
  Tm  Tm2  1  0.208178  0.917247  0.182471  1
  Tm  Tm3  1  0.023222  0.583522  0.811725  1
  Tm  Tm4  1  0.210466  0.183236  0.562815  1
  Tm  Tm5  1  0.648179  0.314458  0.437381  1
  Tm  Tm6  1  0.791666  0.814612  0.440905  1
  Tm  Tm7  1  0.348628  0.687735  0.563485  1
  Tm  Tm8  1  0.423928  0.248421  0.998865  1
  Tm  Tm9  1  0.575035  0.750568  0.999704  1
  Ru  Ru10  1  0.175768  0.925929  0.782321  1
  Rh  Rh11  1  0.603390  0.426892  0.778979  1
  Rh  Rh12  1  0.823355  0.074345  0.220768  1
  Rh  Rh13  1  0.398467  0.572985  0.221508  1
