# generated using pymatgen
data_LiTi2(AsO4)3
_symmetry_space_group_name_H-M   'P 1'
_cell_length_a   8.84147006
_cell_length_b   8.84147030
_cell_length_c   8.84147027
_cell_angle_alpha   61.29887215
_cell_angle_beta   61.29887479
_cell_angle_gamma   61.29887596
_symmetry_Int_Tables_number   1
_chemical_formula_structural   LiTi2(AsO4)3
_chemical_formula_sum   'Li2 Ti4 As6 O24'
_cell_volume   502.98736654
_cell_formula_units_Z   2
loop_
 _symmetry_equiv_pos_site_id
 _symmetry_equiv_pos_as_xyz
  1  'x, y, z'
loop_
 _atom_site_type_symbol
 _atom_site_label
 _atom_site_symmetry_multiplicity
 _atom_site_fract_x
 _atom_site_fract_y
 _atom_site_fract_z
 _atom_site_occupancy
  Li  Li0  1  0.500000  0.500000  0.500000  1
  Li  Li1  1  0.000000  0.000000  0.000000  1
  Ti  Ti2  1  0.360482  0.360482  0.360482  1
  Ti  Ti3  1  0.860482  0.860482  0.860482  1
  Ti  Ti4  1  0.639518  0.639518  0.639518  1
  Ti  Ti5  1  0.139518  0.139518  0.139518  1
  As  As6  1  0.958160  0.541840  0.250000  1
  As  As7  1  0.250000  0.958160  0.541840  1
  As  As8  1  0.541840  0.250000  0.958160  1
  As  As9  1  0.750000  0.041840  0.458160  1
  As  As10  1  0.458160  0.750000  0.041840  1
  As  As11  1  0.041840  0.458160  0.750000  1
  O  O12  1  0.134744  0.496951  0.313020  1
  O  O13  1  0.313020  0.134744  0.496951  1
  O  O14  1  0.496951  0.313020  0.134744  1
  O  O15  1  0.813020  0.996951  0.634744  1
  O  O16  1  0.634744  0.813020  0.996951  1
  O  O17  1  0.996951  0.634744  0.813020  1
  O  O18  1  0.865256  0.503049  0.686980  1
  O  O19  1  0.686980  0.865256  0.503049  1
  O  O20  1  0.503049  0.686980  0.865256  1
  O  O21  1  0.186980  0.003049  0.365256  1
  O  O22  1  0.365256  0.186980  0.003049  1
  O  O23  1  0.003049  0.365256  0.186980  1
  O  O24  1  0.246140  0.445440  0.578243  1
  O  O25  1  0.578243  0.246140  0.445440  1
  O  O26  1  0.445440  0.578243  0.246140  1
  O  O27  1  0.078243  0.945440  0.746140  1
  O  O28  1  0.746140  0.078243  0.945440  1
  O  O29  1  0.945440  0.746140  0.078243  1
  O  O30  1  0.753860  0.554560  0.421757  1
  O  O31  1  0.421757  0.753860  0.554560  1
  O  O32  1  0.554560  0.421757  0.753860  1
  O  O33  1  0.921757  0.054560  0.253860  1
  O  O34  1  0.253860  0.921757  0.054560  1
  O  O35  1  0.054560  0.253860  0.921757  1
