# generated using pymatgen
data_CaLa3(AsPd)4
_symmetry_space_group_name_H-M   'P 1'
_cell_length_a   4.39828300
_cell_length_b   7.59421480
_cell_length_c   8.08749688
_cell_angle_alpha   90.05303323
_cell_angle_beta   90.00000000
_cell_angle_gamma   90.00000000
_symmetry_Int_Tables_number   1
_chemical_formula_structural   CaLa3(AsPd)4
_chemical_formula_sum   'Ca1 La3 As4 Pd4'
_cell_volume   270.13445867
_cell_formula_units_Z   1
loop_
 _symmetry_equiv_pos_site_id
 _symmetry_equiv_pos_as_xyz
  1  'x, y, z'
loop_
 _atom_site_type_symbol
 _atom_site_label
 _atom_site_symmetry_multiplicity
 _atom_site_fract_x
 _atom_site_fract_y
 _atom_site_fract_z
 _atom_site_occupancy
  Ca  Ca0  1  0.250002  0.251668  0.000338  1
  La  La1  1  0.750000  0.751514  0.499793  1
  La  La2  1  0.250002  0.248581  0.500301  1
  La  La3  1  0.750000  0.748139  0.999719  1
  As  As4  1  0.750000  0.083962  0.251156  1
  As  As5  1  0.250002  0.581241  0.253148  1
  As  As6  1  0.750000  0.415977  0.746340  1
  As  As7  1  0.250002  0.918921  0.749138  1
  Pd  Pd8  1  0.250002  0.916470  0.246316  1
  Pd  Pd9  1  0.750000  0.417089  0.248178  1
  Pd  Pd10  1  0.250002  0.583564  0.750546  1
  Pd  Pd11  1  0.750000  0.082872  0.755021  1
