# generated using pymatgen
data_Ho4Er4Ti3Si16Mo9
_symmetry_space_group_name_H-M   'P 1'
_cell_length_a   6.90099158
_cell_length_b   6.90095799
_cell_length_c   12.77935617
_cell_angle_alpha   89.99688843
_cell_angle_beta   90.01132836
_cell_angle_gamma   89.81631303
_symmetry_Int_Tables_number   1
_chemical_formula_structural   Ho4Er4Ti3Si16Mo9
_chemical_formula_sum   'Ho4 Er4 Ti3 Si16 Mo9'
_cell_volume   608.59392661
_cell_formula_units_Z   1
loop_
 _symmetry_equiv_pos_site_id
 _symmetry_equiv_pos_as_xyz
  1  'x, y, z'
loop_
 _atom_site_type_symbol
 _atom_site_label
 _atom_site_symmetry_multiplicity
 _atom_site_fract_x
 _atom_site_fract_y
 _atom_site_fract_z
 _atom_site_occupancy
  Ho  Ho0  1  0.339286  0.001828  0.468572  1
  Ho  Ho1  1  0.497176  0.838972  0.719371  1
  Ho  Ho2  1  0.499311  0.161693  0.217406  1
  Ho  Ho3  1  0.839110  0.497184  0.280725  1
  Er  Er4  1  0.161409  0.498960  0.782564  1
  Er  Er5  1  0.659495  0.000132  0.968830  1
  Er  Er6  1  0.001376  0.339737  0.531514  1
  Er  Er7  1  0.000125  0.659372  0.030930  1
  Ti  Ti8  1  0.169951  0.831499  0.248540  1
  Ti  Ti9  1  0.831611  0.170033  0.751403  1
  Ti  Ti10  1  0.668905  0.668773  0.500020  1
  Si  Si11  1  0.200701  0.129846  0.683418  1
  Si  Si12  1  0.373245  0.697190  0.933926  1
  Si  Si13  1  0.629194  0.299066  0.433608  1
  Si  Si14  1  0.697455  0.373509  0.065890  1
  Si  Si15  1  0.298804  0.628503  0.566611  1
  Si  Si16  1  0.796851  0.871629  0.183714  1
  Si  Si17  1  0.129059  0.201024  0.316645  1
  Si  Si18  1  0.871872  0.796595  0.816281  1
  Si  Si19  1  0.287939  0.963602  0.061469  1
  Si  Si20  1  0.539385  0.791209  0.313495  1
  Si  Si21  1  0.458265  0.210925  0.815243  1
  Si  Si22  1  0.791824  0.539147  0.686456  1
  Si  Si23  1  0.210700  0.458561  0.184748  1
  Si  Si24  1  0.710116  0.041257  0.563826  1
  Si  Si25  1  0.963853  0.288166  0.938386  1
  Si  Si26  1  0.041022  0.709517  0.436273  1
  Mo  Mo27  1  0.331384  0.331554  0.999840  1
  Mo  Mo28  1  0.155403  0.001466  0.873134  1
  Mo  Mo29  1  0.496470  0.666659  0.124327  1
  Mo  Mo30  1  0.505730  0.340661  0.624695  1
  Mo  Mo31  1  0.666701  0.496523  0.875591  1
  Mo  Mo32  1  0.340356  0.505735  0.375535  1
  Mo  Mo33  1  0.840829  0.993460  0.374288  1
  Mo  Mo34  1  0.001551  0.155416  0.126819  1
  Mo  Mo35  1  0.993537  0.840597  0.625909  1
