# generated using pymatgen
data_Rb8Na4Tb3LuSb8
_symmetry_space_group_name_H-M   'P 1'
_cell_length_a   11.33772041
_cell_length_b   11.33771928
_cell_length_c   7.48101871
_cell_angle_alpha   90.03811238
_cell_angle_beta   89.96189192
_cell_angle_gamma   98.51797708
_symmetry_Int_Tables_number   1
_chemical_formula_structural   Rb8Na4Tb3LuSb8
_chemical_formula_sum   'Rb8 Na4 Tb3 Lu1 Sb8'
_cell_volume   951.03146758
_cell_formula_units_Z   1
loop_
 _symmetry_equiv_pos_site_id
 _symmetry_equiv_pos_as_xyz
  1  'x, y, z'
loop_
 _atom_site_type_symbol
 _atom_site_label
 _atom_site_symmetry_multiplicity
 _atom_site_fract_x
 _atom_site_fract_y
 _atom_site_fract_z
 _atom_site_occupancy
  Rb  Rb0  1  0.070784  0.429495  0.250441  1
  Rb  Rb1  1  0.429495  0.070784  0.749559  1
  Rb  Rb2  1  0.928421  0.571240  0.749690  1
  Rb  Rb3  1  0.571240  0.928421  0.250310  1
  Rb  Rb4  1  0.676386  0.324244  0.215911  1
  Rb  Rb5  1  0.823587  0.176407  0.715550  1
  Rb  Rb6  1  0.324244  0.676386  0.784089  1
  Rb  Rb7  1  0.176407  0.823587  0.284450  1
  Na  Na8  1  0.383348  0.383348  0.000000  1
  Na  Na9  1  0.117102  0.117102  0.500000  1
  Na  Na10  1  0.617076  0.617076  0.000000  1
  Na  Na11  1  0.881747  0.881747  0.500000  1
  Tb  Tb12  1  0.131116  0.131116  0.000000  1
  Tb  Tb13  1  0.370409  0.370409  0.500000  1
  Tb  Tb14  1  0.867685  0.867685  0.000000  1
  Lu  Lu15  1  0.630292  0.630292  0.500000  1
  Sb  Sb16  1  0.844222  0.652245  0.253633  1
  Sb  Sb17  1  0.652245  0.844222  0.746367  1
  Sb  Sb18  1  0.152696  0.348069  0.750048  1
  Sb  Sb19  1  0.348069  0.152696  0.249952  1
  Sb  Sb20  1  0.898487  0.100699  0.212581  1
  Sb  Sb21  1  0.602522  0.401718  0.711224  1
  Sb  Sb22  1  0.100699  0.898487  0.787419  1
  Sb  Sb23  1  0.401718  0.602522  0.288776  1
