# generated using pymatgen
data_TbDy5(Tm2Pb3)2
_symmetry_space_group_name_H-M   'P 1'
_cell_length_a   6.57181400
_cell_length_b   9.03840375
_cell_length_c   9.04136301
_cell_angle_alpha   119.98916981
_cell_angle_beta   90.00001505
_cell_angle_gamma   89.99996152
_symmetry_Int_Tables_number   1
_chemical_formula_structural   TbDy5(Tm2Pb3)2
_chemical_formula_sum   'Tb1 Dy5 Tm4 Pb6'
_cell_volume   465.14560770
_cell_formula_units_Z   1
loop_
 _symmetry_equiv_pos_site_id
 _symmetry_equiv_pos_as_xyz
  1  'x, y, z'
loop_
 _atom_site_type_symbol
 _atom_site_label
 _atom_site_symmetry_multiplicity
 _atom_site_fract_x
 _atom_site_fract_y
 _atom_site_fract_z
 _atom_site_occupancy
  Tb  Tb0  1  0.750006  0.238650  0.000000  1
  Dy  Dy1  1  0.749998  0.761241  0.761322  1
  Dy  Dy2  1  0.749998  0.999919  0.238678  1
  Dy  Dy3  1  0.250004  0.761362  0.000000  1
  Dy  Dy4  1  0.249998  0.238728  0.238699  1
  Dy  Dy5  1  0.249998  0.000029  0.761301  1
  Tm  Tm6  1  0.499991  0.333345  0.666716  1
  Tm  Tm7  1  0.499991  0.666629  0.333284  1
  Tm  Tm8  1  0.000008  0.666677  0.333285  1
  Tm  Tm9  1  0.000008  0.333393  0.666715  1
  Pb  Pb10  1  0.749997  0.605238  0.000000  1
  Pb  Pb11  1  0.750003  0.394821  0.394841  1
  Pb  Pb12  1  0.750003  0.999979  0.605159  1
  Pb  Pb13  1  0.249995  0.394820  0.000000  1
  Pb  Pb14  1  0.250004  0.605221  0.605272  1
  Pb  Pb15  1  0.250004  0.999950  0.394728  1
