# generated using pymatgen
data_HoEr9In8(IrPt)2
_symmetry_space_group_name_H-M   'P 1'
_cell_length_a   3.60373100
_cell_length_b   8.09403822
_cell_length_c   18.17413401
_cell_angle_alpha   89.95596527
_cell_angle_beta   90.00000000
_cell_angle_gamma   90.00000000
_symmetry_Int_Tables_number   1
_chemical_formula_structural   HoEr9In8(IrPt)2
_chemical_formula_sum   'Ho1 Er9 In8 Ir2 Pt2'
_cell_volume   530.11636862
_cell_formula_units_Z   1
loop_
 _symmetry_equiv_pos_site_id
 _symmetry_equiv_pos_as_xyz
  1  'x, y, z'
loop_
 _atom_site_type_symbol
 _atom_site_label
 _atom_site_symmetry_multiplicity
 _atom_site_fract_x
 _atom_site_fract_y
 _atom_site_fract_z
 _atom_site_occupancy
  Ho  Ho0  1  0.000000  0.500000  0.500000  1
  Er  Er1  1  0.000000  0.115161  0.411961  1
  Er  Er2  1  0.000000  0.884839  0.588039  1
  Er  Er3  1  0.000000  0.383220  0.913838  1
  Er  Er4  1  0.000000  0.616780  0.086162  1
  Er  Er5  1  0.000000  0.236223  0.221964  1
  Er  Er6  1  0.000000  0.763777  0.778036  1
  Er  Er7  1  0.000000  0.248844  0.720175  1
  Er  Er8  1  0.000000  0.751156  0.279825  1
  Er  Er9  1  0.000000  0.000000  0.000000  1
  In  In10  1  0.500000  0.423558  0.351015  1
  In  In11  1  0.500000  0.576442  0.648985  1
  In  In12  1  0.500000  0.074609  0.850787  1
  In  In13  1  0.500000  0.925391  0.149213  1
  In  In14  1  0.500000  0.292331  0.066544  1
  In  In15  1  0.500000  0.707669  0.933456  1
  In  In16  1  0.500000  0.206486  0.567408  1
  In  In17  1  0.500000  0.793514  0.432592  1
  Ir  Ir18  1  0.500000  0.021777  0.303802  1
  Ir  Ir19  1  0.500000  0.978223  0.696198  1
  Pt  Pt20  1  0.500000  0.477133  0.803494  1
  Pt  Pt21  1  0.500000  0.522867  0.196506  1
