# generated using pymatgen
data_Dy16Er3TmPb16
_symmetry_space_group_name_H-M   'P 1'
_cell_length_a   8.19115811
_cell_length_b   8.27279609
_cell_length_c   15.63403900
_cell_angle_alpha   90.00000000
_cell_angle_beta   90.00000000
_cell_angle_gamma   89.99901552
_symmetry_Int_Tables_number   1
_chemical_formula_structural   Dy16Er3TmPb16
_chemical_formula_sum   'Dy16 Er3 Tm1 Pb16'
_cell_volume   1059.42159037
_cell_formula_units_Z   1
loop_
 _symmetry_equiv_pos_site_id
 _symmetry_equiv_pos_as_xyz
  1  'x, y, z'
loop_
 _atom_site_type_symbol
 _atom_site_label
 _atom_site_symmetry_multiplicity
 _atom_site_fract_x
 _atom_site_fract_y
 _atom_site_fract_z
 _atom_site_occupancy
  Dy  Dy0  1  0.377460  0.840722  0.879444  1
  Dy  Dy1  1  0.877481  0.659236  0.620558  1
  Dy  Dy2  1  0.622547  0.159213  0.379401  1
  Dy  Dy3  1  0.122538  0.340764  0.120647  1
  Dy  Dy4  1  0.622547  0.159213  0.120599  1
  Dy  Dy5  1  0.122538  0.340764  0.379353  1
  Dy  Dy6  1  0.377460  0.840722  0.620556  1
  Dy  Dy7  1  0.877481  0.659236  0.879442  1
  Dy  Dy8  1  0.534759  0.323347  0.899980  1
  Dy  Dy9  1  0.034757  0.176604  0.600013  1
  Dy  Dy10  1  0.465234  0.676647  0.399940  1
  Dy  Dy11  1  0.965221  0.823369  0.100027  1
  Dy  Dy12  1  0.465234  0.676647  0.100060  1
  Dy  Dy13  1  0.965221  0.823369  0.399973  1
  Dy  Dy14  1  0.534759  0.323347  0.600020  1
  Dy  Dy15  1  0.034757  0.176604  0.899987  1
  Er  Er16  1  0.708896  0.996220  0.750000  1
  Er  Er17  1  0.791076  0.496100  0.250000  1
  Er  Er18  1  0.291088  0.003875  0.250000  1
  Tm  Tm19  1  0.208975  0.503825  0.750000  1
  Pb  Pb20  1  0.280964  0.033006  0.042932  1
  Pb  Pb21  1  0.780968  0.467035  0.457061  1
  Pb  Pb22  1  0.719026  0.967015  0.542897  1
  Pb  Pb23  1  0.219020  0.533081  0.957205  1
  Pb  Pb24  1  0.719026  0.967015  0.957103  1
  Pb  Pb25  1  0.219020  0.533081  0.542795  1
  Pb  Pb26  1  0.280964  0.033006  0.457068  1
  Pb  Pb27  1  0.780968  0.467035  0.042939  1
  Pb  Pb28  1  0.572593  0.626324  0.750000  1
  Pb  Pb29  1  0.072425  0.873849  0.750000  1
  Pb  Pb30  1  0.427580  0.373781  0.250000  1
  Pb  Pb31  1  0.927564  0.126200  0.250000  1
  Pb  Pb32  1  0.346749  0.152934  0.750000  1
  Pb  Pb33  1  0.846431  0.346783  0.750000  1
  Pb  Pb34  1  0.653356  0.846791  0.250000  1
  Pb  Pb35  1  0.153312  0.653246  0.250000  1
