# generated using pymatgen
data_Ce2Co2Au
_symmetry_space_group_name_H-M   'P 1'
_cell_length_a   7.49523310
_cell_length_b   7.49523274
_cell_length_c   3.62287300
_cell_angle_alpha   90.00000000
_cell_angle_beta   90.00000000
_cell_angle_gamma   151.57521417
_symmetry_Int_Tables_number   1
_chemical_formula_structural   Ce2Co2Au
_chemical_formula_sum   'Ce2 Co2 Au1'
_cell_volume   96.88010791
_cell_formula_units_Z   1
loop_
 _symmetry_equiv_pos_site_id
 _symmetry_equiv_pos_as_xyz
  1  'x, y, z'
loop_
 _atom_site_type_symbol
 _atom_site_label
 _atom_site_symmetry_multiplicity
 _atom_site_fract_x
 _atom_site_fract_y
 _atom_site_fract_z
 _atom_site_occupancy
  Ce  Ce0  1  0.639120  0.360878  0.500000  1
  Ce  Ce1  1  0.360878  0.639120  0.500000  1
  Co  Co2  1  0.816813  0.183185  0.000000  1
  Co  Co3  1  0.183185  0.816813  0.000000  1
  Au  Au4  1  0.000000  0.000000  0.000000  1
