# generated using pymatgen
data_Li8Ho6Tm2Sn7Bi
_symmetry_space_group_name_H-M   'P 1'
_cell_length_a   9.36884673
_cell_length_b   9.37135654
_cell_length_c   7.24135002
_cell_angle_alpha   90.08046821
_cell_angle_beta   89.92709119
_cell_angle_gamma   119.97862654
_symmetry_Int_Tables_number   1
_chemical_formula_structural   Li8Ho6Tm2Sn7Bi
_chemical_formula_sum   'Li8 Ho6 Tm2 Sn7 Bi1'
_cell_volume   550.72112983
_cell_formula_units_Z   1
loop_
 _symmetry_equiv_pos_site_id
 _symmetry_equiv_pos_as_xyz
  1  'x, y, z'
loop_
 _atom_site_type_symbol
 _atom_site_label
 _atom_site_symmetry_multiplicity
 _atom_site_fract_x
 _atom_site_fract_y
 _atom_site_fract_z
 _atom_site_occupancy
  Li  Li0  1  0.829449  0.664505  0.711426  1
  Li  Li1  1  0.833340  0.166917  0.713379  1
  Li  Li2  1  0.334935  0.664692  0.822145  1
  Li  Li3  1  0.666475  0.333707  0.321146  1
  Li  Li4  1  0.666019  0.832644  0.212962  1
  Li  Li5  1  0.167265  0.334141  0.212834  1
  Li  Li6  1  0.166632  0.833036  0.215053  1
  Li  Li7  1  0.335496  0.170668  0.711402  1
  Ho  Ho8  1  0.997319  0.002768  0.003283  1
  Ho  Ho9  1  0.997989  0.001979  0.498386  1
  Ho  Ho10  1  0.511458  0.488689  0.006176  1
  Ho  Ho11  1  0.019210  0.505986  0.503672  1
  Ho  Ho12  1  0.494002  0.980810  0.503810  1
  Ho  Ho13  1  0.516147  0.024318  0.009056  1
  Tm  Tm14  1  0.975480  0.483584  0.009265  1
  Tm  Tm15  1  0.488550  0.511418  0.505596  1
  Sn  Sn16  1  0.667316  0.333484  0.740899  1
  Sn  Sn17  1  0.332675  0.666726  0.241180  1
  Sn  Sn18  1  0.833510  0.167021  0.268885  1
  Sn  Sn19  1  0.166368  0.333634  0.769929  1
  Sn  Sn20  1  0.333404  0.166455  0.270113  1
  Sn  Sn21  1  0.833835  0.666510  0.269708  1
  Sn  Sn22  1  0.666626  0.833521  0.769500  1
  Bi  Bi23  1  0.166498  0.832786  0.768198  1
