# generated using pymatgen
data_Tb8BPI12
_symmetry_space_group_name_H-M   'P 1'
_cell_length_a   4.15362300
_cell_length_b   13.97661649
_cell_length_c   14.58675268
_cell_angle_alpha   90.43319924
_cell_angle_beta   90.00000000
_cell_angle_gamma   90.00000000
_symmetry_Int_Tables_number   1
_chemical_formula_structural   Tb8BPI12
_chemical_formula_sum   'Tb8 B1 P1 I12'
_cell_volume   846.78923914
_cell_formula_units_Z   1
loop_
 _symmetry_equiv_pos_site_id
 _symmetry_equiv_pos_as_xyz
  1  'x, y, z'
loop_
 _atom_site_type_symbol
 _atom_site_label
 _atom_site_symmetry_multiplicity
 _atom_site_fract_x
 _atom_site_fract_y
 _atom_site_fract_z
 _atom_site_occupancy
  Tb  Tb0  1  0.500000  0.109423  0.359092  1
  Tb  Tb1  1  0.500000  0.890577  0.640908  1
  Tb  Tb2  1  0.500000  0.617022  0.150875  1
  Tb  Tb3  1  0.500000  0.382978  0.849125  1
  Tb  Tb4  1  0.000000  0.099182  0.571358  1
  Tb  Tb5  1  0.000000  0.900818  0.428642  1
  Tb  Tb6  1  0.000000  0.606732  0.923757  1
  Tb  Tb7  1  0.000000  0.393268  0.076243  1
  B  B8  1  0.500000  0.000000  0.500000  1
  P  P9  1  0.500000  0.500000  0.000000  1
  I  I10  1  0.500000  0.254430  0.170610  1
  I  I11  1  0.500000  0.745570  0.829390  1
  I  I12  1  0.500000  0.756944  0.329737  1
  I  I13  1  0.500000  0.243056  0.670263  1
  I  I14  1  0.000000  0.260432  0.422549  1
  I  I15  1  0.000000  0.739568  0.577451  1
  I  I16  1  0.000000  0.761127  0.078801  1
  I  I17  1  0.000000  0.238873  0.921199  1
  I  I18  1  0.000000  0.003839  0.237509  1
  I  I19  1  0.000000  0.996161  0.762491  1
  I  I20  1  0.000000  0.503978  0.262886  1
  I  I21  1  0.000000  0.496022  0.737114  1
