# generated using pymatgen
data_LiHo8Sc10Si16Ru
_symmetry_space_group_name_H-M   'P 1'
_cell_length_a   6.95528300
_cell_length_b   7.34745543
_cell_length_c   13.90747000
_cell_angle_alpha   90.00000000
_cell_angle_beta   90.00000000
_cell_angle_gamma   89.99332163
_symmetry_Int_Tables_number   1
_chemical_formula_structural   LiHo8Sc10Si16Ru
_chemical_formula_sum   'Li1 Ho8 Sc10 Si16 Ru1'
_cell_volume   710.72222187
_cell_formula_units_Z   1
loop_
 _symmetry_equiv_pos_site_id
 _symmetry_equiv_pos_as_xyz
  1  'x, y, z'
loop_
 _atom_site_type_symbol
 _atom_site_label
 _atom_site_symmetry_multiplicity
 _atom_site_fract_x
 _atom_site_fract_y
 _atom_site_fract_z
 _atom_site_occupancy
  Li  Li0  1  0.842409  0.494124  0.250000  1
  Ho  Ho1  1  0.010850  0.184494  0.095244  1
  Ho  Ho2  1  0.992199  0.817952  0.901368  1
  Ho  Ho3  1  0.489047  0.673393  0.902996  1
  Ho  Ho4  1  0.992199  0.817952  0.598632  1
  Ho  Ho5  1  0.515588  0.325239  0.095934  1
  Ho  Ho6  1  0.010850  0.184494  0.404756  1
  Ho  Ho7  1  0.515588  0.325239  0.404066  1
  Ho  Ho8  1  0.489047  0.673393  0.597004  1
  Sc  Sc9  1  0.343694  0.002712  0.250000  1
  Sc  Sc10  1  0.657059  0.996305  0.750000  1
  Sc  Sc11  1  0.325488  0.176981  0.627053  1
  Sc  Sc12  1  0.675153  0.820547  0.373975  1
  Sc  Sc13  1  0.168958  0.670592  0.375555  1
  Sc  Sc14  1  0.675153  0.820547  0.126025  1
  Sc  Sc15  1  0.824636  0.330602  0.628206  1
  Sc  Sc16  1  0.325488  0.176981  0.872947  1
  Sc  Sc17  1  0.824636  0.330602  0.871794  1
  Sc  Sc18  1  0.168958  0.670592  0.124445  1
  Si  Si19  1  0.028333  0.115748  0.750000  1
  Si  Si20  1  0.973614  0.895325  0.250000  1
  Si  Si21  1  0.468055  0.612904  0.250000  1
  Si  Si22  1  0.514606  0.396041  0.750000  1
  Si  Si23  1  0.284404  0.862669  0.750000  1
  Si  Si24  1  0.716496  0.121777  0.250000  1
  Si  Si25  1  0.220733  0.372371  0.250000  1
  Si  Si26  1  0.794064  0.629420  0.750000  1
  Si  Si27  1  0.155657  0.464958  0.546660  1
  Si  Si28  1  0.842423  0.538280  0.467032  1
  Si  Si29  1  0.343861  0.965288  0.462389  1
  Si  Si30  1  0.842423  0.538280  0.032968  1
  Si  Si31  1  0.658351  0.033657  0.538913  1
  Si  Si32  1  0.155657  0.464958  0.953340  1
  Si  Si33  1  0.658351  0.033657  0.961087  1
  Si  Si34  1  0.343861  0.965288  0.037611  1
  Ru  Ru35  1  0.152112  0.496638  0.750000  1
