# generated using pymatgen
data_Ac2BiSbPd2
_symmetry_space_group_name_H-M   'P 1'
_cell_length_a   8.72373600
_cell_length_b   4.71405239
_cell_length_c   8.26664100
_cell_angle_alpha   90.56523049
_cell_angle_beta   90.00000000
_cell_angle_gamma   90.00000000
_symmetry_Int_Tables_number   1
_chemical_formula_structural   Ac2BiSbPd2
_chemical_formula_sum   'Ac4 Bi2 Sb2 Pd4'
_cell_volume   339.94202973
_cell_formula_units_Z   2
loop_
 _symmetry_equiv_pos_site_id
 _symmetry_equiv_pos_as_xyz
  1  'x, y, z'
loop_
 _atom_site_type_symbol
 _atom_site_label
 _atom_site_symmetry_multiplicity
 _atom_site_fract_x
 _atom_site_fract_y
 _atom_site_fract_z
 _atom_site_occupancy
  Ac  Ac0  1  0.157045  0.252065  0.754230  1
  Ac  Ac1  1  0.657045  0.747935  0.245770  1
  Ac  Ac2  1  0.164994  0.751578  0.246090  1
  Ac  Ac3  1  0.664994  0.248422  0.753910  1
  Bi  Bi4  1  0.903395  0.252747  0.416415  1
  Bi  Bi5  1  0.403395  0.747253  0.583585  1
  Sb  Sb6  1  0.903145  0.753172  0.922519  1
  Sb  Sb7  1  0.403145  0.246828  0.077481  1
  Pd  Pd8  1  0.436247  0.243608  0.400487  1
  Pd  Pd9  1  0.936247  0.756392  0.599513  1
  Pd  Pd10  1  0.435175  0.744096  0.923127  1
  Pd  Pd11  1  0.935175  0.255904  0.076873  1
