# generated using pymatgen
data_Ac8Tb5Yb7Sn16
_symmetry_space_group_name_H-M   'P 1'
_cell_length_a   8.21270741
_cell_length_b   8.64576425
_cell_length_c   16.33803500
_cell_angle_alpha   90.02261807
_cell_angle_beta   90.07157172
_cell_angle_gamma   90.08523514
_symmetry_Int_Tables_number   1
_chemical_formula_structural   Ac8Tb5Yb7Sn16
_chemical_formula_sum   'Ac8 Tb5 Yb7 Sn16'
_cell_volume   1160.08205299
_cell_formula_units_Z   1
loop_
 _symmetry_equiv_pos_site_id
 _symmetry_equiv_pos_as_xyz
  1  'x, y, z'
loop_
 _atom_site_type_symbol
 _atom_site_label
 _atom_site_symmetry_multiplicity
 _atom_site_fract_x
 _atom_site_fract_y
 _atom_site_fract_z
 _atom_site_occupancy
  Ac  Ac0  1  0.495481  0.319730  0.904209  1
  Ac  Ac1  1  0.995781  0.179817  0.595263  1
  Ac  Ac2  1  0.503429  0.678963  0.403672  1
  Ac  Ac3  1  0.004987  0.819217  0.095831  1
  Ac  Ac4  1  0.505556  0.679418  0.095653  1
  Ac  Ac5  1  0.006013  0.819502  0.403608  1
  Ac  Ac6  1  0.493673  0.318456  0.595358  1
  Ac  Ac7  1  0.994124  0.180524  0.905062  1
  Tb  Tb8  1  0.334300  0.827625  0.875213  1
  Tb  Tb9  1  0.834341  0.671344  0.624774  1
  Tb  Tb10  1  0.666417  0.170694  0.374338  1
  Tb  Tb11  1  0.167020  0.328992  0.124737  1
  Tb  Tb12  1  0.666355  0.172441  0.124798  1
  Yb  Yb13  1  0.169554  0.331021  0.375936  1
  Yb  Yb14  1  0.331654  0.830314  0.623260  1
  Yb  Yb15  1  0.831696  0.670191  0.877454  1
  Yb  Yb16  1  0.165510  0.502900  0.750531  1
  Yb  Yb17  1  0.665760  0.997144  0.749641  1
  Yb  Yb18  1  0.834681  0.498940  0.250993  1
  Yb  Yb19  1  0.332899  0.002091  0.250391  1
  Sn  Sn20  1  0.330052  0.041541  0.038436  1
  Sn  Sn21  1  0.827508  0.458960  0.461941  1
  Sn  Sn22  1  0.672649  0.958247  0.537172  1
  Sn  Sn23  1  0.173253  0.541032  0.962648  1
  Sn  Sn24  1  0.665654  0.961688  0.962131  1
  Sn  Sn25  1  0.163250  0.539908  0.540624  1
  Sn  Sn26  1  0.336839  0.039715  0.459183  1
  Sn  Sn27  1  0.832359  0.457334  0.040894  1
  Sn  Sn28  1  0.534516  0.618444  0.748429  1
  Sn  Sn29  1  0.034370  0.882122  0.751782  1
  Sn  Sn30  1  0.468536  0.378039  0.248520  1
  Sn  Sn31  1  0.965665  0.118461  0.249062  1
  Sn  Sn32  1  0.291309  0.129990  0.751122  1
  Sn  Sn33  1  0.791300  0.370021  0.749384  1
  Sn  Sn34  1  0.706731  0.873507  0.249267  1
  Sn  Sn35  1  0.206781  0.631662  0.248681  1
