# generated using pymatgen
data_Sc4Ti2Si6Tc5Ir
_symmetry_space_group_name_H-M   'P 1'
_cell_length_a   7.68194438
_cell_length_b   7.68224034
_cell_length_c   7.69007027
_cell_angle_alpha   126.47946497
_cell_angle_beta   128.58356127
_cell_angle_gamma   77.43832911
_symmetry_Int_Tables_number   1
_chemical_formula_structural   Sc4Ti2Si6Tc5Ir
_chemical_formula_sum   'Sc4 Ti2 Si6 Tc5 Ir1'
_cell_volume   276.63465355
_cell_formula_units_Z   1
loop_
 _symmetry_equiv_pos_site_id
 _symmetry_equiv_pos_as_xyz
  1  'x, y, z'
loop_
 _atom_site_type_symbol
 _atom_site_label
 _atom_site_symmetry_multiplicity
 _atom_site_fract_x
 _atom_site_fract_y
 _atom_site_fract_z
 _atom_site_occupancy
  Sc  Sc0  1  0.247684  0.891671  0.146751  1
  Sc  Sc1  1  0.950642  0.501247  0.046613  1
  Sc  Sc2  1  0.051110  0.095268  0.541558  1
  Sc  Sc3  1  0.445037  0.485463  0.541007  1
  Ti  Ti4  1  0.748105  0.896969  0.643962  1
  Ti  Ti5  1  0.556851  0.112841  0.062332  1
  Si  Si6  1  0.750155  0.502369  0.249833  1
  Si  Si7  1  0.162281  0.158272  0.989481  1
  Si  Si8  1  0.668926  0.160645  0.497250  1
  Si  Si9  1  0.360563  0.833906  0.525966  1
  Si  Si10  1  0.249340  0.490357  0.744749  1
  Si  Si11  1  0.808965  0.834295  0.973009  1
  Tc  Tc12  1  0.507513  0.233179  0.745034  1
  Tc  Tc13  1  0.989963  0.236001  0.227691  1
  Tc  Tc14  1  0.866865  0.497542  0.619445  1
  Tc  Tc15  1  0.626489  0.759951  0.125781  1
  Tc  Tc16  1  0.375624  0.495035  0.129590  1
  Ir  Ir17  1  0.133887  0.757196  0.632157  1
