# generated using pymatgen
data_Nd2PaRh2
_symmetry_space_group_name_H-M   'P 1'
_cell_length_a   3.80581761
_cell_length_b   6.51486600
_cell_length_c   6.29097435
_cell_angle_alpha   121.18442303
_cell_angle_beta   107.60677646
_cell_angle_gamma   89.99998879
_symmetry_Int_Tables_number   1
_chemical_formula_structural   Nd2PaRh2
_chemical_formula_sum   'Nd2 Pa1 Rh2'
_cell_volume   124.82303633
_cell_formula_units_Z   1
loop_
 _symmetry_equiv_pos_site_id
 _symmetry_equiv_pos_as_xyz
  1  'x, y, z'
loop_
 _atom_site_type_symbol
 _atom_site_label
 _atom_site_symmetry_multiplicity
 _atom_site_fract_x
 _atom_site_fract_y
 _atom_site_fract_z
 _atom_site_occupancy
  Nd  Nd0  1  0.803810  0.303810  0.607620  1
  Nd  Nd1  1  0.196190  0.696190  0.392380  1
  Pa  Pa2  1  0.000000  0.000000  0.000000  1
  Rh  Rh3  1  0.500000  0.278622  0.000000  1
  Rh  Rh4  1  0.500000  0.721378  0.000000  1
