# generated using pymatgen
data_Zr6Ti2Al15Os4Rh2Au
_symmetry_space_group_name_H-M   'P 1'
_cell_length_a   8.81764938
_cell_length_b   8.82525191
_cell_length_c   8.83193300
_cell_angle_alpha   120.07774816
_cell_angle_beta   119.66795971
_cell_angle_gamma   90.04856129
_symmetry_Int_Tables_number   1
_chemical_formula_structural   Zr6Ti2Al15Os4Rh2Au
_chemical_formula_sum   'Zr6 Ti2 Al15 Os4 Rh2 Au1'
_cell_volume   487.63434271
_cell_formula_units_Z   1
loop_
 _symmetry_equiv_pos_site_id
 _symmetry_equiv_pos_as_xyz
  1  'x, y, z'
loop_
 _atom_site_type_symbol
 _atom_site_label
 _atom_site_symmetry_multiplicity
 _atom_site_fract_x
 _atom_site_fract_y
 _atom_site_fract_z
 _atom_site_occupancy
  Zr  Zr0  1  0.782668  0.285088  0.073351  1
  Zr  Zr1  1  0.217500  0.294993  0.503824  1
  Zr  Zr2  1  0.214694  0.713277  0.509888  1
  Zr  Zr3  1  0.221358  0.719682  0.927185  1
  Zr  Zr4  1  0.790079  0.714164  0.496399  1
  Zr  Zr5  1  0.776739  0.278057  0.489387  1
  Ti  Ti6  1  0.377817  0.122672  0.744996  1
  Ti  Ti7  1  0.391029  0.637092  0.264061  1
  Al  Al8  1  0.995671  0.495733  0.500398  1
  Al  Al9  1  0.161291  0.336310  0.181071  1
  Al  Al10  1  0.161573  0.986758  0.825286  1
  Al  Al11  1  0.159358  0.338117  0.814729  1
  Al  Al12  1  0.516080  0.338501  0.178717  1
  Al  Al13  1  0.837986  0.661604  0.812199  1
  Al  Al14  1  0.841637  0.018050  0.180074  1
  Al  Al15  1  0.835247  0.662902  0.178563  1
  Al  Al16  1  0.490753  0.663401  0.827828  1
  Al  Al17  1  0.378357  0.121599  0.258391  1
  Al  Al18  1  0.858956  0.110970  0.734224  1
  Al  Al19  1  0.620307  0.875394  0.254078  1
  Al  Al20  1  0.611624  0.362342  0.737420  1
  Al  Al21  1  0.617800  0.876568  0.739806  1
  Al  Al22  1  0.141611  0.889030  0.267525  1
  Os  Os23  1  0.001863  0.998746  0.502154  1
  Os  Os24  1  0.499187  0.001048  0.999065  1
  Os  Os25  1  0.498425  0.496189  0.998769  1
  Os  Os26  1  0.497495  0.499436  0.498199  1
  Rh  Rh27  1  0.999643  0.000188  0.999080  1
  Rh  Rh28  1  0.500432  0.999074  0.500257  1
  Au  Au29  1  0.002817  0.503013  0.003072  1
