# generated using pymatgen
data_KSOF3
_symmetry_space_group_name_H-M   'P 1'
_cell_length_a   4.94093200
_cell_length_b   5.76399086
_cell_length_c   7.91723503
_cell_angle_alpha   70.47156954
_cell_angle_beta   90.00000000
_cell_angle_gamma   90.00000000
_symmetry_Int_Tables_number   1
_chemical_formula_structural   KSOF3
_chemical_formula_sum   'K2 S2 O2 F6'
_cell_volume   212.50829042
_cell_formula_units_Z   2
loop_
 _symmetry_equiv_pos_site_id
 _symmetry_equiv_pos_as_xyz
  1  'x, y, z'
loop_
 _atom_site_type_symbol
 _atom_site_label
 _atom_site_symmetry_multiplicity
 _atom_site_fract_x
 _atom_site_fract_y
 _atom_site_fract_z
 _atom_site_occupancy
  K  K0  1  0.558385  0.283193  0.300427  1
  K  K1  1  0.058385  0.716807  0.699573  1
  S  S2  1  0.119034  0.825242  0.211700  1
  S  S3  1  0.619034  0.174758  0.788300  1
  O  O4  1  0.211478  0.625630  0.366801  1
  O  O5  1  0.711478  0.374370  0.633199  1
  F  F6  1  0.157830  0.665440  0.051568  1
  F  F7  1  0.286097  0.215423  0.797952  1
  F  F8  1  0.786097  0.784577  0.202048  1
  F  F9  1  0.534177  0.960991  0.652289  1
  F  F10  1  0.034177  0.039009  0.347711  1
  F  F11  1  0.657830  0.334560  0.948432  1
