# generated using pymatgen
data_Ta2SiIrRu4
_symmetry_space_group_name_H-M   'P 1'
_cell_length_a   4.05427500
_cell_length_b   5.44173616
_cell_length_c   10.67102559
_cell_angle_alpha   89.37883791
_cell_angle_beta   90.00000000
_cell_angle_gamma   90.00000000
_symmetry_Int_Tables_number   1
_chemical_formula_structural   Ta2SiIrRu4
_chemical_formula_sum   'Ta4 Si2 Ir2 Ru8'
_cell_volume   235.41347816
_cell_formula_units_Z   2
loop_
 _symmetry_equiv_pos_site_id
 _symmetry_equiv_pos_as_xyz
  1  'x, y, z'
loop_
 _atom_site_type_symbol
 _atom_site_label
 _atom_site_symmetry_multiplicity
 _atom_site_fract_x
 _atom_site_fract_y
 _atom_site_fract_z
 _atom_site_occupancy
  Ta  Ta0  1  0.500000  0.832557  0.361087  1
  Ta  Ta1  1  0.500000  0.167443  0.638913  1
  Ta  Ta2  1  0.500000  0.323458  0.139130  1
  Ta  Ta3  1  0.500000  0.676542  0.860870  1
  Si  Si4  1  0.000000  0.500000  0.500000  1
  Si  Si5  1  0.000000  0.000000  0.000000  1
  Ir  Ir6  1  0.000000  0.578479  0.250882  1
  Ir  Ir7  1  0.000000  0.421521  0.749118  1
  Ru  Ru8  1  0.000000  0.500000  0.000000  1
  Ru  Ru9  1  0.000000  0.000000  0.500000  1
  Ru  Ru10  1  0.000000  0.079233  0.247476  1
  Ru  Ru11  1  0.000000  0.920767  0.752524  1
  Ru  Ru12  1  0.500000  0.819762  0.105725  1
  Ru  Ru13  1  0.500000  0.180238  0.894275  1
  Ru  Ru14  1  0.500000  0.322920  0.394089  1
  Ru  Ru15  1  0.500000  0.677080  0.605911  1
