# generated using pymatgen
data_RbSrH9W
_symmetry_space_group_name_H-M   'P 1'
_cell_length_a   9.31942800
_cell_length_b   9.31942729
_cell_length_c   5.65262700
_cell_angle_alpha   90.00000000
_cell_angle_beta   90.00000000
_cell_angle_gamma   120.00000962
_symmetry_Int_Tables_number   1
_chemical_formula_structural   RbSrH9W
_chemical_formula_sum   'Rb3 Sr3 H27 W3'
_cell_volume   425.16685438
_cell_formula_units_Z   3
loop_
 _symmetry_equiv_pos_site_id
 _symmetry_equiv_pos_as_xyz
  1  'x, y, z'
loop_
 _atom_site_type_symbol
 _atom_site_label
 _atom_site_symmetry_multiplicity
 _atom_site_fract_x
 _atom_site_fract_y
 _atom_site_fract_z
 _atom_site_occupancy
  Rb  Rb0  1  0.000000  0.587076  0.000000  1
  Rb  Rb1  1  0.412924  0.412924  0.000000  1
  Rb  Rb2  1  0.587076  0.000000  0.000000  1
  Sr  Sr3  1  0.000000  0.273757  0.500000  1
  Sr  Sr4  1  0.726243  0.726243  0.500000  1
  Sr  Sr5  1  0.273757  0.000000  0.500000  1
  H  H6  1  0.784614  0.305204  0.724543  1
  H  H7  1  0.694796  0.479409  0.724543  1
  H  H8  1  0.520591  0.215386  0.724543  1
  H  H9  1  0.215386  0.520591  0.275457  1
  H  H10  1  0.520591  0.215386  0.275457  1
  H  H11  1  0.784614  0.305204  0.275457  1
  H  H12  1  0.694796  0.479409  0.275457  1
  H  H13  1  0.305204  0.784614  0.724543  1
  H  H14  1  0.479409  0.694796  0.724543  1
  H  H15  1  0.188376  0.000000  0.000000  1
  H  H16  1  0.811624  0.811624  0.000000  1
  H  H17  1  0.000000  0.188376  0.000000  1
  H  H18  1  0.866566  0.000000  0.228164  1
  H  H19  1  0.133434  0.133434  0.771836  1
  H  H20  1  0.000000  0.866566  0.771836  1
  H  H21  1  0.000000  0.866566  0.228164  1
  H  H22  1  0.133434  0.133434  0.228164  1
  H  H23  1  0.866566  0.000000  0.771836  1
  H  H24  1  0.130013  0.629015  0.500000  1
  H  H25  1  0.499001  0.869987  0.500000  1
  H  H26  1  0.370985  0.500999  0.500000  1
  H  H27  1  0.500999  0.370985  0.500000  1
  H  H28  1  0.869987  0.499001  0.500000  1
  H  H29  1  0.629015  0.130013  0.500000  1
  H  H30  1  0.215386  0.520591  0.724543  1
  H  H31  1  0.305204  0.784614  0.275457  1
  H  H32  1  0.479409  0.694796  0.275457  1
  W  W33  1  0.666667  0.333333  0.500000  1
  W  W34  1  0.333333  0.666667  0.500000  1
  W  W35  1  0.000000  0.000000  0.000000  1
