# generated using pymatgen
data_CaSbOsF12
_symmetry_space_group_name_H-M   'P 1'
_cell_length_a   11.66957994
_cell_length_b   5.89402548
_cell_length_c   5.90482775
_cell_angle_alpha   57.30733322
_cell_angle_beta   56.69599981
_cell_angle_gamma   56.82131570
_symmetry_Int_Tables_number   1
_chemical_formula_structural   CaSbOsF12
_chemical_formula_sum   'Ca1 Sb1 Os1 F12'
_cell_volume   266.90650655
_cell_formula_units_Z   1
loop_
 _symmetry_equiv_pos_site_id
 _symmetry_equiv_pos_as_xyz
  1  'x, y, z'
loop_
 _atom_site_type_symbol
 _atom_site_label
 _atom_site_symmetry_multiplicity
 _atom_site_fract_x
 _atom_site_fract_y
 _atom_site_fract_z
 _atom_site_occupancy
  Ca  Ca0  1  0.749216  0.498685  0.502378  1
  Sb  Sb1  1  0.488639  0.014785  0.001155  1
  Os  Os2  1  0.006573  0.989874  0.000453  1
  F  F3  1  0.163526  0.121011  0.776668  1
  F  F4  1  0.664456  0.122904  0.777303  1
  F  F5  1  0.058666  0.778704  0.327640  1
  F  F6  1  0.568337  0.777864  0.310843  1
  F  F7  1  0.111628  0.670099  0.881457  1
  F  F8  1  0.617218  0.680487  0.869941  1
  F  F9  1  0.445441  0.220481  0.660808  1
  F  F10  1  0.934028  0.222452  0.679852  1
  F  F11  1  0.334502  0.871298  0.231375  1
  F  F12  1  0.834173  0.870887  0.228860  1
  F  F13  1  0.389650  0.336304  0.119347  1
  F  F14  1  0.883947  0.324165  0.131920  1
