# generated using pymatgen
data_Nd3PtCl3
_symmetry_space_group_name_H-M   'P 1'
_cell_length_a   10.25749908
_cell_length_b   10.25749881
_cell_length_c   10.25749900
_cell_angle_alpha   109.47121903
_cell_angle_beta   109.47121851
_cell_angle_gamma   109.47122049
_symmetry_Int_Tables_number   1
_chemical_formula_structural   Nd3PtCl3
_chemical_formula_sum   'Nd12 Pt4 Cl12'
_cell_volume   830.81164510
_cell_formula_units_Z   4
loop_
 _symmetry_equiv_pos_site_id
 _symmetry_equiv_pos_as_xyz
  1  'x, y, z'
loop_
 _atom_site_type_symbol
 _atom_site_label
 _atom_site_symmetry_multiplicity
 _atom_site_fract_x
 _atom_site_fract_y
 _atom_site_fract_z
 _atom_site_occupancy
  Nd  Nd0  1  0.480265  0.490133  0.240133  1
  Nd  Nd1  1  0.750000  0.240133  0.259867  1
  Nd  Nd2  1  0.750000  0.009867  0.490133  1
  Nd  Nd3  1  0.240133  0.480265  0.490133  1
  Nd  Nd4  1  0.259867  0.750000  0.240133  1
  Nd  Nd5  1  0.019735  0.259867  0.009867  1
  Nd  Nd6  1  0.009867  0.019735  0.259867  1
  Nd  Nd7  1  0.490133  0.750000  0.009867  1
  Nd  Nd8  1  0.490133  0.240133  0.480265  1
  Nd  Nd9  1  0.009867  0.490133  0.750000  1
  Nd  Nd10  1  0.259867  0.009867  0.019735  1
  Nd  Nd11  1  0.240133  0.259867  0.750000  1
  Pt  Pt12  1  0.250000  0.250000  0.250000  1
  Pt  Pt13  1  0.500000  0.000000  0.250000  1
  Pt  Pt14  1  0.000000  0.250000  0.500000  1
  Pt  Pt15  1  0.250000  0.500000  0.000000  1
  Cl  Cl16  1  0.250000  0.751313  0.748687  1
  Cl  Cl17  1  0.502625  0.501313  0.751313  1
  Cl  Cl18  1  0.997375  0.748687  0.998687  1
  Cl  Cl19  1  0.748687  0.250000  0.751313  1
  Cl  Cl20  1  0.998687  0.997375  0.748687  1
  Cl  Cl21  1  0.250000  0.998687  0.501313  1
  Cl  Cl22  1  0.751313  0.502625  0.501313  1
  Cl  Cl23  1  0.501313  0.250000  0.998687  1
  Cl  Cl24  1  0.751313  0.748687  0.250000  1
  Cl  Cl25  1  0.748687  0.998687  0.997375  1
  Cl  Cl26  1  0.998687  0.501313  0.250000  1
  Cl  Cl27  1  0.501313  0.751313  0.502625  1
