# generated using pymatgen
data_Tb12ZnInCoNi3
_symmetry_space_group_name_H-M   'P 1'
_cell_length_a   8.40353499
_cell_length_b   8.40419128
_cell_length_c   8.40353170
_cell_angle_alpha   112.59624991
_cell_angle_beta   109.27526259
_cell_angle_gamma   106.59505829
_symmetry_Int_Tables_number   1
_chemical_formula_structural   Tb12ZnInCoNi3
_chemical_formula_sum   'Tb12 Zn1 In1 Co1 Ni3'
_cell_volume   455.63183821
_cell_formula_units_Z   1
loop_
 _symmetry_equiv_pos_site_id
 _symmetry_equiv_pos_as_xyz
  1  'x, y, z'
loop_
 _atom_site_type_symbol
 _atom_site_label
 _atom_site_symmetry_multiplicity
 _atom_site_fract_x
 _atom_site_fract_y
 _atom_site_fract_z
 _atom_site_occupancy
  Tb  Tb0  1  0.426163  0.228250  0.197876  1
  Tb  Tb1  1  0.573935  0.771182  0.802695  1
  Tb  Tb2  1  0.030373  0.228250  0.802085  1
  Tb  Tb3  1  0.968487  0.771182  0.197248  1
  Tb  Tb4  1  0.179849  0.287000  0.469807  1
  Tb  Tb5  1  0.817164  0.710080  0.530167  1
  Tb  Tb6  1  0.179913  0.710080  0.892917  1
  Tb  Tb7  1  0.817192  0.287000  0.107150  1
  Tb  Tb8  1  0.322753  0.630949  0.308196  1
  Tb  Tb9  1  0.681557  0.371663  0.690107  1
  Tb  Tb10  1  0.322844  0.014616  0.691771  1
  Tb  Tb11  1  0.681553  0.991386  0.309834  1
  Zn  Zn12  1  0.999592  0.999629  0.000036  1
  In  In13  1  0.499932  0.499733  0.999801  1
  Co  Co14  1  0.882328  0.382300  0.499972  1
  Ni  Ni15  1  0.353239  0.998749  0.354297  1
  Ni  Ni16  1  0.644452  0.998749  0.645509  1
  Ni  Ni17  1  0.118672  0.619203  0.500531  1
