# generated using pymatgen
data_SmPaHgPt2
_symmetry_space_group_name_H-M   'P 1'
_cell_length_a   7.97073200
_cell_length_b   7.89556100
_cell_length_c   3.64842700
_cell_angle_alpha   90.00000000
_cell_angle_beta   90.00000000
_cell_angle_gamma   90.00000000
_symmetry_Int_Tables_number   1
_chemical_formula_structural   SmPaHgPt2
_chemical_formula_sum   'Sm2 Pa2 Hg2 Pt4'
_cell_volume   229.60791839
_cell_formula_units_Z   2
loop_
 _symmetry_equiv_pos_site_id
 _symmetry_equiv_pos_as_xyz
  1  'x, y, z'
loop_
 _atom_site_type_symbol
 _atom_site_label
 _atom_site_symmetry_multiplicity
 _atom_site_fract_x
 _atom_site_fract_y
 _atom_site_fract_z
 _atom_site_occupancy
  Sm  Sm0  1  0.325082  0.172207  0.500000  1
  Sm  Sm1  1  0.825082  0.327793  0.500000  1
  Pa  Pa2  1  0.170770  0.668349  0.500000  1
  Pa  Pa3  1  0.670770  0.831651  0.500000  1
  Hg  Hg4  1  0.006801  0.006749  0.000000  1
  Hg  Hg5  1  0.506801  0.493251  0.000000  1
  Pt  Pt6  1  0.627395  0.104848  0.000000  1
  Pt  Pt7  1  0.127395  0.395152  0.000000  1
  Pt  Pt8  1  0.869951  0.650751  0.000000  1
  Pt  Pt9  1  0.369951  0.849249  0.000000  1
