# generated using pymatgen
data_Pr4ErTm5Pb6
_symmetry_space_group_name_H-M   'P 1'
_cell_length_a   9.13967294
_cell_length_b   9.13967355
_cell_length_c   6.69517300
_cell_angle_alpha   90.00000000
_cell_angle_beta   90.00000000
_cell_angle_gamma   119.41353213
_symmetry_Int_Tables_number   1
_chemical_formula_structural   Pr4ErTm5Pb6
_chemical_formula_sum   'Pr4 Er1 Tm5 Pb6'
_cell_volume   487.18070745
_cell_formula_units_Z   1
loop_
 _symmetry_equiv_pos_site_id
 _symmetry_equiv_pos_as_xyz
  1  'x, y, z'
loop_
 _atom_site_type_symbol
 _atom_site_label
 _atom_site_symmetry_multiplicity
 _atom_site_fract_x
 _atom_site_fract_y
 _atom_site_fract_z
 _atom_site_occupancy
  Pr  Pr0  1  0.238291  0.001182  0.750000  1
  Pr  Pr1  1  0.001182  0.238291  0.750000  1
  Pr  Pr2  1  0.762283  0.998625  0.250000  1
  Pr  Pr3  1  0.998625  0.762283  0.250000  1
  Er  Er4  1  0.243898  0.243898  0.250000  1
  Tm  Tm5  1  0.666412  0.333178  0.999920  1
  Tm  Tm6  1  0.333178  0.666412  0.999920  1
  Tm  Tm7  1  0.333178  0.666412  0.500080  1
  Tm  Tm8  1  0.666412  0.333178  0.500080  1
  Tm  Tm9  1  0.757264  0.757264  0.750000  1
  Pb  Pb10  1  0.404245  0.404245  0.750000  1
  Pb  Pb11  1  0.602844  0.995766  0.750000  1
  Pb  Pb12  1  0.995766  0.602844  0.750000  1
  Pb  Pb13  1  0.596238  0.596238  0.250000  1
  Pb  Pb14  1  0.397410  0.002773  0.250000  1
  Pb  Pb15  1  0.002773  0.397410  0.250000  1
