# generated using pymatgen
data_YHo3(B2Ir5)2
_symmetry_space_group_name_H-M   'P 1'
_cell_length_a   11.01048214
_cell_length_b   11.01048188
_cell_length_c   11.01048415
_cell_angle_alpha   28.76150819
_cell_angle_beta   28.76150880
_cell_angle_gamma   28.76151430
_symmetry_Int_Tables_number   1
_chemical_formula_structural   YHo3(B2Ir5)2
_chemical_formula_sum   'Y1 Ho3 B4 Ir10'
_cell_volume   273.24478830
_cell_formula_units_Z   1
loop_
 _symmetry_equiv_pos_site_id
 _symmetry_equiv_pos_as_xyz
  1  'x, y, z'
loop_
 _atom_site_type_symbol
 _atom_site_label
 _atom_site_symmetry_multiplicity
 _atom_site_fract_x
 _atom_site_fract_y
 _atom_site_fract_z
 _atom_site_occupancy
  Y  Y0  1  0.152024  0.152024  0.152024  1
  Ho  Ho1  1  0.950202  0.950202  0.950202  1
  Ho  Ho2  1  0.847880  0.847880  0.847880  1
  Ho  Ho3  1  0.049716  0.049716  0.049716  1
  B  B4  1  0.617495  0.617495  0.617495  1
  B  B5  1  0.716084  0.716084  0.716084  1
  B  B6  1  0.382554  0.382554  0.382554  1
  B  B7  1  0.283912  0.283912  0.283912  1
  Ir  Ir8  1  0.405804  0.899671  0.405804  1
  Ir  Ir9  1  0.899671  0.405804  0.405804  1
  Ir  Ir10  1  0.499976  0.499976  0.000023  1
  Ir  Ir11  1  0.499976  0.000023  0.499976  1
  Ir  Ir12  1  0.000023  0.499976  0.499976  1
  Ir  Ir13  1  0.500058  0.500058  0.500058  1
  Ir  Ir14  1  0.594296  0.100230  0.594296  1
  Ir  Ir15  1  0.594296  0.594296  0.100230  1
  Ir  Ir16  1  0.100230  0.594296  0.594296  1
  Ir  Ir17  1  0.405804  0.405804  0.899671  1
