# generated using pymatgen
data_Hf2Ta2GeAs
_symmetry_space_group_name_H-M   'P 1'
_cell_length_a   3.62392700
_cell_length_b   7.02748400
_cell_length_c   8.57749100
_cell_angle_alpha   90.00000000
_cell_angle_beta   90.00000000
_cell_angle_gamma   90.00000000
_symmetry_Int_Tables_number   1
_chemical_formula_structural   Hf2Ta2GeAs
_chemical_formula_sum   'Hf4 Ta4 Ge2 As2'
_cell_volume   218.44372678
_cell_formula_units_Z   2
loop_
 _symmetry_equiv_pos_site_id
 _symmetry_equiv_pos_as_xyz
  1  'x, y, z'
loop_
 _atom_site_type_symbol
 _atom_site_label
 _atom_site_symmetry_multiplicity
 _atom_site_fract_x
 _atom_site_fract_y
 _atom_site_fract_z
 _atom_site_occupancy
  Hf  Hf0  1  0.250000  0.041629  0.665426  1
  Hf  Hf1  1  0.250000  0.541629  0.834574  1
  Hf  Hf2  1  0.750000  0.459079  0.165589  1
  Hf  Hf3  1  0.750000  0.959079  0.334411  1
  Ta  Ta4  1  0.750000  0.863611  0.938716  1
  Ta  Ta5  1  0.250000  0.634214  0.440967  1
  Ta  Ta6  1  0.750000  0.363611  0.561284  1
  Ta  Ta7  1  0.250000  0.134214  0.059033  1
  Ge  Ge8  1  0.250000  0.256854  0.355572  1
  Ge  Ge9  1  0.250000  0.756854  0.144428  1
  As  As10  1  0.750000  0.744613  0.642634  1
  As  As11  1  0.750000  0.244613  0.857366  1
