# generated using pymatgen
data_Ti8MnCuBi4
_symmetry_space_group_name_H-M   'P 1'
_cell_length_a   7.89070298
_cell_length_b   7.89070340
_cell_length_c   7.89070310
_cell_angle_alpha   95.56467131
_cell_angle_beta   95.56466634
_cell_angle_gamma   143.71290521
_symmetry_Int_Tables_number   1
_chemical_formula_structural   Ti8MnCuBi4
_chemical_formula_sum   'Ti8 Mn1 Cu1 Bi4'
_cell_volume   276.30998957
_cell_formula_units_Z   1
loop_
 _symmetry_equiv_pos_site_id
 _symmetry_equiv_pos_as_xyz
  1  'x, y, z'
loop_
 _atom_site_type_symbol
 _atom_site_label
 _atom_site_symmetry_multiplicity
 _atom_site_fract_x
 _atom_site_fract_y
 _atom_site_fract_z
 _atom_site_occupancy
  Ti  Ti0  1  0.701504  0.587654  0.277077  1
  Ti  Ti1  1  0.310577  0.424427  0.722923  1
  Ti  Ti2  1  0.587654  0.310577  0.886150  1
  Ti  Ti3  1  0.075573  0.189423  0.277077  1
  Ti  Ti4  1  0.798496  0.075573  0.886150  1
  Ti  Ti5  1  0.424427  0.701504  0.113850  1
  Ti  Ti6  1  0.912346  0.798496  0.722923  1
  Ti  Ti7  1  0.189423  0.912346  0.113850  1
  Mn  Mn8  1  0.750000  0.750000  0.000000  1
  Cu  Cu9  1  0.250000  0.250000  0.000000  1
  Bi  Bi10  1  0.138848  0.638848  0.777698  1
  Bi  Bi11  1  0.361152  0.138848  0.500000  1
  Bi  Bi12  1  0.861152  0.361152  0.222302  1
  Bi  Bi13  1  0.638848  0.861152  0.500000  1
