# generated using pymatgen
data_DyTm5Al24Ru7Rh
_symmetry_space_group_name_H-M   'P 1'
_cell_length_a   8.74599397
_cell_length_b   8.78639509
_cell_length_c   9.58537969
_cell_angle_alpha   90.00919003
_cell_angle_beta   89.86417626
_cell_angle_gamma   120.13340500
_symmetry_Int_Tables_number   1
_chemical_formula_structural   DyTm5Al24Ru7Rh
_chemical_formula_sum   'Dy1 Tm5 Al24 Ru7 Rh1'
_cell_volume   637.04915243
_cell_formula_units_Z   1
loop_
 _symmetry_equiv_pos_site_id
 _symmetry_equiv_pos_as_xyz
  1  'x, y, z'
loop_
 _atom_site_type_symbol
 _atom_site_label
 _atom_site_symmetry_multiplicity
 _atom_site_fract_x
 _atom_site_fract_y
 _atom_site_fract_z
 _atom_site_occupancy
  Dy  Dy0  1  0.805430  0.191207  0.749057  1
  Tm  Tm1  1  0.195400  0.808071  0.251152  1
  Tm  Tm2  1  0.388662  0.194452  0.749636  1
  Tm  Tm3  1  0.611342  0.805664  0.250367  1
  Tm  Tm4  1  0.804384  0.612644  0.748845  1
  Tm  Tm5  1  0.195462  0.387458  0.251150  1
  Al  Al6  1  0.665056  0.333023  0.980073  1
  Al  Al7  1  0.334614  0.667312  0.020353  1
  Al  Al8  1  0.333072  0.666546  0.480471  1
  Al  Al9  1  0.666603  0.333780  0.519050  1
  Al  Al10  1  0.837963  0.163301  0.421533  1
  Al  Al11  1  0.162117  0.836678  0.577839  1
  Al  Al12  1  0.326227  0.163063  0.422547  1
  Al  Al13  1  0.163711  0.838731  0.922075  1
  Al  Al14  1  0.673670  0.836518  0.577181  1
  Al  Al15  1  0.836384  0.161244  0.078522  1
  Al  Al16  1  0.837947  0.674563  0.421949  1
  Al  Al17  1  0.674339  0.836878  0.922434  1
  Al  Al18  1  0.162499  0.325589  0.577770  1
  Al  Al19  1  0.325508  0.162684  0.077840  1
  Al  Al20  1  0.164009  0.325097  0.922116  1
  Al  Al21  1  0.836366  0.675008  0.078165  1
  Al  Al22  1  0.437649  0.560963  0.750244  1
  Al  Al23  1  0.562450  0.439039  0.249751  1
  Al  Al24  1  0.123145  0.562094  0.749340  1
  Al  Al25  1  0.877636  0.438825  0.250636  1
  Al  Al26  1  0.436652  0.875798  0.750252  1
  Al  Al27  1  0.562438  0.123409  0.249761  1
  Al  Al28  1  0.000176  0.999601  0.749941  1
  Al  Al29  1  0.000148  0.000138  0.250060  1
  Ru  Ru30  1  0.499832  0.500152  0.000060  1
  Ru  Ru31  1  0.499813  0.500115  0.499957  1
  Ru  Ru32  1  0.499213  0.999595  0.000382  1
  Ru  Ru33  1  0.000425  0.500756  0.499609  1
  Ru  Ru34  1  0.499335  0.999657  0.499682  1
  Ru  Ru35  1  0.000004  0.999901  0.999875  1
  Ru  Ru36  1  0.000015  0.999908  0.500067  1
  Rh  Rh37  1  0.000306  0.500538  0.000258  1
