# generated using pymatgen
data_Ac2Al20IrOs3
_symmetry_space_group_name_H-M   'P 1'
_cell_length_a   6.97306651
_cell_length_b   6.97351152
_cell_length_c   9.29620632
_cell_angle_alpha   90.09752022
_cell_angle_beta   90.02835186
_cell_angle_gamma   96.90752184
_symmetry_Int_Tables_number   1
_chemical_formula_structural   Ac2Al20IrOs3
_chemical_formula_sum   'Ac2 Al20 Ir1 Os3'
_cell_volume   448.76249260
_cell_formula_units_Z   1
loop_
 _symmetry_equiv_pos_site_id
 _symmetry_equiv_pos_as_xyz
  1  'x, y, z'
loop_
 _atom_site_type_symbol
 _atom_site_label
 _atom_site_symmetry_multiplicity
 _atom_site_fract_x
 _atom_site_fract_y
 _atom_site_fract_z
 _atom_site_occupancy
  Ac  Ac0  1  0.876932  0.121359  0.749980  1
  Ac  Ac1  1  0.123068  0.878641  0.250020  1
  Al  Al2  1  0.619249  0.377688  0.552510  1
  Al  Al3  1  0.380751  0.622312  0.447490  1
  Al  Al4  1  0.378498  0.622013  0.050300  1
  Al  Al5  1  0.621502  0.377987  0.949700  1
  Al  Al6  1  0.230053  0.228419  0.498998  1
  Al  Al7  1  0.769947  0.771581  0.501002  1
  Al  Al8  1  0.771468  0.771915  0.999433  1
  Al  Al9  1  0.228532  0.228085  0.000567  1
  Al  Al10  1  0.836241  0.164727  0.103118  1
  Al  Al11  1  0.163759  0.835273  0.896882  1
  Al  Al12  1  0.165715  0.835747  0.604700  1
  Al  Al13  1  0.834285  0.164253  0.395300  1
  Al  Al14  1  0.855815  0.588082  0.750788  1
  Al  Al15  1  0.144185  0.411918  0.249212  1
  Al  Al16  1  0.411187  0.142671  0.750340  1
  Al  Al17  1  0.588813  0.857329  0.249660  1
  Al  Al18  1  0.222527  0.485035  0.752566  1
  Al  Al19  1  0.777473  0.514965  0.247434  1
  Al  Al20  1  0.514562  0.778967  0.749459  1
  Al  Al21  1  0.485438  0.221033  0.250541  1
  Ir  Ir22  1  0.000000  0.500000  0.500000  1
  Os  Os23  1  0.000000  0.500000  0.000000  1
  Os  Os24  1  0.500000  0.000000  0.000000  1
  Os  Os25  1  0.500000  0.000000  0.500000  1
