# generated using pymatgen
data_CsZr2(FeH6)2
_symmetry_space_group_name_H-M   'P 1'
_cell_length_a   4.51029200
_cell_length_b   4.51029298
_cell_length_c   9.04406100
_cell_angle_alpha   90.00000000
_cell_angle_beta   90.00000000
_cell_angle_gamma   120.00000751
_symmetry_Int_Tables_number   1
_chemical_formula_structural   CsZr2(FeH6)2
_chemical_formula_sum   'Cs1 Zr2 Fe2 H12'
_cell_volume   159.33217860
_cell_formula_units_Z   1
loop_
 _symmetry_equiv_pos_site_id
 _symmetry_equiv_pos_as_xyz
  1  'x, y, z'
loop_
 _atom_site_type_symbol
 _atom_site_label
 _atom_site_symmetry_multiplicity
 _atom_site_fract_x
 _atom_site_fract_y
 _atom_site_fract_z
 _atom_site_occupancy
  Cs  Cs0  1  0.000000  0.000000  0.000000  1
  Zr  Zr1  1  0.666667  0.333333  0.379850  1
  Zr  Zr2  1  0.333333  0.666667  0.620150  1
  Fe  Fe3  1  0.666667  0.333333  0.684862  1
  Fe  Fe4  1  0.333333  0.666667  0.315138  1
  H  H5  1  0.161361  0.838639  0.408002  1
  H  H6  1  0.677278  0.838639  0.408002  1
  H  H7  1  0.161361  0.322722  0.408002  1
  H  H8  1  0.838639  0.161361  0.591998  1
  H  H9  1  0.322722  0.161361  0.591998  1
  H  H10  1  0.838639  0.677278  0.591998  1
  H  H11  1  0.505457  0.010913  0.792236  1
  H  H12  1  0.505457  0.494543  0.792236  1
  H  H13  1  0.989087  0.494543  0.792236  1
  H  H14  1  0.494543  0.989087  0.207764  1
  H  H15  1  0.494543  0.505457  0.207764  1
  H  H16  1  0.010913  0.505457  0.207764  1
