# generated using pymatgen
data_LiHf(SbPt)2
_symmetry_space_group_name_H-M   'P 1'
_cell_length_a   6.33099187
_cell_length_b   6.33099266
_cell_length_c   7.76375259
_cell_angle_alpha   65.93783235
_cell_angle_beta   65.93782394
_cell_angle_gamma   89.99999949
_symmetry_Int_Tables_number   1
_chemical_formula_structural   LiHf(SbPt)2
_chemical_formula_sum   'Li2 Hf2 Sb4 Pt4'
_cell_volume   254.24134416
_cell_formula_units_Z   2
loop_
 _symmetry_equiv_pos_site_id
 _symmetry_equiv_pos_as_xyz
  1  'x, y, z'
loop_
 _atom_site_type_symbol
 _atom_site_label
 _atom_site_symmetry_multiplicity
 _atom_site_fract_x
 _atom_site_fract_y
 _atom_site_fract_z
 _atom_site_occupancy
  Li  Li0  1  0.000000  0.000000  0.000000  1
  Li  Li1  1  0.250000  0.750000  0.500001  1
  Hf  Hf2  1  0.499999  0.499999  0.000000  1
  Hf  Hf3  1  0.750000  0.250000  0.500001  1
  Sb  Sb4  1  0.491702  0.991703  0.016595  1
  Sb  Sb5  1  0.758299  0.758299  0.483402  1
  Sb  Sb6  1  0.241701  0.241701  0.516598  1
  Sb  Sb7  1  0.008299  0.508299  0.983403  1
  Pt  Pt8  1  0.625001  0.609466  0.249999  1
  Pt  Pt9  1  0.125000  0.140533  0.250000  1
  Pt  Pt10  1  0.390533  0.875001  0.750000  1
  Pt  Pt11  1  0.859465  0.375000  0.750001  1
