# generated using pymatgen
data_Sc20Si12O
_symmetry_space_group_name_H-M   'P 1'
_cell_length_a   13.68781500
_cell_length_b   5.80334371
_cell_length_c   7.87611422
_cell_angle_alpha   89.95146113
_cell_angle_beta   90.00000000
_cell_angle_gamma   90.00000000
_symmetry_Int_Tables_number   1
_chemical_formula_structural   Sc20Si12O
_chemical_formula_sum   'Sc20 Si12 O1'
_cell_volume   625.63965693
_cell_formula_units_Z   1
loop_
 _symmetry_equiv_pos_site_id
 _symmetry_equiv_pos_as_xyz
  1  'x, y, z'
loop_
 _atom_site_type_symbol
 _atom_site_label
 _atom_site_symmetry_multiplicity
 _atom_site_fract_x
 _atom_site_fract_y
 _atom_site_fract_z
 _atom_site_occupancy
  Sc  Sc0  1  0.665906  0.500000  0.500000  1
  Sc  Sc1  1  0.168881  0.500000  0.000000  1
  Sc  Sc2  1  0.831119  0.500000  0.000000  1
  Sc  Sc3  1  0.334094  0.500000  0.500000  1
  Sc  Sc4  1  0.836304  0.000000  0.000000  1
  Sc  Sc5  1  0.331783  0.000000  0.500000  1
  Sc  Sc6  1  0.668217  0.000000  0.500000  1
  Sc  Sc7  1  0.163696  0.000000  0.000000  1
  Sc  Sc8  1  0.500000  0.248798  0.757633  1
  Sc  Sc9  1  0.000000  0.264925  0.265924  1
  Sc  Sc10  1  0.620709  0.248859  0.120859  1
  Sc  Sc11  1  0.117255  0.261502  0.618062  1
  Sc  Sc12  1  0.882745  0.261502  0.618062  1
  Sc  Sc13  1  0.379291  0.248859  0.120859  1
  Sc  Sc14  1  0.000000  0.735075  0.734076  1
  Sc  Sc15  1  0.500000  0.751202  0.242367  1
  Sc  Sc16  1  0.882745  0.738498  0.381938  1
  Sc  Sc17  1  0.379291  0.751141  0.879141  1
  Sc  Sc18  1  0.620709  0.751141  0.879141  1
  Sc  Sc19  1  0.117255  0.738498  0.381938  1
  Si  Si20  1  0.000000  0.257846  0.899516  1
  Si  Si21  1  0.500000  0.246328  0.395150  1
  Si  Si22  1  0.801502  0.249123  0.302030  1
  Si  Si23  1  0.301711  0.247428  0.802574  1
  Si  Si24  1  0.698289  0.247428  0.802574  1
  Si  Si25  1  0.198498  0.249123  0.302030  1
  Si  Si26  1  0.500000  0.753672  0.604850  1
  Si  Si27  1  0.000000  0.742154  0.100484  1
  Si  Si28  1  0.698289  0.752572  0.197426  1
  Si  Si29  1  0.198498  0.750877  0.697970  1
  Si  Si30  1  0.801502  0.750877  0.697970  1
  Si  Si31  1  0.301711  0.752572  0.197426  1
  O  O32  1  0.000000  0.500000  0.500000  1
