# generated using pymatgen
data_Y2Tm10InCo5
_symmetry_space_group_name_H-M   'P 1'
_cell_length_a   8.19247312
_cell_length_b   8.19247407
_cell_length_c   8.16626939
_cell_angle_alpha   111.00751534
_cell_angle_beta   110.69811163
_cell_angle_gamma   106.87848337
_symmetry_Int_Tables_number   1
_chemical_formula_structural   Y2Tm10InCo5
_chemical_formula_sum   'Y2 Tm10 In1 Co5'
_cell_volume   420.52887916
_cell_formula_units_Z   1
loop_
 _symmetry_equiv_pos_site_id
 _symmetry_equiv_pos_as_xyz
  1  'x, y, z'
loop_
 _atom_site_type_symbol
 _atom_site_label
 _atom_site_symmetry_multiplicity
 _atom_site_fract_x
 _atom_site_fract_y
 _atom_site_fract_z
 _atom_site_occupancy
  Y  Y0  1  0.288085  0.186458  0.474542  1
  Y  Y1  1  0.711915  0.813542  0.525458  1
  Tm  Tm2  1  0.288203  0.813986  0.102188  1
  Tm  Tm3  1  0.711797  0.186014  0.897812  1
  Tm  Tm4  1  0.620289  0.313603  0.304807  1
  Tm  Tm5  1  0.379711  0.686397  0.695193  1
  Tm  Tm6  1  0.008795  0.315482  0.695193  1
  Tm  Tm7  1  0.991205  0.684518  0.304807  1
  Tm  Tm8  1  0.211365  0.404640  0.190853  1
  Tm  Tm9  1  0.788635  0.595360  0.809147  1
  Tm  Tm10  1  0.213788  0.020513  0.809147  1
  Tm  Tm11  1  0.786212  0.979487  0.190853  1
  In  In12  1  0.500000  0.500000  0.000000  1
  Co  Co13  1  0.999451  0.377262  0.376712  1
  Co  Co14  1  0.000549  0.622738  0.623288  1
  Co  Co15  1  0.386841  0.886841  0.500000  1
  Co  Co16  1  0.613159  0.113159  0.500000  1
  Co  Co17  1  0.000000  0.000000  0.000000  1
