# generated using pymatgen
data_Dy2Ho5Sn23Ir6
_symmetry_space_group_name_H-M   'P 1'
_cell_length_a   9.85147400
_cell_length_b   9.85147261
_cell_length_c   10.11484900
_cell_angle_alpha   90.00188610
_cell_angle_beta   89.99811185
_cell_angle_gamma   119.99708668
_symmetry_Int_Tables_number   1
_chemical_formula_structural   Dy2Ho5Sn23Ir6
_chemical_formula_sum   'Dy2 Ho5 Sn23 Ir6'
_cell_volume   850.16878199
_cell_formula_units_Z   1
loop_
 _symmetry_equiv_pos_site_id
 _symmetry_equiv_pos_as_xyz
  1  'x, y, z'
loop_
 _atom_site_type_symbol
 _atom_site_label
 _atom_site_symmetry_multiplicity
 _atom_site_fract_x
 _atom_site_fract_y
 _atom_site_fract_z
 _atom_site_occupancy
  Dy  Dy0  1  0.999999  0.000001  0.000001  1
  Dy  Dy1  1  0.519931  0.480069  0.693005  1
  Ho  Ho2  1  0.519872  0.039743  0.693023  1
  Ho  Ho3  1  0.960257  0.480128  0.693023  1
  Ho  Ho4  1  0.039741  0.519873  0.306977  1
  Ho  Ho5  1  0.480127  0.960259  0.306977  1
  Ho  Ho6  1  0.480129  0.519871  0.306951  1
  Sn  Sn7  1  0.666669  0.333331  0.174339  1
  Sn  Sn8  1  0.666713  0.333287  0.876946  1
  Sn  Sn9  1  0.333332  0.666668  0.123112  1
  Sn  Sn10  1  0.352545  0.352545  0.000020  1
  Sn  Sn11  1  0.000004  0.647443  0.000004  1
  Sn  Sn12  1  0.647444  0.000006  0.000000  1
  Sn  Sn13  1  0.647455  0.647455  0.000020  1
  Sn  Sn14  1  0.333323  0.666677  0.825666  1
  Sn  Sn15  1  0.445158  0.222547  0.455968  1
  Sn  Sn16  1  0.222579  0.777421  0.543991  1
  Sn  Sn17  1  0.222512  0.445157  0.543959  1
  Sn  Sn18  1  0.554843  0.777488  0.543959  1
  Sn  Sn19  1  0.119375  0.880625  0.283856  1
  Sn  Sn20  1  0.777453  0.554842  0.455968  1
  Sn  Sn21  1  0.777417  0.222583  0.456002  1
  Sn  Sn22  1  0.352557  0.999996  0.000004  1
  Sn  Sn23  1  0.119367  0.238744  0.283857  1
  Sn  Sn24  1  0.761256  0.880633  0.283857  1
  Sn  Sn25  1  0.238699  0.119309  0.716154  1
  Sn  Sn26  1  0.880691  0.761301  0.716154  1
  Sn  Sn27  1  0.880626  0.119374  0.716148  1
  Sn  Sn28  1  0.999998  0.000002  0.499997  1
  Sn  Sn29  1  0.999994  0.352556  0.000000  1
  Ir  Ir30  1  0.168782  0.831218  0.801821  1
  Ir  Ir31  1  0.168680  0.337526  0.801853  1
  Ir  Ir32  1  0.662474  0.831320  0.801853  1
  Ir  Ir33  1  0.337567  0.168788  0.198178  1
  Ir  Ir34  1  0.831212  0.662433  0.198178  1
  Ir  Ir35  1  0.831219  0.168781  0.198183  1
