# generated using pymatgen
data_Nd4ErGa2Sn
_symmetry_space_group_name_H-M   'P 1'
_cell_length_a   9.08538643
_cell_length_b   9.08538749
_cell_length_c   9.08538711
_cell_angle_alpha   127.40850725
_cell_angle_beta   127.40851450
_cell_angle_gamma   77.58519984
_symmetry_Int_Tables_number   1
_chemical_formula_structural   Nd4ErGa2Sn
_chemical_formula_sum   'Nd8 Er2 Ga4 Sn2'
_cell_volume   458.85735359
_cell_formula_units_Z   2
loop_
 _symmetry_equiv_pos_site_id
 _symmetry_equiv_pos_as_xyz
  1  'x, y, z'
loop_
 _atom_site_type_symbol
 _atom_site_label
 _atom_site_symmetry_multiplicity
 _atom_site_fract_x
 _atom_site_fract_y
 _atom_site_fract_z
 _atom_site_occupancy
  Nd  Nd0  1  0.525090  0.025090  0.839354  1
  Nd  Nd1  1  0.185734  0.685734  0.160646  1
  Nd  Nd2  1  0.025090  0.185734  0.500000  1
  Nd  Nd3  1  0.685734  0.525090  0.500000  1
  Nd  Nd4  1  0.474910  0.974910  0.160646  1
  Nd  Nd5  1  0.814266  0.314266  0.839354  1
  Nd  Nd6  1  0.974910  0.814266  0.500000  1
  Nd  Nd7  1  0.314266  0.474910  0.500000  1
  Er  Er8  1  0.500000  0.500000  0.000000  1
  Er  Er9  1  0.000000  0.000000  0.000000  1
  Ga  Ga10  1  0.876301  0.376301  0.252600  1
  Ga  Ga11  1  0.123699  0.623699  0.747400  1
  Ga  Ga12  1  0.376301  0.123699  0.500000  1
  Ga  Ga13  1  0.623699  0.876301  0.500000  1
  Sn  Sn14  1  0.250000  0.250000  0.000000  1
  Sn  Sn15  1  0.750000  0.750000  0.000000  1
