# generated using pymatgen
data_DyHo2Si2Ag3Ge
_symmetry_space_group_name_H-M   'P 1'
_cell_length_a   7.07320253
_cell_length_b   7.06747095
_cell_length_c   4.22191900
_cell_angle_alpha   90.00000000
_cell_angle_beta   90.00000000
_cell_angle_gamma   119.97319793
_symmetry_Int_Tables_number   1
_chemical_formula_structural   DyHo2Si2Ag3Ge
_chemical_formula_sum   'Dy1 Ho2 Si2 Ag3 Ge1'
_cell_volume   182.82596871
_cell_formula_units_Z   1
loop_
 _symmetry_equiv_pos_site_id
 _symmetry_equiv_pos_as_xyz
  1  'x, y, z'
loop_
 _atom_site_type_symbol
 _atom_site_label
 _atom_site_symmetry_multiplicity
 _atom_site_fract_x
 _atom_site_fract_y
 _atom_site_fract_z
 _atom_site_occupancy
  Dy  Dy0  1  0.000000  0.580371  0.500000  1
  Ho  Ho1  1  0.419541  0.419395  0.500000  1
  Ho  Ho2  1  0.580459  0.999856  0.500000  1
  Si  Si3  1  0.666004  0.332915  0.000000  1
  Si  Si4  1  0.333996  0.666912  0.000000  1
  Ag  Ag5  1  0.744237  0.744429  0.000000  1
  Ag  Ag6  1  0.255763  0.000192  0.000000  1
  Ag  Ag7  1  0.000000  0.255243  0.000000  1
  Ge  Ge8  1  0.000000  0.000687  0.500000  1
