# generated using pymatgen
data_Y4Al18CuIr5
_symmetry_space_group_name_H-M   'P 1'
_cell_length_a   7.56370732
_cell_length_b   7.56370820
_cell_length_c   9.46207683
_cell_angle_alpha   90.03564910
_cell_angle_beta   90.03564818
_cell_angle_gamma   119.67256159
_symmetry_Int_Tables_number   1
_chemical_formula_structural   Y4Al18CuIr5
_chemical_formula_sum   'Y4 Al18 Cu1 Ir5'
_cell_volume   470.33767004
_cell_formula_units_Z   1
loop_
 _symmetry_equiv_pos_site_id
 _symmetry_equiv_pos_as_xyz
  1  'x, y, z'
loop_
 _atom_site_type_symbol
 _atom_site_label
 _atom_site_symmetry_multiplicity
 _atom_site_fract_x
 _atom_site_fract_y
 _atom_site_fract_z
 _atom_site_occupancy
  Y  Y0  1  0.995329  0.670297  0.250237  1
  Y  Y1  1  0.004671  0.329703  0.749763  1
  Y  Y2  1  0.670297  0.995329  0.250237  1
  Y  Y3  1  0.329703  0.004671  0.749763  1
  Al  Al4  1  0.128256  0.128256  0.250672  1
  Al  Al5  1  0.871744  0.871744  0.749328  1
  Al  Al6  1  0.000773  0.337359  0.076335  1
  Al  Al7  1  0.999227  0.662641  0.923665  1
  Al  Al8  1  0.999837  0.665967  0.573418  1
  Al  Al9  1  0.334033  0.000163  0.426582  1
  Al  Al10  1  0.000163  0.334033  0.426582  1
  Al  Al11  1  0.665967  0.999837  0.573418  1
  Al  Al12  1  0.662641  0.999227  0.923665  1
  Al  Al13  1  0.337359  0.000773  0.076335  1
  Al  Al14  1  0.333568  0.333568  0.552226  1
  Al  Al15  1  0.666432  0.666432  0.447774  1
  Al  Al16  1  0.664089  0.664089  0.054174  1
  Al  Al17  1  0.335911  0.335911  0.945826  1
  Al  Al18  1  0.338766  0.547680  0.250353  1
  Al  Al19  1  0.661234  0.452320  0.749647  1
  Al  Al20  1  0.547680  0.338766  0.250353  1
  Al  Al21  1  0.452320  0.661234  0.749647  1
  Cu  Cu22  1  0.000000  0.000000  0.000000  1
  Ir  Ir23  1  0.671725  0.328275  0.000000  1
  Ir  Ir24  1  0.328275  0.671725  0.000000  1
  Ir  Ir25  1  0.328156  0.671844  0.500000  1
  Ir  Ir26  1  0.671844  0.328156  0.500000  1
  Ir  Ir27  1  0.000000  0.000000  0.500000  1
