# generated using pymatgen
data_Tm8Tl2HgAu
_symmetry_space_group_name_H-M   'P 1'
_cell_length_a   10.39259745
_cell_length_b   10.39260762
_cell_length_c   6.84092100
_cell_angle_alpha   90.09890006
_cell_angle_beta   89.90119908
_cell_angle_gamma   119.83372155
_symmetry_Int_Tables_number   1
_chemical_formula_structural   Tm8Tl2HgAu
_chemical_formula_sum   'Tm16 Tl4 Hg2 Au2'
_cell_volume   640.94124297
_cell_formula_units_Z   2
loop_
 _symmetry_equiv_pos_site_id
 _symmetry_equiv_pos_as_xyz
  1  'x, y, z'
loop_
 _atom_site_type_symbol
 _atom_site_label
 _atom_site_symmetry_multiplicity
 _atom_site_fract_x
 _atom_site_fract_y
 _atom_site_fract_z
 _atom_site_occupancy
  Tm  Tm0  1  0.520780  0.050960  0.522101  1
  Tm  Tm1  1  0.949039  0.479219  0.522103  1
  Tm  Tm2  1  0.527654  0.472346  0.521808  1
  Tm  Tm3  1  0.476077  0.947617  0.018069  1
  Tm  Tm4  1  0.052383  0.523923  0.018070  1
  Tm  Tm5  1  0.472632  0.527368  0.021190  1
  Tm  Tm6  1  0.175806  0.339915  0.728972  1
  Tm  Tm7  1  0.660084  0.824194  0.728971  1
  Tm  Tm8  1  0.168433  0.831567  0.734222  1
  Tm  Tm9  1  0.827757  0.654559  0.215693  1
  Tm  Tm10  1  0.345442  0.172245  0.215695  1
  Tm  Tm11  1  0.826454  0.173546  0.231935  1
  Tm  Tm12  1  0.664121  0.335879  0.873059  1
  Tm  Tm13  1  0.332743  0.667258  0.377850  1
  Tm  Tm14  1  0.000838  0.999162  0.496619  1
  Tm  Tm15  1  0.998961  0.001038  0.997198  1
  Tl  Tl16  1  0.835142  0.164857  0.758378  1
  Tl  Tl17  1  0.163196  0.328168  0.259240  1
  Tl  Tl18  1  0.671832  0.836804  0.259239  1
  Tl  Tl19  1  0.164348  0.835655  0.260402  1
  Hg  Hg20  1  0.835942  0.669179  0.762994  1
  Hg  Hg21  1  0.330821  0.164057  0.762995  1
  Au  Au22  1  0.666545  0.333456  0.284676  1
  Au  Au23  1  0.332969  0.667029  0.786528  1
