# generated using pymatgen
data_SrTbLuSe4
_symmetry_space_group_name_H-M   'P 1'
_cell_length_a   4.10704900
_cell_length_b   12.64639000
_cell_length_c   14.87325800
_cell_angle_alpha   90.00000000
_cell_angle_beta   90.00000000
_cell_angle_gamma   90.00000000
_symmetry_Int_Tables_number   1
_chemical_formula_structural   SrTbLuSe4
_chemical_formula_sum   'Sr4 Tb4 Lu4 Se16'
_cell_volume   772.50725479
_cell_formula_units_Z   4
loop_
 _symmetry_equiv_pos_site_id
 _symmetry_equiv_pos_as_xyz
  1  'x, y, z'
loop_
 _atom_site_type_symbol
 _atom_site_label
 _atom_site_symmetry_multiplicity
 _atom_site_fract_x
 _atom_site_fract_y
 _atom_site_fract_z
 _atom_site_occupancy
  Sr  Sr0  1  0.250000  0.760106  0.334134  1
  Sr  Sr1  1  0.250000  0.260106  0.165866  1
  Sr  Sr2  1  0.750000  0.239894  0.665866  1
  Sr  Sr3  1  0.750000  0.739894  0.834134  1
  Tb  Tb4  1  0.250000  0.438137  0.388506  1
  Tb  Tb5  1  0.250000  0.938137  0.111494  1
  Tb  Tb6  1  0.750000  0.561863  0.611494  1
  Tb  Tb7  1  0.750000  0.061863  0.888506  1
  Lu  Lu8  1  0.250000  0.417752  0.903117  1
  Lu  Lu9  1  0.250000  0.917752  0.596883  1
  Lu  Lu10  1  0.750000  0.582248  0.096883  1
  Lu  Lu11  1  0.750000  0.082248  0.403117  1
  Se  Se12  1  0.250000  0.208209  0.829569  1
  Se  Se13  1  0.250000  0.708209  0.670431  1
  Se  Se14  1  0.750000  0.791791  0.170431  1
  Se  Se15  1  0.750000  0.291791  0.329569  1
  Se  Se16  1  0.250000  0.126516  0.529779  1
  Se  Se17  1  0.250000  0.626516  0.970221  1
  Se  Se18  1  0.750000  0.873484  0.470221  1
  Se  Se19  1  0.750000  0.373484  0.029779  1
  Se  Se20  1  0.250000  0.029014  0.286998  1
  Se  Se21  1  0.250000  0.529014  0.213002  1
  Se  Se22  1  0.750000  0.970986  0.713002  1
  Se  Se23  1  0.750000  0.470986  0.786998  1
  Se  Se24  1  0.250000  0.407697  0.578069  1
  Se  Se25  1  0.250000  0.907697  0.921931  1
  Se  Se26  1  0.750000  0.592303  0.421931  1
  Se  Se27  1  0.750000  0.092303  0.078069  1
