# generated using pymatgen
data_Nd3ZnIn3CuIr
_symmetry_space_group_name_H-M   'P 1'
_cell_length_a   7.74175200
_cell_length_b   7.74175072
_cell_length_c   4.04453200
_cell_angle_alpha   90.00000000
_cell_angle_beta   90.00000000
_cell_angle_gamma   119.99999693
_symmetry_Int_Tables_number   1
_chemical_formula_structural   Nd3ZnIn3CuIr
_chemical_formula_sum   'Nd3 Zn1 In3 Cu1 Ir1'
_cell_volume   209.93137925
_cell_formula_units_Z   1
loop_
 _symmetry_equiv_pos_site_id
 _symmetry_equiv_pos_as_xyz
  1  'x, y, z'
loop_
 _atom_site_type_symbol
 _atom_site_label
 _atom_site_symmetry_multiplicity
 _atom_site_fract_x
 _atom_site_fract_y
 _atom_site_fract_z
 _atom_site_occupancy
  Nd  Nd0  1  0.019064  0.597035  0.500000  1
  Nd  Nd1  1  0.402965  0.422028  0.500000  1
  Nd  Nd2  1  0.577972  0.980936  0.500000  1
  Zn  Zn3  1  0.666667  0.333333  0.000000  1
  In  In4  1  0.753508  0.752226  0.000000  1
  In  In5  1  0.998718  0.246492  0.000000  1
  In  In6  1  0.247774  0.001282  0.000000  1
  Cu  Cu7  1  0.000000  0.000000  0.500000  1
  Ir  Ir8  1  0.333333  0.666667  0.000000  1
