# generated using pymatgen
data_Li2Ho16TlInIr4
_symmetry_space_group_name_H-M   'P 1'
_cell_length_a   9.61693455
_cell_length_b   9.61220249
_cell_length_c   9.63664700
_cell_angle_alpha   59.91585052
_cell_angle_beta   59.93218145
_cell_angle_gamma   59.81506200
_symmetry_Int_Tables_number   1
_chemical_formula_structural   Li2Ho16TlInIr4
_chemical_formula_sum   'Li2 Ho16 Tl1 In1 Ir4'
_cell_volume   628.29192683
_cell_formula_units_Z   1
loop_
 _symmetry_equiv_pos_site_id
 _symmetry_equiv_pos_as_xyz
  1  'x, y, z'
loop_
 _atom_site_type_symbol
 _atom_site_label
 _atom_site_symmetry_multiplicity
 _atom_site_fract_x
 _atom_site_fract_y
 _atom_site_fract_z
 _atom_site_occupancy
  Li  Li0  1  0.426847  0.426898  0.424267  1
  Li  Li1  1  0.426847  0.426898  0.721988  1
  Ho  Ho2  1  0.439218  0.439322  0.060730  1
  Ho  Ho3  1  0.651560  0.651079  0.047771  1
  Ho  Ho4  1  0.188079  0.811549  0.189600  1
  Ho  Ho5  1  0.062178  0.438418  0.062160  1
  Ho  Ho6  1  0.188079  0.811549  0.810772  1
  Ho  Ho7  1  0.062178  0.438418  0.437244  1
  Ho  Ho8  1  0.811560  0.188342  0.189990  1
  Ho  Ho9  1  0.651560  0.651079  0.649592  1
  Ho  Ho10  1  0.811560  0.188342  0.810108  1
  Ho  Ho11  1  0.184106  0.184097  0.815899  1
  Ho  Ho12  1  0.041500  0.653037  0.652732  1
  Ho  Ho13  1  0.438682  0.062423  0.061573  1
  Ho  Ho14  1  0.062996  0.063123  0.436940  1
  Ho  Ho15  1  0.653241  0.041639  0.652561  1
  Ho  Ho16  1  0.808847  0.808178  0.191488  1
  Ho  Ho17  1  0.438682  0.062423  0.437322  1
  Tl  Tl18  1  0.414203  0.744347  0.420725  1
  In  In19  1  0.744095  0.414778  0.420564  1
  Ir  Ir20  1  0.424591  0.855600  0.859903  1
  Ir  Ir21  1  0.856809  0.856927  0.860902  1
  Ir  Ir22  1  0.855774  0.424609  0.859807  1
  Ir  Ir23  1  0.856809  0.856927  0.425362  1
