# generated using pymatgen
data_UPa7(SnPt2)4
_symmetry_space_group_name_H-M   'P 1'
_cell_length_a   7.73709600
_cell_length_b   7.73709464
_cell_length_c   7.39395000
_cell_angle_alpha   90.00000000
_cell_angle_beta   90.00000000
_cell_angle_gamma   89.83876342
_symmetry_Int_Tables_number   1
_chemical_formula_structural   UPa7(SnPt2)4
_chemical_formula_sum   'U1 Pa7 Sn4 Pt8'
_cell_volume   442.61964369
_cell_formula_units_Z   1
loop_
 _symmetry_equiv_pos_site_id
 _symmetry_equiv_pos_as_xyz
  1  'x, y, z'
loop_
 _atom_site_type_symbol
 _atom_site_label
 _atom_site_symmetry_multiplicity
 _atom_site_fract_x
 _atom_site_fract_y
 _atom_site_fract_z
 _atom_site_occupancy
  U  U0  1  0.686473  0.313527  0.500000  1
  Pa  Pa1  1  0.315405  0.684595  0.500000  1
  Pa  Pa2  1  0.186300  0.184429  0.000000  1
  Pa  Pa3  1  0.815571  0.813700  0.000000  1
  Pa  Pa4  1  0.852124  0.854733  0.500000  1
  Pa  Pa5  1  0.145267  0.147876  0.500000  1
  Pa  Pa6  1  0.353806  0.646194  0.000000  1
  Pa  Pa7  1  0.647178  0.352822  0.000000  1
  Sn  Sn8  1  0.501155  0.002088  0.252161  1
  Sn  Sn9  1  0.997912  0.498845  0.747839  1
  Sn  Sn10  1  0.501155  0.002088  0.747839  1
  Sn  Sn11  1  0.997912  0.498845  0.252161  1
  Pt  Pt12  1  0.868355  0.131645  0.212681  1
  Pt  Pt13  1  0.134311  0.865689  0.214869  1
  Pt  Pt14  1  0.364777  0.367572  0.715405  1
  Pt  Pt15  1  0.632428  0.635223  0.715405  1
  Pt  Pt16  1  0.134311  0.865689  0.785131  1
  Pt  Pt17  1  0.868355  0.131645  0.787319  1
  Pt  Pt18  1  0.632428  0.635223  0.284595  1
  Pt  Pt19  1  0.364777  0.367572  0.284595  1
