# generated using pymatgen
data_Tc7P4Ir
_symmetry_space_group_name_H-M   'P 1'
_cell_length_a   3.96696500
_cell_length_b   5.98502840
_cell_length_c   6.92582334
_cell_angle_alpha   90.23241677
_cell_angle_beta   90.00000000
_cell_angle_gamma   90.00000000
_symmetry_Int_Tables_number   1
_chemical_formula_structural   Tc7P4Ir
_chemical_formula_sum   'Tc7 P4 Ir1'
_cell_volume   164.43430262
_cell_formula_units_Z   1
loop_
 _symmetry_equiv_pos_site_id
 _symmetry_equiv_pos_as_xyz
  1  'x, y, z'
loop_
 _atom_site_type_symbol
 _atom_site_label
 _atom_site_symmetry_multiplicity
 _atom_site_fract_x
 _atom_site_fract_y
 _atom_site_fract_z
 _atom_site_occupancy
  Tc  Tc0  1  0.750000  0.014192  0.661622  1
  Tc  Tc1  1  0.250000  0.975791  0.340139  1
  Tc  Tc2  1  0.750000  0.519646  0.833247  1
  Tc  Tc3  1  0.250000  0.486310  0.162790  1
  Tc  Tc4  1  0.250000  0.355328  0.570212  1
  Tc  Tc5  1  0.750000  0.639607  0.424370  1
  Tc  Tc6  1  0.250000  0.866579  0.925393  1
  P  P7  1  0.250000  0.746489  0.609818  1
  P  P8  1  0.750000  0.247334  0.397054  1
  P  P9  1  0.250000  0.256024  0.890119  1
  P  P10  1  0.750000  0.749588  0.105899  1
  Ir  Ir11  1  0.750000  0.143109  0.079336  1
