# generated using pymatgen
data_Sc3ZnPt2
_symmetry_space_group_name_H-M   'P 1'
_cell_length_a   4.68950722
_cell_length_b   4.68950647
_cell_length_c   5.82546407
_cell_angle_alpha   89.32920492
_cell_angle_beta   90.67079981
_cell_angle_gamma   120.51584412
_symmetry_Int_Tables_number   1
_chemical_formula_structural   Sc3ZnPt2
_chemical_formula_sum   'Sc3 Zn1 Pt2'
_cell_volume   110.35576292
_cell_formula_units_Z   1
loop_
 _symmetry_equiv_pos_site_id
 _symmetry_equiv_pos_as_xyz
  1  'x, y, z'
loop_
 _atom_site_type_symbol
 _atom_site_label
 _atom_site_symmetry_multiplicity
 _atom_site_fract_x
 _atom_site_fract_y
 _atom_site_fract_z
 _atom_site_occupancy
  Sc  Sc0  1  0.000000  0.000000  0.500000  1
  Sc  Sc1  1  0.668733  0.331267  0.186335  1
  Sc  Sc2  1  0.331267  0.668733  0.813665  1
  Zn  Zn3  1  0.000000  0.000000  0.000000  1
  Pt  Pt4  1  0.339172  0.660828  0.288290  1
  Pt  Pt5  1  0.660828  0.339172  0.711710  1
