# generated using pymatgen
data_Tm8Zr12Si15Os
_symmetry_space_group_name_H-M   'P 1'
_cell_length_a   7.12588973
_cell_length_b   7.28201612
_cell_length_c   13.86643063
_cell_angle_alpha   89.87690271
_cell_angle_beta   89.88074209
_cell_angle_gamma   90.13377117
_symmetry_Int_Tables_number   1
_chemical_formula_structural   Tm8Zr12Si15Os
_chemical_formula_sum   'Tm8 Zr12 Si15 Os1'
_cell_volume   719.53559842
_cell_formula_units_Z   1
loop_
 _symmetry_equiv_pos_site_id
 _symmetry_equiv_pos_as_xyz
  1  'x, y, z'
loop_
 _atom_site_type_symbol
 _atom_site_label
 _atom_site_symmetry_multiplicity
 _atom_site_fract_x
 _atom_site_fract_y
 _atom_site_fract_z
 _atom_site_occupancy
  Tm  Tm0  1  0.016082  0.175516  0.097152  1
  Tm  Tm1  1  0.985688  0.824270  0.903544  1
  Tm  Tm2  1  0.485502  0.677106  0.902881  1
  Tm  Tm3  1  0.982740  0.824976  0.596718  1
  Tm  Tm4  1  0.514282  0.323426  0.096356  1
  Tm  Tm5  1  0.013866  0.180026  0.402191  1
  Tm  Tm6  1  0.512461  0.324352  0.401790  1
  Tm  Tm7  1  0.484515  0.672912  0.596750  1
  Zr  Zr8  1  0.159600  0.505515  0.744037  1
  Zr  Zr9  1  0.843847  0.500101  0.249354  1
  Zr  Zr10  1  0.344283  0.998472  0.250065  1
  Zr  Zr11  1  0.654008  0.000345  0.748631  1
  Zr  Zr12  1  0.326945  0.182529  0.620496  1
  Zr  Zr13  1  0.671573  0.823980  0.375471  1
  Zr  Zr14  1  0.173673  0.667668  0.380442  1
  Zr  Zr15  1  0.673411  0.821224  0.124086  1
  Zr  Zr16  1  0.834207  0.321920  0.623836  1
  Zr  Zr17  1  0.328654  0.176336  0.875415  1
  Zr  Zr18  1  0.829968  0.321097  0.876107  1
  Zr  Zr19  1  0.170651  0.677602  0.124582  1
  Si  Si20  1  0.032309  0.113820  0.752524  1
  Si  Si21  1  0.969147  0.883706  0.251077  1
  Si  Si22  1  0.467850  0.614645  0.249720  1
  Si  Si23  1  0.536057  0.383031  0.752522  1
  Si  Si24  1  0.281971  0.875003  0.752551  1
  Si  Si25  1  0.717595  0.128479  0.248614  1
  Si  Si26  1  0.219160  0.370135  0.247647  1
  Si  Si27  1  0.780829  0.628559  0.753902  1
  Si  Si28  1  0.837705  0.533144  0.458104  1
  Si  Si29  1  0.346416  0.970351  0.456984  1
  Si  Si30  1  0.842981  0.530633  0.040366  1
  Si  Si31  1  0.653726  0.032384  0.539417  1
  Si  Si32  1  0.157250  0.467744  0.960223  1
  Si  Si33  1  0.655941  0.030485  0.959854  1
  Si  Si34  1  0.345306  0.968252  0.040975  1
  Os  Os35  1  0.149805  0.470256  0.545616  1
