# generated using pymatgen
data_Mg2GaSn(AuO2)4
_symmetry_space_group_name_H-M   'P 1'
_cell_length_a   5.40327957
_cell_length_b   6.32074827
_cell_length_c   7.17103348
_cell_angle_alpha   63.82931859
_cell_angle_beta   75.56699191
_cell_angle_gamma   90.00476619
_symmetry_Int_Tables_number   1
_chemical_formula_structural   Mg2GaSn(AuO2)4
_chemical_formula_sum   'Mg2 Ga1 Sn1 Au4 O8'
_cell_volume   211.15432957
_cell_formula_units_Z   1
loop_
 _symmetry_equiv_pos_site_id
 _symmetry_equiv_pos_as_xyz
  1  'x, y, z'
loop_
 _atom_site_type_symbol
 _atom_site_label
 _atom_site_symmetry_multiplicity
 _atom_site_fract_x
 _atom_site_fract_y
 _atom_site_fract_z
 _atom_site_occupancy
  Mg  Mg0  1  0.500035  0.749043  0.999991  1
  Mg  Mg1  1  0.000005  0.507420  0.000003  1
  Ga  Ga2  1  0.000006  0.988991  0.999976  1
  Sn  Sn3  1  0.499964  0.250772  0.000014  1
  Au  Au4  1  0.001028  0.999541  0.503807  1
  Au  Au5  1  0.998968  0.503533  0.496204  1
  Au  Au6  1  0.504585  0.749313  0.500721  1
  Au  Au7  1  0.495429  0.250079  0.499270  1
  O  O8  1  0.893290  0.843027  0.834280  1
  O  O9  1  0.893709  0.324302  0.832931  1
  O  O10  1  0.391489  0.582138  0.831708  1
  O  O11  1  0.379411  0.085062  0.833533  1
  O  O12  1  0.106254  0.157179  0.167079  1
  O  O13  1  0.106743  0.677289  0.165722  1
  O  O14  1  0.620602  0.918527  0.166496  1
  O  O15  1  0.608480  0.413782  0.168263  1
