# generated using pymatgen
data_Pr6PCBr6
_symmetry_space_group_name_H-M   'P 1'
_cell_length_a   10.30582867
_cell_length_b   10.30582829
_cell_length_c   10.14805500
_cell_angle_alpha   109.47151250
_cell_angle_beta   109.47151239
_cell_angle_gamma   110.09208660
_symmetry_Int_Tables_number   1
_chemical_formula_structural   Pr6PCBr6
_chemical_formula_sum   'Pr12 P2 C2 Br12'
_cell_volume   823.26171993
_cell_formula_units_Z   2
loop_
 _symmetry_equiv_pos_site_id
 _symmetry_equiv_pos_as_xyz
  1  'x, y, z'
loop_
 _atom_site_type_symbol
 _atom_site_label
 _atom_site_symmetry_multiplicity
 _atom_site_fract_x
 _atom_site_fract_y
 _atom_site_fract_z
 _atom_site_occupancy
  Pr  Pr0  1  0.461270  0.491402  0.220513  1
  Pr  Pr1  1  0.770889  0.240756  0.279487  1
  Pr  Pr2  1  0.768969  0.028671  0.493676  1
  Pr  Pr3  1  0.224707  0.465007  0.493676  1
  Pr  Pr4  1  0.259244  0.729111  0.220513  1
  Pr  Pr5  1  0.034993  0.275293  0.006324  1
  Pr  Pr6  1  0.008598  0.038730  0.279487  1
  Pr  Pr7  1  0.471329  0.731031  0.006324  1
  Pr  Pr8  1  0.488203  0.238203  0.476406  1
  Pr  Pr9  1  0.022799  0.477201  0.750000  1
  Pr  Pr10  1  0.261797  0.011797  0.023594  1
  Pr  Pr11  1  0.227201  0.272799  0.750000  1
  P  P12  1  0.248753  0.251247  0.250000  1
  P  P13  1  0.501247  0.998753  0.250000  1
  C  C14  1  0.000978  0.250978  0.501956  1
  C  C15  1  0.249022  0.499022  0.998044  1
  Br  Br16  1  0.247577  0.755800  0.740251  1
  Br  Br17  1  0.515548  0.507325  0.759749  1
  Br  Br18  1  0.986823  0.741149  0.993166  1
  Br  Br19  1  0.744200  0.252423  0.759749  1
  Br  Br20  1  0.992675  0.984452  0.740251  1
  Br  Br21  1  0.247982  0.993657  0.506834  1
  Br  Br22  1  0.758851  0.513177  0.506834  1
  Br  Br23  1  0.506343  0.252018  0.993166  1
  Br  Br24  1  0.758122  0.741878  0.250000  1
  Br  Br25  1  0.743519  0.993519  0.987038  1
  Br  Br26  1  0.991878  0.508122  0.250000  1
  Br  Br27  1  0.506481  0.756481  0.512962  1
