# generated using pymatgen
data_Na2WO4
_symmetry_space_group_name_H-M   'P 1'
_cell_length_a   5.80169300
_cell_length_b   10.88495200
_cell_length_c   11.99689200
_cell_angle_alpha   90.00000000
_cell_angle_beta   90.00000000
_cell_angle_gamma   90.00000000
_symmetry_Int_Tables_number   1
_chemical_formula_structural   Na2WO4
_chemical_formula_sum   'Na16 W8 O32'
_cell_volume   757.61752411
_cell_formula_units_Z   8
loop_
 _symmetry_equiv_pos_site_id
 _symmetry_equiv_pos_as_xyz
  1  'x, y, z'
loop_
 _atom_site_type_symbol
 _atom_site_label
 _atom_site_symmetry_multiplicity
 _atom_site_fract_x
 _atom_site_fract_y
 _atom_site_fract_z
 _atom_site_occupancy
  Na  Na0  1  0.504808  0.264251  0.693729  1
  Na  Na1  1  0.495192  0.735749  0.693729  1
  Na  Na2  1  0.008906  0.236889  0.194158  1
  Na  Na3  1  0.991094  0.763111  0.194158  1
  Na  Na4  1  0.500864  0.749892  0.297969  1
  Na  Na5  1  0.499136  0.250108  0.297969  1
  Na  Na6  1  0.002804  0.738073  0.809439  1
  Na  Na7  1  0.997196  0.261927  0.809439  1
  Na  Na8  1  0.500000  0.500000  0.495914  1
  Na  Na9  1  0.000000  0.000000  0.991613  1
  Na  Na10  1  0.500000  0.500000  0.152215  1
  Na  Na11  1  0.000000  0.000000  0.653654  1
  Na  Na12  1  0.500000  0.500000  0.843023  1
  Na  Na13  1  0.000000  0.000000  0.345467  1
  Na  Na14  1  0.000000  0.500000  0.067135  1
  Na  Na15  1  0.500000  0.000000  0.562366  1
  W  W16  1  0.994713  0.758880  0.492513  1
  W  W17  1  0.005287  0.241120  0.492513  1
  W  W18  1  0.482043  0.743749  0.993040  1
  W  W19  1  0.517957  0.256251  0.993040  1
  W  W20  1  0.000000  0.500000  0.346924  1
  W  W21  1  0.500000  0.000000  0.846886  1
  W  W22  1  0.000000  0.500000  0.634394  1
  W  W23  1  0.500000  0.000000  0.137117  1
  O  O24  1  0.302724  0.857843  0.107707  1
  O  O25  1  0.697276  0.142157  0.107707  1
  O  O26  1  0.810269  0.645300  0.606347  1
  O  O27  1  0.189731  0.354700  0.606347  1
  O  O28  1  0.295554  0.861983  0.878350  1
  O  O29  1  0.704446  0.138017  0.878350  1
  O  O30  1  0.803727  0.641513  0.377076  1
  O  O31  1  0.196273  0.358487  0.377076  1
  O  O32  1  0.706914  0.925370  0.228503  1
  O  O33  1  0.293086  0.074630  0.228503  1
  O  O34  1  0.211373  0.571264  0.726098  1
  O  O35  1  0.788627  0.428736  0.726098  1
  O  O36  1  0.694505  0.922480  0.750262  1
  O  O37  1  0.305495  0.077520  0.750262  1
  O  O38  1  0.198125  0.574613  0.249497  1
  O  O39  1  0.801875  0.425387  0.249497  1
  O  O40  1  0.246263  0.632590  0.990806  1
  O  O41  1  0.753737  0.367410  0.990806  1
  O  O42  1  0.768287  0.874685  0.492633  1
  O  O43  1  0.231713  0.125315  0.492633  1
  O  O44  1  0.657276  0.914058  0.991707  1
  O  O45  1  0.342724  0.085942  0.991707  1
  O  O46  1  0.160887  0.584284  0.490448  1
  O  O47  1  0.839113  0.415716  0.490448  1
  O  O48  1  0.664039  0.681597  0.105934  1
  O  O49  1  0.335961  0.318403  0.105934  1
  O  O50  1  0.180676  0.818773  0.604511  1
  O  O51  1  0.819324  0.181227  0.604511  1
  O  O52  1  0.649544  0.687975  0.873844  1
  O  O53  1  0.350456  0.312025  0.873844  1
  O  O54  1  0.162059  0.811450  0.372271  1
  O  O55  1  0.837941  0.188550  0.372271  1
