# generated using pymatgen
data_LiDy13Y6(Cd3Ru)2
_symmetry_space_group_name_H-M   'P 1'
_cell_length_a   9.56716102
_cell_length_b   9.56716002
_cell_length_c   9.76600702
_cell_angle_alpha   89.99423605
_cell_angle_beta   90.00576130
_cell_angle_gamma   120.00439704
_symmetry_Int_Tables_number   1
_chemical_formula_structural   LiDy13Y6(Cd3Ru)2
_chemical_formula_sum   'Li1 Dy13 Y6 Cd6 Ru2'
_cell_volume   774.09549089
_cell_formula_units_Z   1
loop_
 _symmetry_equiv_pos_site_id
 _symmetry_equiv_pos_as_xyz
  1  'x, y, z'
loop_
 _atom_site_type_symbol
 _atom_site_label
 _atom_site_symmetry_multiplicity
 _atom_site_fract_x
 _atom_site_fract_y
 _atom_site_fract_z
 _atom_site_occupancy
  Li  Li0  1  0.000000  0.000000  0.500007  1
  Dy  Dy1  1  0.208147  0.791853  0.440372  1
  Dy  Dy2  1  0.208232  0.416292  0.440317  1
  Dy  Dy3  1  0.583708  0.791768  0.440317  1
  Dy  Dy4  1  0.791856  0.208144  0.559717  1
  Dy  Dy5  1  0.791736  0.583619  0.559639  1
  Dy  Dy6  1  0.416381  0.208264  0.559639  1
  Dy  Dy7  1  0.789310  0.210690  0.941082  1
  Dy  Dy8  1  0.789219  0.578578  0.941160  1
  Dy  Dy9  1  0.421422  0.210781  0.941160  1
  Dy  Dy10  1  0.210668  0.789332  0.058851  1
  Dy  Dy11  1  0.210769  0.421337  0.058898  1
  Dy  Dy12  1  0.578663  0.789231  0.058898  1
  Dy  Dy13  1  0.541564  0.458436  0.252017  1
  Y  Y14  1  0.000011  0.999989  0.999964  1
  Y  Y15  1  0.541663  0.083359  0.252001  1
  Y  Y16  1  0.916641  0.458337  0.252001  1
  Y  Y17  1  0.458368  0.541632  0.748014  1
  Y  Y18  1  0.458365  0.916758  0.747976  1
  Y  Y19  1  0.083242  0.541635  0.747976  1
  Cd  Cd20  1  0.888234  0.111766  0.258030  1
  Cd  Cd21  1  0.888141  0.776378  0.258034  1
  Cd  Cd22  1  0.223622  0.111859  0.258034  1
  Cd  Cd23  1  0.111783  0.888217  0.741964  1
  Cd  Cd24  1  0.111784  0.223572  0.741971  1
  Cd  Cd25  1  0.776428  0.888216  0.741971  1
  Ru  Ru26  1  0.333386  0.666614  0.250500  1
  Ru  Ru27  1  0.666658  0.333342  0.749489  1
