# generated using pymatgen
data_SmEr2Ti(Co4P3)2
_symmetry_space_group_name_H-M   'P 1'
_cell_length_a   3.69338900
_cell_length_b   10.59530600
_cell_length_c   12.28746000
_cell_angle_alpha   90.00000000
_cell_angle_beta   90.00000000
_cell_angle_gamma   90.00000000
_symmetry_Int_Tables_number   1
_chemical_formula_structural   SmEr2Ti(Co4P3)2
_chemical_formula_sum   'Sm2 Er4 Ti2 Co16 P12'
_cell_volume   480.84009294
_cell_formula_units_Z   2
loop_
 _symmetry_equiv_pos_site_id
 _symmetry_equiv_pos_as_xyz
  1  'x, y, z'
loop_
 _atom_site_type_symbol
 _atom_site_label
 _atom_site_symmetry_multiplicity
 _atom_site_fract_x
 _atom_site_fract_y
 _atom_site_fract_z
 _atom_site_occupancy
  Sm  Sm0  1  0.750000  0.250000  0.473894  1
  Sm  Sm1  1  0.250000  0.750000  0.526106  1
  Er  Er2  1  0.250000  0.929880  0.796368  1
  Er  Er3  1  0.250000  0.570120  0.796368  1
  Er  Er4  1  0.750000  0.070120  0.203632  1
  Er  Er5  1  0.750000  0.429880  0.203632  1
  Ti  Ti6  1  0.250000  0.250000  0.847984  1
  Ti  Ti7  1  0.750000  0.750000  0.152016  1
  Co  Co8  1  0.250000  0.250000  0.294537  1
  Co  Co9  1  0.750000  0.750000  0.705463  1
  Co  Co10  1  0.750000  0.250000  0.012772  1
  Co  Co11  1  0.250000  0.750000  0.987228  1
  Co  Co12  1  0.250000  0.418018  0.005968  1
  Co  Co13  1  0.250000  0.081982  0.005968  1
  Co  Co14  1  0.750000  0.581982  0.994032  1
  Co  Co15  1  0.750000  0.918018  0.994032  1
  Co  Co16  1  0.250000  0.454488  0.569012  1
  Co  Co17  1  0.250000  0.045512  0.569012  1
  Co  Co18  1  0.750000  0.545512  0.430988  1
  Co  Co19  1  0.750000  0.954488  0.430988  1
  Co  Co20  1  0.250000  0.871725  0.292320  1
  Co  Co21  1  0.250000  0.628275  0.292320  1
  Co  Co22  1  0.750000  0.128275  0.707680  1
  Co  Co23  1  0.750000  0.371725  0.707680  1
  P  P24  1  0.250000  0.250000  0.116337  1
  P  P25  1  0.750000  0.750000  0.883663  1
  P  P26  1  0.250000  0.250000  0.649093  1
  P  P27  1  0.750000  0.750000  0.350907  1
  P  P28  1  0.250000  0.441081  0.382698  1
  P  P29  1  0.250000  0.058919  0.382698  1
  P  P30  1  0.750000  0.558919  0.617302  1
  P  P31  1  0.750000  0.941081  0.617302  1
  P  P32  1  0.250000  0.907558  0.107947  1
  P  P33  1  0.250000  0.592442  0.107947  1
  P  P34  1  0.750000  0.092442  0.892053  1
  P  P35  1  0.750000  0.407558  0.892053  1
