# generated using pymatgen
data_LiLu4Co19As11P
_symmetry_space_group_name_H-M   'P 1'
_cell_length_a   3.74892200
_cell_length_b   10.60767590
_cell_length_c   12.12181200
_cell_angle_alpha   89.92763571
_cell_angle_beta   90.00000000
_cell_angle_gamma   90.00000000
_symmetry_Int_Tables_number   1
_chemical_formula_structural   LiLu4Co19As11P
_chemical_formula_sum   'Li1 Lu4 Co19 As11 P1'
_cell_volume   482.05195043
_cell_formula_units_Z   1
loop_
 _symmetry_equiv_pos_site_id
 _symmetry_equiv_pos_as_xyz
  1  'x, y, z'
loop_
 _atom_site_type_symbol
 _atom_site_label
 _atom_site_symmetry_multiplicity
 _atom_site_fract_x
 _atom_site_fract_y
 _atom_site_fract_z
 _atom_site_occupancy
  Li  Li0  1  0.250000  0.700928  0.991071  1
  Lu  Lu1  1  0.250000  0.579619  0.700550  1
  Lu  Lu2  1  0.250000  0.928024  0.198332  1
  Lu  Lu3  1  0.750000  0.419735  0.298692  1
  Lu  Lu4  1  0.750000  0.077175  0.799384  1
  Co  Co5  1  0.250000  0.786840  0.493342  1
  Co  Co6  1  0.750000  0.284941  0.013887  1
  Co  Co7  1  0.750000  0.214002  0.503599  1
  Co  Co8  1  0.250000  0.406088  0.486161  1
  Co  Co9  1  0.250000  0.094496  0.992927  1
  Co  Co10  1  0.750000  0.591996  0.515285  1
  Co  Co11  1  0.750000  0.918222  0.018149  1
  Co  Co12  1  0.250000  0.213367  0.173326  1
  Co  Co13  1  0.250000  0.283450  0.677379  1
  Co  Co14  1  0.750000  0.786230  0.821404  1
  Co  Co15  1  0.750000  0.714550  0.326707  1
  Co  Co16  1  0.250000  0.886442  0.697626  1
  Co  Co17  1  0.250000  0.618161  0.199416  1
  Co  Co18  1  0.750000  0.114796  0.294144  1
  Co  Co19  1  0.750000  0.380097  0.802978  1
  Co  Co20  1  0.250000  0.464799  0.931485  1
  Co  Co21  1  0.250000  0.031892  0.428834  1
  Co  Co22  1  0.750000  0.532336  0.068197  1
  Co  Co23  1  0.750000  0.970186  0.566436  1
  As  As24  1  0.250000  0.416692  0.115524  1
  As  As25  1  0.250000  0.085097  0.613247  1
  As  As26  1  0.750000  0.581993  0.882071  1
  As  As27  1  0.750000  0.915797  0.383598  1
  As  As28  1  0.250000  0.263646  0.870066  1
  As  As29  1  0.250000  0.232537  0.366532  1
  As  As30  1  0.750000  0.735877  0.135613  1
  As  As31  1  0.750000  0.768795  0.630555  1
  As  As32  1  0.250000  0.599344  0.392168  1
  As  As33  1  0.250000  0.899945  0.893325  1
  As  As34  1  0.750000  0.398386  0.609767  1
  P  P35  1  0.750000  0.103519  0.108224  1
