# generated using pymatgen
data_Tm6Al24Ir4Ru3Pt
_symmetry_space_group_name_H-M   'P 1'
_cell_length_a   8.82625599
_cell_length_b   8.77657368
_cell_length_c   9.47245359
_cell_angle_alpha   89.92139826
_cell_angle_beta   89.89114354
_cell_angle_gamma   120.13945471
_symmetry_Int_Tables_number   1
_chemical_formula_structural   Tm6Al24Ir4Ru3Pt
_chemical_formula_sum   'Tm6 Al24 Ir4 Ru3 Pt1'
_cell_volume   634.57108883
_cell_formula_units_Z   1
loop_
 _symmetry_equiv_pos_site_id
 _symmetry_equiv_pos_as_xyz
  1  'x, y, z'
loop_
 _atom_site_type_symbol
 _atom_site_label
 _atom_site_symmetry_multiplicity
 _atom_site_fract_x
 _atom_site_fract_y
 _atom_site_fract_z
 _atom_site_occupancy
  Tm  Tm0  1  0.808071  0.195396  0.750333  1
  Tm  Tm1  1  0.191929  0.804604  0.249667  1
  Tm  Tm2  1  0.386412  0.193859  0.750133  1
  Tm  Tm3  1  0.613588  0.806141  0.249867  1
  Tm  Tm4  1  0.806726  0.611213  0.750872  1
  Tm  Tm5  1  0.193274  0.388787  0.249128  1
  Al  Al6  1  0.666528  0.333323  0.970456  1
  Al  Al7  1  0.333472  0.666677  0.029544  1
  Al  Al8  1  0.329471  0.662486  0.469931  1
  Al  Al9  1  0.670529  0.337514  0.530069  1
  Al  Al10  1  0.842025  0.167333  0.421208  1
  Al  Al11  1  0.157975  0.832667  0.578792  1
  Al  Al12  1  0.324827  0.165756  0.421943  1
  Al  Al13  1  0.163601  0.837684  0.922252  1
  Al  Al14  1  0.675173  0.834244  0.578057  1
  Al  Al15  1  0.836399  0.162316  0.077748  1
  Al  Al16  1  0.838012  0.673668  0.422174  1
  Al  Al17  1  0.674546  0.837174  0.922592  1
  Al  Al18  1  0.161988  0.326332  0.577826  1
  Al  Al19  1  0.325454  0.162826  0.077408  1
  Al  Al20  1  0.163808  0.326256  0.922579  1
  Al  Al21  1  0.836192  0.673744  0.077421  1
  Al  Al22  1  0.437812  0.562029  0.750025  1
  Al  Al23  1  0.562188  0.437971  0.249975  1
  Al  Al24  1  0.123198  0.561105  0.748444  1
  Al  Al25  1  0.876802  0.438895  0.251556  1
  Al  Al26  1  0.437290  0.873967  0.751988  1
  Al  Al27  1  0.562710  0.126033  0.248012  1
  Al  Al28  1  0.001044  0.000617  0.750154  1
  Al  Al29  1  0.998956  0.999383  0.249846  1
  Ir  Ir30  1  0.500000  0.500000  0.000000  1
  Ir  Ir31  1  0.000000  0.500000  0.000000  1
  Ir  Ir32  1  0.500000  0.500000  0.500000  1
  Ir  Ir33  1  0.500000  0.000000  0.000000  1
  Ru  Ru34  1  0.000000  0.500000  0.500000  1
  Ru  Ru35  1  0.000000  0.000000  0.000000  1
  Ru  Ru36  1  0.000000  0.000000  0.500000  1
  Pt  Pt37  1  0.500000  0.000000  0.500000  1
