# generated using pymatgen
data_Hf5ZrTa4Ga12Os7
_symmetry_space_group_name_H-M   'P 1'
_cell_length_a   8.84470643
_cell_length_b   8.82965094
_cell_length_c   8.82965018
_cell_angle_alpha   60.08719867
_cell_angle_beta   59.94356823
_cell_angle_gamma   59.94357400
_symmetry_Int_Tables_number   1
_chemical_formula_structural   Hf5ZrTa4Ga12Os7
_chemical_formula_sum   'Hf5 Zr1 Ta4 Ga12 Os7'
_cell_volume   487.49414648
_cell_formula_units_Z   1
loop_
 _symmetry_equiv_pos_site_id
 _symmetry_equiv_pos_as_xyz
  1  'x, y, z'
loop_
 _atom_site_type_symbol
 _atom_site_label
 _atom_site_symmetry_multiplicity
 _atom_site_fract_x
 _atom_site_fract_y
 _atom_site_fract_z
 _atom_site_occupancy
  Hf  Hf0  1  0.703334  0.703343  0.296342  1
  Hf  Hf1  1  0.296981  0.703343  0.296342  1
  Hf  Hf2  1  0.702876  0.297124  0.297124  1
  Hf  Hf3  1  0.296981  0.296342  0.703343  1
  Hf  Hf4  1  0.703334  0.296342  0.703343  1
  Zr  Zr5  1  0.297167  0.702833  0.702833  1
  Ta  Ta6  1  0.877830  0.877835  0.366505  1
  Ta  Ta7  1  0.877830  0.366505  0.877835  1
  Ta  Ta8  1  0.366791  0.877927  0.877927  1
  Ta  Ta9  1  0.877357  0.877927  0.877927  1
  Ga  Ga10  1  0.120381  0.120442  0.638796  1
  Ga  Ga11  1  0.120381  0.638796  0.120442  1
  Ga  Ga12  1  0.638908  0.120359  0.120359  1
  Ga  Ga13  1  0.120373  0.120359  0.120359  1
  Ga  Ga14  1  0.655975  0.656050  0.032000  1
  Ga  Ga15  1  0.655975  0.032000  0.656050  1
  Ga  Ga16  1  0.031590  0.656098  0.656098  1
  Ga  Ga17  1  0.656215  0.656098  0.656098  1
  Ga  Ga18  1  0.339424  0.339281  0.981872  1
  Ga  Ga19  1  0.339424  0.981872  0.339281  1
  Ga  Ga20  1  0.981657  0.339436  0.339436  1
  Ga  Ga21  1  0.339473  0.339436  0.339436  1
  Os  Os22  1  0.000037  0.999963  0.999963  1
  Os  Os23  1  0.996940  0.998823  0.501412  1
  Os  Os24  1  0.502825  0.998823  0.501412  1
  Os  Os25  1  0.998032  0.501968  0.501968  1
  Os  Os26  1  0.502825  0.501412  0.998823  1
  Os  Os27  1  0.996940  0.501412  0.998823  1
  Os  Os28  1  0.502146  0.997854  0.997854  1
