# generated using pymatgen
data_Er6Sc2HgAu9
_symmetry_space_group_name_H-M   'P 1'
_cell_length_a   7.90734443
_cell_length_b   7.90734482
_cell_length_c   7.90734443
_cell_angle_alpha   65.82282084
_cell_angle_beta   65.82282436
_cell_angle_gamma   65.82281043
_symmetry_Int_Tables_number   1
_chemical_formula_structural   Er6Sc2HgAu9
_chemical_formula_sum   'Er6 Sc2 Hg1 Au9'
_cell_volume   393.73005256
_cell_formula_units_Z   1
loop_
 _symmetry_equiv_pos_site_id
 _symmetry_equiv_pos_as_xyz
  1  'x, y, z'
loop_
 _atom_site_type_symbol
 _atom_site_label
 _atom_site_symmetry_multiplicity
 _atom_site_fract_x
 _atom_site_fract_y
 _atom_site_fract_z
 _atom_site_occupancy
  Er  Er0  1  0.894568  0.186882  0.618249  1
  Er  Er1  1  0.618249  0.894568  0.186882  1
  Er  Er2  1  0.186882  0.618249  0.894568  1
  Er  Er3  1  0.105432  0.813118  0.381751  1
  Er  Er4  1  0.381751  0.105432  0.813118  1
  Er  Er5  1  0.813118  0.381751  0.105432  1
  Sc  Sc6  1  0.661365  0.661365  0.661365  1
  Sc  Sc7  1  0.338635  0.338635  0.338635  1
  Hg  Hg8  1  0.500000  0.500000  0.500000  1
  Au  Au9  1  0.000000  0.000000  0.000000  1
  Au  Au10  1  0.807490  0.807490  0.807490  1
  Au  Au11  1  0.192510  0.192510  0.192510  1
  Au  Au12  1  0.937256  0.551323  0.317943  1
  Au  Au13  1  0.317943  0.937256  0.551323  1
  Au  Au14  1  0.551323  0.317943  0.937256  1
  Au  Au15  1  0.062744  0.448677  0.682057  1
  Au  Au16  1  0.682057  0.062744  0.448677  1
  Au  Au17  1  0.448677  0.682057  0.062744  1
