# generated using pymatgen
data_Zr2(Ga3Rh)3
_symmetry_space_group_name_H-M   'P 1'
_cell_length_a   7.48646514
_cell_length_b   7.48646573
_cell_length_c   9.34437800
_cell_angle_alpha   90.00000000
_cell_angle_beta   90.00000000
_cell_angle_gamma   119.91621742
_symmetry_Int_Tables_number   1
_chemical_formula_structural   Zr2(Ga3Rh)3
_chemical_formula_sum   'Zr4 Ga18 Rh6'
_cell_volume   453.94236037
_cell_formula_units_Z   2
loop_
 _symmetry_equiv_pos_site_id
 _symmetry_equiv_pos_as_xyz
  1  'x, y, z'
loop_
 _atom_site_type_symbol
 _atom_site_label
 _atom_site_symmetry_multiplicity
 _atom_site_fract_x
 _atom_site_fract_y
 _atom_site_fract_z
 _atom_site_occupancy
  Zr  Zr0  1  0.995134  0.668396  0.250000  1
  Zr  Zr1  1  0.004866  0.331604  0.750000  1
  Zr  Zr2  1  0.668396  0.995134  0.250000  1
  Zr  Zr3  1  0.331604  0.004866  0.750000  1
  Ga  Ga4  1  0.330601  0.330602  0.569867  1
  Ga  Ga5  1  0.669398  0.669399  0.430133  1
  Ga  Ga6  1  0.669398  0.669399  0.069867  1
  Ga  Ga7  1  0.330601  0.330602  0.930133  1
  Ga  Ga8  1  0.337553  0.551070  0.250000  1
  Ga  Ga9  1  0.662447  0.448930  0.750000  1
  Ga  Ga10  1  0.551070  0.337553  0.250000  1
  Ga  Ga11  1  0.448930  0.662447  0.750000  1
  Ga  Ga12  1  0.996963  0.334119  0.079871  1
  Ga  Ga13  1  0.003037  0.665881  0.920129  1
  Ga  Ga14  1  0.003037  0.665881  0.579871  1
  Ga  Ga15  1  0.334119  0.996963  0.420129  1
  Ga  Ga16  1  0.996963  0.334119  0.420129  1
  Ga  Ga17  1  0.665881  0.003037  0.579871  1
  Ga  Ga18  1  0.665881  0.003037  0.920129  1
  Ga  Ga19  1  0.334119  0.996963  0.079871  1
  Ga  Ga20  1  0.121831  0.121831  0.250000  1
  Ga  Ga21  1  0.878169  0.878169  0.750000  1
  Rh  Rh22  1  0.000000  0.000000  0.000000  1
  Rh  Rh23  1  0.000000  0.000000  0.500000  1
  Rh  Rh24  1  0.672160  0.327840  0.000000  1
  Rh  Rh25  1  0.327840  0.672160  0.000000  1
  Rh  Rh26  1  0.327840  0.672160  0.500000  1
  Rh  Rh27  1  0.672160  0.327840  0.500000  1
