# generated using pymatgen
data_Hf2ReMoW2
_symmetry_space_group_name_H-M   'P 1'
_cell_length_a   5.37278803
_cell_length_b   5.35023087
_cell_length_c   5.37278803
_cell_angle_alpha   120.16479404
_cell_angle_beta   119.86634369
_cell_angle_gamma   90.09450342
_symmetry_Int_Tables_number   1
_chemical_formula_structural   Hf2ReMoW2
_chemical_formula_sum   'Hf2 Re1 Mo1 W2'
_cell_volume   109.06594122
_cell_formula_units_Z   1
loop_
 _symmetry_equiv_pos_site_id
 _symmetry_equiv_pos_as_xyz
  1  'x, y, z'
loop_
 _atom_site_type_symbol
 _atom_site_label
 _atom_site_symmetry_multiplicity
 _atom_site_fract_x
 _atom_site_fract_y
 _atom_site_fract_z
 _atom_site_occupancy
  Hf  Hf0  1  0.125283  0.875992  0.250709  1
  Hf  Hf1  1  0.874717  0.124008  0.749291  1
  Re  Re2  1  0.500000  0.000000  0.000000  1
  Mo  Mo3  1  0.500000  0.500000  0.500000  1
  W  W4  1  0.500000  0.500000  0.000000  1
  W  W5  1  0.000000  0.500000  0.500000  1
