# generated using pymatgen
data_Sr2PrThPt4
_symmetry_space_group_name_H-M   'P 1'
_cell_length_a   4.54151300
_cell_length_b   5.91779865
_cell_length_c   7.74698921
_cell_angle_alpha   91.20919601
_cell_angle_beta   90.00000000
_cell_angle_gamma   90.00000000
_symmetry_Int_Tables_number   1
_chemical_formula_structural   Sr2PrThPt4
_chemical_formula_sum   'Sr2 Pr1 Th1 Pt4'
_cell_volume   208.15985331
_cell_formula_units_Z   1
loop_
 _symmetry_equiv_pos_site_id
 _symmetry_equiv_pos_as_xyz
  1  'x, y, z'
loop_
 _atom_site_type_symbol
 _atom_site_label
 _atom_site_symmetry_multiplicity
 _atom_site_fract_x
 _atom_site_fract_y
 _atom_site_fract_z
 _atom_site_occupancy
  Sr  Sr0  1  0.250000  0.140138  0.182833  1
  Sr  Sr1  1  0.750000  0.642739  0.317100  1
  Pr  Pr2  1  0.750000  0.862160  0.822480  1
  Th  Th3  1  0.250000  0.361703  0.681363  1
  Pt  Pt4  1  0.250000  0.846178  0.568959  1
  Pt  Pt5  1  0.250000  0.636506  0.014266  1
  Pt  Pt6  1  0.750000  0.158261  0.487929  1
  Pt  Pt7  1  0.750000  0.352316  0.925070  1
