# generated using pymatgen
data_LaGdTa4(WO9)2
_symmetry_space_group_name_H-M   'P 1'
_cell_length_a   7.59694300
_cell_length_b   5.43633236
_cell_length_c   8.34853216
_cell_angle_alpha   87.68271886
_cell_angle_beta   90.00000000
_cell_angle_gamma   90.00000000
_symmetry_Int_Tables_number   1
_chemical_formula_structural   LaGdTa4(WO9)2
_chemical_formula_sum   'La1 Gd1 Ta4 W2 O18'
_cell_volume   344.50830940
_cell_formula_units_Z   1
loop_
 _symmetry_equiv_pos_site_id
 _symmetry_equiv_pos_as_xyz
  1  'x, y, z'
loop_
 _atom_site_type_symbol
 _atom_site_label
 _atom_site_symmetry_multiplicity
 _atom_site_fract_x
 _atom_site_fract_y
 _atom_site_fract_z
 _atom_site_occupancy
  La  La0  1  0.250000  0.969447  0.436934  1
  Gd  Gd1  1  0.750000  0.037877  0.565505  1
  Ta  Ta2  1  0.004251  0.527722  0.697990  1
  Ta  Ta3  1  0.495749  0.527722  0.697990  1
  Ta  Ta4  1  0.991385  0.473874  0.302783  1
  Ta  Ta5  1  0.508615  0.473874  0.302783  1
  W  W6  1  0.999886  0.001499  0.998708  1
  W  W7  1  0.500114  0.001499  0.998708  1
  O  O8  1  0.250000  0.922711  0.981077  1
  O  O9  1  0.939388  0.848485  0.783257  1
  O  O10  1  0.560612  0.848485  0.783257  1
  O  O11  1  0.955807  0.735166  0.470320  1
  O  O12  1  0.544193  0.735166  0.470320  1
  O  O13  1  0.250000  0.640742  0.662222  1
  O  O14  1  0.952626  0.684360  0.125658  1
  O  O15  1  0.547374  0.684360  0.125658  1
  O  O16  1  0.250000  0.554615  0.317122  1
  O  O17  1  0.750000  0.426355  0.690459  1
  O  O18  1  0.048379  0.318956  0.875376  1
  O  O19  1  0.451621  0.318956  0.875376  1
  O  O20  1  0.750000  0.344925  0.338927  1
  O  O21  1  0.032280  0.265693  0.530935  1
  O  O22  1  0.467720  0.265693  0.530935  1
  O  O23  1  0.056222  0.157760  0.210802  1
  O  O24  1  0.443778  0.157760  0.210802  1
  O  O25  1  0.750000  0.076300  0.016096  1
