# generated using pymatgen
data_LiTb10Th6Mg3Ru4
_symmetry_space_group_name_H-M   'P 1'
_cell_length_a   9.75202446
_cell_length_b   9.84128519
_cell_length_c   9.84128484
_cell_angle_alpha   59.26201722
_cell_angle_beta   60.28132707
_cell_angle_gamma   60.28133965
_symmetry_Int_Tables_number   1
_chemical_formula_structural   LiTb10Th6Mg3Ru4
_chemical_formula_sum   'Li1 Tb10 Th6 Mg3 Ru4'
_cell_volume   666.83165373
_cell_formula_units_Z   1
loop_
 _symmetry_equiv_pos_site_id
 _symmetry_equiv_pos_as_xyz
  1  'x, y, z'
loop_
 _atom_site_type_symbol
 _atom_site_label
 _atom_site_symmetry_multiplicity
 _atom_site_fract_x
 _atom_site_fract_y
 _atom_site_fract_z
 _atom_site_occupancy
  Li  Li0  1  0.830843  0.828385  0.828385  1
  Tb  Tb1  1  0.439605  0.060651  0.439229  1
  Tb  Tb2  1  0.061655  0.436683  0.061938  1
  Tb  Tb3  1  0.439605  0.439229  0.060651  1
  Tb  Tb4  1  0.061655  0.061938  0.436683  1
  Tb  Tb5  1  0.183653  0.816854  0.816854  1
  Tb  Tb6  1  0.815229  0.184352  0.184352  1
  Tb  Tb7  1  0.812569  0.187633  0.813508  1
  Tb  Tb8  1  0.186756  0.812733  0.187011  1
  Tb  Tb9  1  0.812569  0.813508  0.187633  1
  Tb  Tb10  1  0.186756  0.187011  0.812733  1
  Th  Th11  1  0.591518  0.598172  0.598172  1
  Th  Th12  1  0.598562  0.592659  0.210404  1
  Th  Th13  1  0.598562  0.210404  0.592659  1
  Th  Th14  1  0.212255  0.597740  0.597740  1
  Th  Th15  1  0.064582  0.434957  0.434957  1
  Th  Th16  1  0.432437  0.067287  0.067287  1
  Mg  Mg17  1  0.829566  0.831204  0.510229  1
  Mg  Mg18  1  0.829566  0.510229  0.831204  1
  Mg  Mg19  1  0.510175  0.828916  0.828916  1
  Ru  Ru20  1  0.378610  0.398985  0.398985  1
  Ru  Ru21  1  0.399686  0.377588  0.823218  1
  Ru  Ru22  1  0.399686  0.823218  0.377588  1
  Ru  Ru23  1  0.823903  0.399664  0.399664  1
