# generated using pymatgen
data_Cs2Hf7MnBr18
_symmetry_space_group_name_H-M   'P 1'
_cell_length_a   11.19938152
_cell_length_b   11.19938298
_cell_length_c   11.19938190
_cell_angle_alpha   55.70479006
_cell_angle_beta   55.70478823
_cell_angle_gamma   55.70478825
_symmetry_Int_Tables_number   1
_chemical_formula_structural   Cs2Hf7MnBr18
_chemical_formula_sum   'Cs2 Hf7 Mn1 Br18'
_cell_volume   894.30196091
_cell_formula_units_Z   1
loop_
 _symmetry_equiv_pos_site_id
 _symmetry_equiv_pos_as_xyz
  1  'x, y, z'
loop_
 _atom_site_type_symbol
 _atom_site_label
 _atom_site_symmetry_multiplicity
 _atom_site_fract_x
 _atom_site_fract_y
 _atom_site_fract_z
 _atom_site_occupancy
  Cs  Cs0  1  0.775361  0.775361  0.775361  1
  Cs  Cs1  1  0.224639  0.224639  0.224639  1
  Hf  Hf2  1  0.159014  0.899844  0.795990  1
  Hf  Hf3  1  0.840986  0.100156  0.204010  1
  Hf  Hf4  1  0.100156  0.204010  0.840986  1
  Hf  Hf5  1  0.204010  0.840986  0.100156  1
  Hf  Hf6  1  0.899844  0.795990  0.159014  1
  Hf  Hf7  1  0.795990  0.159014  0.899844  1
  Hf  Hf8  1  0.500000  0.500000  0.500000  1
  Mn  Mn9  1  0.000000  0.000000  0.000000  1
  Br  Br10  1  0.228086  0.467679  0.641992  1
  Br  Br11  1  0.771914  0.532321  0.358008  1
  Br  Br12  1  0.345969  0.052117  0.934414  1
  Br  Br13  1  0.654031  0.947883  0.065586  1
  Br  Br14  1  0.934414  0.345969  0.052117  1
  Br  Br15  1  0.710952  0.878818  0.413274  1
  Br  Br16  1  0.358008  0.771914  0.532321  1
  Br  Br17  1  0.586726  0.289048  0.121182  1
  Br  Br18  1  0.289048  0.121182  0.586726  1
  Br  Br19  1  0.121182  0.586726  0.289048  1
  Br  Br20  1  0.947883  0.065586  0.654031  1
  Br  Br21  1  0.413274  0.710952  0.878818  1
  Br  Br22  1  0.878818  0.413274  0.710952  1
  Br  Br23  1  0.065586  0.654031  0.947883  1
  Br  Br24  1  0.467679  0.641992  0.228086  1
  Br  Br25  1  0.641992  0.228086  0.467679  1
  Br  Br26  1  0.532321  0.358008  0.771914  1
  Br  Br27  1  0.052117  0.934414  0.345969  1
