# generated using pymatgen
data_TmZnCdCuPd2
_symmetry_space_group_name_H-M   'P 1'
_cell_length_a   5.24936459
_cell_length_b   5.21237671
_cell_length_c   5.52647900
_cell_angle_alpha   57.98573872
_cell_angle_beta   58.23780196
_cell_angle_gamma   58.48125014
_symmetry_Int_Tables_number   1
_chemical_formula_structural   TmZnCdCuPd2
_chemical_formula_sum   'Tm1 Zn1 Cd1 Cu1 Pd2'
_cell_volume   102.59647092
_cell_formula_units_Z   1
loop_
 _symmetry_equiv_pos_site_id
 _symmetry_equiv_pos_as_xyz
  1  'x, y, z'
loop_
 _atom_site_type_symbol
 _atom_site_label
 _atom_site_symmetry_multiplicity
 _atom_site_fract_x
 _atom_site_fract_y
 _atom_site_fract_z
 _atom_site_occupancy
  Tm  Tm0  1  0.996421  0.991760  0.005910  1
  Zn  Zn1  1  0.627966  0.130917  0.620559  1
  Cd  Cd2  1  0.245340  0.241967  0.256346  1
  Cu  Cu3  1  0.127957  0.630331  0.620856  1
  Pd  Pd4  1  0.626158  0.627513  0.623742  1
  Pd  Pd5  1  0.626158  0.627513  0.122590  1
