# generated using pymatgen
data_YHo3(ZnPb)4
_symmetry_space_group_name_H-M   'P 1'
_cell_length_a   4.62712200
_cell_length_b   4.62712269
_cell_length_c   15.81955200
_cell_angle_alpha   90.00000000
_cell_angle_beta   90.00000000
_cell_angle_gamma   119.99999504
_symmetry_Int_Tables_number   1
_chemical_formula_structural   YHo3(ZnPb)4
_chemical_formula_sum   'Y1 Ho3 Zn4 Pb4'
_cell_volume   293.32346033
_cell_formula_units_Z   1
loop_
 _symmetry_equiv_pos_site_id
 _symmetry_equiv_pos_as_xyz
  1  'x, y, z'
loop_
 _atom_site_type_symbol
 _atom_site_label
 _atom_site_symmetry_multiplicity
 _atom_site_fract_x
 _atom_site_fract_y
 _atom_site_fract_z
 _atom_site_occupancy
  Y  Y0  1  0.000000  0.000000  0.000000  1
  Ho  Ho1  1  0.000000  0.000000  0.250803  1
  Ho  Ho2  1  0.000000  0.000000  0.500000  1
  Ho  Ho3  1  0.000000  0.000000  0.749197  1
  Zn  Zn4  1  0.333334  0.666667  0.165230  1
  Zn  Zn5  1  0.333334  0.666667  0.335777  1
  Zn  Zn6  1  0.666666  0.333334  0.664223  1
  Zn  Zn7  1  0.666666  0.333334  0.834770  1
  Pb  Pb8  1  0.666666  0.333334  0.110464  1
  Pb  Pb9  1  0.666666  0.333334  0.391617  1
  Pb  Pb10  1  0.333334  0.666667  0.608383  1
  Pb  Pb11  1  0.333334  0.666667  0.889536  1
