# generated using pymatgen
data_Tb5Y5(IrPb3)2
_symmetry_space_group_name_H-M   'P 1'
_cell_length_a   9.25403321
_cell_length_b   9.25403352
_cell_length_c   6.89177800
_cell_angle_alpha   90.00000000
_cell_angle_beta   90.00000000
_cell_angle_gamma   119.97556154
_symmetry_Int_Tables_number   1
_chemical_formula_structural   Tb5Y5(IrPb3)2
_chemical_formula_sum   'Tb5 Y5 Ir2 Pb6'
_cell_volume   511.24718395
_cell_formula_units_Z   1
loop_
 _symmetry_equiv_pos_site_id
 _symmetry_equiv_pos_as_xyz
  1  'x, y, z'
loop_
 _atom_site_type_symbol
 _atom_site_label
 _atom_site_symmetry_multiplicity
 _atom_site_fract_x
 _atom_site_fract_y
 _atom_site_fract_z
 _atom_site_occupancy
  Tb  Tb0  1  0.999956  0.764037  0.750000  1
  Tb  Tb1  1  0.235959  0.999930  0.250000  1
  Tb  Tb2  1  0.764037  0.999956  0.750000  1
  Tb  Tb3  1  0.763886  0.763886  0.250000  1
  Tb  Tb4  1  0.999930  0.235959  0.250000  1
  Y  Y5  1  0.236845  0.236845  0.750000  1
  Y  Y6  1  0.333279  0.666601  0.500020  1
  Y  Y7  1  0.666601  0.333279  0.500020  1
  Y  Y8  1  0.333279  0.666601  0.999980  1
  Y  Y9  1  0.666601  0.333279  0.999980  1
  Ir  Ir10  1  0.999889  0.999889  0.000124  1
  Ir  Ir11  1  0.999889  0.999889  0.499876  1
  Pb  Pb12  1  0.594233  0.000052  0.250000  1
  Pb  Pb13  1  0.000052  0.594233  0.250000  1
  Pb  Pb14  1  0.594111  0.594111  0.750000  1
  Pb  Pb15  1  0.405690  0.405690  0.250000  1
  Pb  Pb16  1  0.000094  0.405669  0.750000  1
  Pb  Pb17  1  0.405669  0.000094  0.750000  1
