# generated using pymatgen
data_Hf12Zr8Si15P
_symmetry_space_group_name_H-M   'P 1'
_cell_length_a   7.09067314
_cell_length_b   7.09058056
_cell_length_c   12.94084798
_cell_angle_alpha   89.91746743
_cell_angle_beta   89.92738473
_cell_angle_gamma   90.11032003
_symmetry_Int_Tables_number   1
_chemical_formula_structural   Hf12Zr8Si15P
_chemical_formula_sum   'Hf12 Zr8 Si15 P1'
_cell_volume   650.62446730
_cell_formula_units_Z   1
loop_
 _symmetry_equiv_pos_site_id
 _symmetry_equiv_pos_as_xyz
  1  'x, y, z'
loop_
 _atom_site_type_symbol
 _atom_site_label
 _atom_site_symmetry_multiplicity
 _atom_site_fract_x
 _atom_site_fract_y
 _atom_site_fract_z
 _atom_site_occupancy
  Hf  Hf0  1  0.175415  0.175485  0.000343  1
  Hf  Hf1  1  0.824845  0.825212  0.499745  1
  Hf  Hf2  1  0.323150  0.674632  0.250619  1
  Hf  Hf3  1  0.675569  0.324640  0.749963  1
  Hf  Hf4  1  0.151211  0.003493  0.375396  1
  Hf  Hf5  1  0.852648  0.001414  0.876713  1
  Hf  Hf6  1  0.500853  0.647493  0.626055  1
  Hf  Hf7  1  0.353571  0.498304  0.873832  1
  Hf  Hf8  1  0.496495  0.350356  0.128403  1
  Hf  Hf9  1  0.644329  0.498872  0.373977  1
  Hf  Hf10  1  0.999469  0.148371  0.623170  1
  Hf  Hf11  1  0.999501  0.851017  0.123534  1
  Zr  Zr12  1  0.000766  0.347180  0.216915  1
  Zr  Zr13  1  0.002735  0.652917  0.715609  1
  Zr  Zr14  1  0.153217  0.498599  0.465264  1
  Zr  Zr15  1  0.503523  0.845560  0.033526  1
  Zr  Zr16  1  0.846771  0.501092  0.965956  1
  Zr  Zr17  1  0.499433  0.152945  0.534431  1
  Zr  Zr18  1  0.348143  0.998405  0.784544  1
  Zr  Zr19  1  0.651013  0.003078  0.284051  1
  Si  Si20  1  0.644333  0.705149  0.822048  1
  Si  Si21  1  0.204802  0.856490  0.571405  1
  Si  Si22  1  0.143911  0.794399  0.927217  1
  Si  Si23  1  0.795084  0.144799  0.072931  1
  Si  Si24  1  0.855825  0.204369  0.427953  1
  Si  Si25  1  0.295526  0.355829  0.677878  1
  Si  Si26  1  0.703572  0.642788  0.178478  1
  Si  Si27  1  0.299836  0.043301  0.183087  1
  Si  Si28  1  0.700670  0.950777  0.686402  1
  Si  Si29  1  0.451119  0.800542  0.436438  1
  Si  Si30  1  0.200187  0.549021  0.063396  1
  Si  Si31  1  0.549374  0.199690  0.937147  1
  Si  Si32  1  0.800416  0.451608  0.563615  1
  Si  Si33  1  0.049204  0.300537  0.813562  1
  Si  Si34  1  0.949315  0.701475  0.314147  1
  P  P35  1  0.354171  0.300160  0.322247  1
