# generated using pymatgen
data_Ca3Sm(Si4Tc3)2
_symmetry_space_group_name_H-M   'P 1'
_cell_length_a   6.76961600
_cell_length_b   6.80733639
_cell_length_c   12.52581400
_cell_angle_alpha   89.64266375
_cell_angle_beta   90.00000000
_cell_angle_gamma   90.00000000
_symmetry_Int_Tables_number   1
_chemical_formula_structural   Ca3Sm(Si4Tc3)2
_chemical_formula_sum   'Ca6 Sm2 Si16 Tc12'
_cell_volume   577.21652872
_cell_formula_units_Z   2
loop_
 _symmetry_equiv_pos_site_id
 _symmetry_equiv_pos_as_xyz
  1  'x, y, z'
loop_
 _atom_site_type_symbol
 _atom_site_label
 _atom_site_symmetry_multiplicity
 _atom_site_fract_x
 _atom_site_fract_y
 _atom_site_fract_z
 _atom_site_occupancy
  Ca  Ca0  1  0.491767  0.341749  0.089400  1
  Ca  Ca1  1  0.991767  0.158251  0.410600  1
  Ca  Ca2  1  0.507981  0.660274  0.592015  1
  Ca  Ca3  1  0.007981  0.839726  0.907985  1
  Ca  Ca4  1  0.508224  0.660878  0.909409  1
  Ca  Ca5  1  0.008224  0.839122  0.590591  1
  Sm  Sm6  1  0.492615  0.340639  0.410201  1
  Sm  Sm7  1  0.992615  0.159361  0.089799  1
  Si  Si8  1  0.652946  0.046507  0.552349  1
  Si  Si9  1  0.152946  0.453493  0.947651  1
  Si  Si10  1  0.348428  0.948808  0.050088  1
  Si  Si11  1  0.848428  0.551192  0.449912  1
  Si  Si12  1  0.347115  0.944766  0.448918  1
  Si  Si13  1  0.847115  0.555234  0.051082  1
  Si  Si14  1  0.650512  0.049950  0.947078  1
  Si  Si15  1  0.150512  0.450050  0.552922  1
  Si  Si16  1  0.529273  0.354591  0.751394  1
  Si  Si17  1  0.029273  0.145409  0.748606  1
  Si  Si18  1  0.471027  0.650815  0.249612  1
  Si  Si19  1  0.971027  0.849185  0.250388  1
  Si  Si20  1  0.812077  0.637444  0.750123  1
  Si  Si21  1  0.312077  0.862556  0.749877  1
  Si  Si22  1  0.187127  0.363559  0.249939  1
  Si  Si23  1  0.687127  0.136441  0.250061  1
  Tc  Tc24  1  0.823622  0.348488  0.627212  1
  Tc  Tc25  1  0.323622  0.151512  0.872788  1
  Tc  Tc26  1  0.177001  0.652275  0.126419  1
  Tc  Tc27  1  0.677001  0.847725  0.373581  1
  Tc  Tc28  1  0.173681  0.647585  0.372920  1
  Tc  Tc29  1  0.673681  0.852415  0.127080  1
  Tc  Tc30  1  0.827240  0.347772  0.873604  1
  Tc  Tc31  1  0.327240  0.152228  0.626396  1
  Tc  Tc32  1  0.673413  0.998967  0.749854  1
  Tc  Tc33  1  0.173413  0.501033  0.750146  1
  Tc  Tc34  1  0.325954  0.004705  0.251022  1
  Tc  Tc35  1  0.825954  0.495295  0.248978  1
