# generated using pymatgen
data_HoTh3Pd11Pt
_symmetry_space_group_name_H-M   'P 1'
_cell_length_a   5.91995130
_cell_length_b   5.91995026
_cell_length_c   9.74204970
_cell_angle_alpha   89.83364064
_cell_angle_beta   90.16635899
_cell_angle_gamma   120.01679138
_symmetry_Int_Tables_number   1
_chemical_formula_structural   HoTh3Pd11Pt
_chemical_formula_sum   'Ho1 Th3 Pd11 Pt1'
_cell_volume   295.62503938
_cell_formula_units_Z   1
loop_
 _symmetry_equiv_pos_site_id
 _symmetry_equiv_pos_as_xyz
  1  'x, y, z'
loop_
 _atom_site_type_symbol
 _atom_site_label
 _atom_site_symmetry_multiplicity
 _atom_site_fract_x
 _atom_site_fract_y
 _atom_site_fract_z
 _atom_site_occupancy
  Ho  Ho0  1  0.333725  0.666275  0.250343  1
  Th  Th1  1  0.999972  0.000028  0.495068  1
  Th  Th2  1  0.000000  0.000000  0.005120  1
  Th  Th3  1  0.666384  0.333616  0.749818  1
  Pd  Pd4  1  0.499613  0.999109  0.498787  1
  Pd  Pd5  1  0.000891  0.500387  0.498787  1
  Pd  Pd6  1  0.499608  0.500392  0.001205  1
  Pd  Pd7  1  0.499568  0.999195  0.001239  1
  Pd  Pd8  1  0.000805  0.500432  0.001239  1
  Pd  Pd9  1  0.824995  0.649783  0.249660  1
  Pd  Pd10  1  0.350217  0.175005  0.249660  1
  Pd  Pd11  1  0.825237  0.174763  0.249308  1
  Pd  Pd12  1  0.173761  0.348055  0.750278  1
  Pd  Pd13  1  0.651945  0.826239  0.750278  1
  Pd  Pd14  1  0.173655  0.826345  0.750646  1
  Pt  Pt15  1  0.499623  0.500377  0.498564  1
