# generated using pymatgen
data_RbGaNiF6
_symmetry_space_group_name_H-M   'P 1'
_cell_length_a   7.30627905
_cell_length_b   7.30627977
_cell_length_c   7.30627994
_cell_angle_alpha   120.53756003
_cell_angle_beta   119.43408848
_cell_angle_gamma   90.02720831
_symmetry_Int_Tables_number   1
_chemical_formula_structural   RbGaNiF6
_chemical_formula_sum   'Rb2 Ga2 Ni2 F12'
_cell_volume   275.81415292
_cell_formula_units_Z   2
loop_
 _symmetry_equiv_pos_site_id
 _symmetry_equiv_pos_as_xyz
  1  'x, y, z'
loop_
 _atom_site_type_symbol
 _atom_site_label
 _atom_site_symmetry_multiplicity
 _atom_site_fract_x
 _atom_site_fract_y
 _atom_site_fract_z
 _atom_site_occupancy
  Rb  Rb0  1  0.367577  0.617577  0.750000  1
  Rb  Rb1  1  0.632423  0.382423  0.250000  1
  Ga  Ga2  1  0.000000  0.000000  0.000000  1
  Ga  Ga3  1  0.500000  0.000000  0.500000  1
  Ni  Ni4  1  0.000000  0.000000  0.500000  1
  Ni  Ni5  1  0.000000  0.500000  0.000000  1
  F  F6  1  0.315314  0.065314  0.250000  1
  F  F7  1  0.921765  0.671765  0.250000  1
  F  F8  1  0.330326  0.688335  0.263257  1
  F  F9  1  0.925078  0.067068  0.236743  1
  F  F10  1  0.330326  0.067068  0.641990  1
  F  F11  1  0.925078  0.688335  0.858010  1
  F  F12  1  0.684686  0.934686  0.750000  1
  F  F13  1  0.078235  0.328235  0.750000  1
  F  F14  1  0.669674  0.311665  0.736743  1
  F  F15  1  0.074922  0.932932  0.763257  1
  F  F16  1  0.669674  0.932932  0.358010  1
  F  F17  1  0.074922  0.311665  0.141990  1
