# generated using pymatgen
data_LiNd16Co4Ag3
_symmetry_space_group_name_H-M   'P 1'
_cell_length_a   9.74689822
_cell_length_b   9.78513306
_cell_length_c   9.76366032
_cell_angle_alpha   59.29427382
_cell_angle_beta   59.94206041
_cell_angle_gamma   60.03211288
_symmetry_Int_Tables_number   1
_chemical_formula_structural   LiNd16Co4Ag3
_chemical_formula_sum   'Li1 Nd16 Co4 Ag3'
_cell_volume   654.75135338
_cell_formula_units_Z   1
loop_
 _symmetry_equiv_pos_site_id
 _symmetry_equiv_pos_as_xyz
  1  'x, y, z'
loop_
 _atom_site_type_symbol
 _atom_site_label
 _atom_site_symmetry_multiplicity
 _atom_site_fract_x
 _atom_site_fract_y
 _atom_site_fract_z
 _atom_site_occupancy
  Li  Li0  1  0.814349  0.815959  0.815139  1
  Nd  Nd1  1  0.600177  0.596712  0.596643  1
  Nd  Nd2  1  0.597847  0.596049  0.210979  1
  Nd  Nd3  1  0.597233  0.211921  0.596794  1
  Nd  Nd4  1  0.212299  0.597687  0.598274  1
  Nd  Nd5  1  0.186366  0.814220  0.814362  1
  Nd  Nd6  1  0.811494  0.188383  0.189769  1
  Nd  Nd7  1  0.811619  0.187342  0.813431  1
  Nd  Nd8  1  0.188390  0.811301  0.193090  1
  Nd  Nd9  1  0.811613  0.813415  0.185921  1
  Nd  Nd10  1  0.188441  0.192813  0.811063  1
  Nd  Nd11  1  0.063091  0.438890  0.438482  1
  Nd  Nd12  1  0.435461  0.064932  0.064290  1
  Nd  Nd13  1  0.442461  0.058008  0.443582  1
  Nd  Nd14  1  0.062325  0.437341  0.062695  1
  Nd  Nd15  1  0.442190  0.443408  0.058558  1
  Nd  Nd16  1  0.062277  0.063174  0.437459  1
  Co  Co17  1  0.388995  0.392948  0.393590  1
  Co  Co18  1  0.394380  0.390181  0.828124  1
  Co  Co19  1  0.394250  0.827866  0.389454  1
  Co  Co20  1  0.827720  0.392424  0.392080  1
  Ag  Ag21  1  0.830543  0.827184  0.508039  1
  Ag  Ag22  1  0.831440  0.507466  0.828038  1
  Ag  Ag23  1  0.505038  0.830374  0.830144  1
