# generated using pymatgen
data_Pa2Mo2O11
_symmetry_space_group_name_H-M   'P 1'
_cell_length_a   9.79656090
_cell_length_b   9.79656100
_cell_length_c   9.79656148
_cell_angle_alpha   36.40911912
_cell_angle_beta   36.40911912
_cell_angle_gamma   36.40911512
_symmetry_Int_Tables_number   1
_chemical_formula_structural   Pa2Mo2O11
_chemical_formula_sum   'Pa2 Mo2 O11'
_cell_volume   296.47568055
_cell_formula_units_Z   1
loop_
 _symmetry_equiv_pos_site_id
 _symmetry_equiv_pos_as_xyz
  1  'x, y, z'
loop_
 _atom_site_type_symbol
 _atom_site_label
 _atom_site_symmetry_multiplicity
 _atom_site_fract_x
 _atom_site_fract_y
 _atom_site_fract_z
 _atom_site_occupancy
  Pa  Pa0  1  0.375548  0.375548  0.375548  1
  Pa  Pa1  1  0.624452  0.624452  0.624452  1
  Mo  Mo2  1  0.113492  0.113492  0.113492  1
  Mo  Mo3  1  0.886508  0.886508  0.886508  1
  O  O4  1  0.746983  0.232800  0.746983  1
  O  O5  1  0.232800  0.746983  0.746983  1
  O  O6  1  0.746983  0.746983  0.232800  1
  O  O7  1  0.767200  0.253017  0.253017  1
  O  O8  1  0.253017  0.767200  0.253017  1
  O  O9  1  0.253017  0.253017  0.767200  1
  O  O10  1  0.176441  0.176441  0.176441  1
  O  O11  1  0.823559  0.823559  0.823559  1
  O  O12  1  0.500000  0.500000  0.000000  1
  O  O13  1  0.500000  0.000000  0.500000  1
  O  O14  1  0.000000  0.500000  0.500000  1
