# generated using pymatgen
data_UTeF34
_symmetry_space_group_name_H-M   'P 1'
_cell_length_a   9.01211632
_cell_length_b   8.64543147
_cell_length_c   10.24995060
_cell_angle_alpha   81.71834206
_cell_angle_beta   87.46615587
_cell_angle_gamma   66.44526515
_symmetry_Int_Tables_number   1
_chemical_formula_structural   UTeF34
_chemical_formula_sum   'U1 Te1 F34'
_cell_volume   724.35708462
_cell_formula_units_Z   1
loop_
 _symmetry_equiv_pos_site_id
 _symmetry_equiv_pos_as_xyz
  1  'x, y, z'
loop_
 _atom_site_type_symbol
 _atom_site_label
 _atom_site_symmetry_multiplicity
 _atom_site_fract_x
 _atom_site_fract_y
 _atom_site_fract_z
 _atom_site_occupancy
  U  U0  1  0.134572  0.748718  0.242537  1
  Te  Te1  1  0.864113  0.250507  0.759927  1
  F  F2  1  0.603986  0.201475  0.481940  1
  F  F3  1  0.405891  0.788834  0.517998  1
  F  F4  1  0.822621  0.707711  0.722091  1
  F  F5  1  0.179077  0.297291  0.280401  1
  F  F6  1  0.087284  0.755500  0.858687  1
  F  F7  1  0.916981  0.234121  0.142309  1
  F  F8  1  0.556276  0.143603  0.373586  1
  F  F9  1  0.438144  0.861842  0.624423  1
  F  F10  1  0.651434  0.323532  0.698662  1
  F  F11  1  0.364833  0.670180  0.309829  1
  F  F12  1  0.931213  0.072900  0.658142  1
  F  F13  1  0.055465  0.936545  0.357430  1
  F  F14  1  0.905463  0.388476  0.618637  1
  F  F15  1  0.089999  0.599745  0.395755  1
  F  F16  1  0.856094  0.803403  0.608270  1
  F  F17  1  0.152522  0.186720  0.387428  1
  F  F18  1  0.798807  0.429389  0.860956  1
  F  F19  1  0.205535  0.553821  0.133647  1
  F  F20  1  0.215995  0.686189  0.770577  1
  F  F21  1  0.786261  0.315379  0.225428  1
  F  F22  1  0.908673  0.827076  0.167382  1
  F  F23  1  0.074658  0.177709  0.824901  1
  F  F24  1  0.820613  0.111270  0.899740  1
  F  F25  1  0.182056  0.902844  0.093751  1
  F  F26  1  0.484597  0.590218  0.986182  1
  F  F27  1  0.517923  0.412907  0.012392  1
  F  F28  1  0.451995  0.089361  0.867584  1
  F  F29  1  0.537584  0.921141  0.132167  1
  F  F30  1  0.287618  0.247970  0.608725  1
  F  F31  1  0.710079  0.752984  0.386129  1
  F  F32  1  0.260012  0.390482  0.675857  1
  F  F33  1  0.747270  0.605181  0.323190  1
  F  F34  1  0.552959  0.925212  0.834763  1
  F  F35  1  0.441396  0.089762  0.158577  1
