# generated using pymatgen
data_Rb4Na2LaTlBi4
_symmetry_space_group_name_H-M   'P 1'
_cell_length_a   10.37729730
_cell_length_b   10.37729659
_cell_length_c   10.37729700
_cell_angle_alpha   136.48462611
_cell_angle_beta   62.35233261
_cell_angle_gamma   137.63299867
_symmetry_Int_Tables_number   1
_chemical_formula_structural   Rb4Na2LaTlBi4
_chemical_formula_sum   'Rb4 Na2 La1 Tl1 Bi4'
_cell_volume   512.28318011
_cell_formula_units_Z   1
loop_
 _symmetry_equiv_pos_site_id
 _symmetry_equiv_pos_as_xyz
  1  'x, y, z'
loop_
 _atom_site_type_symbol
 _atom_site_label
 _atom_site_symmetry_multiplicity
 _atom_site_fract_x
 _atom_site_fract_y
 _atom_site_fract_z
 _atom_site_occupancy
  Rb  Rb0  1  0.834888  0.245598  0.061511  1
  Rb  Rb1  1  0.665112  0.726623  0.410712  1
  Rb  Rb2  1  0.315912  0.254401  0.589289  1
  Rb  Rb3  1  0.184088  0.773377  0.938490  1
  Na  Na4  1  0.250000  0.250000  0.000000  1
  Na  Na5  1  0.750000  0.750000  0.000000  1
  La  La6  1  0.750001  0.250000  0.500000  1
  Tl  Tl7  1  0.250000  0.750001  0.500000  1
  Bi  Bi8  1  0.388933  0.760075  0.162802  1
  Bi  Bi9  1  0.111066  0.273868  0.371141  1
  Bi  Bi10  1  0.902727  0.739925  0.628859  1
  Bi  Bi11  1  0.597273  0.226132  0.837198  1
