# generated using pymatgen
data_UP2RhO10
_symmetry_space_group_name_H-M   'P 1'
_cell_length_a   5.76124649
_cell_length_b   5.27390734
_cell_length_c   7.52789702
_cell_angle_alpha   105.31974564
_cell_angle_beta   110.47516300
_cell_angle_gamma   97.10343120
_symmetry_Int_Tables_number   1
_chemical_formula_structural   UP2RhO10
_chemical_formula_sum   'U1 P2 Rh1 O10'
_cell_volume   200.66848889
_cell_formula_units_Z   1
loop_
 _symmetry_equiv_pos_site_id
 _symmetry_equiv_pos_as_xyz
  1  'x, y, z'
loop_
 _atom_site_type_symbol
 _atom_site_label
 _atom_site_symmetry_multiplicity
 _atom_site_fract_x
 _atom_site_fract_y
 _atom_site_fract_z
 _atom_site_occupancy
  U  U0  1  0.000000  0.500000  0.000000  1
  P  P1  1  0.323228  0.135081  0.744132  1
  P  P2  1  0.676772  0.864919  0.255868  1
  Rh  Rh3  1  0.000000  0.500000  0.500000  1
  O  O4  1  0.171240  0.177506  0.879592  1
  O  O5  1  0.282033  0.832894  0.626605  1
  O  O6  1  0.933405  0.562969  0.751569  1
  O  O7  1  0.258233  0.293001  0.592026  1
  O  O8  1  0.741767  0.706999  0.407974  1
  O  O9  1  0.612218  0.237522  0.876700  1
  O  O10  1  0.387782  0.762478  0.123300  1
  O  O11  1  0.066595  0.437031  0.248431  1
  O  O12  1  0.717967  0.167106  0.373395  1
  O  O13  1  0.828760  0.822494  0.120408  1
