# generated using pymatgen
data_Pr8InCo2Hg
_symmetry_space_group_name_H-M   'P 1'
_cell_length_a   9.89715382
_cell_length_b   9.89987391
_cell_length_c   9.89715252
_cell_angle_alpha   59.99090098
_cell_angle_beta   59.93260018
_cell_angle_gamma   59.99090232
_symmetry_Int_Tables_number   1
_chemical_formula_structural   Pr8InCo2Hg
_chemical_formula_sum   'Pr16 In2 Co4 Hg2'
_cell_volume   685.25760481
_cell_formula_units_Z   2
loop_
 _symmetry_equiv_pos_site_id
 _symmetry_equiv_pos_as_xyz
  1  'x, y, z'
loop_
 _atom_site_type_symbol
 _atom_site_label
 _atom_site_symmetry_multiplicity
 _atom_site_fract_x
 _atom_site_fract_y
 _atom_site_fract_z
 _atom_site_occupancy
  Pr  Pr0  1  0.291184  0.903685  0.901445  1
  Pr  Pr1  1  0.688973  0.689965  0.308237  1
  Pr  Pr2  1  0.901445  0.903685  0.291184  1
  Pr  Pr3  1  0.309223  0.690777  0.309223  1
  Pr  Pr4  1  0.688973  0.312826  0.308237  1
  Pr  Pr5  1  0.060104  0.440276  0.439777  1
  Pr  Pr6  1  0.439777  0.059842  0.060104  1
  Pr  Pr7  1  0.060104  0.059842  0.439777  1
  Pr  Pr8  1  0.308237  0.312826  0.688973  1
  Pr  Pr9  1  0.441661  0.058339  0.441661  1
  Pr  Pr10  1  0.902572  0.904559  0.902572  1
  Pr  Pr11  1  0.439777  0.440276  0.060104  1
  Pr  Pr12  1  0.308237  0.689965  0.688973  1
  Pr  Pr13  1  0.688545  0.311455  0.688545  1
  Pr  Pr14  1  0.060205  0.439795  0.060205  1
  Pr  Pr15  1  0.902572  0.290298  0.902572  1
  In  In16  1  0.672252  0.987171  0.672252  1
  In  In17  1  0.672252  0.668327  0.672252  1
  Co  Co18  1  0.108592  0.110822  0.108592  1
  Co  Co19  1  0.109550  0.109770  0.670910  1
  Co  Co20  1  0.670910  0.109770  0.109550  1
  Co  Co21  1  0.108592  0.671993  0.108592  1
  Hg  Hg22  1  0.665637  0.666868  0.000629  1
  Hg  Hg23  1  0.000629  0.666868  0.665637  1
