# generated using pymatgen
data_Be17(NbNi)6
_symmetry_space_group_name_H-M   'P 1'
_cell_length_a   7.53470258
_cell_length_b   7.53470373
_cell_length_c   7.53470302
_cell_angle_alpha   60.06228235
_cell_angle_beta   60.06228683
_cell_angle_gamma   60.06227952
_symmetry_Int_Tables_number   1
_chemical_formula_structural   Be17(NbNi)6
_chemical_formula_sum   'Be17 Nb6 Ni6'
_cell_volume   302.89774016
_cell_formula_units_Z   1
loop_
 _symmetry_equiv_pos_site_id
 _symmetry_equiv_pos_as_xyz
  1  'x, y, z'
loop_
 _atom_site_type_symbol
 _atom_site_label
 _atom_site_symmetry_multiplicity
 _atom_site_fract_x
 _atom_site_fract_y
 _atom_site_fract_z
 _atom_site_occupancy
  Be  Be0  1  0.325367  0.325367  0.325367  1
  Be  Be1  1  0.674633  0.674633  0.674633  1
  Be  Be2  1  0.326083  0.326083  0.024283  1
  Be  Be3  1  0.326083  0.024283  0.326083  1
  Be  Be4  1  0.673917  0.673917  0.975717  1
  Be  Be5  1  0.673917  0.975717  0.673917  1
  Be  Be6  1  0.024283  0.326083  0.326083  1
  Be  Be7  1  0.975717  0.673917  0.673917  1
  Be  Be8  1  0.500000  0.000000  0.000000  1
  Be  Be9  1  0.000000  0.500000  0.500000  1
  Be  Be10  1  0.000000  0.500000  0.000000  1
  Be  Be11  1  0.500000  0.000000  0.500000  1
  Be  Be12  1  0.000000  0.000000  0.500000  1
  Be  Be13  1  0.500000  0.500000  0.000000  1
  Be  Be14  1  0.000000  0.000000  0.000000  1
  Be  Be15  1  0.121845  0.121845  0.121845  1
  Be  Be16  1  0.878155  0.878155  0.878155  1
  Nb  Nb17  1  0.702041  0.297117  0.297117  1
  Nb  Nb18  1  0.297959  0.702883  0.702883  1
  Nb  Nb19  1  0.297117  0.702041  0.297117  1
  Nb  Nb20  1  0.702883  0.297959  0.702883  1
  Nb  Nb21  1  0.297117  0.297117  0.702041  1
  Nb  Nb22  1  0.702883  0.702883  0.297959  1
  Ni  Ni23  1  0.120212  0.120212  0.635332  1
  Ni  Ni24  1  0.120212  0.635332  0.120212  1
  Ni  Ni25  1  0.879788  0.879788  0.364668  1
  Ni  Ni26  1  0.879788  0.364668  0.879788  1
  Ni  Ni27  1  0.635332  0.120212  0.120212  1
  Ni  Ni28  1  0.364668  0.879788  0.879788  1
