# generated using pymatgen
data_Sc3BeP2IrRu2
_symmetry_space_group_name_H-M   'P 1'
_cell_length_a   6.58015685
_cell_length_b   6.54757054
_cell_length_c   3.54901500
_cell_angle_alpha   90.00000000
_cell_angle_beta   90.00000000
_cell_angle_gamma   119.83632624
_symmetry_Int_Tables_number   1
_chemical_formula_structural   Sc3BeP2IrRu2
_chemical_formula_sum   'Sc3 Be1 P2 Ir1 Ru2'
_cell_volume   132.63825940
_cell_formula_units_Z   1
loop_
 _symmetry_equiv_pos_site_id
 _symmetry_equiv_pos_as_xyz
  1  'x, y, z'
loop_
 _atom_site_type_symbol
 _atom_site_label
 _atom_site_symmetry_multiplicity
 _atom_site_fract_x
 _atom_site_fract_y
 _atom_site_fract_z
 _atom_site_occupancy
  Sc  Sc0  1  0.403988  0.402085  0.500000  1
  Sc  Sc1  1  0.596012  0.998097  0.500000  1
  Sc  Sc2  1  0.000000  0.599925  0.500000  1
  Be  Be3  1  0.000000  0.000905  0.500000  1
  P  P4  1  0.666404  0.333481  0.000000  1
  P  P5  1  0.333596  0.667077  0.000000  1
  Ir  Ir6  1  0.000000  0.243115  0.000000  1
  Ru  Ru7  1  0.244379  0.999847  0.000000  1
  Ru  Ru8  1  0.755621  0.755468  0.000000  1
