# generated using pymatgen
data_LiSc(TaPt6)2
_symmetry_space_group_name_H-M   'P 1'
_cell_length_a   5.62236300
_cell_length_b   5.62236309
_cell_length_c   9.09042600
_cell_angle_alpha   90.00000000
_cell_angle_beta   90.00000000
_cell_angle_gamma   120.00000537
_symmetry_Int_Tables_number   1
_chemical_formula_structural   LiSc(TaPt6)2
_chemical_formula_sum   'Li1 Sc1 Ta2 Pt12'
_cell_volume   248.85857754
_cell_formula_units_Z   1
loop_
 _symmetry_equiv_pos_site_id
 _symmetry_equiv_pos_as_xyz
  1  'x, y, z'
loop_
 _atom_site_type_symbol
 _atom_site_label
 _atom_site_symmetry_multiplicity
 _atom_site_fract_x
 _atom_site_fract_y
 _atom_site_fract_z
 _atom_site_occupancy
  Li  Li0  1  0.333333  0.666667  0.250000  1
  Sc  Sc1  1  0.666667  0.333333  0.750000  1
  Ta  Ta2  1  0.000000  0.000000  0.496156  1
  Ta  Ta3  1  0.000000  0.000000  0.003844  1
  Pt  Pt4  1  0.499328  0.500672  0.498147  1
  Pt  Pt5  1  0.499328  0.998656  0.498147  1
  Pt  Pt6  1  0.001344  0.500672  0.498147  1
  Pt  Pt7  1  0.499328  0.500672  0.001853  1
  Pt  Pt8  1  0.499328  0.998656  0.001853  1
  Pt  Pt9  1  0.001344  0.500672  0.001853  1
  Pt  Pt10  1  0.831787  0.663575  0.250000  1
  Pt  Pt11  1  0.336425  0.168213  0.250000  1
  Pt  Pt12  1  0.831787  0.168213  0.250000  1
  Pt  Pt13  1  0.168137  0.336275  0.750000  1
  Pt  Pt14  1  0.663725  0.831863  0.750000  1
  Pt  Pt15  1  0.168137  0.831863  0.750000  1
