# generated using pymatgen
data_Sc2FeB2Ir4Rh
_symmetry_space_group_name_H-M   'P 1'
_cell_length_a   9.36439100
_cell_length_b   9.36439100
_cell_length_c   3.07848000
_cell_angle_alpha   90.00000000
_cell_angle_beta   90.00000000
_cell_angle_gamma   90.00000000
_symmetry_Int_Tables_number   1
_chemical_formula_structural   Sc2FeB2Ir4Rh
_chemical_formula_sum   'Sc4 Fe2 B4 Ir8 Rh2'
_cell_volume   269.95751034
_cell_formula_units_Z   2
loop_
 _symmetry_equiv_pos_site_id
 _symmetry_equiv_pos_as_xyz
  1  'x, y, z'
loop_
 _atom_site_type_symbol
 _atom_site_label
 _atom_site_symmetry_multiplicity
 _atom_site_fract_x
 _atom_site_fract_y
 _atom_site_fract_z
 _atom_site_occupancy
  Sc  Sc0  1  0.325063  0.825062  0.000000  1
  Sc  Sc1  1  0.674937  0.174936  0.000000  1
  Sc  Sc2  1  0.825062  0.674937  0.000000  1
  Sc  Sc3  1  0.174936  0.325063  0.000000  1
  Fe  Fe4  1  0.000000  0.000000  0.000000  1
  Fe  Fe5  1  0.500000  0.500000  0.000000  1
  B  B6  1  0.124547  0.624546  0.000000  1
  B  B7  1  0.875454  0.375454  0.000000  1
  B  B8  1  0.624546  0.875454  0.000000  1
  B  B9  1  0.375454  0.124547  0.000000  1
  Ir  Ir10  1  0.215627  0.069883  0.500002  1
  Ir  Ir11  1  0.784374  0.930117  0.500002  1
  Ir  Ir12  1  0.715627  0.430116  0.500002  1
  Ir  Ir13  1  0.284373  0.569883  0.500002  1
  Ir  Ir14  1  0.430116  0.284373  0.500002  1
  Ir  Ir15  1  0.569883  0.715627  0.500002  1
  Ir  Ir16  1  0.069883  0.784374  0.500002  1
  Ir  Ir17  1  0.930117  0.215627  0.500002  1
  Rh  Rh18  1  0.000000  0.500000  0.500002  1
  Rh  Rh19  1  0.500000  0.000000  0.500002  1
