# generated using pymatgen
data_BiS27
_symmetry_space_group_name_H-M   'P 1'
_cell_length_a   14.86445580
_cell_length_b   14.86445563
_cell_length_c   14.86445599
_cell_angle_alpha   118.86783648
_cell_angle_beta   118.86783514
_cell_angle_gamma   118.86783090
_symmetry_Int_Tables_number   1
_chemical_formula_structural   BiS27
_chemical_formula_sum   'Bi1 S27'
_cell_volume   903.48718466
_cell_formula_units_Z   1
loop_
 _symmetry_equiv_pos_site_id
 _symmetry_equiv_pos_as_xyz
  1  'x, y, z'
loop_
 _atom_site_type_symbol
 _atom_site_label
 _atom_site_symmetry_multiplicity
 _atom_site_fract_x
 _atom_site_fract_y
 _atom_site_fract_z
 _atom_site_occupancy
  Bi  Bi0  1  0.429263  0.429263  0.429263  1
  S  S1  1  0.016885  0.615802  0.615802  1
  S  S2  1  0.615802  0.615802  0.016885  1
  S  S3  1  0.615802  0.016885  0.615802  1
  S  S4  1  0.245821  0.858052  0.727381  1
  S  S5  1  0.858052  0.727381  0.245821  1
  S  S6  1  0.727381  0.245821  0.858052  1
  S  S7  1  0.858052  0.245821  0.727381  1
  S  S8  1  0.245821  0.727381  0.858052  1
  S  S9  1  0.727381  0.858052  0.245821  1
  S  S10  1  0.094332  0.623729  0.439119  1
  S  S11  1  0.623729  0.439119  0.094332  1
  S  S12  1  0.439119  0.094332  0.623729  1
  S  S13  1  0.623729  0.094332  0.439119  1
  S  S14  1  0.094332  0.439119  0.623729  1
  S  S15  1  0.439119  0.623729  0.094332  1
  S  S16  1  0.358837  0.744382  0.612720  1
  S  S17  1  0.744382  0.612720  0.358837  1
  S  S18  1  0.612720  0.358837  0.744382  1
  S  S19  1  0.744382  0.358837  0.612720  1
  S  S20  1  0.358837  0.612720  0.744382  1
  S  S21  1  0.612720  0.744382  0.358837  1
  S  S22  1  0.178109  0.453536  0.453536  1
  S  S23  1  0.453536  0.453536  0.178109  1
  S  S24  1  0.453536  0.178109  0.453536  1
  S  S25  1  0.028810  0.923306  0.923306  1
  S  S26  1  0.923306  0.923306  0.028810  1
  S  S27  1  0.923306  0.028810  0.923306  1
