# generated using pymatgen
data_Na2(CrTe2)5
_symmetry_space_group_name_H-M   'P 1'
_cell_length_a   6.63811943
_cell_length_b   11.01935711
_cell_length_c   8.82477765
_cell_angle_alpha   60.01328629
_cell_angle_beta   67.73602190
_cell_angle_gamma   89.87043300
_symmetry_Int_Tables_number   1
_chemical_formula_structural   Na2(CrTe2)5
_chemical_formula_sum   'Na2 Cr5 Te10'
_cell_volume   503.13031207
_cell_formula_units_Z   1
loop_
 _symmetry_equiv_pos_site_id
 _symmetry_equiv_pos_as_xyz
  1  'x, y, z'
loop_
 _atom_site_type_symbol
 _atom_site_label
 _atom_site_symmetry_multiplicity
 _atom_site_fract_x
 _atom_site_fract_y
 _atom_site_fract_z
 _atom_site_occupancy
  Na  Na0  1  0.793811  0.086998  0.413458  1
  Na  Na1  1  0.006189  0.513002  0.986542  1
  Cr  Cr2  1  0.400000  0.800000  0.200000  1
  Cr  Cr3  1  0.803451  0.600526  0.398355  1
  Cr  Cr4  1  0.197200  0.401870  0.596691  1
  Cr  Cr5  1  0.602800  0.198130  0.803309  1
  Cr  Cr6  1  0.996549  0.999474  0.001645  1
  Te  Te7  1  0.987148  0.837666  0.362142  1
  Te  Te8  1  0.582050  0.039128  0.164089  1
  Te  Te9  1  0.186924  0.240600  0.957170  1
  Te  Te10  1  0.784194  0.440218  0.760302  1
  Te  Te11  1  0.390786  0.641105  0.556438  1
  Te  Te12  1  0.409214  0.958895  0.843562  1
  Te  Te13  1  0.015806  0.159782  0.639698  1
  Te  Te14  1  0.613076  0.359400  0.442830  1
  Te  Te15  1  0.217950  0.560872  0.235911  1
  Te  Te16  1  0.812852  0.762334  0.037858  1
