# generated using pymatgen
data_Eu8Be4Si11Ge
_symmetry_space_group_name_H-M   'P 1'
_cell_length_a   7.96655800
_cell_length_b   7.96655754
_cell_length_c   8.57735900
_cell_angle_alpha   90.00087743
_cell_angle_beta   89.99912257
_cell_angle_gamma   119.95630415
_symmetry_Int_Tables_number   1
_chemical_formula_structural   Eu8Be4Si11Ge
_chemical_formula_sum   'Eu8 Be4 Si11 Ge1'
_cell_volume   471.64658495
_cell_formula_units_Z   1
loop_
 _symmetry_equiv_pos_site_id
 _symmetry_equiv_pos_as_xyz
  1  'x, y, z'
loop_
 _atom_site_type_symbol
 _atom_site_label
 _atom_site_symmetry_multiplicity
 _atom_site_fract_x
 _atom_site_fract_y
 _atom_site_fract_z
 _atom_site_occupancy
  Eu  Eu0  1  0.000460  0.999549  0.749450  1
  Eu  Eu1  1  0.000422  0.999543  0.250499  1
  Eu  Eu2  1  0.499801  0.500194  0.749234  1
  Eu  Eu3  1  0.498347  0.998302  0.749085  1
  Eu  Eu4  1  0.001595  0.501509  0.749205  1
  Eu  Eu5  1  0.500564  0.499459  0.250796  1
  Eu  Eu6  1  0.000351  0.500939  0.250835  1
  Eu  Eu7  1  0.499111  0.999638  0.250821  1
  Be  Be8  1  0.664116  0.335772  0.998548  1
  Be  Be9  1  0.666597  0.333287  0.501433  1
  Be  Be10  1  0.333555  0.666473  0.497971  1
  Be  Be11  1  0.333302  0.666890  0.002129  1
  Si  Si12  1  0.828008  0.655470  0.999649  1
  Si  Si13  1  0.344379  0.171786  0.000393  1
  Si  Si14  1  0.827577  0.172229  0.500180  1
  Si  Si15  1  0.827522  0.655334  0.500394  1
  Si  Si16  1  0.344326  0.172151  0.499313  1
  Si  Si17  1  0.172374  0.827711  0.499407  1
  Si  Si18  1  0.655814  0.828067  0.498853  1
  Si  Si19  1  0.172170  0.344439  0.499583  1
  Si  Si20  1  0.172382  0.827828  0.000601  1
  Si  Si21  1  0.652839  0.822581  0.001392  1
  Si  Si22  1  0.177809  0.347502  0.000433  1
  Ge  Ge23  1  0.826580  0.173347  0.999797  1
