# generated using pymatgen
data_TaCrB2W
_symmetry_space_group_name_H-M   'P 1'
_cell_length_a   5.87930825
_cell_length_b   5.87930825
_cell_length_c   3.20441100
_cell_angle_alpha   90.00000000
_cell_angle_beta   90.00000000
_cell_angle_gamma   91.00752383
_symmetry_Int_Tables_number   1
_chemical_formula_structural   TaCrB2W
_chemical_formula_sum   'Ta2 Cr2 B4 W2'
_cell_volume   110.74739652
_cell_formula_units_Z   2
loop_
 _symmetry_equiv_pos_site_id
 _symmetry_equiv_pos_as_xyz
  1  'x, y, z'
loop_
 _atom_site_type_symbol
 _atom_site_label
 _atom_site_symmetry_multiplicity
 _atom_site_fract_x
 _atom_site_fract_y
 _atom_site_fract_z
 _atom_site_occupancy
  Ta  Ta0  1  0.180716  0.319284  0.500000  1
  Ta  Ta1  1  0.819284  0.680716  0.500000  1
  Cr  Cr2  1  0.500000  0.500000  0.000000  1
  Cr  Cr3  1  0.000000  0.000000  0.000000  1
  B  B4  1  0.115276  0.615276  0.000000  1
  B  B5  1  0.884724  0.384724  0.000000  1
  B  B6  1  0.610990  0.889010  0.000000  1
  B  B7  1  0.389010  0.110990  0.000000  1
  W  W8  1  0.677133  0.177133  0.500000  1
  W  W9  1  0.322867  0.822867  0.500000  1
