# generated using pymatgen
data_CdBiSbRhO7
_symmetry_space_group_name_H-M   'P 1'
_cell_length_a   7.35988508
_cell_length_b   7.35988557
_cell_length_c   7.20577400
_cell_angle_alpha   60.69028568
_cell_angle_beta   60.69028356
_cell_angle_gamma   61.63783141
_symmetry_Int_Tables_number   1
_chemical_formula_structural   CdBiSbRhO7
_chemical_formula_sum   'Cd2 Bi2 Sb2 Rh2 O14'
_cell_volume   282.20360912
_cell_formula_units_Z   2
loop_
 _symmetry_equiv_pos_site_id
 _symmetry_equiv_pos_as_xyz
  1  'x, y, z'
loop_
 _atom_site_type_symbol
 _atom_site_label
 _atom_site_symmetry_multiplicity
 _atom_site_fract_x
 _atom_site_fract_y
 _atom_site_fract_z
 _atom_site_occupancy
  Cd  Cd0  1  0.125000  0.125000  0.125000  1
  Cd  Cd1  1  0.125000  0.125000  0.625000  1
  Bi  Bi2  1  0.125000  0.625000  0.125000  1
  Bi  Bi3  1  0.625000  0.125000  0.125000  1
  Sb  Sb4  1  0.125000  0.625000  0.625000  1
  Sb  Sb5  1  0.625000  0.125000  0.625000  1
  Rh  Rh6  1  0.625000  0.625000  0.625000  1
  Rh  Rh7  1  0.625000  0.625000  0.125000  1
  O  O8  1  0.249045  0.249045  0.250955  1
  O  O9  1  0.296323  0.703173  0.292483  1
  O  O10  1  0.947662  0.947662  0.552338  1
  O  O11  1  0.546827  0.953677  0.541979  1
  O  O12  1  0.705644  0.705644  0.294356  1
  O  O13  1  0.953677  0.546827  0.541979  1
  O  O14  1  0.703173  0.296323  0.708021  1
  O  O15  1  0.302338  0.302338  0.697662  1
  O  O16  1  0.703173  0.296323  0.292483  1
  O  O17  1  0.296323  0.703173  0.708021  1
  O  O18  1  0.953677  0.546827  0.957517  1
  O  O19  1  0.544356  0.544356  0.955644  1
  O  O20  1  0.000955  0.000955  0.999045  1
  O  O21  1  0.546827  0.953677  0.957517  1
