# generated using pymatgen
data_La4Yb4Ga3Tc
_symmetry_space_group_name_H-M   'P 1'
_cell_length_a   10.54590300
_cell_length_b   10.54592931
_cell_length_c   7.14707100
_cell_angle_alpha   90.00000000
_cell_angle_beta   90.00000000
_cell_angle_gamma   119.99870356
_symmetry_Int_Tables_number   1
_chemical_formula_structural   La4Yb4Ga3Tc
_chemical_formula_sum   'La8 Yb8 Ga6 Tc2'
_cell_volume   688.38758604
_cell_formula_units_Z   2
loop_
 _symmetry_equiv_pos_site_id
 _symmetry_equiv_pos_as_xyz
  1  'x, y, z'
loop_
 _atom_site_type_symbol
 _atom_site_label
 _atom_site_symmetry_multiplicity
 _atom_site_fract_x
 _atom_site_fract_y
 _atom_site_fract_z
 _atom_site_occupancy
  La  La0  1  0.172927  0.827073  0.992863  1
  La  La1  1  0.345844  0.172921  0.492855  1
  La  La2  1  0.827070  0.654149  0.492846  1
  La  La3  1  0.172930  0.345851  0.992846  1
  La  La4  1  0.654156  0.827079  0.992855  1
  La  La5  1  0.827073  0.172927  0.492863  1
  La  La6  1  0.333336  0.666666  0.670844  1
  La  La7  1  0.666664  0.333334  0.170844  1
  Yb  Yb8  1  0.465402  0.534598  0.303201  1
  Yb  Yb9  1  0.930797  0.465400  0.803200  1
  Yb  Yb10  1  0.534597  0.069198  0.803198  1
  Yb  Yb11  1  0.465403  0.930802  0.303198  1
  Yb  Yb12  1  0.069203  0.534600  0.303200  1
  Yb  Yb13  1  0.534598  0.465402  0.803201  1
  Yb  Yb14  1  0.000001  0.999998  0.267547  1
  Yb  Yb15  1  0.999999  0.000002  0.767547  1
  Ga  Ga16  1  0.165935  0.834063  0.537552  1
  Ga  Ga17  1  0.331847  0.165923  0.037547  1
  Ga  Ga18  1  0.834080  0.668172  0.037565  1
  Ga  Ga19  1  0.165920  0.331828  0.537565  1
  Ga  Ga20  1  0.668153  0.834077  0.537547  1
  Ga  Ga21  1  0.834065  0.165937  0.037552  1
  Tc  Tc22  1  0.333338  0.666672  0.023783  1
  Tc  Tc23  1  0.666662  0.333328  0.523783  1
