# generated using pymatgen
data_NaI7Br12
_symmetry_space_group_name_H-M   'P 1'
_cell_length_a   13.26449297
_cell_length_b   8.76334841
_cell_length_c   10.44371654
_cell_angle_alpha   124.48793678
_cell_angle_beta   92.48019287
_cell_angle_gamma   82.58288317
_symmetry_Int_Tables_number   1
_chemical_formula_structural   NaI7Br12
_chemical_formula_sum   'Na1 I7 Br12'
_cell_volume   991.59401485
_cell_formula_units_Z   1
loop_
 _symmetry_equiv_pos_site_id
 _symmetry_equiv_pos_as_xyz
  1  'x, y, z'
loop_
 _atom_site_type_symbol
 _atom_site_label
 _atom_site_symmetry_multiplicity
 _atom_site_fract_x
 _atom_site_fract_y
 _atom_site_fract_z
 _atom_site_occupancy
  Na  Na0  1  0.500000  0.500000  0.000000  1
  I  I1  1  0.500000  0.000000  0.500000  1
  I  I2  1  0.000000  0.000000  0.500000  1
  I  I3  1  0.000000  0.500000  0.000000  1
  I  I4  1  0.281855  0.974578  0.011546  1
  I  I5  1  0.741598  0.606657  0.768748  1
  I  I6  1  0.718145  0.025422  0.988454  1
  I  I7  1  0.258402  0.393343  0.231252  1
  Br  Br8  1  0.547788  0.594441  0.762392  1
  Br  Br9  1  0.452212  0.405559  0.237608  1
  Br  Br10  1  0.980723  0.606392  0.803235  1
  Br  Br11  1  0.680577  0.393400  0.181627  1
  Br  Br12  1  0.107732  0.156118  0.763211  1
  Br  Br13  1  0.552969  0.871838  0.203895  1
  Br  Br14  1  0.892268  0.843882  0.236789  1
  Br  Br15  1  0.447031  0.128162  0.796105  1
  Br  Br16  1  0.019277  0.393608  0.196765  1
  Br  Br17  1  0.694284  0.066507  0.580737  1
  Br  Br18  1  0.305716  0.933493  0.419263  1
  Br  Br19  1  0.319423  0.606600  0.818373  1
