# generated using pymatgen
data_La3Y3Th2(CdIr)2
_symmetry_space_group_name_H-M   'P 1'
_cell_length_a   9.92957321
_cell_length_b   9.92957300
_cell_length_c   9.92957300
_cell_angle_alpha   60.00000333
_cell_angle_beta   60.00000404
_cell_angle_gamma   60.00000775
_symmetry_Int_Tables_number   1
_chemical_formula_structural   La3Y3Th2(CdIr)2
_chemical_formula_sum   'La6 Y6 Th4 Cd4 Ir4'
_cell_volume   692.27202186
_cell_formula_units_Z   2
loop_
 _symmetry_equiv_pos_site_id
 _symmetry_equiv_pos_as_xyz
  1  'x, y, z'
loop_
 _atom_site_type_symbol
 _atom_site_label
 _atom_site_symmetry_multiplicity
 _atom_site_fract_x
 _atom_site_fract_y
 _atom_site_fract_z
 _atom_site_occupancy
  La  La0  1  0.191588  0.808412  0.808412  1
  La  La1  1  0.808412  0.191588  0.191588  1
  La  La2  1  0.808412  0.191588  0.808412  1
  La  La3  1  0.191588  0.808412  0.191588  1
  La  La4  1  0.808412  0.808412  0.191588  1
  La  La5  1  0.191588  0.191588  0.808412  1
  Y  Y6  1  0.065047  0.434953  0.434953  1
  Y  Y7  1  0.434953  0.065047  0.065047  1
  Y  Y8  1  0.434953  0.065047  0.434953  1
  Y  Y9  1  0.065047  0.434953  0.065047  1
  Y  Y10  1  0.434953  0.434953  0.065047  1
  Y  Y11  1  0.065047  0.065047  0.434953  1
  Th  Th12  1  0.598001  0.598001  0.598001  1
  Th  Th13  1  0.598001  0.598001  0.205998  1
  Th  Th14  1  0.598001  0.205998  0.598001  1
  Th  Th15  1  0.205998  0.598001  0.598001  1
  Cd  Cd16  1  0.828999  0.828999  0.828999  1
  Cd  Cd17  1  0.828999  0.828999  0.513001  1
  Cd  Cd18  1  0.828999  0.513001  0.828999  1
  Cd  Cd19  1  0.513001  0.828999  0.828999  1
  Ir  Ir20  1  0.394092  0.394092  0.394092  1
  Ir  Ir21  1  0.394092  0.394092  0.817723  1
  Ir  Ir22  1  0.394092  0.817723  0.394092  1
  Ir  Ir23  1  0.817723  0.394092  0.394092  1
