# generated using pymatgen
data_NdSm5C2Br7
_symmetry_space_group_name_H-M   'P 1'
_cell_length_a   10.80088589
_cell_length_b   10.80088543
_cell_length_c   12.29777009
_cell_angle_alpha   57.26977314
_cell_angle_beta   57.26976828
_cell_angle_gamma   20.85516222
_symmetry_Int_Tables_number   1
_chemical_formula_structural   NdSm5C2Br7
_chemical_formula_sum   'Nd1 Sm5 C2 Br7'
_cell_volume   426.63487251
_cell_formula_units_Z   1
loop_
 _symmetry_equiv_pos_site_id
 _symmetry_equiv_pos_as_xyz
  1  'x, y, z'
loop_
 _atom_site_type_symbol
 _atom_site_label
 _atom_site_symmetry_multiplicity
 _atom_site_fract_x
 _atom_site_fract_y
 _atom_site_fract_z
 _atom_site_occupancy
  Nd  Nd0  1  0.229465  0.229465  0.839377  1
  Sm  Sm1  1  0.314308  0.314308  0.364923  1
  Sm  Sm2  1  0.129768  0.129768  0.444262  1
  Sm  Sm3  1  0.869330  0.869330  0.557252  1
  Sm  Sm4  1  0.685960  0.685960  0.636126  1
  Sm  Sm5  1  0.769795  0.769795  0.164390  1
  C  C6  1  0.280493  0.280493  0.605422  1
  C  C7  1  0.719705  0.719705  0.393215  1
  Br  Br8  1  0.164230  0.164230  0.167418  1
  Br  Br9  1  0.839728  0.839728  0.830182  1
  Br  Br10  1  0.058374  0.058374  0.719652  1
  Br  Br11  1  0.941509  0.941509  0.280117  1
  Br  Br12  1  0.501042  0.501042  0.497215  1
  Br  Br13  1  0.388915  0.388915  0.069370  1
  Br  Br14  1  0.607379  0.607379  0.931080  1
