# generated using pymatgen
data_Hf4Mn4SiP3
_symmetry_space_group_name_H-M   'P 1'
_cell_length_a   3.61395600
_cell_length_b   6.42736900
_cell_length_c   7.50495901
_cell_angle_alpha   89.99522445
_cell_angle_beta   90.00000000
_cell_angle_gamma   90.00000000
_symmetry_Int_Tables_number   1
_chemical_formula_structural   Hf4Mn4SiP3
_chemical_formula_sum   'Hf4 Mn4 Si1 P3'
_cell_volume   174.32690422
_cell_formula_units_Z   1
loop_
 _symmetry_equiv_pos_site_id
 _symmetry_equiv_pos_as_xyz
  1  'x, y, z'
loop_
 _atom_site_type_symbol
 _atom_site_label
 _atom_site_symmetry_multiplicity
 _atom_site_fract_x
 _atom_site_fract_y
 _atom_site_fract_z
 _atom_site_occupancy
  Hf  Hf0  1  0.250000  0.970728  0.327734  1
  Hf  Hf1  1  0.250000  0.465441  0.175101  1
  Hf  Hf2  1  0.750000  0.029571  0.675895  1
  Hf  Hf3  1  0.750000  0.529285  0.823095  1
  Mn  Mn4  1  0.250000  0.362505  0.561175  1
  Mn  Mn5  1  0.250000  0.865423  0.935319  1
  Mn  Mn6  1  0.750000  0.635755  0.442277  1
  Mn  Mn7  1  0.750000  0.140847  0.060968  1
  Si  Si8  1  0.750000  0.768790  0.125236  1
  P  P9  1  0.250000  0.731619  0.627839  1
  P  P10  1  0.250000  0.231781  0.871633  1
  P  P11  1  0.750000  0.268255  0.373730  1
