# generated using pymatgen
data_CeAlNi3Pt
_symmetry_space_group_name_H-M   'P 1'
_cell_length_a   4.88700367
_cell_length_b   5.09491335
_cell_length_c   4.12513100
_cell_angle_alpha   90.00000000
_cell_angle_beta   90.00000000
_cell_angle_gamma   116.46553156
_symmetry_Int_Tables_number   1
_chemical_formula_structural   CeAlNi3Pt
_chemical_formula_sum   'Ce1 Al1 Ni3 Pt1'
_cell_volume   91.94721093
_cell_formula_units_Z   1
loop_
 _symmetry_equiv_pos_site_id
 _symmetry_equiv_pos_as_xyz
  1  'x, y, z'
loop_
 _atom_site_type_symbol
 _atom_site_label
 _atom_site_symmetry_multiplicity
 _atom_site_fract_x
 _atom_site_fract_y
 _atom_site_fract_z
 _atom_site_occupancy
  Ce  Ce0  1  0.000000  0.000000  0.000000  1
  Al  Al1  1  0.500000  0.500000  0.500000  1
  Ni  Ni2  1  0.690489  0.369765  0.000000  1
  Ni  Ni3  1  0.309511  0.630235  0.000000  1
  Ni  Ni4  1  0.000000  0.500000  0.500000  1
  Pt  Pt5  1  0.500000  0.000000  0.500000  1
