# generated using pymatgen
data_LaNd2Eu(Ni5C3)2
_symmetry_space_group_name_H-M   'P 1'
_cell_length_a   8.29432310
_cell_length_b   8.29432326
_cell_length_c   3.97815600
_cell_angle_alpha   90.00000000
_cell_angle_beta   90.00000000
_cell_angle_gamma   90.09159094
_symmetry_Int_Tables_number   1
_chemical_formula_structural   LaNd2Eu(Ni5C3)2
_chemical_formula_sum   'La1 Nd2 Eu1 Ni10 C6'
_cell_volume   273.68006304
_cell_formula_units_Z   1
loop_
 _symmetry_equiv_pos_site_id
 _symmetry_equiv_pos_as_xyz
  1  'x, y, z'
loop_
 _atom_site_type_symbol
 _atom_site_label
 _atom_site_symmetry_multiplicity
 _atom_site_fract_x
 _atom_site_fract_y
 _atom_site_fract_z
 _atom_site_occupancy
  La  La0  1  0.840634  0.340634  0.000000  1
  Nd  Nd1  1  0.340484  0.158283  0.000000  1
  Nd  Nd2  1  0.658283  0.840484  0.000000  1
  Eu  Eu3  1  0.158659  0.658659  0.000000  1
  Ni  Ni4  1  0.921481  0.787509  0.500000  1
  Ni  Ni5  1  0.712320  0.575745  0.500000  1
  Ni  Ni6  1  0.425456  0.713443  0.500000  1
  Ni  Ni7  1  0.287509  0.421481  0.500000  1
  Ni  Ni8  1  0.574853  0.287833  0.500000  1
  Ni  Ni9  1  0.787833  0.074853  0.500000  1
  Ni  Ni10  1  0.075745  0.212320  0.500000  1
  Ni  Ni11  1  0.213443  0.925456  0.500000  1
  Ni  Ni12  1  0.500376  0.499466  0.000000  1
  Ni  Ni13  1  0.999466  0.000376  0.000000  1
  C  C14  1  0.442306  0.942306  0.500000  1
  C  C15  1  0.059235  0.443744  0.500000  1
  C  C16  1  0.943744  0.559235  0.500000  1
  C  C17  1  0.498723  0.500764  0.500000  1
  C  C18  1  0.558687  0.058687  0.500000  1
  C  C19  1  0.000764  0.998723  0.500000  1
