# generated using pymatgen
data_Yb8YPd6
_symmetry_space_group_name_H-M   'P 1'
_cell_length_a   7.56953099
_cell_length_b   7.56953154
_cell_length_c   7.56953122
_cell_angle_alpha   70.78992513
_cell_angle_beta   70.78991810
_cell_angle_gamma   70.78992524
_symmetry_Int_Tables_number   1
_chemical_formula_structural   Yb8YPd6
_chemical_formula_sum   'Yb8 Y1 Pd6'
_cell_volume   374.72194493
_cell_formula_units_Z   1
loop_
 _symmetry_equiv_pos_site_id
 _symmetry_equiv_pos_as_xyz
  1  'x, y, z'
loop_
 _atom_site_type_symbol
 _atom_site_label
 _atom_site_symmetry_multiplicity
 _atom_site_fract_x
 _atom_site_fract_y
 _atom_site_fract_z
 _atom_site_occupancy
  Yb  Yb0  1  0.796875  0.796875  0.796875  1
  Yb  Yb1  1  0.203125  0.203125  0.203125  1
  Yb  Yb2  1  0.331290  0.603133  0.844032  1
  Yb  Yb3  1  0.844032  0.331290  0.603133  1
  Yb  Yb4  1  0.603133  0.844032  0.331290  1
  Yb  Yb5  1  0.668710  0.396867  0.155968  1
  Yb  Yb6  1  0.155968  0.668710  0.396867  1
  Yb  Yb7  1  0.396867  0.155968  0.668710  1
  Y  Y8  1  0.000000  0.000000  0.000000  1
  Pd  Pd9  1  0.152814  0.955656  0.597115  1
  Pd  Pd10  1  0.597115  0.152814  0.955656  1
  Pd  Pd11  1  0.955656  0.597115  0.152814  1
  Pd  Pd12  1  0.847186  0.044344  0.402885  1
  Pd  Pd13  1  0.402885  0.847186  0.044344  1
  Pd  Pd14  1  0.044344  0.402885  0.847186  1
