# generated using pymatgen
data_Ce2BeRh6
_symmetry_space_group_name_H-M   'P 1'
_cell_length_a   5.90353451
_cell_length_b   5.90353441
_cell_length_c   5.90353500
_cell_angle_alpha   60.00000232
_cell_angle_beta   60.00000283
_cell_angle_gamma   60.00000784
_symmetry_Int_Tables_number   1
_chemical_formula_structural   Ce2BeRh6
_chemical_formula_sum   'Ce2 Be1 Rh6'
_cell_volume   145.48606328
_cell_formula_units_Z   1
loop_
 _symmetry_equiv_pos_site_id
 _symmetry_equiv_pos_as_xyz
  1  'x, y, z'
loop_
 _atom_site_type_symbol
 _atom_site_label
 _atom_site_symmetry_multiplicity
 _atom_site_fract_x
 _atom_site_fract_y
 _atom_site_fract_z
 _atom_site_occupancy
  Ce  Ce0  1  0.249999  0.249999  0.249999  1
  Ce  Ce1  1  0.749999  0.749999  0.749999  1
  Be  Be2  1  0.000000  0.000000  0.000000  1
  Rh  Rh3  1  0.737720  0.262280  0.262280  1
  Rh  Rh4  1  0.737720  0.737720  0.262280  1
  Rh  Rh5  1  0.262280  0.737720  0.262280  1
  Rh  Rh6  1  0.262280  0.737720  0.737720  1
  Rh  Rh7  1  0.262280  0.262280  0.737720  1
  Rh  Rh8  1  0.737720  0.262280  0.737720  1
