# generated using pymatgen
data_Tm10Lu2InCo4Ru
_symmetry_space_group_name_H-M   'P 1'
_cell_length_a   8.16613501
_cell_length_b   8.16889257
_cell_length_c   8.16889285
_cell_angle_alpha   111.20887546
_cell_angle_beta   111.13053191
_cell_angle_gamma   106.13805195
_symmetry_Int_Tables_number   1
_chemical_formula_structural   Tm10Lu2InCo4Ru
_chemical_formula_sum   'Tm10 Lu2 In1 Co4 Ru1'
_cell_volume   418.36182176
_cell_formula_units_Z   1
loop_
 _symmetry_equiv_pos_site_id
 _symmetry_equiv_pos_as_xyz
  1  'x, y, z'
loop_
 _atom_site_type_symbol
 _atom_site_label
 _atom_site_symmetry_multiplicity
 _atom_site_fract_x
 _atom_site_fract_y
 _atom_site_fract_z
 _atom_site_occupancy
  Tm  Tm0  1  0.027178  0.220565  0.806614  1
  Tm  Tm1  1  0.972822  0.779435  0.193386  1
  Tm  Tm2  1  0.184328  0.282045  0.465889  1
  Tm  Tm3  1  0.815672  0.717955  0.534111  1
  Tm  Tm4  1  0.184328  0.718439  0.902283  1
  Tm  Tm5  1  0.815672  0.281561  0.097717  1
  Tm  Tm6  1  0.314478  0.619757  0.306225  1
  Tm  Tm7  1  0.685522  0.380243  0.693775  1
  Tm  Tm8  1  0.314478  0.008253  0.694721  1
  Tm  Tm9  1  0.685522  0.991747  0.305279  1
  Lu  Lu10  1  0.414280  0.220541  0.193738  1
  Lu  Lu11  1  0.585720  0.779459  0.806262  1
  In  In12  1  0.500000  0.500000  0.000000  1
  Co  Co13  1  0.374815  0.000140  0.374674  1
  Co  Co14  1  0.625185  0.999860  0.625326  1
  Co  Co15  1  0.112226  0.612167  0.500059  1
  Co  Co16  1  0.887774  0.387833  0.499941  1
  Ru  Ru17  1  0.000000  0.000000  0.000000  1
