# generated using pymatgen
data_La12CuTc3
_symmetry_space_group_name_H-M   'P 1'
_cell_length_a   6.61447540
_cell_length_b   7.48558939
_cell_length_c   10.07602100
_cell_angle_alpha   90.00000000
_cell_angle_beta   90.00000000
_cell_angle_gamma   90.09998891
_symmetry_Int_Tables_number   1
_chemical_formula_structural   La12CuTc3
_chemical_formula_sum   'La12 Cu1 Tc3'
_cell_volume   498.89575546
_cell_formula_units_Z   1
loop_
 _symmetry_equiv_pos_site_id
 _symmetry_equiv_pos_as_xyz
  1  'x, y, z'
loop_
 _atom_site_type_symbol
 _atom_site_label
 _atom_site_symmetry_multiplicity
 _atom_site_fract_x
 _atom_site_fract_y
 _atom_site_fract_z
 _atom_site_occupancy
  La  La0  1  0.344142  0.666572  0.067270  1
  La  La1  1  0.166211  0.182344  0.438968  1
  La  La2  1  0.672942  0.327898  0.570639  1
  La  La3  1  0.824384  0.831618  0.927871  1
  La  La4  1  0.672942  0.327898  0.929361  1
  La  La5  1  0.824384  0.831618  0.572129  1
  La  La6  1  0.344142  0.666572  0.432730  1
  La  La7  1  0.166211  0.182344  0.061032  1
  La  La8  1  0.853034  0.531611  0.250000  1
  La  La9  1  0.630178  0.058878  0.250000  1
  La  La10  1  0.147208  0.448758  0.750000  1
  La  La11  1  0.355871  0.947712  0.750000  1
  Cu  Cu12  1  0.061487  0.886070  0.250000  1
  Tc  Tc13  1  0.431632  0.381472  0.250000  1
  Tc  Tc14  1  0.960111  0.110077  0.750000  1
  Tc  Tc15  1  0.545119  0.618558  0.750000  1
