# generated using pymatgen
data_K4PrUSe6
_symmetry_space_group_name_H-M   'P 1'
_cell_length_a   7.66564998
_cell_length_b   7.66564869
_cell_length_c   8.06491239
_cell_angle_alpha   80.72663827
_cell_angle_beta   80.72664073
_cell_angle_gamma   119.96173175
_symmetry_Int_Tables_number   1
_chemical_formula_structural   K4PrUSe6
_chemical_formula_sum   'K4 Pr1 U1 Se6'
_cell_volume   388.69586977
_cell_formula_units_Z   1
loop_
 _symmetry_equiv_pos_site_id
 _symmetry_equiv_pos_as_xyz
  1  'x, y, z'
loop_
 _atom_site_type_symbol
 _atom_site_label
 _atom_site_symmetry_multiplicity
 _atom_site_fract_x
 _atom_site_fract_y
 _atom_site_fract_z
 _atom_site_occupancy
  K  K0  1  0.343934  0.656066  0.500000  1
  K  K1  1  0.655380  0.344620  0.500000  1
  K  K2  1  0.000226  0.999774  0.500000  1
  K  K3  1  0.499987  0.500013  0.000000  1
  Pr  Pr4  1  0.167846  0.832154  0.000000  1
  U  U5  1  0.832383  0.167617  0.000000  1
  Se  Se6  1  0.788721  0.809248  0.208597  1
  Se  Se7  1  0.449518  0.067833  0.211843  1
  Se  Se8  1  0.045588  0.406500  0.210533  1
  Se  Se9  1  0.593500  0.954412  0.789467  1
  Se  Se10  1  0.932167  0.550482  0.788157  1
  Se  Se11  1  0.190752  0.211279  0.791403  1
