# generated using pymatgen
data_Tm8MoOs3C8
_symmetry_space_group_name_H-M   'P 1'
_cell_length_a   5.02464500
_cell_length_b   6.48065939
_cell_length_c   9.70035526
_cell_angle_alpha   89.63454273
_cell_angle_beta   90.00000000
_cell_angle_gamma   90.00000000
_symmetry_Int_Tables_number   1
_chemical_formula_structural   Tm8MoOs3C8
_chemical_formula_sum   'Tm8 Mo1 Os3 C8'
_cell_volume   315.86636716
_cell_formula_units_Z   1
loop_
 _symmetry_equiv_pos_site_id
 _symmetry_equiv_pos_as_xyz
  1  'x, y, z'
loop_
 _atom_site_type_symbol
 _atom_site_label
 _atom_site_symmetry_multiplicity
 _atom_site_fract_x
 _atom_site_fract_y
 _atom_site_fract_z
 _atom_site_occupancy
  Tm  Tm0  1  0.250000  0.677141  0.555782  1
  Tm  Tm1  1  0.750000  0.324031  0.443624  1
  Tm  Tm2  1  0.750000  0.826299  0.056729  1
  Tm  Tm3  1  0.250000  0.178021  0.943422  1
  Tm  Tm4  1  0.250000  0.533258  0.215343  1
  Tm  Tm5  1  0.750000  0.465845  0.779774  1
  Tm  Tm6  1  0.750000  0.969182  0.717154  1
  Tm  Tm7  1  0.250000  0.031230  0.284550  1
  Mo  Mo8  1  0.250000  0.718226  0.869933  1
  Os  Os9  1  0.750000  0.282158  0.133018  1
  Os  Os10  1  0.750000  0.780140  0.366214  1
  Os  Os11  1  0.250000  0.220639  0.630404  1
  C  C12  1  0.250000  0.449521  0.759037  1
  C  C13  1  0.750000  0.545690  0.242022  1
  C  C14  1  0.750000  0.047070  0.259200  1
  C  C15  1  0.250000  0.954888  0.739437  1
  C  C16  1  0.250000  0.827587  0.059894  1
  C  C17  1  0.750000  0.171933  0.946193  1
  C  C18  1  0.750000  0.670549  0.554411  1
  C  C19  1  0.250000  0.326594  0.443857  1
