# generated using pymatgen
data_Yb7DyNbGe16Mo11
_symmetry_space_group_name_H-M   'P 1'
_cell_length_a   6.86472025
_cell_length_b   7.04185994
_cell_length_c   13.26373431
_cell_angle_alpha   89.95255839
_cell_angle_beta   90.04929398
_cell_angle_gamma   89.97330368
_symmetry_Int_Tables_number   1
_chemical_formula_structural   Yb7DyNbGe16Mo11
_chemical_formula_sum   'Yb7 Dy1 Nb1 Ge16 Mo11'
_cell_volume   641.17367583
_cell_formula_units_Z   1
loop_
 _symmetry_equiv_pos_site_id
 _symmetry_equiv_pos_as_xyz
  1  'x, y, z'
loop_
 _atom_site_type_symbol
 _atom_site_label
 _atom_site_symmetry_multiplicity
 _atom_site_fract_x
 _atom_site_fract_y
 _atom_site_fract_z
 _atom_site_occupancy
  Yb  Yb0  1  0.493708  0.328761  0.089554  1
  Yb  Yb1  1  0.993301  0.170964  0.410564  1
  Yb  Yb2  1  0.506630  0.671143  0.590318  1
  Yb  Yb3  1  0.006647  0.827685  0.908371  1
  Yb  Yb4  1  0.507013  0.671882  0.908947  1
  Yb  Yb5  1  0.006435  0.828846  0.590013  1
  Yb  Yb6  1  0.493682  0.329461  0.410957  1
  Dy  Dy7  1  0.994230  0.173289  0.091585  1
  Nb  Nb8  1  0.840033  0.514753  0.249212  1
  Ge  Ge9  1  0.808587  0.645616  0.749562  1
  Ge  Ge10  1  0.309073  0.854452  0.749667  1
  Ge  Ge11  1  0.197548  0.352775  0.252153  1
  Ge  Ge12  1  0.687965  0.143019  0.251536  1
  Ge  Ge13  1  0.532717  0.380427  0.750112  1
  Ge  Ge14  1  0.033597  0.119478  0.749499  1
  Ge  Ge15  1  0.463250  0.621894  0.249081  1
  Ge  Ge16  1  0.967577  0.880939  0.251091  1
  Ge  Ge17  1  0.669533  0.044336  0.545645  1
  Ge  Ge18  1  0.170440  0.457531  0.953906  1
  Ge  Ge19  1  0.331107  0.953880  0.044543  1
  Ge  Ge20  1  0.829853  0.543932  0.456789  1
  Ge  Ge21  1  0.330361  0.954962  0.454914  1
  Ge  Ge22  1  0.828879  0.545821  0.042750  1
  Ge  Ge23  1  0.670536  0.043632  0.953803  1
  Ge  Ge24  1  0.168837  0.455691  0.546045  1
  Mo  Mo25  1  0.660685  0.016324  0.750078  1
  Mo  Mo26  1  0.160081  0.483460  0.750215  1
  Mo  Mo27  1  0.338205  0.983988  0.249597  1
  Mo  Mo28  1  0.837925  0.335827  0.630196  1
  Mo  Mo29  1  0.337623  0.164025  0.870784  1
  Mo  Mo30  1  0.161177  0.664676  0.127784  1
  Mo  Mo31  1  0.660341  0.834933  0.371536  1
  Mo  Mo32  1  0.161472  0.664394  0.371321  1
  Mo  Mo33  1  0.663281  0.838228  0.127891  1
  Mo  Mo34  1  0.838856  0.335176  0.870539  1
  Mo  Mo35  1  0.338810  0.163802  0.629441  1
