# generated using pymatgen
data_Rb(SnSe2)12
_symmetry_space_group_name_H-M   'P 1'
_cell_length_a   11.91491843
_cell_length_b   12.00332091
_cell_length_c   11.59639532
_cell_angle_alpha   109.06790480
_cell_angle_beta   109.23425950
_cell_angle_gamma   68.88684899
_symmetry_Int_Tables_number   1
_chemical_formula_structural   Rb(SnSe2)12
_chemical_formula_sum   'Rb1 Sn12 Se24'
_cell_volume   1419.47704520
_cell_formula_units_Z   1
loop_
 _symmetry_equiv_pos_site_id
 _symmetry_equiv_pos_as_xyz
  1  'x, y, z'
loop_
 _atom_site_type_symbol
 _atom_site_label
 _atom_site_symmetry_multiplicity
 _atom_site_fract_x
 _atom_site_fract_y
 _atom_site_fract_z
 _atom_site_occupancy
  Rb  Rb0  1  0.000000  0.500000  0.000000  1
  Sn  Sn1  1  0.496521  0.499653  0.665407  1
  Sn  Sn2  1  0.997741  0.997841  0.663517  1
  Sn  Sn3  1  0.741844  0.242723  0.827924  1
  Sn  Sn4  1  0.253009  0.755625  0.834848  1
  Sn  Sn5  1  0.500000  0.500000  0.000000  1
  Sn  Sn6  1  0.000000  0.000000  0.000000  1
  Sn  Sn7  1  0.746991  0.244375  0.165152  1
  Sn  Sn8  1  0.258156  0.757277  0.172076  1
  Sn  Sn9  1  0.503479  0.500347  0.334593  1
  Sn  Sn10  1  0.002259  0.002159  0.336483  1
  Sn  Sn11  1  0.745075  0.244054  0.495348  1
  Sn  Sn12  1  0.254925  0.755946  0.504652  1
  Se  Se13  1  0.488416  0.329215  0.772481  1
  Se  Se14  1  0.997514  0.828451  0.775306  1
  Se  Se15  1  0.743433  0.072986  0.939305  1
  Se  Se16  1  0.245288  0.585678  0.944430  1
  Se  Se17  1  0.752320  0.414426  0.724243  1
  Se  Se18  1  0.254550  0.927675  0.728653  1
  Se  Se19  1  0.492118  0.330359  0.106829  1
  Se  Se20  1  0.001233  0.828675  0.110569  1
  Se  Se21  1  0.998767  0.171325  0.889431  1
  Se  Se22  1  0.507882  0.669641  0.893171  1
  Se  Se23  1  0.247680  0.585574  0.275757  1
  Se  Se24  1  0.745450  0.072325  0.271347  1
  Se  Se25  1  0.754712  0.414322  0.055570  1
  Se  Se26  1  0.256567  0.927014  0.060695  1
  Se  Se27  1  0.491062  0.329482  0.438256  1
  Se  Se28  1  0.999195  0.827498  0.438858  1
  Se  Se29  1  0.002486  0.171549  0.224694  1
  Se  Se30  1  0.511584  0.670785  0.227519  1
  Se  Se31  1  0.243368  0.584840  0.608188  1
  Se  Se32  1  0.741300  0.072598  0.602622  1
  Se  Se33  1  0.756632  0.415160  0.391812  1
  Se  Se34  1  0.258700  0.927402  0.397378  1
  Se  Se35  1  0.000805  0.172502  0.561142  1
  Se  Se36  1  0.508938  0.670518  0.561744  1
