# generated using pymatgen
data_Pa2FeCo(SiH)2
_symmetry_space_group_name_H-M   'P 1'
_cell_length_a   3.97088600
_cell_length_b   3.97088600
_cell_length_c   6.72525300
_cell_angle_alpha   90.00000000
_cell_angle_beta   90.00000000
_cell_angle_gamma   90.00000000
_symmetry_Int_Tables_number   1
_chemical_formula_structural   Pa2FeCo(SiH)2
_chemical_formula_sum   'Pa2 Fe1 Co1 Si2 H2'
_cell_volume   106.04335637
_cell_formula_units_Z   1
loop_
 _symmetry_equiv_pos_site_id
 _symmetry_equiv_pos_as_xyz
  1  'x, y, z'
loop_
 _atom_site_type_symbol
 _atom_site_label
 _atom_site_symmetry_multiplicity
 _atom_site_fract_x
 _atom_site_fract_y
 _atom_site_fract_z
 _atom_site_occupancy
  Pa  Pa0  1  0.500000  0.000000  0.322826  1
  Pa  Pa1  1  0.000000  0.500000  0.677174  1
  Fe  Fe2  1  0.500000  0.500000  0.000000  1
  Co  Co3  1  0.000000  0.000000  0.000000  1
  Si  Si4  1  0.500000  0.000000  0.816217  1
  Si  Si5  1  0.000000  0.500000  0.183783  1
  H  H6  1  0.000000  0.000000  0.500000  1
  H  H7  1  0.500000  0.500000  0.500000  1
