# generated using pymatgen
data_Cu3PdO6
_symmetry_space_group_name_H-M   'P 1'
_cell_length_a   6.34283529
_cell_length_b   5.96196889
_cell_length_c   2.95153000
_cell_angle_alpha   90.00000000
_cell_angle_beta   90.00000000
_cell_angle_gamma   103.79188228
_symmetry_Int_Tables_number   1
_chemical_formula_structural   Cu3PdO6
_chemical_formula_sum   'Cu3 Pd1 O6'
_cell_volume   108.39636896
_cell_formula_units_Z   1
loop_
 _symmetry_equiv_pos_site_id
 _symmetry_equiv_pos_as_xyz
  1  'x, y, z'
loop_
 _atom_site_type_symbol
 _atom_site_label
 _atom_site_symmetry_multiplicity
 _atom_site_fract_x
 _atom_site_fract_y
 _atom_site_fract_z
 _atom_site_occupancy
  Cu  Cu0  1  0.000000  0.000000  0.000000  1
  Cu  Cu1  1  0.500000  0.500000  0.000000  1
  Cu  Cu2  1  0.000000  0.500000  0.499999  1
  Pd  Pd3  1  0.500000  0.000000  0.499999  1
  O  O4  1  0.306075  0.064463  0.000000  1
  O  O5  1  0.036830  0.315887  0.000000  1
  O  O6  1  0.963170  0.684112  0.000000  1
  O  O7  1  0.693924  0.935537  0.000000  1
  O  O8  1  0.610775  0.354882  0.499999  1
  O  O9  1  0.389225  0.645118  0.499999  1
