# generated using pymatgen
data_CeY3(MgIr)4
_symmetry_space_group_name_H-M   'P 1'
_cell_length_a   7.08896876
_cell_length_b   4.11527500
_cell_length_c   8.58972358
_cell_angle_alpha   90.00000000
_cell_angle_beta   90.64793246
_cell_angle_gamma   90.00000000
_symmetry_Int_Tables_number   1
_chemical_formula_structural   CeY3(MgIr)4
_chemical_formula_sum   'Ce1 Y3 Mg4 Ir4'
_cell_volume   250.57246344
_cell_formula_units_Z   1
loop_
 _symmetry_equiv_pos_site_id
 _symmetry_equiv_pos_as_xyz
  1  'x, y, z'
loop_
 _atom_site_type_symbol
 _atom_site_label
 _atom_site_symmetry_multiplicity
 _atom_site_fract_x
 _atom_site_fract_y
 _atom_site_fract_z
 _atom_site_occupancy
  Ce  Ce0  1  0.535313  0.750000  0.679384  1
  Y  Y1  1  0.960220  0.250000  0.176304  1
  Y  Y2  1  0.462890  0.250000  0.320176  1
  Y  Y3  1  0.036278  0.750000  0.826806  1
  Mg  Mg4  1  0.869796  0.250000  0.559472  1
  Mg  Mg5  1  0.360074  0.250000  0.943565  1
  Mg  Mg6  1  0.137191  0.750000  0.437185  1
  Mg  Mg7  1  0.635115  0.750000  0.061474  1
  Ir  Ir8  1  0.743699  0.250000  0.864234  1
  Ir  Ir9  1  0.260098  0.250000  0.627924  1
  Ir  Ir10  1  0.247872  0.750000  0.128005  1
  Ir  Ir11  1  0.751453  0.750000  0.375471  1
