# generated using pymatgen
data_LaYb2Ni9
_symmetry_space_group_name_H-M   'P 1'
_cell_length_a   8.56648287
_cell_length_b   8.56648310
_cell_length_c   8.56648270
_cell_angle_alpha   33.76071151
_cell_angle_beta   33.76070565
_cell_angle_gamma   33.76071008
_symmetry_Int_Tables_number   1
_chemical_formula_structural   LaYb2Ni9
_chemical_formula_sum   'La1 Yb2 Ni9'
_cell_volume   172.98845214
_cell_formula_units_Z   1
loop_
 _symmetry_equiv_pos_site_id
 _symmetry_equiv_pos_as_xyz
  1  'x, y, z'
loop_
 _atom_site_type_symbol
 _atom_site_label
 _atom_site_symmetry_multiplicity
 _atom_site_fract_x
 _atom_site_fract_y
 _atom_site_fract_z
 _atom_site_occupancy
  La  La0  1  0.000000  0.000000  0.000000  1
  Yb  Yb1  1  0.857996  0.857996  0.857996  1
  Yb  Yb2  1  0.142004  0.142004  0.142004  1
  Ni  Ni3  1  0.415936  0.915894  0.415936  1
  Ni  Ni4  1  0.415936  0.415936  0.915894  1
  Ni  Ni5  1  0.915894  0.415936  0.415936  1
  Ni  Ni6  1  0.584064  0.084106  0.584064  1
  Ni  Ni7  1  0.584064  0.584064  0.084106  1
  Ni  Ni8  1  0.084106  0.584064  0.584064  1
  Ni  Ni9  1  0.667743  0.667743  0.667743  1
  Ni  Ni10  1  0.332257  0.332257  0.332257  1
  Ni  Ni11  1  0.500000  0.500000  0.500000  1
