# generated using pymatgen
data_Tm8Lu12Bi11Pb
_symmetry_space_group_name_H-M   'P 1'
_cell_length_a   8.13903630
_cell_length_b   9.40465099
_cell_length_c   11.85354465
_cell_angle_alpha   89.94782882
_cell_angle_beta   89.96946453
_cell_angle_gamma   89.99361081
_symmetry_Int_Tables_number   1
_chemical_formula_structural   Tm8Lu12Bi11Pb
_chemical_formula_sum   'Tm8 Lu12 Bi11 Pb1'
_cell_volume   907.32664416
_cell_formula_units_Z   1
loop_
 _symmetry_equiv_pos_site_id
 _symmetry_equiv_pos_as_xyz
  1  'x, y, z'
loop_
 _atom_site_type_symbol
 _atom_site_label
 _atom_site_symmetry_multiplicity
 _atom_site_fract_x
 _atom_site_fract_y
 _atom_site_fract_z
 _atom_site_occupancy
  Tm  Tm0  1  0.349581  0.248366  0.282991  1
  Tm  Tm1  1  0.647373  0.750341  0.717216  1
  Tm  Tm2  1  0.146847  0.749426  0.782780  1
  Tm  Tm3  1  0.856330  0.248504  0.218446  1
  Tm  Tm4  1  0.188166  0.250127  0.782724  1
  Tm  Tm5  1  0.812623  0.750646  0.217778  1
  Tm  Tm6  1  0.309664  0.752553  0.283171  1
  Tm  Tm7  1  0.688735  0.249737  0.717459  1
  Lu  Lu8  1  0.023756  0.248843  0.509349  1
  Lu  Lu9  1  0.977597  0.752183  0.487808  1
  Lu  Lu10  1  0.476717  0.749611  0.010796  1
  Lu  Lu11  1  0.523574  0.250336  0.989473  1
  Lu  Lu12  1  0.192438  0.066825  0.060644  1
  Lu  Lu13  1  0.806966  0.932611  0.940775  1
  Lu  Lu14  1  0.306126  0.932826  0.559047  1
  Lu  Lu15  1  0.807496  0.567069  0.940459  1
  Lu  Lu16  1  0.695177  0.066536  0.440161  1
  Lu  Lu17  1  0.192686  0.433504  0.058945  1
  Lu  Lu18  1  0.693017  0.433398  0.440788  1
  Lu  Lu19  1  0.307216  0.566651  0.559482  1
  Bi  Bi20  1  0.404996  0.249634  0.543012  1
  Bi  Bi21  1  0.595604  0.750126  0.456676  1
  Bi  Bi22  1  0.096370  0.750062  0.042746  1
  Bi  Bi23  1  0.903797  0.249787  0.957289  1
  Bi  Bi24  1  0.935377  0.996100  0.675126  1
  Bi  Bi25  1  0.434895  0.996282  0.825708  1
  Bi  Bi26  1  0.934392  0.504097  0.673228  1
  Bi  Bi27  1  0.564216  0.003892  0.173852  1
  Bi  Bi28  1  0.065500  0.496996  0.326245  1
  Bi  Bi29  1  0.564902  0.496031  0.174781  1
  Bi  Bi30  1  0.434523  0.503819  0.825736  1
  Pb  Pb31  1  0.063345  0.003083  0.325308  1
