# generated using pymatgen
data_Li3Ho4Ti(B6Os)4
_symmetry_space_group_name_H-M   'P 1'
_cell_length_a   3.50568600
_cell_length_b   8.84330501
_cell_length_c   11.22180888
_cell_angle_alpha   89.97550773
_cell_angle_beta   90.00000000
_cell_angle_gamma   90.00000000
_symmetry_Int_Tables_number   1
_chemical_formula_structural   Li3Ho4Ti(B6Os)4
_chemical_formula_sum   'Li3 Ho4 Ti1 B24 Os4'
_cell_volume   347.89681017
_cell_formula_units_Z   1
loop_
 _symmetry_equiv_pos_site_id
 _symmetry_equiv_pos_as_xyz
  1  'x, y, z'
loop_
 _atom_site_type_symbol
 _atom_site_label
 _atom_site_symmetry_multiplicity
 _atom_site_fract_x
 _atom_site_fract_y
 _atom_site_fract_z
 _atom_site_occupancy
  Li  Li0  1  0.000000  0.942976  0.371743  1
  Li  Li1  1  0.000000  0.054928  0.625175  1
  Li  Li2  1  0.000000  0.443168  0.127988  1
  Ho  Ho3  1  0.000000  0.320483  0.410609  1
  Ho  Ho4  1  0.000000  0.681994  0.581996  1
  Ho  Ho5  1  0.000000  0.819933  0.089206  1
  Ho  Ho6  1  0.000000  0.180833  0.917444  1
  Ti  Ti7  1  0.000000  0.557338  0.870064  1
  B  B8  1  0.500000  0.554932  0.432134  1
  B  B9  1  0.500000  0.446032  0.567015  1
  B  B10  1  0.500000  0.054961  0.068110  1
  B  B11  1  0.500000  0.945417  0.933699  1
  B  B12  1  0.500000  0.759015  0.416738  1
  B  B13  1  0.500000  0.241701  0.583446  1
  B  B14  1  0.500000  0.257881  0.083365  1
  B  B15  1  0.500000  0.743332  0.919258  1
  B  B16  1  0.500000  0.793749  0.264150  1
  B  B17  1  0.500000  0.204785  0.737223  1
  B  B18  1  0.500000  0.293786  0.235935  1
  B  B19  1  0.500000  0.705754  0.763899  1
  B  B20  1  0.500000  0.625379  0.181925  1
  B  B21  1  0.500000  0.373249  0.819517  1
  B  B22  1  0.500000  0.125034  0.318842  1
  B  B23  1  0.500000  0.875979  0.680191  1
  B  B24  1  0.500000  0.978760  0.214841  1
  B  B25  1  0.500000  0.019882  0.786844  1
  B  B26  1  0.500000  0.478204  0.285738  1
  B  B27  1  0.500000  0.521221  0.714151  1
  B  B28  1  0.500000  0.594080  0.025250  1
  B  B29  1  0.500000  0.407165  0.974775  1
  B  B30  1  0.500000  0.093670  0.474722  1
  B  B31  1  0.500000  0.907908  0.524634  1
  Os  Os32  1  0.000000  0.638673  0.317371  1
  Os  Os33  1  0.000000  0.361745  0.682927  1
  Os  Os34  1  0.000000  0.138972  0.181908  1
  Os  Os35  1  0.000000  0.857081  0.817164  1
