# generated using pymatgen
data_Tm16MgCd3IrPt3
_symmetry_space_group_name_H-M   'P 1'
_cell_length_a   9.60563880
_cell_length_b   9.56663630
_cell_length_c   9.56663590
_cell_angle_alpha   59.55115199
_cell_angle_beta   59.88940400
_cell_angle_gamma   59.88939301
_symmetry_Int_Tables_number   1
_chemical_formula_structural   Tm16MgCd3IrPt3
_chemical_formula_sum   'Tm16 Mg1 Cd3 Ir1 Pt3'
_cell_volume   618.46015661
_cell_formula_units_Z   1
loop_
 _symmetry_equiv_pos_site_id
 _symmetry_equiv_pos_as_xyz
  1  'x, y, z'
loop_
 _atom_site_type_symbol
 _atom_site_label
 _atom_site_symmetry_multiplicity
 _atom_site_fract_x
 _atom_site_fract_y
 _atom_site_fract_z
 _atom_site_occupancy
  Tm  Tm0  1  0.601950  0.598030  0.598030  1
  Tm  Tm1  1  0.604514  0.599863  0.198615  1
  Tm  Tm2  1  0.604514  0.198615  0.599863  1
  Tm  Tm3  1  0.189786  0.604935  0.604935  1
  Tm  Tm4  1  0.056667  0.440893  0.440893  1
  Tm  Tm5  1  0.439473  0.060955  0.060955  1
  Tm  Tm6  1  0.443252  0.058223  0.440158  1
  Tm  Tm7  1  0.059709  0.437641  0.064440  1
  Tm  Tm8  1  0.443252  0.440158  0.058223  1
  Tm  Tm9  1  0.059709  0.064440  0.437641  1
  Tm  Tm10  1  0.186009  0.816219  0.816219  1
  Tm  Tm11  1  0.814874  0.187500  0.187500  1
  Tm  Tm12  1  0.818001  0.185243  0.814365  1
  Tm  Tm13  1  0.186880  0.813394  0.186803  1
  Tm  Tm14  1  0.818001  0.814365  0.185243  1
  Tm  Tm15  1  0.186880  0.186803  0.813394  1
  Mg  Mg16  1  0.825636  0.825890  0.825890  1
  Cd  Cd17  1  0.830655  0.831643  0.502553  1
  Cd  Cd18  1  0.830655  0.502553  0.831643  1
  Cd  Cd19  1  0.503969  0.830644  0.830644  1
  Ir  Ir20  1  0.824262  0.391626  0.391626  1
  Pt  Pt21  1  0.390935  0.395129  0.395129  1
  Pt  Pt22  1  0.390208  0.393422  0.821812  1
  Pt  Pt23  1  0.390208  0.821812  0.393422  1
