# generated using pymatgen
data_YErZr2(NiP)4
_symmetry_space_group_name_H-M   'P 1'
_cell_length_a   3.85765800
_cell_length_b   3.85765778
_cell_length_c   14.73990500
_cell_angle_alpha   90.00000000
_cell_angle_beta   90.00000000
_cell_angle_gamma   120.00001900
_symmetry_Int_Tables_number   1
_chemical_formula_structural   YErZr2(NiP)4
_chemical_formula_sum   'Y1 Er1 Zr2 Ni4 P4'
_cell_volume   189.96458975
_cell_formula_units_Z   1
loop_
 _symmetry_equiv_pos_site_id
 _symmetry_equiv_pos_as_xyz
  1  'x, y, z'
loop_
 _atom_site_type_symbol
 _atom_site_label
 _atom_site_symmetry_multiplicity
 _atom_site_fract_x
 _atom_site_fract_y
 _atom_site_fract_z
 _atom_site_occupancy
  Y  Y0  1  0.000000  0.000000  0.500000  1
  Er  Er1  1  0.000000  0.000000  0.000000  1
  Zr  Zr2  1  0.000000  0.000000  0.248959  1
  Zr  Zr3  1  0.000000  0.000000  0.751041  1
  Ni  Ni4  1  0.333333  0.666667  0.354459  1
  Ni  Ni5  1  0.666667  0.333333  0.645541  1
  Ni  Ni6  1  0.666667  0.333333  0.857094  1
  Ni  Ni7  1  0.333333  0.666667  0.142906  1
  P  P8  1  0.333333  0.666667  0.876182  1
  P  P9  1  0.666667  0.333333  0.123818  1
  P  P10  1  0.666667  0.333333  0.373556  1
  P  P11  1  0.333333  0.666667  0.626444  1
