# generated using pymatgen
data_Ho3Er5(Sc3Sn4)4
_symmetry_space_group_name_H-M   'P 1'
_cell_length_a   7.67171972
_cell_length_b   7.89879612
_cell_length_c   14.79789700
_cell_angle_alpha   90.00743508
_cell_angle_beta   89.90878043
_cell_angle_gamma   90.00647491
_symmetry_Int_Tables_number   1
_chemical_formula_structural   Ho3Er5(Sc3Sn4)4
_chemical_formula_sum   'Ho3 Er5 Sc12 Sn16'
_cell_volume   896.71219340
_cell_formula_units_Z   1
loop_
 _symmetry_equiv_pos_site_id
 _symmetry_equiv_pos_as_xyz
  1  'x, y, z'
loop_
 _atom_site_type_symbol
 _atom_site_label
 _atom_site_symmetry_multiplicity
 _atom_site_fract_x
 _atom_site_fract_y
 _atom_site_fract_z
 _atom_site_occupancy
  Ho  Ho0  1  0.988691  0.178265  0.406250  1
  Ho  Ho1  1  0.488548  0.322077  0.406228  1
  Ho  Ho2  1  0.511303  0.678041  0.593726  1
  Er  Er3  1  0.989098  0.177833  0.093747  1
  Er  Er4  1  0.010927  0.822264  0.906024  1
  Er  Er5  1  0.510731  0.677766  0.906182  1
  Er  Er6  1  0.010940  0.821990  0.593831  1
  Er  Er7  1  0.489204  0.322136  0.093727  1
  Sc  Sc8  1  0.174520  0.495067  0.749808  1
  Sc  Sc9  1  0.825551  0.504810  0.250259  1
  Sc  Sc10  1  0.325550  0.995039  0.250219  1
  Sc  Sc11  1  0.674625  0.004846  0.749837  1
  Sc  Sc12  1  0.345730  0.160545  0.626949  1
  Sc  Sc13  1  0.654084  0.839484  0.373146  1
  Sc  Sc14  1  0.154425  0.660301  0.373133  1
  Sc  Sc15  1  0.654974  0.839566  0.126974  1
  Sc  Sc16  1  0.845880  0.339559  0.626861  1
  Sc  Sc17  1  0.345139  0.160620  0.873022  1
  Sc  Sc18  1  0.844882  0.339233  0.873058  1
  Sc  Sc19  1  0.155015  0.660495  0.126988  1
  Sn  Sn20  1  0.038026  0.123573  0.750070  1
  Sn  Sn21  1  0.962234  0.876264  0.249952  1
  Sn  Sn22  1  0.462038  0.623671  0.249755  1
  Sn  Sn23  1  0.538095  0.376369  0.750094  1
  Sn  Sn24  1  0.315696  0.848647  0.750225  1
  Sn  Sn25  1  0.684156  0.151436  0.249708  1
  Sn  Sn26  1  0.184177  0.348704  0.249485  1
  Sn  Sn27  1  0.816246  0.651560  0.750220  1
  Sn  Sn28  1  0.187446  0.457198  0.542361  1
  Sn  Sn29  1  0.812573  0.543317  0.457798  1
  Sn  Sn30  1  0.312126  0.956705  0.457884  1
  Sn  Sn31  1  0.812683  0.542557  0.042066  1
  Sn  Sn32  1  0.687693  0.043184  0.542529  1
  Sn  Sn33  1  0.187326  0.457442  0.957656  1
  Sn  Sn34  1  0.687247  0.042567  0.957910  1
  Sn  Sn35  1  0.312422  0.956870  0.042319  1
