# generated using pymatgen
data_NdThB2Ir5
_symmetry_space_group_name_H-M   'P 1'
_cell_length_a   11.12266156
_cell_length_b   11.12266189
_cell_length_c   11.12266353
_cell_angle_alpha   28.92256348
_cell_angle_beta   28.92256106
_cell_angle_gamma   28.92256493
_symmetry_Int_Tables_number   1
_chemical_formula_structural   NdThB2Ir5
_chemical_formula_sum   'Nd2 Th2 B4 Ir10'
_cell_volume   284.63768250
_cell_formula_units_Z   2
loop_
 _symmetry_equiv_pos_site_id
 _symmetry_equiv_pos_as_xyz
  1  'x, y, z'
loop_
 _atom_site_type_symbol
 _atom_site_label
 _atom_site_symmetry_multiplicity
 _atom_site_fract_x
 _atom_site_fract_y
 _atom_site_fract_z
 _atom_site_occupancy
  Nd  Nd0  1  0.847111  0.847111  0.847111  1
  Nd  Nd1  1  0.050679  0.050679  0.050679  1
  Th  Th2  1  0.152303  0.152303  0.152303  1
  Th  Th3  1  0.949278  0.949278  0.949278  1
  B  B4  1  0.617852  0.617852  0.617852  1
  B  B5  1  0.717202  0.717202  0.717202  1
  B  B6  1  0.382688  0.382688  0.382688  1
  B  B7  1  0.283158  0.283158  0.283158  1
  Ir  Ir8  1  0.407921  0.898373  0.407921  1
  Ir  Ir9  1  0.898373  0.407921  0.407921  1
  Ir  Ir10  1  0.499925  0.499925  0.000160  1
  Ir  Ir11  1  0.499925  0.000160  0.499925  1
  Ir  Ir12  1  0.000160  0.499925  0.499925  1
  Ir  Ir13  1  0.500025  0.500025  0.500025  1
  Ir  Ir14  1  0.592124  0.101228  0.592124  1
  Ir  Ir15  1  0.592124  0.592124  0.101228  1
  Ir  Ir16  1  0.101228  0.592124  0.592124  1
  Ir  Ir17  1  0.407921  0.407921  0.898373  1
