# generated using pymatgen
data_Ti10CuSi(Sn2Sb)2
_symmetry_space_group_name_H-M   'P 1'
_cell_length_a   8.23692218
_cell_length_b   8.21361153
_cell_length_c   5.49709412
_cell_angle_alpha   89.94952605
_cell_angle_beta   90.10066921
_cell_angle_gamma   120.09393052
_symmetry_Int_Tables_number   1
_chemical_formula_structural   Ti10CuSi(Sn2Sb)2
_chemical_formula_sum   'Ti10 Cu1 Si1 Sn4 Sb2'
_cell_volume   321.77360392
_cell_formula_units_Z   1
loop_
 _symmetry_equiv_pos_site_id
 _symmetry_equiv_pos_as_xyz
  1  'x, y, z'
loop_
 _atom_site_type_symbol
 _atom_site_label
 _atom_site_symmetry_multiplicity
 _atom_site_fract_x
 _atom_site_fract_y
 _atom_site_fract_z
 _atom_site_occupancy
  Ti  Ti0  1  0.266073  0.000000  0.744437  1
  Ti  Ti1  1  0.733927  0.000000  0.255563  1
  Ti  Ti2  1  0.999381  0.262765  0.743662  1
  Ti  Ti3  1  0.000619  0.737235  0.256338  1
  Ti  Ti4  1  0.736615  0.737235  0.743662  1
  Ti  Ti5  1  0.263385  0.262765  0.256338  1
  Ti  Ti6  1  0.334786  0.669573  0.500000  1
  Ti  Ti7  1  0.665214  0.330427  0.500000  1
  Ti  Ti8  1  0.664911  0.329821  0.000000  1
  Ti  Ti9  1  0.335089  0.670179  0.000000  1
  Cu  Cu10  1  0.000000  0.000000  0.000000  1
  Si  Si11  1  0.000000  0.000000  0.500000  1
  Sn  Sn12  1  0.998441  0.610463  0.753822  1
  Sn  Sn13  1  0.001559  0.389537  0.246178  1
  Sn  Sn14  1  0.387978  0.389537  0.753822  1
  Sn  Sn15  1  0.612022  0.610463  0.246178  1
  Sb  Sb16  1  0.613526  0.000000  0.752926  1
  Sb  Sb17  1  0.386474  0.000000  0.247074  1
