# generated using pymatgen
data_Tm8Ta12Si15As
_symmetry_space_group_name_H-M   'P 1'
_cell_length_a   6.83039196
_cell_length_b   7.01623259
_cell_length_c   13.30689078
_cell_angle_alpha   90.05782807
_cell_angle_beta   89.74069264
_cell_angle_gamma   90.15832777
_symmetry_Int_Tables_number   1
_chemical_formula_structural   Tm8Ta12Si15As
_chemical_formula_sum   'Tm8 Ta12 Si15 As1'
_cell_volume   637.70507759
_cell_formula_units_Z   1
loop_
 _symmetry_equiv_pos_site_id
 _symmetry_equiv_pos_as_xyz
  1  'x, y, z'
loop_
 _atom_site_type_symbol
 _atom_site_label
 _atom_site_symmetry_multiplicity
 _atom_site_fract_x
 _atom_site_fract_y
 _atom_site_fract_z
 _atom_site_occupancy
  Tm  Tm0  1  0.003796  0.172305  0.094996  1
  Tm  Tm1  1  0.996352  0.827826  0.905084  1
  Tm  Tm2  1  0.497040  0.671483  0.904902  1
  Tm  Tm3  1  0.997927  0.826697  0.595275  1
  Tm  Tm4  1  0.503472  0.328282  0.095625  1
  Tm  Tm5  1  0.000866  0.174206  0.404861  1
  Tm  Tm6  1  0.502069  0.325224  0.402700  1
  Tm  Tm7  1  0.502453  0.674788  0.596857  1
  Ta  Ta8  1  0.161857  0.490918  0.751827  1
  Ta  Ta9  1  0.838857  0.508012  0.250032  1
  Ta  Ta10  1  0.339610  0.991815  0.250346  1
  Ta  Ta11  1  0.660374  0.008209  0.749646  1
  Ta  Ta12  1  0.339443  0.168524  0.626479  1
  Ta  Ta13  1  0.661523  0.828175  0.374181  1
  Ta  Ta14  1  0.161082  0.673690  0.373918  1
  Ta  Ta15  1  0.664383  0.826121  0.124935  1
  Ta  Ta16  1  0.836095  0.327955  0.624012  1
  Ta  Ta17  1  0.335120  0.173760  0.875053  1
  Ta  Ta18  1  0.835658  0.327047  0.874715  1
  Ta  Ta19  1  0.163673  0.673581  0.125445  1
  Si  Si20  1  0.037845  0.120610  0.749789  1
  Si  Si21  1  0.960519  0.879975  0.249593  1
  Si  Si22  1  0.460264  0.620132  0.249738  1
  Si  Si23  1  0.539908  0.379113  0.750156  1
  Si  Si24  1  0.293642  0.867969  0.751175  1
  Si  Si25  1  0.707211  0.130941  0.249088  1
  Si  Si26  1  0.206003  0.368436  0.249571  1
  Si  Si27  1  0.795029  0.631382  0.750519  1
  Si  Si28  1  0.822683  0.539166  0.456938  1
  Si  Si29  1  0.333641  0.963620  0.459173  1
  Si  Si30  1  0.835679  0.535338  0.041487  1
  Si  Si31  1  0.666424  0.036417  0.540274  1
  Si  Si32  1  0.163947  0.464779  0.958949  1
  Si  Si33  1  0.664280  0.035689  0.959263  1
  Si  Si34  1  0.335902  0.964996  0.041248  1
  As  As35  1  0.175374  0.462821  0.542149  1
