# generated using pymatgen
data_Ac2LaPa3N8
_symmetry_space_group_name_H-M   'P 1'
_cell_length_a   7.18831603
_cell_length_b   7.18825829
_cell_length_c   7.14006200
_cell_angle_alpha   120.21938474
_cell_angle_beta   90.00561933
_cell_angle_gamma   119.99707326
_symmetry_Int_Tables_number   1
_chemical_formula_structural   Ac2LaPa3N8
_chemical_formula_sum   'Ac2 La1 Pa3 N8'
_cell_volume   260.00845502
_cell_formula_units_Z   1
loop_
 _symmetry_equiv_pos_site_id
 _symmetry_equiv_pos_as_xyz
  1  'x, y, z'
loop_
 _atom_site_type_symbol
 _atom_site_label
 _atom_site_symmetry_multiplicity
 _atom_site_fract_x
 _atom_site_fract_y
 _atom_site_fract_z
 _atom_site_occupancy
  Ac  Ac0  1  0.994247  0.988502  0.982753  1
  Ac  Ac1  1  0.755754  0.511498  0.267247  1
  La  La2  1  0.375000  0.750000  0.125000  1
  Pa  Pa3  1  0.375000  0.750000  0.624999  1
  Pa  Pa4  1  0.375000  0.249999  0.624999  1
  Pa  Pa5  1  0.874999  0.249999  0.625000  1
  N  N6  1  0.619120  0.238278  0.421970  1
  N  N7  1  0.183692  0.802848  0.421964  1
  N  N8  1  0.619165  0.802854  0.422017  1
  N  N9  1  0.143992  0.288024  0.432013  1
  N  N10  1  0.606007  0.211977  0.817987  1
  N  N11  1  0.130835  0.697145  0.827981  1
  N  N12  1  0.130881  0.261723  0.828030  1
  N  N13  1  0.566308  0.697151  0.828036  1
