# generated using pymatgen
data_YNbCrB6
_symmetry_space_group_name_H-M   'P 1'
_cell_length_a   3.41680200
_cell_length_b   8.93898900
_cell_length_c   11.30941100
_cell_angle_alpha   90.00000000
_cell_angle_beta   90.00000000
_cell_angle_gamma   90.00000000
_symmetry_Int_Tables_number   1
_chemical_formula_structural   YNbCrB6
_chemical_formula_sum   'Y4 Nb4 Cr4 B24'
_cell_volume   345.42057494
_cell_formula_units_Z   4
loop_
 _symmetry_equiv_pos_site_id
 _symmetry_equiv_pos_as_xyz
  1  'x, y, z'
loop_
 _atom_site_type_symbol
 _atom_site_label
 _atom_site_symmetry_multiplicity
 _atom_site_fract_x
 _atom_site_fract_y
 _atom_site_fract_z
 _atom_site_occupancy
  Y  Y0  1  0.000000  0.822246  0.085917  1
  Y  Y1  1  0.000000  0.177754  0.914083  1
  Y  Y2  1  0.000000  0.322246  0.414083  1
  Y  Y3  1  0.000000  0.677754  0.585917  1
  Nb  Nb4  1  0.000000  0.444784  0.127859  1
  Nb  Nb5  1  0.000000  0.555216  0.872141  1
  Nb  Nb6  1  0.000000  0.944784  0.372141  1
  Nb  Nb7  1  0.000000  0.055216  0.627859  1
  Cr  Cr8  1  0.000000  0.143434  0.183527  1
  Cr  Cr9  1  0.000000  0.856566  0.816473  1
  Cr  Cr10  1  0.000000  0.643434  0.316473  1
  Cr  Cr11  1  0.000000  0.356566  0.683527  1
  B  B12  1  0.500000  0.054432  0.067682  1
  B  B13  1  0.500000  0.945568  0.932318  1
  B  B14  1  0.500000  0.554432  0.432318  1
  B  B15  1  0.500000  0.445568  0.567682  1
  B  B16  1  0.500000  0.253328  0.082784  1
  B  B17  1  0.500000  0.746672  0.917216  1
  B  B18  1  0.500000  0.753328  0.417216  1
  B  B19  1  0.500000  0.246672  0.582784  1
  B  B20  1  0.500000  0.296364  0.236125  1
  B  B21  1  0.500000  0.703636  0.763875  1
  B  B22  1  0.500000  0.796364  0.263875  1
  B  B23  1  0.500000  0.203636  0.736125  1
  B  B24  1  0.500000  0.129764  0.317255  1
  B  B25  1  0.500000  0.870236  0.682745  1
  B  B26  1  0.500000  0.629764  0.182745  1
  B  B27  1  0.500000  0.370236  0.817255  1
  B  B28  1  0.500000  0.482176  0.286662  1
  B  B29  1  0.500000  0.517824  0.713338  1
  B  B30  1  0.500000  0.982176  0.213338  1
  B  B31  1  0.500000  0.017824  0.786662  1
  B  B32  1  0.500000  0.099110  0.473792  1
  B  B33  1  0.500000  0.900890  0.526208  1
  B  B34  1  0.500000  0.599110  0.026208  1
  B  B35  1  0.500000  0.400890  0.973792  1
