# generated using pymatgen
data_ThGaPt3Au
_symmetry_space_group_name_H-M   'P 1'
_cell_length_a   5.54137963
_cell_length_b   5.54137947
_cell_length_c   5.27741895
_cell_angle_alpha   58.33119640
_cell_angle_beta   58.33119665
_cell_angle_gamma   60.00001240
_symmetry_Int_Tables_number   1
_chemical_formula_structural   ThGaPt3Au
_chemical_formula_sum   'Th1 Ga1 Pt3 Au1'
_cell_volume   111.61287688
_cell_formula_units_Z   1
loop_
 _symmetry_equiv_pos_site_id
 _symmetry_equiv_pos_as_xyz
  1  'x, y, z'
loop_
 _atom_site_type_symbol
 _atom_site_label
 _atom_site_symmetry_multiplicity
 _atom_site_fract_x
 _atom_site_fract_y
 _atom_site_fract_z
 _atom_site_occupancy
  Th  Th0  1  0.005275  0.005275  0.984174  1
  Ga  Ga1  1  0.620532  0.620532  0.138403  1
  Pt  Pt2  1  0.622259  0.124580  0.630901  1
  Pt  Pt3  1  0.124580  0.622259  0.630901  1
  Pt  Pt4  1  0.622259  0.622259  0.630901  1
  Au  Au5  1  0.255094  0.255094  0.234719  1
