# generated using pymatgen
data_LiMg5(NbIr2)6
_symmetry_space_group_name_H-M   'P 1'
_cell_length_a   4.25574800
_cell_length_b   6.90918800
_cell_length_c   12.73763800
_cell_angle_alpha   90.00000000
_cell_angle_beta   90.00079095
_cell_angle_gamma   90.00000000
_symmetry_Int_Tables_number   1
_chemical_formula_structural   LiMg5(NbIr2)6
_chemical_formula_sum   'Li1 Mg5 Nb6 Ir12'
_cell_volume   374.53448908
_cell_formula_units_Z   1
loop_
 _symmetry_equiv_pos_site_id
 _symmetry_equiv_pos_as_xyz
  1  'x, y, z'
loop_
 _atom_site_type_symbol
 _atom_site_label
 _atom_site_symmetry_multiplicity
 _atom_site_fract_x
 _atom_site_fract_y
 _atom_site_fract_z
 _atom_site_occupancy
  Li  Li0  1  0.500228  0.500001  0.833415  1
  Mg  Mg1  1  0.000006  0.000000  0.997371  1
  Mg  Mg2  1  0.499806  0.500001  0.165768  1
  Mg  Mg3  1  0.999790  0.000000  0.333279  1
  Mg  Mg4  1  0.499982  0.500001  0.500895  1
  Mg  Mg5  1  0.000182  0.000000  0.669309  1
  Nb  Nb6  1  0.999992  0.500001  0.995685  1
  Nb  Nb7  1  0.499835  0.000000  0.163200  1
  Nb  Nb8  1  0.999803  0.500001  0.333320  1
  Nb  Nb9  1  0.499995  0.000000  0.503422  1
  Nb  Nb10  1  0.000176  0.500001  0.671013  1
  Nb  Nb11  1  0.500178  0.000000  0.833357  1
  Ir  Ir12  1  0.500021  0.253586  0.997228  1
  Ir  Ir13  1  0.500021  0.746414  0.997228  1
  Ir  Ir14  1  0.999823  0.250365  0.165457  1
  Ir  Ir15  1  0.999823  0.749635  0.165457  1
  Ir  Ir16  1  0.499799  0.247217  0.333310  1
  Ir  Ir17  1  0.499799  0.752782  0.333310  1
  Ir  Ir18  1  0.999990  0.250356  0.501178  1
  Ir  Ir19  1  0.999990  0.749642  0.501178  1
  Ir  Ir20  1  0.500183  0.253588  0.669461  1
  Ir  Ir21  1  0.500183  0.746411  0.669461  1
  Ir  Ir22  1  0.000195  0.255425  0.833348  1
  Ir  Ir23  1  0.000195  0.744575  0.833348  1
