# generated using pymatgen
data_Be3Nb4Al4Ga
_symmetry_space_group_name_H-M   'P 1'
_cell_length_a   4.90865060
_cell_length_b   4.90864956
_cell_length_c   8.11923600
_cell_angle_alpha   90.00000000
_cell_angle_beta   90.00000000
_cell_angle_gamma   60.69949606
_symmetry_Int_Tables_number   1
_chemical_formula_structural   Be3Nb4Al4Ga
_chemical_formula_sum   'Be3 Nb4 Al4 Ga1'
_cell_volume   170.60358512
_cell_formula_units_Z   1
loop_
 _symmetry_equiv_pos_site_id
 _symmetry_equiv_pos_as_xyz
  1  'x, y, z'
loop_
 _atom_site_type_symbol
 _atom_site_label
 _atom_site_symmetry_multiplicity
 _atom_site_fract_x
 _atom_site_fract_y
 _atom_site_fract_z
 _atom_site_occupancy
  Be  Be0  1  0.833376  0.833375  0.750000  1
  Be  Be1  1  0.190305  0.644755  0.250000  1
  Be  Be2  1  0.644753  0.190307  0.250000  1
  Nb  Nb3  1  0.335392  0.335393  0.558586  1
  Nb  Nb4  1  0.663554  0.663554  0.435728  1
  Nb  Nb5  1  0.663554  0.663554  0.064272  1
  Nb  Nb6  1  0.335392  0.335393  0.941414  1
  Al  Al7  1  0.985786  0.985784  0.489027  1
  Al  Al8  1  0.985786  0.985784  0.010973  1
  Al  Al9  1  0.836104  0.346569  0.750000  1
  Al  Al10  1  0.346572  0.836101  0.750000  1
  Ga  Ga11  1  0.179427  0.179428  0.250000  1
