# generated using pymatgen
data_Ti11NbAl8(AuN)4
_symmetry_space_group_name_H-M   'P 1'
_cell_length_a   8.27188180
_cell_length_b   8.27174023
_cell_length_c   8.27473800
_cell_angle_alpha   59.98849685
_cell_angle_beta   59.98897899
_cell_angle_gamma   60.10841490
_symmetry_Int_Tables_number   1
_chemical_formula_structural   Ti11NbAl8(AuN)4
_chemical_formula_sum   'Ti11 Nb1 Al8 Au4 N4'
_cell_volume   400.60924233
_cell_formula_units_Z   1
loop_
 _symmetry_equiv_pos_site_id
 _symmetry_equiv_pos_as_xyz
  1  'x, y, z'
loop_
 _atom_site_type_symbol
 _atom_site_label
 _atom_site_symmetry_multiplicity
 _atom_site_fract_x
 _atom_site_fract_y
 _atom_site_fract_z
 _atom_site_occupancy
  Ti  Ti0  1  0.677461  0.323342  0.322029  1
  Ti  Ti1  1  0.323331  0.677439  0.677199  1
  Ti  Ti2  1  0.677820  0.677775  0.322202  1
  Ti  Ti3  1  0.677449  0.323353  0.677153  1
  Ti  Ti4  1  0.323338  0.677433  0.322040  1
  Ti  Ti5  1  0.573366  0.926176  0.571658  1
  Ti  Ti6  1  0.573353  0.926193  0.928813  1
  Ti  Ti7  1  0.926177  0.573346  0.571686  1
  Ti  Ti8  1  0.926167  0.573358  0.928782  1
  Ti  Ti9  1  0.322481  0.322500  0.677509  1
  Ti  Ti10  1  0.572048  0.571988  0.927983  1
  Nb  Nb11  1  0.927926  0.927922  0.572079  1
  Al  Al12  1  0.912497  0.260510  0.913497  1
  Al  Al13  1  0.336921  0.336923  0.990451  1
  Al  Al14  1  0.989609  0.335934  0.337226  1
  Al  Al15  1  0.336921  0.336920  0.335703  1
  Al  Al16  1  0.260477  0.912501  0.913511  1
  Al  Al17  1  0.913633  0.913624  0.915141  1
  Al  Al18  1  0.913633  0.913620  0.257606  1
  Al  Al19  1  0.335923  0.989635  0.337222  1
  Au  Au20  1  0.125163  0.624388  0.125217  1
  Au  Au21  1  0.126313  0.126441  0.625487  1
  Au  Au22  1  0.624417  0.125249  0.125163  1
  Au  Au23  1  0.126317  0.126442  0.121755  1
  N  N24  1  0.618061  0.129737  0.626106  1
  N  N25  1  0.624836  0.624633  0.124670  1
  N  N26  1  0.129529  0.617997  0.626245  1
  N  N27  1  0.624831  0.624622  0.625864  1
