# generated using pymatgen
data_Rb2Li2U3Se8
_symmetry_space_group_name_H-M   'P 1'
_cell_length_a   4.13502596
_cell_length_b   8.04641392
_cell_length_c   14.28800600
_cell_angle_alpha   94.26069204
_cell_angle_beta   98.19177767
_cell_angle_gamma   104.94385451
_symmetry_Int_Tables_number   1
_chemical_formula_structural   Rb2Li2U3Se8
_chemical_formula_sum   'Rb2 Li2 U3 Se8'
_cell_volume   451.55270450
_cell_formula_units_Z   1
loop_
 _symmetry_equiv_pos_site_id
 _symmetry_equiv_pos_as_xyz
  1  'x, y, z'
loop_
 _atom_site_type_symbol
 _atom_site_label
 _atom_site_symmetry_multiplicity
 _atom_site_fract_x
 _atom_site_fract_y
 _atom_site_fract_z
 _atom_site_occupancy
  Rb  Rb0  1  0.871450  0.544759  0.198080  1
  Rb  Rb1  1  0.128550  0.455241  0.801919  1
  Li  Li2  1  0.143858  0.094906  0.192567  1
  Li  Li3  1  0.856141  0.905095  0.807432  1
  U  U4  1  0.500000  0.000000  0.000000  1
  U  U5  1  0.723412  0.069670  0.381966  1
  U  U6  1  0.276587  0.930330  0.618033  1
  Se  Se7  1  0.144987  0.243783  0.044964  1
  Se  Se8  1  0.550638  0.910551  0.189666  1
  Se  Se9  1  0.319424  0.296665  0.343387  1
  Se  Se10  1  0.123428  0.832820  0.418959  1
  Se  Se11  1  0.876572  0.167181  0.581040  1
  Se  Se12  1  0.680577  0.703336  0.656614  1
  Se  Se13  1  0.449362  0.089449  0.810334  1
  Se  Se14  1  0.855012  0.756216  0.955035  1
