# generated using pymatgen
data_YPa(ZnRh)2
_symmetry_space_group_name_H-M   'P 1'
_cell_length_a   3.81926400
_cell_length_b   7.20282629
_cell_length_c   8.41587592
_cell_angle_alpha   91.65443079
_cell_angle_beta   90.00000000
_cell_angle_gamma   90.00000000
_symmetry_Int_Tables_number   1
_chemical_formula_structural   YPa(ZnRh)2
_chemical_formula_sum   'Y2 Pa2 Zn4 Rh4'
_cell_volume   231.41998741
_cell_formula_units_Z   2
loop_
 _symmetry_equiv_pos_site_id
 _symmetry_equiv_pos_as_xyz
  1  'x, y, z'
loop_
 _atom_site_type_symbol
 _atom_site_label
 _atom_site_symmetry_multiplicity
 _atom_site_fract_x
 _atom_site_fract_y
 _atom_site_fract_z
 _atom_site_occupancy
  Y  Y0  1  0.750000  0.941775  0.686432  1
  Y  Y1  1  0.250000  0.058225  0.313568  1
  Pa  Pa2  1  0.250000  0.554018  0.189971  1
  Pa  Pa3  1  0.750000  0.445982  0.810029  1
  Zn  Zn4  1  0.250000  0.630704  0.559483  1
  Zn  Zn5  1  0.750000  0.369296  0.440517  1
  Zn  Zn6  1  0.750000  0.883314  0.060339  1
  Zn  Zn7  1  0.250000  0.116686  0.939661  1
  Rh  Rh8  1  0.250000  0.713495  0.881321  1
  Rh  Rh9  1  0.750000  0.286505  0.118679  1
  Rh  Rh10  1  0.750000  0.745360  0.356548  1
  Rh  Rh11  1  0.250000  0.254640  0.643452  1
