# generated using pymatgen
data_TaTl2F7
_symmetry_space_group_name_H-M   'P 1'
_cell_length_a   5.87280600
_cell_length_b   9.91288800
_cell_length_c   11.88896100
_cell_angle_alpha   90.00000000
_cell_angle_beta   90.00000000
_cell_angle_gamma   90.00000000
_symmetry_Int_Tables_number   1
_chemical_formula_structural   TaTl2F7
_chemical_formula_sum   'Ta4 Tl8 F28'
_cell_volume   692.13331908
_cell_formula_units_Z   4
loop_
 _symmetry_equiv_pos_site_id
 _symmetry_equiv_pos_as_xyz
  1  'x, y, z'
loop_
 _atom_site_type_symbol
 _atom_site_label
 _atom_site_symmetry_multiplicity
 _atom_site_fract_x
 _atom_site_fract_y
 _atom_site_fract_z
 _atom_site_occupancy
  Ta  Ta0  1  0.250000  0.244200  0.869278  1
  Ta  Ta1  1  0.250000  0.744200  0.630722  1
  Ta  Ta2  1  0.750000  0.755800  0.130722  1
  Ta  Ta3  1  0.750000  0.255800  0.369278  1
  Tl  Tl4  1  0.750000  0.133943  0.047957  1
  Tl  Tl5  1  0.750000  0.633943  0.452043  1
  Tl  Tl6  1  0.250000  0.866057  0.952043  1
  Tl  Tl7  1  0.250000  0.366057  0.547957  1
  Tl  Tl8  1  0.250000  0.452167  0.164755  1
  Tl  Tl9  1  0.250000  0.952167  0.335245  1
  Tl  Tl10  1  0.750000  0.547833  0.835245  1
  Tl  Tl11  1  0.750000  0.047833  0.664755  1
  F  F12  1  0.032270  0.361369  0.949892  1
  F  F13  1  0.467730  0.861369  0.550108  1
  F  F14  1  0.532270  0.638631  0.050108  1
  F  F15  1  0.967730  0.138631  0.449892  1
  F  F16  1  0.967730  0.638631  0.050108  1
  F  F17  1  0.532270  0.138631  0.449892  1
  F  F18  1  0.467730  0.361369  0.949892  1
  F  F19  1  0.032270  0.861369  0.550108  1
  F  F20  1  0.033806  0.091907  0.850687  1
  F  F21  1  0.466194  0.591907  0.649313  1
  F  F22  1  0.533806  0.908093  0.149313  1
  F  F23  1  0.966194  0.408093  0.350687  1
  F  F24  1  0.966194  0.908093  0.149313  1
  F  F25  1  0.533806  0.408093  0.350687  1
  F  F26  1  0.466194  0.091907  0.850687  1
  F  F27  1  0.033806  0.591907  0.649313  1
  F  F28  1  0.043705  0.305470  0.748950  1
  F  F29  1  0.456295  0.805470  0.751050  1
  F  F30  1  0.543705  0.694530  0.251050  1
  F  F31  1  0.956295  0.194530  0.248950  1
  F  F32  1  0.956295  0.694530  0.251050  1
  F  F33  1  0.543705  0.194530  0.248950  1
  F  F34  1  0.456295  0.305470  0.748950  1
  F  F35  1  0.043705  0.805470  0.751050  1
  F  F36  1  0.250000  0.161409  0.022771  1
  F  F37  1  0.250000  0.661409  0.477229  1
  F  F38  1  0.750000  0.838591  0.977229  1
  F  F39  1  0.750000  0.338591  0.522771  1
