# generated using pymatgen
data_YEr(Re2Si)4
_symmetry_space_group_name_H-M   'P 1'
_cell_length_a   7.40778615
_cell_length_b   7.40778615
_cell_length_c   4.13428300
_cell_angle_alpha   90.00000000
_cell_angle_beta   90.00000000
_cell_angle_gamma   90.13516876
_symmetry_Int_Tables_number   1
_chemical_formula_structural   YEr(Re2Si)4
_chemical_formula_sum   'Y1 Er1 Re8 Si4'
_cell_volume   226.86937079
_cell_formula_units_Z   1
loop_
 _symmetry_equiv_pos_site_id
 _symmetry_equiv_pos_as_xyz
  1  'x, y, z'
loop_
 _atom_site_type_symbol
 _atom_site_label
 _atom_site_symmetry_multiplicity
 _atom_site_fract_x
 _atom_site_fract_y
 _atom_site_fract_z
 _atom_site_occupancy
  Y  Y0  1  0.000000  0.000000  0.500000  1
  Er  Er1  1  0.500000  0.500000  0.000000  1
  Re  Re2  1  0.657886  0.905504  0.000000  1
  Re  Re3  1  0.159396  0.592911  0.500000  1
  Re  Re4  1  0.094496  0.342114  0.000000  1
  Re  Re5  1  0.905504  0.657886  0.000000  1
  Re  Re6  1  0.407089  0.840604  0.500000  1
  Re  Re7  1  0.592911  0.159396  0.500000  1
  Re  Re8  1  0.342114  0.094496  0.000000  1
  Re  Re9  1  0.840604  0.407089  0.500000  1
  Si  Si10  1  0.209131  0.790869  0.000000  1
  Si  Si11  1  0.790869  0.209131  0.000000  1
  Si  Si12  1  0.708213  0.708213  0.500000  1
  Si  Si13  1  0.291787  0.291787  0.500000  1
