# generated using pymatgen
data_Zr6Zn21CoCu2
_symmetry_space_group_name_H-M   'P 1'
_cell_length_a   8.73194266
_cell_length_b   8.76822266
_cell_length_c   8.73195466
_cell_angle_alpha   59.86225486
_cell_angle_beta   60.08625917
_cell_angle_gamma   59.86219918
_symmetry_Int_Tables_number   1
_chemical_formula_structural   Zr6Zn21CoCu2
_chemical_formula_sum   'Zr6 Zn21 Co1 Cu2'
_cell_volume   472.05490290
_cell_formula_units_Z   1
loop_
 _symmetry_equiv_pos_site_id
 _symmetry_equiv_pos_as_xyz
  1  'x, y, z'
loop_
 _atom_site_type_symbol
 _atom_site_label
 _atom_site_symmetry_multiplicity
 _atom_site_fract_x
 _atom_site_fract_y
 _atom_site_fract_z
 _atom_site_occupancy
  Zr  Zr0  1  0.700794  0.300296  0.299207  1
  Zr  Zr1  1  0.299206  0.699704  0.700793  1
  Zr  Zr2  1  0.297677  0.702324  0.297676  1
  Zr  Zr3  1  0.702323  0.297676  0.702324  1
  Zr  Zr4  1  0.299207  0.300296  0.700794  1
  Zr  Zr5  1  0.700793  0.699704  0.299206  1
  Zn  Zn6  1  0.120211  0.119493  0.120211  1
  Zn  Zn7  1  0.879789  0.880507  0.879789  1
  Zn  Zn8  1  0.127774  0.116505  0.639218  1
  Zn  Zn9  1  0.120211  0.640086  0.120211  1
  Zn  Zn10  1  0.872226  0.883495  0.360782  1
  Zn  Zn11  1  0.879789  0.359914  0.879789  1
  Zn  Zn12  1  0.639219  0.116505  0.127773  1
  Zn  Zn13  1  0.360781  0.883495  0.872227  1
  Zn  Zn14  1  0.500000  0.000000  0.000000  1
  Zn  Zn15  1  0.000000  0.500000  0.500000  1
  Zn  Zn16  1  0.000000  0.500000  0.000000  1
  Zn  Zn17  1  0.000000  0.000000  0.500000  1
  Zn  Zn18  1  0.500000  0.500000  0.000000  1
  Zn  Zn19  1  0.334619  0.328005  0.334619  1
  Zn  Zn20  1  0.665381  0.671995  0.665381  1
  Zn  Zn21  1  0.332617  0.331094  0.005195  1
  Zn  Zn22  1  0.334619  0.002758  0.334619  1
  Zn  Zn23  1  0.667383  0.668906  0.994805  1
  Zn  Zn24  1  0.665381  0.997242  0.665381  1
  Zn  Zn25  1  0.005194  0.331095  0.332617  1
  Zn  Zn26  1  0.994806  0.668905  0.667383  1
  Co  Co27  1  0.500000  0.500000  0.500000  1
  Cu  Cu28  1  0.500000  0.000000  0.500000  1
  Cu  Cu29  1  0.000000  0.000000  0.000000  1
