# generated using pymatgen
data_DyTm3Al2(CdPt2)2
_symmetry_space_group_name_H-M   'P 1'
_cell_length_a   4.32931500
_cell_length_b   6.90151349
_cell_length_c   8.22069554
_cell_angle_alpha   91.98336967
_cell_angle_beta   90.00000000
_cell_angle_gamma   90.00000000
_symmetry_Int_Tables_number   1
_chemical_formula_structural   DyTm3Al2(CdPt2)2
_chemical_formula_sum   'Dy1 Tm3 Al2 Cd2 Pt4'
_cell_volume   245.47758065
_cell_formula_units_Z   1
loop_
 _symmetry_equiv_pos_site_id
 _symmetry_equiv_pos_as_xyz
  1  'x, y, z'
loop_
 _atom_site_type_symbol
 _atom_site_label
 _atom_site_symmetry_multiplicity
 _atom_site_fract_x
 _atom_site_fract_y
 _atom_site_fract_z
 _atom_site_occupancy
  Dy  Dy0  1  0.250000  0.962819  0.324448  1
  Tm  Tm1  1  0.250000  0.462767  0.184181  1
  Tm  Tm2  1  0.750000  0.536602  0.814922  1
  Tm  Tm3  1  0.750000  0.038901  0.676085  1
  Al  Al4  1  0.750000  0.638368  0.445435  1
  Al  Al5  1  0.250000  0.362446  0.555389  1
  Cd  Cd6  1  0.250000  0.857680  0.936285  1
  Cd  Cd7  1  0.750000  0.142336  0.063230  1
  Pt  Pt8  1  0.250000  0.733721  0.605205  1
  Pt  Pt9  1  0.750000  0.267544  0.396506  1
  Pt  Pt10  1  0.750000  0.732642  0.144176  1
  Pt  Pt11  1  0.250000  0.264174  0.854138  1
