# generated using pymatgen
data_Ac4CdInSi4
_symmetry_space_group_name_H-M   'P 1'
_cell_length_a   7.81532400
_cell_length_b   7.81532400
_cell_length_c   4.60028100
_cell_angle_alpha   90.00000000
_cell_angle_beta   90.00000000
_cell_angle_gamma   90.00000000
_symmetry_Int_Tables_number   1
_chemical_formula_structural   Ac4CdInSi4
_chemical_formula_sum   'Ac4 Cd1 In1 Si4'
_cell_volume   280.98189372
_cell_formula_units_Z   1
loop_
 _symmetry_equiv_pos_site_id
 _symmetry_equiv_pos_as_xyz
  1  'x, y, z'
loop_
 _atom_site_type_symbol
 _atom_site_label
 _atom_site_symmetry_multiplicity
 _atom_site_fract_x
 _atom_site_fract_y
 _atom_site_fract_z
 _atom_site_occupancy
  Ac  Ac0  1  0.317548  0.182120  0.500000  1
  Ac  Ac1  1  0.817879  0.317548  0.500000  1
  Ac  Ac2  1  0.182120  0.682451  0.500000  1
  Ac  Ac3  1  0.682451  0.817879  0.500000  1
  Cd  Cd4  1  0.500000  0.500000  0.000000  1
  In  In5  1  0.000000  0.000000  0.000000  1
  Si  Si6  1  0.607800  0.108933  0.000000  1
  Si  Si7  1  0.108933  0.392199  0.000000  1
  Si  Si8  1  0.891067  0.607800  0.000000  1
  Si  Si9  1  0.392199  0.891067  0.000000  1
