# generated using pymatgen
data_CaTh5(SnIr)6
_symmetry_space_group_name_H-M   'P 1'
_cell_length_a   7.55494813
_cell_length_b   7.57403614
_cell_length_c   8.25291600
_cell_angle_alpha   90.00000000
_cell_angle_beta   90.00000000
_cell_angle_gamma   119.88288473
_symmetry_Int_Tables_number   1
_chemical_formula_structural   CaTh5(SnIr)6
_chemical_formula_sum   'Ca1 Th5 Sn6 Ir6'
_cell_volume   409.45693582
_cell_formula_units_Z   1
loop_
 _symmetry_equiv_pos_site_id
 _symmetry_equiv_pos_as_xyz
  1  'x, y, z'
loop_
 _atom_site_type_symbol
 _atom_site_label
 _atom_site_symmetry_multiplicity
 _atom_site_fract_x
 _atom_site_fract_y
 _atom_site_fract_z
 _atom_site_occupancy
  Ca  Ca0  1  0.403984  0.999306  0.750000  1
  Th  Th1  1  0.412586  0.999833  0.250000  1
  Th  Th2  1  0.585678  0.586371  0.750000  1
  Th  Th3  1  0.590545  0.588173  0.250000  1
  Th  Th4  1  0.001307  0.411416  0.250000  1
  Th  Th5  1  0.999990  0.413814  0.750000  1
  Sn  Sn6  1  0.251600  0.244895  0.501949  1
  Sn  Sn7  1  0.251600  0.244895  0.998051  1
  Sn  Sn8  1  0.741451  0.000025  0.996644  1
  Sn  Sn9  1  0.006708  0.755179  0.502293  1
  Sn  Sn10  1  0.741451  0.000025  0.503356  1
  Sn  Sn11  1  0.006708  0.755179  0.997707  1
  Ir  Ir12  1  0.677847  0.344630  0.495448  1
  Ir  Ir13  1  0.677847  0.344630  0.004552  1
  Ir  Ir14  1  0.333271  0.655940  0.005815  1
  Ir  Ir15  1  0.333271  0.655940  0.494185  1
  Ir  Ir16  1  0.985764  0.000073  0.750000  1
  Ir  Ir17  1  0.998391  0.999672  0.250000  1
