# generated using pymatgen
data_Np2CrAsF24
_symmetry_space_group_name_H-M   'P 1'
_cell_length_a   5.21179153
_cell_length_b   8.91624900
_cell_length_c   9.86039400
_cell_angle_alpha   90.00000000
_cell_angle_beta   90.10959417
_cell_angle_gamma   90.00000000
_symmetry_Int_Tables_number   1
_chemical_formula_structural   Np2CrAsF24
_chemical_formula_sum   'Np2 Cr1 As1 F24'
_cell_volume   458.20803301
_cell_formula_units_Z   1
loop_
 _symmetry_equiv_pos_site_id
 _symmetry_equiv_pos_as_xyz
  1  'x, y, z'
loop_
 _atom_site_type_symbol
 _atom_site_label
 _atom_site_symmetry_multiplicity
 _atom_site_fract_x
 _atom_site_fract_y
 _atom_site_fract_z
 _atom_site_occupancy
  Np  Np0  1  0.407906  0.750000  0.127178  1
  Np  Np1  1  0.091259  0.750000  0.625945  1
  Cr  Cr2  1  0.592391  0.250000  0.872619  1
  As  As3  1  0.907253  0.250000  0.373074  1
  F  F4  1  0.255888  0.593270  0.512674  1
  F  F5  1  0.245871  0.907164  0.011991  1
  F  F6  1  0.932261  0.907197  0.742214  1
  F  F7  1  0.180077  0.250000  0.481233  1
  F  F8  1  0.734588  0.109981  0.973922  1
  F  F9  1  0.569274  0.906579  0.241199  1
  F  F10  1  0.322374  0.250000  0.979018  1
  F  F11  1  0.255888  0.906730  0.512674  1
  F  F12  1  0.764526  0.391337  0.475724  1
  F  F13  1  0.449040  0.389641  0.771361  1
  F  F14  1  0.734588  0.390019  0.973922  1
  F  F15  1  0.781519  0.750000  0.506096  1
  F  F16  1  0.716604  0.750000  0.006411  1
  F  F17  1  0.245871  0.592836  0.011991  1
  F  F18  1  0.449040  0.110359  0.771361  1
  F  F19  1  0.050011  0.391127  0.270708  1
  F  F20  1  0.633621  0.250000  0.265453  1
  F  F21  1  0.569274  0.593421  0.241199  1
  F  F22  1  0.863217  0.250000  0.767200  1
  F  F23  1  0.100108  0.750000  0.248022  1
  F  F24  1  0.050011  0.108873  0.270708  1
  F  F25  1  0.932261  0.592803  0.742214  1
  F  F26  1  0.400754  0.750000  0.748168  1
  F  F27  1  0.764526  0.108663  0.475724  1
