# generated using pymatgen
data_LiAl2Cl7
_symmetry_space_group_name_H-M   'P 1'
_cell_length_a   6.98663659
_cell_length_b   7.01461820
_cell_length_c   8.18984584
_cell_angle_alpha   58.91525086
_cell_angle_beta   84.29917807
_cell_angle_gamma   98.60892042
_symmetry_Int_Tables_number   1
_chemical_formula_structural   LiAl2Cl7
_chemical_formula_sum   'Li1 Al2 Cl7'
_cell_volume   332.38912839
_cell_formula_units_Z   1
loop_
 _symmetry_equiv_pos_site_id
 _symmetry_equiv_pos_as_xyz
  1  'x, y, z'
loop_
 _atom_site_type_symbol
 _atom_site_label
 _atom_site_symmetry_multiplicity
 _atom_site_fract_x
 _atom_site_fract_y
 _atom_site_fract_z
 _atom_site_occupancy
  Li  Li0  1  0.932188  0.040066  0.848736  1
  Al  Al1  1  0.453900  0.859528  0.903377  1
  Al  Al2  1  0.022419  0.582238  0.328003  1
  Cl  Cl3  1  0.299444  0.532451  0.193278  1
  Cl  Cl4  1  0.584947  0.107526  0.960302  1
  Cl  Cl5  1  0.238005  0.941716  0.725074  1
  Cl  Cl6  1  0.057954  0.465986  0.619808  1
  Cl  Cl7  1  0.038518  0.944307  0.160604  1
  Cl  Cl8  1  0.780220  0.381668  0.309809  1
  Cl  Cl9  1  0.695773  0.769319  0.798169  1
