# generated using pymatgen
data_KSn3Au
_symmetry_space_group_name_H-M   'P 1'
_cell_length_a   7.02435339
_cell_length_b   7.02435262
_cell_length_c   7.02435295
_cell_angle_alpha   139.21057873
_cell_angle_beta   139.21057393
_cell_angle_gamma   59.05391117
_symmetry_Int_Tables_number   1
_chemical_formula_structural   KSn3Au
_chemical_formula_sum   'K1 Sn3 Au1'
_cell_volume   146.49729601
_cell_formula_units_Z   1
loop_
 _symmetry_equiv_pos_site_id
 _symmetry_equiv_pos_as_xyz
  1  'x, y, z'
loop_
 _atom_site_type_symbol
 _atom_site_label
 _atom_site_symmetry_multiplicity
 _atom_site_fract_x
 _atom_site_fract_y
 _atom_site_fract_z
 _atom_site_occupancy
  K  K0  1  0.992561  0.992561  0.000000  1
  Sn  Sn1  1  0.597261  0.597261  0.000000  1
  Sn  Sn2  1  0.749086  0.249086  0.500000  1
  Sn  Sn3  1  0.249086  0.749086  0.500000  1
  Au  Au4  1  0.369896  0.369896  0.000000  1
