# generated using pymatgen
data_TmPa3(Pt2Pb)2
_symmetry_space_group_name_H-M   'P 1'
_cell_length_a   7.94506331
_cell_length_b   7.94506276
_cell_length_c   3.61786800
_cell_angle_alpha   90.00000000
_cell_angle_beta   90.00000000
_cell_angle_gamma   90.17381874
_symmetry_Int_Tables_number   1
_chemical_formula_structural   TmPa3(Pt2Pb)2
_chemical_formula_sum   'Tm1 Pa3 Pt4 Pb2'
_cell_volume   228.37334514
_cell_formula_units_Z   1
loop_
 _symmetry_equiv_pos_site_id
 _symmetry_equiv_pos_as_xyz
  1  'x, y, z'
loop_
 _atom_site_type_symbol
 _atom_site_label
 _atom_site_symmetry_multiplicity
 _atom_site_fract_x
 _atom_site_fract_y
 _atom_site_fract_z
 _atom_site_occupancy
  Tm  Tm0  1  0.827867  0.672133  0.500000  1
  Pa  Pa1  1  0.327965  0.827237  0.500000  1
  Pa  Pa2  1  0.672763  0.172035  0.500000  1
  Pa  Pa3  1  0.168955  0.331045  0.500000  1
  Pt  Pt4  1  0.876289  0.366856  0.000000  1
  Pt  Pt5  1  0.619361  0.880639  0.000000  1
  Pt  Pt6  1  0.368054  0.131946  0.000000  1
  Pt  Pt7  1  0.133144  0.623711  0.000000  1
  Pb  Pb8  1  0.509644  0.504044  0.000000  1
  Pb  Pb9  1  0.995956  0.990356  0.000000  1
