# generated using pymatgen
data_Ge(S8F)3
_symmetry_space_group_name_H-M   'P 1'
_cell_length_a   14.74243231
_cell_length_b   14.74243265
_cell_length_c   14.74242987
_cell_angle_alpha   118.61076093
_cell_angle_beta   118.61075809
_cell_angle_gamma   118.61076667
_symmetry_Int_Tables_number   1
_chemical_formula_structural   Ge(S8F)3
_chemical_formula_sum   'Ge1 S24 F3'
_cell_volume   974.39316507
_cell_formula_units_Z   1
loop_
 _symmetry_equiv_pos_site_id
 _symmetry_equiv_pos_as_xyz
  1  'x, y, z'
loop_
 _atom_site_type_symbol
 _atom_site_label
 _atom_site_symmetry_multiplicity
 _atom_site_fract_x
 _atom_site_fract_y
 _atom_site_fract_z
 _atom_site_occupancy
  Ge  Ge0  1  0.827659  0.827659  0.827659  1
  S  S1  1  0.807372  0.529353  0.529353  1
  S  S2  1  0.529353  0.529353  0.807372  1
  S  S3  1  0.529353  0.807372  0.529353  1
  S  S4  1  0.252218  0.384577  0.638315  1
  S  S5  1  0.345362  0.947954  0.345362  1
  S  S6  1  0.345362  0.345362  0.947954  1
  S  S7  1  0.947954  0.345362  0.345362  1
  S  S8  1  0.124098  0.738507  0.255704  1
  S  S9  1  0.255704  0.124098  0.738507  1
  S  S10  1  0.738507  0.255704  0.124098  1
  S  S11  1  0.738507  0.124098  0.255704  1
  S  S12  1  0.255704  0.738507  0.124098  1
  S  S13  1  0.124098  0.255704  0.738507  1
  S  S14  1  0.345885  0.878592  0.531860  1
  S  S15  1  0.531860  0.345885  0.878592  1
  S  S16  1  0.878592  0.531860  0.345885  1
  S  S17  1  0.878592  0.345885  0.531860  1
  S  S18  1  0.531860  0.878592  0.345885  1
  S  S19  1  0.345885  0.531860  0.878592  1
  S  S20  1  0.252218  0.638315  0.384577  1
  S  S21  1  0.384577  0.252218  0.638315  1
  S  S22  1  0.638315  0.384577  0.252218  1
  S  S23  1  0.638315  0.252218  0.384577  1
  S  S24  1  0.384577  0.638315  0.252218  1
  F  F25  1  0.890908  0.001231  0.001231  1
  F  F26  1  0.001231  0.001231  0.890908  1
  F  F27  1  0.001231  0.890908  0.001231  1
