# generated using pymatgen
data_NdAl2Pd5
_symmetry_space_group_name_H-M   'P 1'
_cell_length_a   4.20024705
_cell_length_b   4.20024724
_cell_length_c   8.11878607
_cell_angle_alpha   104.99142573
_cell_angle_beta   104.99142632
_cell_angle_gamma   89.99999560
_symmetry_Int_Tables_number   1
_chemical_formula_structural   NdAl2Pd5
_chemical_formula_sum   'Nd1 Al2 Pd5'
_cell_volume   133.30413326
_cell_formula_units_Z   1
loop_
 _symmetry_equiv_pos_site_id
 _symmetry_equiv_pos_as_xyz
  1  'x, y, z'
loop_
 _atom_site_type_symbol
 _atom_site_label
 _atom_site_symmetry_multiplicity
 _atom_site_fract_x
 _atom_site_fract_y
 _atom_site_fract_z
 _atom_site_occupancy
  Nd  Nd0  1  0.000000  0.000000  0.000000  1
  Al  Al1  1  0.746724  0.746724  0.493446  1
  Al  Al2  1  0.253277  0.253277  0.506554  1
  Pd  Pd3  1  0.500001  0.500001  0.000000  1
  Pd  Pd4  1  0.647333  0.147332  0.294665  1
  Pd  Pd5  1  0.147332  0.647333  0.294665  1
  Pd  Pd6  1  0.852668  0.352668  0.705336  1
  Pd  Pd7  1  0.352668  0.852668  0.705336  1
