# generated using pymatgen
data_Tb4Al2Os5W
_symmetry_space_group_name_H-M   'P 1'
_cell_length_a   5.31741338
_cell_length_b   5.35574785
_cell_length_c   8.93472400
_cell_angle_alpha   90.00000000
_cell_angle_beta   90.00000000
_cell_angle_gamma   118.00237776
_symmetry_Int_Tables_number   1
_chemical_formula_structural   Tb4Al2Os5W
_chemical_formula_sum   'Tb4 Al2 Os5 W1'
_cell_volume   224.66065998
_cell_formula_units_Z   1
loop_
 _symmetry_equiv_pos_site_id
 _symmetry_equiv_pos_as_xyz
  1  'x, y, z'
loop_
 _atom_site_type_symbol
 _atom_site_label
 _atom_site_symmetry_multiplicity
 _atom_site_fract_x
 _atom_site_fract_y
 _atom_site_fract_z
 _atom_site_occupancy
  Tb  Tb0  1  0.327437  0.670115  0.433966  1
  Tb  Tb1  1  0.661324  0.329379  0.557960  1
  Tb  Tb2  1  0.661324  0.329379  0.942040  1
  Tb  Tb3  1  0.327437  0.670115  0.066034  1
  Al  Al4  1  0.183286  0.840303  0.750000  1
  Al  Al5  1  0.178767  0.341558  0.750000  1
  Os  Os6  1  0.982535  0.003155  0.506013  1
  Os  Os7  1  0.982535  0.003155  0.993987  1
  Os  Os8  1  0.827363  0.651564  0.250000  1
  Os  Os9  1  0.351983  0.172843  0.250000  1
  Os  Os10  1  0.673750  0.828317  0.750000  1
  W  W11  1  0.842260  0.160115  0.250000  1
