# generated using pymatgen
data_Ho6Al24Os7Pt
_symmetry_space_group_name_H-M   'P 1'
_cell_length_a   8.80629900
_cell_length_b   8.81978078
_cell_length_c   9.57233297
_cell_angle_alpha   90.19982106
_cell_angle_beta   90.00000000
_cell_angle_gamma   119.94945145
_symmetry_Int_Tables_number   1
_chemical_formula_structural   Ho6Al24Os7Pt
_chemical_formula_sum   'Ho6 Al24 Os7 Pt1'
_cell_volume   644.19465255
_cell_formula_units_Z   1
loop_
 _symmetry_equiv_pos_site_id
 _symmetry_equiv_pos_as_xyz
  1  'x, y, z'
loop_
 _atom_site_type_symbol
 _atom_site_label
 _atom_site_symmetry_multiplicity
 _atom_site_fract_x
 _atom_site_fract_y
 _atom_site_fract_z
 _atom_site_occupancy
  Ho  Ho0  1  0.194495  0.388991  0.251670  1
  Ho  Ho1  1  0.805505  0.611009  0.748330  1
  Ho  Ho2  1  0.613854  0.805419  0.251455  1
  Ho  Ho3  1  0.386146  0.194581  0.748545  1
  Ho  Ho4  1  0.191565  0.805419  0.251455  1
  Ho  Ho5  1  0.808435  0.194581  0.748545  1
  Al  Al6  1  0.331290  0.662580  0.021319  1
  Al  Al7  1  0.668710  0.337420  0.978681  1
  Al  Al8  1  0.666374  0.332748  0.520137  1
  Al  Al9  1  0.333626  0.667252  0.479863  1
  Al  Al10  1  0.163911  0.327823  0.575882  1
  Al  Al11  1  0.836089  0.672177  0.424118  1
  Al  Al12  1  0.672720  0.836597  0.575656  1
  Al  Al13  1  0.836581  0.673162  0.076882  1
  Al  Al14  1  0.327280  0.163403  0.424344  1
  Al  Al15  1  0.163419  0.326838  0.923118  1
  Al  Al16  1  0.163877  0.836597  0.575656  1
  Al  Al17  1  0.325808  0.167990  0.077452  1
  Al  Al18  1  0.836123  0.163403  0.424344  1
  Al  Al19  1  0.674192  0.832010  0.922548  1
  Al  Al20  1  0.842182  0.167990  0.077452  1
  Al  Al21  1  0.157818  0.832010  0.922548  1
  Al  Al22  1  0.561981  0.123962  0.252304  1
  Al  Al23  1  0.438019  0.876038  0.747696  1
  Al  Al24  1  0.876967  0.438768  0.249626  1
  Al  Al25  1  0.123033  0.561232  0.750374  1
  Al  Al26  1  0.561800  0.438768  0.249626  1
  Al  Al27  1  0.438200  0.561232  0.750374  1
  Al  Al28  1  0.999859  0.999717  0.250117  1
  Al  Al29  1  0.000141  0.000283  0.749883  1
  Os  Os30  1  0.000000  0.500000  0.000000  1
  Os  Os31  1  0.500000  0.000000  0.500000  1
  Os  Os32  1  0.500000  0.500000  0.000000  1
  Os  Os33  1  0.000000  0.500000  0.500000  1
  Os  Os34  1  0.500000  0.500000  0.500000  1
  Os  Os35  1  0.000000  0.000000  0.000000  1
  Os  Os36  1  0.000000  0.000000  0.500000  1
  Pt  Pt37  1  0.500000  0.000000  0.000000  1
