# generated using pymatgen
data_GdLu(ThH5)6
_symmetry_space_group_name_H-M   'P 1'
_cell_length_a   7.81964481
_cell_length_b   7.81818554
_cell_length_c   7.77077723
_cell_angle_alpha   109.40465553
_cell_angle_beta   109.40737464
_cell_angle_gamma   109.69418584
_symmetry_Int_Tables_number   1
_chemical_formula_structural   GdLu(ThH5)6
_chemical_formula_sum   'Gd1 Lu1 Th6 H30'
_cell_volume   365.28829581
_cell_formula_units_Z   1
loop_
 _symmetry_equiv_pos_site_id
 _symmetry_equiv_pos_as_xyz
  1  'x, y, z'
loop_
 _atom_site_type_symbol
 _atom_site_label
 _atom_site_symmetry_multiplicity
 _atom_site_fract_x
 _atom_site_fract_y
 _atom_site_fract_z
 _atom_site_occupancy
  Gd  Gd0  1  0.916144  0.917015  0.917147  1
  Lu  Lu1  1  0.499075  0.999486  0.086324  1
  Th  Th2  1  0.991667  0.079148  0.493445  1
  Th  Th3  1  0.086953  0.507219  0.001725  1
  Th  Th4  1  0.999445  0.584731  0.504713  1
  Th  Th5  1  0.583792  0.502995  0.998835  1
  Th  Th6  1  0.503725  0.998732  0.588968  1
  Th  Th7  1  0.417855  0.409859  0.411824  1
  H  H8  1  0.648354  0.963199  0.366738  1
  H  H9  1  0.216985  0.316401  0.845257  1
  H  H10  1  0.186756  0.402804  0.534165  1
  H  H11  1  0.098424  0.283008  0.126227  1
  H  H12  1  0.287298  0.121277  0.093544  1
  H  H13  1  0.125783  0.094311  0.278712  1
  H  H14  1  0.473303  0.154832  0.878452  1
  H  H15  1  0.719204  0.351048  0.812870  1
  H  H16  1  0.627689  0.378707  0.250195  1
  H  H17  1  0.251159  0.624157  0.377492  1
  H  H18  1  0.747308  0.872171  0.125678  1
  H  H19  1  0.125379  0.747904  0.874307  1
  H  H20  1  0.373377  0.246295  0.622939  1
  H  H21  1  0.875984  0.129936  0.749130  1
  H  H22  1  0.780483  0.592284  0.629660  1
  H  H23  1  0.319330  0.851020  0.220802  1
  H  H24  1  0.375332  0.663144  0.968201  1
  H  H25  1  0.962337  0.367943  0.650540  1
  H  H26  1  0.537686  0.184066  0.403639  1
  H  H27  1  0.406379  0.538457  0.187289  1
  H  H28  1  0.835477  0.214549  0.308523  1
  H  H29  1  0.906137  0.689633  0.034979  1
  H  H30  1  0.811577  0.716926  0.349073  1
  H  H31  1  0.151944  0.868745  0.465251  1
  H  H32  1  0.684055  0.029078  0.908376  1
  H  H33  1  0.348353  0.819173  0.727935  1
  H  H34  1  0.871958  0.470811  0.153973  1
  H  H35  1  0.629715  0.778374  0.591722  1
  H  H36  1  0.593986  0.625703  0.776727  1
  H  H37  1  0.029594  0.904851  0.684625  1
