# generated using pymatgen
data_Ta4NbAl(B2Ru5)2
_symmetry_space_group_name_H-M   'P 1'
_cell_length_a   3.01805900
_cell_length_b   9.37057544
_cell_length_c   9.37118844
_cell_angle_alpha   90.03518743
_cell_angle_beta   90.00000000
_cell_angle_gamma   90.00000000
_symmetry_Int_Tables_number   1
_chemical_formula_structural   Ta4NbAl(B2Ru5)2
_chemical_formula_sum   'Ta4 Nb1 Al1 B4 Ru10'
_cell_volume   265.02605754
_cell_formula_units_Z   1
loop_
 _symmetry_equiv_pos_site_id
 _symmetry_equiv_pos_as_xyz
  1  'x, y, z'
loop_
 _atom_site_type_symbol
 _atom_site_label
 _atom_site_symmetry_multiplicity
 _atom_site_fract_x
 _atom_site_fract_y
 _atom_site_fract_z
 _atom_site_occupancy
  Ta  Ta0  1  0.000000  0.325731  0.180951  1
  Ta  Ta1  1  0.000000  0.819118  0.325756  1
  Ta  Ta2  1  0.000000  0.180839  0.674251  1
  Ta  Ta3  1  0.000000  0.999967  0.999915  1
  Nb  Nb4  1  0.000000  0.674280  0.819346  1
  Al  Al5  1  0.000000  0.500072  0.500067  1
  B  B6  1  0.000000  0.870410  0.616422  1
  B  B7  1  0.000000  0.129499  0.383654  1
  B  B8  1  0.000000  0.616282  0.129389  1
  B  B9  1  0.000000  0.383731  0.870511  1
  Ru  Ru10  1  0.500000  0.714633  0.567799  1
  Ru  Ru11  1  0.500000  0.285620  0.431317  1
  Ru  Ru12  1  0.500000  0.780508  0.072199  1
  Ru  Ru13  1  0.500000  0.219493  0.928487  1
  Ru  Ru14  1  0.500000  0.568581  0.285697  1
  Ru  Ru15  1  0.500000  0.430711  0.714197  1
  Ru  Ru16  1  0.500000  0.071625  0.219513  1
  Ru  Ru17  1  0.500000  0.929330  0.780123  1
  Ru  Ru18  1  0.500000  0.000108  0.499866  1
  Ru  Ru19  1  0.500000  0.499460  0.000540  1
