# generated using pymatgen
data_K11Cd2Bi5
_symmetry_space_group_name_H-M   'P 1'
_cell_length_a   10.30126658
_cell_length_b   12.44588606
_cell_length_c   13.31849400
_cell_angle_alpha   103.56300241
_cell_angle_beta   97.18618620
_cell_angle_gamma   107.61781755
_symmetry_Int_Tables_number   1
_chemical_formula_structural   K11Cd2Bi5
_chemical_formula_sum   'K22 Cd4 Bi10'
_cell_volume   1546.23558805
_cell_formula_units_Z   2
loop_
 _symmetry_equiv_pos_site_id
 _symmetry_equiv_pos_as_xyz
  1  'x, y, z'
loop_
 _atom_site_type_symbol
 _atom_site_label
 _atom_site_symmetry_multiplicity
 _atom_site_fract_x
 _atom_site_fract_y
 _atom_site_fract_z
 _atom_site_occupancy
  K  K0  1  0.857821  0.573871  0.962362  1
  K  K1  1  0.142179  0.426129  0.037638  1
  K  K2  1  0.303890  0.893584  0.776105  1
  K  K3  1  0.696110  0.106416  0.223895  1
  K  K4  1  0.632627  0.166141  0.530808  1
  K  K5  1  0.367373  0.833859  0.469192  1
  K  K6  1  0.635651  0.674185  0.561009  1
  K  K7  1  0.364349  0.325815  0.438991  1
  K  K8  1  0.202458  0.557523  0.571215  1
  K  K9  1  0.797542  0.442477  0.428785  1
  K  K10  1  0.049495  0.705792  0.269285  1
  K  K11  1  0.950505  0.294208  0.730715  1
  K  K12  1  0.201699  0.078865  0.570503  1
  K  K13  1  0.798301  0.921135  0.429497  1
  K  K14  1  0.876668  0.094856  0.982731  1
  K  K15  1  0.123332  0.905144  0.017269  1
  K  K16  1  0.586754  0.226991  0.863791  1
  K  K17  1  0.413246  0.773009  0.136209  1
  K  K18  1  0.392267  0.247366  0.140824  1
  K  K19  1  0.607733  0.752634  0.859176  1
  K  K20  1  0.349808  0.412046  0.790336  1
  K  K21  1  0.650192  0.587954  0.209664  1
  Cd  Cd22  1  0.946190  0.958388  0.718241  1
  Cd  Cd23  1  0.053810  0.041612  0.281759  1
  Cd  Cd24  1  0.946354  0.624488  0.714932  1
  Cd  Cd25  1  0.053646  0.375512  0.285068  1
  Bi  Bi26  1  0.001346  0.765091  0.554094  1
  Bi  Bi27  1  0.998654  0.234909  0.445906  1
  Bi  Bi28  1  0.659249  0.455278  0.692097  1
  Bi  Bi29  1  0.340751  0.544722  0.307903  1
  Bi  Bi30  1  0.661343  0.973483  0.699932  1
  Bi  Bi31  1  0.338657  0.026517  0.300068  1
  Bi  Bi32  1  0.193308  0.149267  0.866562  1
  Bi  Bi33  1  0.806692  0.850733  0.133438  1
  Bi  Bi34  1  0.191138  0.631445  0.866048  1
  Bi  Bi35  1  0.808862  0.368555  0.133952  1
