# generated using pymatgen
data_Th5CoBiSb2
_symmetry_space_group_name_H-M   'P 1'
_cell_length_a   6.50497600
_cell_length_b   9.55922085
_cell_length_c   9.55922189
_cell_angle_alpha   121.03229938
_cell_angle_beta   90.00000000
_cell_angle_gamma   90.00000000
_symmetry_Int_Tables_number   1
_chemical_formula_structural   Th5CoBiSb2
_chemical_formula_sum   'Th10 Co2 Bi2 Sb4'
_cell_volume   509.34158091
_cell_formula_units_Z   2
loop_
 _symmetry_equiv_pos_site_id
 _symmetry_equiv_pos_as_xyz
  1  'x, y, z'
loop_
 _atom_site_type_symbol
 _atom_site_label
 _atom_site_symmetry_multiplicity
 _atom_site_fract_x
 _atom_site_fract_y
 _atom_site_fract_z
 _atom_site_occupancy
  Th  Th0  1  0.750000  0.777231  0.777231  1
  Th  Th1  1  0.250000  0.222769  0.222769  1
  Th  Th2  1  0.750000  0.995756  0.247675  1
  Th  Th3  1  0.250000  0.004244  0.752325  1
  Th  Th4  1  0.750000  0.247675  0.995756  1
  Th  Th5  1  0.250000  0.752325  0.004244  1
  Th  Th6  1  0.000000  0.669458  0.330542  1
  Th  Th7  1  0.000000  0.330542  0.669458  1
  Th  Th8  1  0.500000  0.330542  0.669458  1
  Th  Th9  1  0.500000  0.669458  0.330542  1
  Co  Co10  1  0.000000  0.000000  0.000000  1
  Co  Co11  1  0.500000  0.000000  0.000000  1
  Bi  Bi12  1  0.750000  0.397129  0.397129  1
  Bi  Bi13  1  0.250000  0.602871  0.602871  1
  Sb  Sb14  1  0.750000  0.999285  0.607497  1
  Sb  Sb15  1  0.250000  0.000715  0.392503  1
  Sb  Sb16  1  0.750000  0.607497  0.999285  1
  Sb  Sb17  1  0.250000  0.392503  0.000715  1
