# generated using pymatgen
data_Sm5Te2Br3O10
_symmetry_space_group_name_H-M   'P 1'
_cell_length_a   5.66448202
_cell_length_b   6.87654985
_cell_length_c   10.20005500
_cell_angle_alpha   89.53346652
_cell_angle_beta   89.99577196
_cell_angle_gamma   114.32529718
_symmetry_Int_Tables_number   1
_chemical_formula_structural   Sm5Te2Br3O10
_chemical_formula_sum   'Sm5 Te2 Br3 O10'
_cell_volume   362.02602973
_cell_formula_units_Z   1
loop_
 _symmetry_equiv_pos_site_id
 _symmetry_equiv_pos_as_xyz
  1  'x, y, z'
loop_
 _atom_site_type_symbol
 _atom_site_label
 _atom_site_symmetry_multiplicity
 _atom_site_fract_x
 _atom_site_fract_y
 _atom_site_fract_z
 _atom_site_occupancy
  Sm  Sm0  1  0.500000  0.000000  0.000000  1
  Sm  Sm1  1  0.791098  0.582211  0.101210  1
  Sm  Sm2  1  0.098963  0.197932  0.224132  1
  Sm  Sm3  1  0.901036  0.802068  0.775869  1
  Sm  Sm4  1  0.208901  0.417789  0.898790  1
  Te  Te5  1  0.412681  0.825459  0.325287  1
  Te  Te6  1  0.587317  0.174540  0.674712  1
  Br  Br7  1  0.668292  0.336545  0.360616  1
  Br  Br8  1  0.000001  0.000000  0.500000  1
  Br  Br9  1  0.331708  0.663454  0.639383  1
  O  O10  1  0.393769  0.290895  0.057415  1
  O  O11  1  0.897183  0.290901  0.057424  1
  O  O12  1  0.202041  0.891662  0.198697  1
  O  O13  1  0.689586  0.891609  0.198686  1
  O  O14  1  0.269560  0.539344  0.281135  1
  O  O15  1  0.730441  0.460656  0.718864  1
  O  O16  1  0.310413  0.108391  0.801314  1
  O  O17  1  0.797958  0.108338  0.801303  1
  O  O18  1  0.102816  0.709098  0.942576  1
  O  O19  1  0.606231  0.709104  0.942584  1
