# generated using pymatgen
data_Ho2Er4TcSb2
_symmetry_space_group_name_H-M   'P 1'
_cell_length_a   8.11301103
_cell_length_b   8.11301018
_cell_length_c   4.23715500
_cell_angle_alpha   90.00000000
_cell_angle_beta   90.00000000
_cell_angle_gamma   120.00926409
_symmetry_Int_Tables_number   1
_chemical_formula_structural   Ho2Er4TcSb2
_chemical_formula_sum   'Ho2 Er4 Tc1 Sb2'
_cell_volume   241.50633124
_cell_formula_units_Z   1
loop_
 _symmetry_equiv_pos_site_id
 _symmetry_equiv_pos_as_xyz
  1  'x, y, z'
loop_
 _atom_site_type_symbol
 _atom_site_label
 _atom_site_symmetry_multiplicity
 _atom_site_fract_x
 _atom_site_fract_y
 _atom_site_fract_z
 _atom_site_occupancy
  Ho  Ho0  1  0.603132  0.999962  0.000000  1
  Ho  Ho1  1  0.999962  0.603132  0.000000  1
  Er  Er2  1  0.235665  0.000181  0.500000  1
  Er  Er3  1  0.000181  0.235665  0.500000  1
  Er  Er4  1  0.764389  0.764389  0.500000  1
  Er  Er5  1  0.396503  0.396503  0.000000  1
  Tc  Tc6  1  0.000413  0.000413  0.000000  1
  Sb  Sb7  1  0.333331  0.666424  0.500000  1
  Sb  Sb8  1  0.666424  0.333331  0.500000  1
