# generated using pymatgen
data_Ce2HoMn2In3
_symmetry_space_group_name_H-M   'P 1'
_cell_length_a   8.19220997
_cell_length_b   8.19221031
_cell_length_c   4.82427400
_cell_angle_alpha   82.80083331
_cell_angle_beta   82.80084006
_cell_angle_gamma   34.38663241
_symmetry_Int_Tables_number   1
_chemical_formula_structural   Ce2HoMn2In3
_chemical_formula_sum   'Ce2 Ho1 Mn2 In3'
_cell_volume   181.27583527
_cell_formula_units_Z   1
loop_
 _symmetry_equiv_pos_site_id
 _symmetry_equiv_pos_as_xyz
  1  'x, y, z'
loop_
 _atom_site_type_symbol
 _atom_site_label
 _atom_site_symmetry_multiplicity
 _atom_site_fract_x
 _atom_site_fract_y
 _atom_site_fract_z
 _atom_site_occupancy
  Ce  Ce0  1  0.825849  0.825849  0.553059  1
  Ce  Ce1  1  0.174151  0.174151  0.446941  1
  Ho  Ho2  1  0.000000  0.000000  0.000000  1
  Mn  Mn3  1  0.795922  0.795922  0.132049  1
  Mn  Mn4  1  0.204078  0.204078  0.867951  1
  In  In5  1  0.365269  0.365269  0.031168  1
  In  In6  1  0.500000  0.500000  0.500000  1
  In  In7  1  0.634731  0.634731  0.968832  1
