# generated using pymatgen
data_La2Dy2As7Ir8
_symmetry_space_group_name_H-M   'P 1'
_cell_length_a   4.12384100
_cell_length_b   13.22709868
_cell_length_c   13.60537876
_cell_angle_alpha   81.97369343
_cell_angle_beta   90.00000000
_cell_angle_gamma   90.00000000
_symmetry_Int_Tables_number   1
_chemical_formula_structural   La2Dy2As7Ir8
_chemical_formula_sum   'La4 Dy4 As14 Ir16'
_cell_volume   734.85532737
_cell_formula_units_Z   2
loop_
 _symmetry_equiv_pos_site_id
 _symmetry_equiv_pos_as_xyz
  1  'x, y, z'
loop_
 _atom_site_type_symbol
 _atom_site_label
 _atom_site_symmetry_multiplicity
 _atom_site_fract_x
 _atom_site_fract_y
 _atom_site_fract_z
 _atom_site_occupancy
  La  La0  1  0.250000  0.101683  0.791796  1
  La  La1  1  0.750000  0.898317  0.208204  1
  La  La2  1  0.250000  0.287061  0.103360  1
  La  La3  1  0.750000  0.712939  0.896640  1
  Dy  Dy4  1  0.250000  0.520978  0.293835  1
  Dy  Dy5  1  0.750000  0.479022  0.706165  1
  Dy  Dy6  1  0.250000  0.207322  0.440032  1
  Dy  Dy7  1  0.750000  0.792678  0.559968  1
  As  As8  1  0.250000  0.057827  0.100741  1
  As  As9  1  0.750000  0.942173  0.899259  1
  As  As10  1  0.250000  0.314652  0.685840  1
  As  As11  1  0.750000  0.685348  0.314160  1
  As  As12  1  0.250000  0.607122  0.568913  1
  As  As13  1  0.750000  0.392878  0.431087  1
  As  As14  1  0.250000  0.845844  0.717158  1
  As  As15  1  0.750000  0.154156  0.282842  1
  As  As16  1  0.750000  0.255993  0.916958  1
  As  As17  1  0.250000  0.744007  0.083042  1
  As  As18  1  0.750000  0.097290  0.585542  1
  As  As19  1  0.250000  0.902710  0.414458  1
  As  As20  1  0.750000  0.471213  0.129948  1
  As  As21  1  0.250000  0.528787  0.870052  1
  Ir  Ir22  1  0.250000  0.989499  0.573210  1
  Ir  Ir23  1  0.750000  0.010501  0.426790  1
  Ir  Ir24  1  0.250000  0.663320  0.730875  1
  Ir  Ir25  1  0.750000  0.336680  0.269125  1
  Ir  Ir26  1  0.250000  0.554514  0.047062  1
  Ir  Ir27  1  0.750000  0.445486  0.952938  1
  Ir  Ir28  1  0.250000  0.055575  0.280774  1
  Ir  Ir29  1  0.750000  0.944425  0.719226  1
  Ir  Ir30  1  0.250000  0.425358  0.522221  1
  Ir  Ir31  1  0.750000  0.574642  0.477779  1
  Ir  Ir32  1  0.250000  0.919402  0.997538  1
  Ir  Ir33  1  0.750000  0.080598  0.002462  1
  Ir  Ir34  1  0.250000  0.720763  0.404387  1
  Ir  Ir35  1  0.750000  0.279237  0.595613  1
  Ir  Ir36  1  0.250000  0.345626  0.857697  1
  Ir  Ir37  1  0.750000  0.654374  0.142303  1
