# generated using pymatgen
data_KHo(SeO4)2
_symmetry_space_group_name_H-M   'P 1'
_cell_length_a   5.39787575
_cell_length_b   5.39787648
_cell_length_c   8.44015898
_cell_angle_alpha   87.87202522
_cell_angle_beta   87.87202542
_cell_angle_gamma   64.74847622
_symmetry_Int_Tables_number   1
_chemical_formula_structural   KHo(SeO4)2
_chemical_formula_sum   'K1 Ho1 Se2 O8'
_cell_volume   222.20708440
_cell_formula_units_Z   1
loop_
 _symmetry_equiv_pos_site_id
 _symmetry_equiv_pos_as_xyz
  1  'x, y, z'
loop_
 _atom_site_type_symbol
 _atom_site_label
 _atom_site_symmetry_multiplicity
 _atom_site_fract_x
 _atom_site_fract_y
 _atom_site_fract_z
 _atom_site_occupancy
  K  K0  1  0.000000  0.000000  0.500000  1
  Ho  Ho1  1  0.000000  0.000000  0.000000  1
  Se  Se2  1  0.364966  0.364966  0.781787  1
  Se  Se3  1  0.635034  0.635034  0.218213  1
  O  O4  1  0.299591  0.299591  0.603898  1
  O  O5  1  0.700409  0.700409  0.396102  1
  O  O6  1  0.706192  0.234987  0.805898  1
  O  O7  1  0.293808  0.765013  0.194102  1
  O  O8  1  0.765013  0.293808  0.194102  1
  O  O9  1  0.234987  0.706192  0.805898  1
  O  O10  1  0.237035  0.237035  0.930274  1
  O  O11  1  0.762965  0.762965  0.069726  1
