# generated using pymatgen
data_K8CdHg11Se16
_symmetry_space_group_name_H-M   'P 1'
_cell_length_a   7.00737100
_cell_length_b   11.21743200
_cell_length_c   14.37901700
_cell_angle_alpha   89.99935770
_cell_angle_beta   90.00000000
_cell_angle_gamma   90.00000000
_symmetry_Int_Tables_number   1
_chemical_formula_structural   K8CdHg11Se16
_chemical_formula_sum   'K8 Cd1 Hg11 Se16'
_cell_volume   1130.25842814
_cell_formula_units_Z   1
loop_
 _symmetry_equiv_pos_site_id
 _symmetry_equiv_pos_as_xyz
  1  'x, y, z'
loop_
 _atom_site_type_symbol
 _atom_site_label
 _atom_site_symmetry_multiplicity
 _atom_site_fract_x
 _atom_site_fract_y
 _atom_site_fract_z
 _atom_site_occupancy
  K  K0  1  0.729284  0.881496  0.501481  1
  K  K1  1  0.270908  0.118661  0.498701  1
  K  K2  1  0.770884  0.618508  0.001914  1
  K  K3  1  0.729284  0.118504  0.998519  1
  K  K4  1  0.228604  0.381634  0.998654  1
  K  K5  1  0.270908  0.881339  0.001299  1
  K  K6  1  0.770884  0.381492  0.498086  1
  K  K7  1  0.228604  0.618366  0.501346  1
  Cd  Cd8  1  0.589033  0.500000  0.750000  1
  Hg  Hg9  1  0.411935  0.500000  0.250000  1
  Hg  Hg10  1  0.911908  0.000000  0.250000  1
  Hg  Hg11  1  0.088069  0.000000  0.750000  1
  Hg  Hg12  1  0.588795  0.837996  0.758640  1
  Hg  Hg13  1  0.411186  0.161688  0.241384  1
  Hg  Hg14  1  0.911172  0.661676  0.258632  1
  Hg  Hg15  1  0.588795  0.162004  0.741360  1
  Hg  Hg16  1  0.088755  0.338840  0.741392  1
  Hg  Hg17  1  0.411186  0.838312  0.258616  1
  Hg  Hg18  1  0.911172  0.338324  0.241368  1
  Hg  Hg19  1  0.088755  0.661160  0.758608  1
  Se  Se20  1  0.823648  0.633468  0.639950  1
  Se  Se21  1  0.173454  0.365107  0.361053  1
  Se  Se22  1  0.673464  0.865081  0.138936  1
  Se  Se23  1  0.823648  0.366532  0.860050  1
  Se  Se24  1  0.326408  0.134964  0.861059  1
  Se  Se25  1  0.173454  0.634893  0.138947  1
  Se  Se26  1  0.673464  0.134919  0.361064  1
  Se  Se27  1  0.326408  0.865036  0.638941  1
  Se  Se28  1  0.865183  0.871517  0.869988  1
  Se  Se29  1  0.135004  0.128456  0.129981  1
  Se  Se30  1  0.634988  0.628468  0.370011  1
  Se  Se31  1  0.865183  0.128483  0.630012  1
  Se  Se32  1  0.367790  0.372838  0.631274  1
  Se  Se33  1  0.135004  0.871544  0.370019  1
  Se  Se34  1  0.634988  0.371532  0.129989  1
  Se  Se35  1  0.367790  0.627162  0.868726  1
