# generated using pymatgen
data_WBrCl3
_symmetry_space_group_name_H-M   'P 1'
_cell_length_a   7.32446166
_cell_length_b   7.32446155
_cell_length_c   8.64949074
_cell_angle_alpha   55.22751600
_cell_angle_beta   55.22751542
_cell_angle_gamma   54.32977829
_symmetry_Int_Tables_number   1
_chemical_formula_structural   WBrCl3
_chemical_formula_sum   'W2 Br2 Cl6'
_cell_volume   289.33010366
_cell_formula_units_Z   2
loop_
 _symmetry_equiv_pos_site_id
 _symmetry_equiv_pos_as_xyz
  1  'x, y, z'
loop_
 _atom_site_type_symbol
 _atom_site_label
 _atom_site_symmetry_multiplicity
 _atom_site_fract_x
 _atom_site_fract_y
 _atom_site_fract_z
 _atom_site_occupancy
  W  W0  1  0.698762  0.301238  0.000000  1
  W  W1  1  0.301238  0.698762  0.000000  1
  Br  Br2  1  0.823830  0.823830  0.149956  1
  Br  Br3  1  0.176170  0.176170  0.850044  1
  Cl  Cl4  1  0.756336  0.289506  0.713990  1
  Cl  Cl5  1  0.710494  0.243664  0.286010  1
  Cl  Cl6  1  0.243664  0.710494  0.286010  1
  Cl  Cl7  1  0.289506  0.756336  0.713990  1
  Cl  Cl8  1  0.696581  0.696581  0.832994  1
  Cl  Cl9  1  0.303419  0.303419  0.167006  1
