# generated using pymatgen
data_TbMn2(Ga3Fe2)2
_symmetry_space_group_name_H-M   'P 1'
_cell_length_a   6.62464938
_cell_length_b   6.62465036
_cell_length_c   6.62464956
_cell_angle_alpha   135.26831739
_cell_angle_beta   100.12862001
_cell_angle_gamma   96.53044620
_symmetry_Int_Tables_number   1
_chemical_formula_structural   TbMn2(Ga3Fe2)2
_chemical_formula_sum   'Tb1 Mn2 Ga6 Fe4'
_cell_volume   189.09448992
_cell_formula_units_Z   1
loop_
 _symmetry_equiv_pos_site_id
 _symmetry_equiv_pos_as_xyz
  1  'x, y, z'
loop_
 _atom_site_type_symbol
 _atom_site_label
 _atom_site_symmetry_multiplicity
 _atom_site_fract_x
 _atom_site_fract_y
 _atom_site_fract_z
 _atom_site_occupancy
  Tb  Tb0  1  0.000000  0.000000  0.000000  1
  Mn  Mn1  1  0.758832  0.500000  0.258832  1
  Mn  Mn2  1  0.241168  0.500000  0.741168  1
  Ga  Ga3  1  0.813555  0.313555  0.500000  1
  Ga  Ga4  1  0.656013  0.656013  0.000000  1
  Ga  Ga5  1  0.343987  0.343987  0.000000  1
  Ga  Ga6  1  0.332568  0.000000  0.332568  1
  Ga  Ga7  1  0.186445  0.686445  0.500000  1
  Ga  Ga8  1  0.667432  0.000000  0.667432  1
  Fe  Fe9  1  0.000000  0.000000  0.500000  1
  Fe  Fe10  1  0.500000  0.000000  0.000000  1
  Fe  Fe11  1  0.000000  0.500000  0.000000  1
  Fe  Fe12  1  0.500000  0.500000  0.500000  1
