# generated using pymatgen
data_YbGd6SeI12
_symmetry_space_group_name_H-M   'P 1'
_cell_length_a   9.84663022
_cell_length_b   9.84663088
_cell_length_c   9.84663100
_cell_angle_alpha   107.15900436
_cell_angle_beta   107.15899945
_cell_angle_gamma   107.15899917
_symmetry_Int_Tables_number   1
_chemical_formula_structural   YbGd6SeI12
_chemical_formula_sum   'Yb1 Gd6 Se1 I12'
_cell_volume   791.60217016
_cell_formula_units_Z   1
loop_
 _symmetry_equiv_pos_site_id
 _symmetry_equiv_pos_as_xyz
  1  'x, y, z'
loop_
 _atom_site_type_symbol
 _atom_site_label
 _atom_site_symmetry_multiplicity
 _atom_site_fract_x
 _atom_site_fract_y
 _atom_site_fract_z
 _atom_site_occupancy
  Yb  Yb0  1  0.500000  0.500000  0.500000  1
  Gd  Gd1  1  0.973361  0.899591  0.692981  1
  Gd  Gd2  1  0.026639  0.100409  0.307019  1
  Gd  Gd3  1  0.100409  0.307019  0.026639  1
  Gd  Gd4  1  0.307019  0.026639  0.100409  1
  Gd  Gd5  1  0.899591  0.692981  0.973361  1
  Gd  Gd6  1  0.692981  0.973361  0.899591  1
  Se  Se7  1  0.000000  0.000000  0.000000  1
  I  I8  1  0.542560  0.622189  0.848181  1
  I  I9  1  0.457440  0.377811  0.151819  1
  I  I10  1  0.318000  0.926940  0.775228  1
  I  I11  1  0.377811  0.151819  0.457440  1
  I  I12  1  0.926940  0.775228  0.318000  1
  I  I13  1  0.682000  0.073060  0.224772  1
  I  I14  1  0.073060  0.224772  0.682000  1
  I  I15  1  0.775228  0.318000  0.926940  1
  I  I16  1  0.224772  0.682000  0.073060  1
  I  I17  1  0.848181  0.542560  0.622189  1
  I  I18  1  0.151819  0.457440  0.377811  1
  I  I19  1  0.622189  0.848181  0.542560  1
