# generated using pymatgen
data_Er2Nb2SnB4Ru10W
_symmetry_space_group_name_H-M   'P 1'
_cell_length_a   9.60848187
_cell_length_b   9.50151093
_cell_length_c   3.08117300
_cell_angle_alpha   90.00000000
_cell_angle_beta   90.00000000
_cell_angle_gamma   89.15160588
_symmetry_Int_Tables_number   1
_chemical_formula_structural   Er2Nb2SnB4Ru10W
_chemical_formula_sum   'Er2 Nb2 Sn1 B4 Ru10 W1'
_cell_volume   281.26514586
_cell_formula_units_Z   1
loop_
 _symmetry_equiv_pos_site_id
 _symmetry_equiv_pos_as_xyz
  1  'x, y, z'
loop_
 _atom_site_type_symbol
 _atom_site_label
 _atom_site_symmetry_multiplicity
 _atom_site_fract_x
 _atom_site_fract_y
 _atom_site_fract_z
 _atom_site_occupancy
  Er  Er0  1  0.173540  0.179182  0.000000  1
  Er  Er1  1  0.826460  0.820818  0.000000  1
  Nb  Nb2  1  0.673125  0.323329  0.000000  1
  Nb  Nb3  1  0.326875  0.676671  0.000000  1
  Sn  Sn4  1  0.000000  0.500000  0.000000  1
  B  B5  1  0.377870  0.382325  0.000000  1
  B  B6  1  0.622130  0.617675  0.000000  1
  B  B7  1  0.878894  0.121621  0.000000  1
  B  B8  1  0.121106  0.878379  0.000000  1
  Ru  Ru9  1  0.500000  0.500000  0.500000  1
  Ru  Ru10  1  0.000000  0.000000  0.500000  1
  Ru  Ru11  1  0.440040  0.219274  0.500000  1
  Ru  Ru12  1  0.559960  0.780726  0.500000  1
  Ru  Ru13  1  0.908726  0.281136  0.500000  1
  Ru  Ru14  1  0.091274  0.718864  0.500000  1
  Ru  Ru15  1  0.711447  0.073791  0.500000  1
  Ru  Ru16  1  0.288553  0.926209  0.500000  1
  Ru  Ru17  1  0.771335  0.559239  0.500000  1
  Ru  Ru18  1  0.228665  0.440761  0.500000  1
  W  W19  1  0.500000  0.000000  0.000000  1
