# generated using pymatgen
data_Cr(HgO2)3
_symmetry_space_group_name_H-M   'P 1'
_cell_length_a   7.27239306
_cell_length_b   7.27248876
_cell_length_c   10.48240337
_cell_angle_alpha   89.98489619
_cell_angle_beta   90.00293963
_cell_angle_gamma   120.00849290
_symmetry_Int_Tables_number   1
_chemical_formula_structural   Cr(HgO2)3
_chemical_formula_sum   'Cr3 Hg9 O18'
_cell_volume   480.08121395
_cell_formula_units_Z   3
loop_
 _symmetry_equiv_pos_site_id
 _symmetry_equiv_pos_as_xyz
  1  'x, y, z'
loop_
 _atom_site_type_symbol
 _atom_site_label
 _atom_site_symmetry_multiplicity
 _atom_site_fract_x
 _atom_site_fract_y
 _atom_site_fract_z
 _atom_site_occupancy
  Cr  Cr0  1  0.771769  0.771779  0.999977  1
  Cr  Cr1  1  0.228340  0.000002  0.333347  1
  Cr  Cr2  1  0.999979  0.228263  0.666675  1
  Hg  Hg3  1  0.298921  0.298914  0.000001  1
  Hg  Hg4  1  0.810856  0.312235  0.017799  1
  Hg  Hg5  1  0.189169  0.501404  0.315490  1
  Hg  Hg6  1  0.701079  0.999958  0.333335  1
  Hg  Hg7  1  0.687744  0.498510  0.351149  1
  Hg  Hg8  1  0.498570  0.687811  0.648833  1
  Hg  Hg9  1  0.999968  0.701098  0.666669  1
  Hg  Hg10  1  0.501389  0.189178  0.684503  1
  Hg  Hg11  1  0.312258  0.810844  0.982217  1
  O  O12  1  0.153388  0.479522  0.046533  1
  O  O13  1  0.813815  0.986838  0.080087  1
  O  O14  1  0.703570  0.571960  0.103764  1
  O  O15  1  0.296385  0.868237  0.229643  1
  O  O16  1  0.186092  0.172886  0.253251  1
  O  O17  1  0.846656  0.326093  0.286724  1
  O  O18  1  0.520508  0.673789  0.379877  1
  O  O19  1  0.013240  0.827067  0.413511  1
  O  O20  1  0.428058  0.131737  0.437121  1
  O  O21  1  0.131715  0.428143  0.562959  1
  O  O22  1  0.826918  0.013234  0.586488  1
  O  O23  1  0.673769  0.520495  0.620117  1
  O  O24  1  0.326143  0.846708  0.713266  1
  O  O25  1  0.173002  0.186263  0.746837  1
  O  O26  1  0.868390  0.296513  0.770317  1
  O  O27  1  0.571998  0.703552  0.896235  1
  O  O28  1  0.986879  0.813831  0.919884  1
  O  O29  1  0.479463  0.153299  0.953497  1
