# generated using pymatgen
data_Y2Er14In6CoRh
_symmetry_space_group_name_H-M   'P 1'
_cell_length_a   10.32408600
_cell_length_b   10.32408672
_cell_length_c   6.99956100
_cell_angle_alpha   90.00000000
_cell_angle_beta   90.00000000
_cell_angle_gamma   120.00000410
_symmetry_Int_Tables_number   1
_chemical_formula_structural   Y2Er14In6CoRh
_chemical_formula_sum   'Y2 Er14 In6 Co1 Rh1'
_cell_volume   646.10733856
_cell_formula_units_Z   1
loop_
 _symmetry_equiv_pos_site_id
 _symmetry_equiv_pos_as_xyz
  1  'x, y, z'
loop_
 _atom_site_type_symbol
 _atom_site_label
 _atom_site_symmetry_multiplicity
 _atom_site_fract_x
 _atom_site_fract_y
 _atom_site_fract_z
 _atom_site_occupancy
  Y  Y0  1  0.000000  0.000000  0.494245  1
  Y  Y1  1  0.000000  0.000000  0.997514  1
  Er  Er2  1  0.467141  0.532859  0.480464  1
  Er  Er3  1  0.065718  0.532859  0.480464  1
  Er  Er4  1  0.467141  0.934282  0.480464  1
  Er  Er5  1  0.535786  0.464214  0.981916  1
  Er  Er6  1  0.928428  0.464214  0.981916  1
  Er  Er7  1  0.535786  0.071572  0.981916  1
  Er  Er8  1  0.821194  0.178806  0.274859  1
  Er  Er9  1  0.357613  0.178806  0.274859  1
  Er  Er10  1  0.821194  0.642387  0.274859  1
  Er  Er11  1  0.176729  0.823271  0.776470  1
  Er  Er12  1  0.646541  0.823271  0.776470  1
  Er  Er13  1  0.176729  0.353459  0.776470  1
  Er  Er14  1  0.333333  0.666667  0.100880  1
  Er  Er15  1  0.666667  0.333333  0.590677  1
  In  In16  1  0.162656  0.837344  0.235402  1
  In  In17  1  0.674688  0.837344  0.235402  1
  In  In18  1  0.162656  0.325312  0.235402  1
  In  In19  1  0.836069  0.163931  0.732967  1
  In  In20  1  0.327864  0.163931  0.732967  1
  In  In21  1  0.836069  0.672136  0.732967  1
  Co  Co22  1  0.666667  0.333333  0.206887  1
  Rh  Rh23  1  0.333333  0.666667  0.708110  1
