# generated using pymatgen
data_SmTa8CdS16
_symmetry_space_group_name_H-M   'P 1'
_cell_length_a   6.70419400
_cell_length_b   6.70419286
_cell_length_c   13.75567100
_cell_angle_alpha   90.00000000
_cell_angle_beta   90.00000000
_cell_angle_gamma   120.00000562
_symmetry_Int_Tables_number   1
_chemical_formula_structural   SmTa8CdS16
_chemical_formula_sum   'Sm1 Ta8 Cd1 S16'
_cell_volume   535.43340085
_cell_formula_units_Z   1
loop_
 _symmetry_equiv_pos_site_id
 _symmetry_equiv_pos_as_xyz
  1  'x, y, z'
loop_
 _atom_site_type_symbol
 _atom_site_label
 _atom_site_symmetry_multiplicity
 _atom_site_fract_x
 _atom_site_fract_y
 _atom_site_fract_z
 _atom_site_occupancy
  Sm  Sm0  1  0.000000  0.000000  0.500000  1
  Ta  Ta1  1  0.506064  0.493936  0.754970  1
  Ta  Ta2  1  0.012126  0.506064  0.245030  1
  Ta  Ta3  1  0.493936  0.987874  0.245030  1
  Ta  Ta4  1  0.506064  0.012126  0.754970  1
  Ta  Ta5  1  0.987874  0.493936  0.754970  1
  Ta  Ta6  1  0.493936  0.506064  0.245030  1
  Ta  Ta7  1  0.000000  0.000000  0.752427  1
  Ta  Ta8  1  0.000000  0.000000  0.247573  1
  Cd  Cd9  1  0.000000  0.000000  0.000000  1
  S  S10  1  0.829998  0.170002  0.358471  1
  S  S11  1  0.829998  0.659994  0.358471  1
  S  S12  1  0.340006  0.170002  0.358471  1
  S  S13  1  0.662826  0.831413  0.866007  1
  S  S14  1  0.170002  0.340006  0.641529  1
  S  S15  1  0.168587  0.831413  0.866007  1
  S  S16  1  0.168587  0.337174  0.866007  1
  S  S17  1  0.831413  0.168587  0.133993  1
  S  S18  1  0.337174  0.168587  0.133993  1
  S  S19  1  0.659994  0.829998  0.641529  1
  S  S20  1  0.333333  0.666667  0.128930  1
  S  S21  1  0.666667  0.333333  0.637616  1
  S  S22  1  0.666667  0.333333  0.871070  1
  S  S23  1  0.333333  0.666667  0.362384  1
  S  S24  1  0.831413  0.662826  0.133993  1
  S  S25  1  0.170002  0.829998  0.641529  1
