# generated using pymatgen
data_La2Y18Si15Os
_symmetry_space_group_name_H-M   'P 1'
_cell_length_a   7.44335198
_cell_length_b   7.79998818
_cell_length_c   14.69664015
_cell_angle_alpha   89.66302396
_cell_angle_beta   89.99559389
_cell_angle_gamma   89.94377233
_symmetry_Int_Tables_number   1
_chemical_formula_structural   La2Y18Si15Os
_chemical_formula_sum   'La2 Y18 Si15 Os1'
_cell_volume   853.24320907
_cell_formula_units_Z   1
loop_
 _symmetry_equiv_pos_site_id
 _symmetry_equiv_pos_as_xyz
  1  'x, y, z'
loop_
 _atom_site_type_symbol
 _atom_site_label
 _atom_site_symmetry_multiplicity
 _atom_site_fract_x
 _atom_site_fract_y
 _atom_site_fract_z
 _atom_site_occupancy
  La  La0  1  0.522580  0.568958  0.342585  1
  La  La1  1  0.024189  0.428533  0.657650  1
  Y  Y2  1  0.806757  0.576767  0.877482  1
  Y  Y3  1  0.323929  0.431515  0.123307  1
  Y  Y4  1  0.183563  0.928253  0.372770  1
  Y  Y5  1  0.682790  0.069387  0.626867  1
  Y  Y6  1  0.183542  0.927336  0.628684  1
  Y  Y7  1  0.682420  0.070585  0.371822  1
  Y  Y8  1  0.810061  0.573887  0.123436  1
  Y  Y9  1  0.326823  0.436292  0.875473  1
  Y  Y10  1  0.643818  0.239078  0.999694  1
  Y  Y11  1  0.158562  0.761336  0.000395  1
  Y  Y12  1  0.350272  0.263871  0.499811  1
  Y  Y13  1  0.849058  0.734449  0.500040  1
  Y  Y14  1  0.477162  0.925021  0.849232  1
  Y  Y15  1  0.973102  0.065795  0.151053  1
  Y  Y16  1  0.475504  0.925288  0.150229  1
  Y  Y17  1  0.971786  0.066447  0.849695  1
  Y  Y18  1  0.528616  0.564909  0.651990  1
  Y  Y19  1  0.027458  0.433573  0.347539  1
  Si  Si20  1  0.018744  0.349997  0.999596  1
  Si  Si21  1  0.475859  0.858584  0.501018  1
  Si  Si22  1  0.978660  0.140039  0.499073  1
  Si  Si23  1  0.652553  0.275661  0.789543  1
  Si  Si24  1  0.146900  0.721393  0.210001  1
  Si  Si25  1  0.352472  0.216127  0.286806  1
  Si  Si26  1  0.850555  0.783754  0.713109  1
  Si  Si27  1  0.362331  0.219500  0.711782  1
  Si  Si28  1  0.859320  0.780487  0.288323  1
  Si  Si29  1  0.648692  0.268200  0.207285  1
  Si  Si30  1  0.141348  0.728413  0.792726  1
  Si  Si31  1  0.767177  0.882939  0.000327  1
  Si  Si32  1  0.258020  0.126241  0.999543  1
  Si  Si33  1  0.232790  0.626528  0.501998  1
  Si  Si34  1  0.734067  0.373895  0.498782  1
  Os  Os35  1  0.518518  0.656961  0.000330  1
