# generated using pymatgen
data_EuGe8(AsPt)4
_symmetry_space_group_name_H-M   'P 1'
_cell_length_a   7.52148236
_cell_length_b   7.55526433
_cell_length_c   7.61452069
_cell_angle_alpha   109.36315124
_cell_angle_beta   109.68405306
_cell_angle_gamma   109.28633708
_symmetry_Int_Tables_number   1
_chemical_formula_structural   EuGe8(AsPt)4
_chemical_formula_sum   'Eu1 Ge8 As4 Pt4'
_cell_volume   333.42491539
_cell_formula_units_Z   1
loop_
 _symmetry_equiv_pos_site_id
 _symmetry_equiv_pos_as_xyz
  1  'x, y, z'
loop_
 _atom_site_type_symbol
 _atom_site_label
 _atom_site_symmetry_multiplicity
 _atom_site_fract_x
 _atom_site_fract_y
 _atom_site_fract_z
 _atom_site_occupancy
  Eu  Eu0  1  0.000552  0.998957  0.000097  1
  Ge  Ge1  1  0.210615  0.853126  0.361242  1
  Ge  Ge2  1  0.855610  0.645889  0.497234  1
  Ge  Ge3  1  0.147410  0.360522  0.509061  1
  Ge  Ge4  1  0.795013  0.153486  0.647731  1
  Ge  Ge5  1  0.496882  0.849922  0.652645  1
  Ge  Ge6  1  0.148085  0.649510  0.798506  1
  Ge  Ge7  1  0.351293  0.199095  0.842992  1
  Ge  Ge8  1  0.643497  0.492884  0.844771  1
  As  As9  1  0.353909  0.496940  0.144459  1
  As  As10  1  0.647446  0.789245  0.142144  1
  As  As11  1  0.854043  0.354799  0.204234  1
  As  As12  1  0.497501  0.147616  0.354067  1
  Pt  Pt13  1  0.499233  0.000343  0.003866  1
  Pt  Pt14  1  0.003310  0.506297  0.002243  1
  Pt  Pt15  1  0.994845  0.998794  0.495761  1
  Pt  Pt16  1  0.500753  0.502571  0.498943  1
