# generated using pymatgen
data_PuUTcB6
_symmetry_space_group_name_H-M   'P 1'
_cell_length_a   3.64280300
_cell_length_b   9.30342200
_cell_length_c   11.39354200
_cell_angle_alpha   90.00000000
_cell_angle_beta   90.00000000
_cell_angle_gamma   90.00000000
_symmetry_Int_Tables_number   1
_chemical_formula_structural   PuUTcB6
_chemical_formula_sum   'Pu4 U4 Tc4 B24'
_cell_volume   386.13321765
_cell_formula_units_Z   4
loop_
 _symmetry_equiv_pos_site_id
 _symmetry_equiv_pos_as_xyz
  1  'x, y, z'
loop_
 _atom_site_type_symbol
 _atom_site_label
 _atom_site_symmetry_multiplicity
 _atom_site_fract_x
 _atom_site_fract_y
 _atom_site_fract_z
 _atom_site_occupancy
  Pu  Pu0  1  0.000000  0.336277  0.407283  1
  Pu  Pu1  1  0.000000  0.663723  0.592717  1
  Pu  Pu2  1  0.000000  0.836277  0.092717  1
  Pu  Pu3  1  0.000000  0.163723  0.907283  1
  U  U4  1  0.000000  0.956044  0.395618  1
  U  U5  1  0.000000  0.043956  0.604382  1
  U  U6  1  0.000000  0.456044  0.104382  1
  U  U7  1  0.000000  0.543956  0.895618  1
  Tc  Tc8  1  0.000000  0.645901  0.318672  1
  Tc  Tc9  1  0.000000  0.354099  0.681328  1
  Tc  Tc10  1  0.000000  0.145901  0.181328  1
  Tc  Tc11  1  0.000000  0.854099  0.818672  1
  B  B12  1  0.500000  0.551894  0.431394  1
  B  B13  1  0.500000  0.448106  0.568606  1
  B  B14  1  0.500000  0.051894  0.068606  1
  B  B15  1  0.500000  0.948106  0.931394  1
  B  B16  1  0.500000  0.742917  0.423057  1
  B  B17  1  0.500000  0.257083  0.576943  1
  B  B18  1  0.500000  0.242917  0.076943  1
  B  B19  1  0.500000  0.757083  0.923057  1
  B  B20  1  0.500000  0.802655  0.274099  1
  B  B21  1  0.500000  0.197345  0.725901  1
  B  B22  1  0.500000  0.302655  0.225901  1
  B  B23  1  0.500000  0.697345  0.774099  1
  B  B24  1  0.500000  0.644103  0.188398  1
  B  B25  1  0.500000  0.355897  0.811602  1
  B  B26  1  0.500000  0.144103  0.311602  1
  B  B27  1  0.500000  0.855897  0.688398  1
  B  B28  1  0.500000  0.988310  0.219224  1
  B  B29  1  0.500000  0.011690  0.780776  1
  B  B30  1  0.500000  0.488310  0.280776  1
  B  B31  1  0.500000  0.511690  0.719224  1
  B  B32  1  0.500000  0.641445  0.039111  1
  B  B33  1  0.500000  0.358555  0.960889  1
  B  B34  1  0.500000  0.141445  0.460889  1
  B  B35  1  0.500000  0.858555  0.539111  1
