# generated using pymatgen
data_Hf6Al16Cu(IrPt)3
_symmetry_space_group_name_H-M   'P 1'
_cell_length_a   8.71408785
_cell_length_b   8.72417271
_cell_length_c   8.69439582
_cell_angle_alpha   60.03620390
_cell_angle_beta   60.15141003
_cell_angle_gamma   60.29576461
_symmetry_Int_Tables_number   1
_chemical_formula_structural   Hf6Al16Cu(IrPt)3
_chemical_formula_sum   'Hf6 Al16 Cu1 Ir3 Pt3'
_cell_volume   469.08135944
_cell_formula_units_Z   1
loop_
 _symmetry_equiv_pos_site_id
 _symmetry_equiv_pos_as_xyz
  1  'x, y, z'
loop_
 _atom_site_type_symbol
 _atom_site_label
 _atom_site_symmetry_multiplicity
 _atom_site_fract_x
 _atom_site_fract_y
 _atom_site_fract_z
 _atom_site_occupancy
  Hf  Hf0  1  0.686883  0.313117  0.311927  1
  Hf  Hf1  1  0.313117  0.686883  0.688073  1
  Hf  Hf2  1  0.315150  0.684850  0.314560  1
  Hf  Hf3  1  0.684850  0.315150  0.685440  1
  Hf  Hf4  1  0.322267  0.322267  0.677733  1
  Hf  Hf5  1  0.677733  0.677733  0.322267  1
  Al  Al6  1  0.336314  0.339141  0.330514  1
  Al  Al7  1  0.663686  0.660859  0.669486  1
  Al  Al8  1  0.339141  0.336314  0.994031  1
  Al  Al9  1  0.336299  0.990092  0.335572  1
  Al  Al10  1  0.660859  0.663686  0.005969  1
  Al  Al11  1  0.663701  0.009908  0.664428  1
  Al  Al12  1  0.990092  0.336299  0.338037  1
  Al  Al13  1  0.009908  0.663701  0.661963  1
  Al  Al14  1  0.125235  0.118504  0.115367  1
  Al  Al15  1  0.874765  0.881496  0.884633  1
  Al  Al16  1  0.118504  0.125235  0.640895  1
  Al  Al17  1  0.112994  0.643519  0.124935  1
  Al  Al18  1  0.881496  0.874765  0.359105  1
  Al  Al19  1  0.887006  0.356481  0.875065  1
  Al  Al20  1  0.643519  0.112994  0.118552  1
  Al  Al21  1  0.356481  0.887006  0.881448  1
  Cu  Cu22  1  0.500000  0.500000  0.000000  1
  Ir  Ir23  1  0.500000  0.000000  0.000000  1
  Ir  Ir24  1  0.000000  0.500000  0.500000  1
  Ir  Ir25  1  0.000000  0.000000  0.000000  1
  Pt  Pt26  1  0.000000  0.500000  0.000000  1
  Pt  Pt27  1  0.500000  0.000000  0.500000  1
  Pt  Pt28  1  0.000000  0.000000  0.500000  1
