# generated using pymatgen
data_Tm2U(GaCo)3
_symmetry_space_group_name_H-M   'P 1'
_cell_length_a   3.53818900
_cell_length_b   7.00079134
_cell_length_c   7.15201318
_cell_angle_alpha   120.70073320
_cell_angle_beta   90.00000000
_cell_angle_gamma   90.00000000
_symmetry_Int_Tables_number   1
_chemical_formula_structural   Tm2U(GaCo)3
_chemical_formula_sum   'Tm2 U1 Ga3 Co3'
_cell_volume   152.32704283
_cell_formula_units_Z   1
loop_
 _symmetry_equiv_pos_site_id
 _symmetry_equiv_pos_as_xyz
  1  'x, y, z'
loop_
 _atom_site_type_symbol
 _atom_site_label
 _atom_site_symmetry_multiplicity
 _atom_site_fract_x
 _atom_site_fract_y
 _atom_site_fract_z
 _atom_site_occupancy
  Tm  Tm0  1  0.500000  0.591172  0.002281  1
  Tm  Tm1  1  0.500000  0.408873  0.411107  1
  U  U2  1  0.500000  0.999929  0.578618  1
  Ga  Ga3  1  0.000000  0.258286  0.007071  1
  Ga  Ga4  1  0.000000  0.741738  0.748778  1
  Ga  Ga5  1  0.000000  0.000071  0.234067  1
  Co  Co6  1  0.000000  0.284945  0.659393  1
  Co  Co7  1  0.000000  0.714865  0.374383  1
  Co  Co8  1  0.500000  0.000022  0.984301  1
