# generated using pymatgen
data_Ca20Hg5Au7
_symmetry_space_group_name_H-M   'P 1'
_cell_length_a   7.94584204
_cell_length_b   7.94584214
_cell_length_c   15.27057800
_cell_angle_alpha   90.00550904
_cell_angle_beta   90.00550904
_cell_angle_gamma   90.68574731
_symmetry_Int_Tables_number   1
_chemical_formula_structural   Ca20Hg5Au7
_chemical_formula_sum   'Ca20 Hg5 Au7'
_cell_volume   964.06035746
_cell_formula_units_Z   1
loop_
 _symmetry_equiv_pos_site_id
 _symmetry_equiv_pos_as_xyz
  1  'x, y, z'
loop_
 _atom_site_type_symbol
 _atom_site_label
 _atom_site_symmetry_multiplicity
 _atom_site_fract_x
 _atom_site_fract_y
 _atom_site_fract_z
 _atom_site_occupancy
  Ca  Ca0  1  0.171891  0.169477  0.105654  1
  Ca  Ca1  1  0.662749  0.339945  0.105805  1
  Ca  Ca2  1  0.328920  0.668218  0.108552  1
  Ca  Ca3  1  0.833675  0.825278  0.105844  1
  Ca  Ca4  1  0.495984  0.997913  0.247442  1
  Ca  Ca5  1  0.002087  0.504016  0.252558  1
  Ca  Ca6  1  0.174722  0.166325  0.394156  1
  Ca  Ca7  1  0.660055  0.337250  0.394195  1
  Ca  Ca8  1  0.331782  0.671079  0.391448  1
  Ca  Ca9  1  0.830523  0.828109  0.394346  1
  Ca  Ca10  1  0.834294  0.168399  0.609080  1
  Ca  Ca11  1  0.331486  0.334125  0.610200  1
  Ca  Ca12  1  0.668534  0.665764  0.610259  1
  Ca  Ca13  1  0.166299  0.830856  0.609907  1
  Ca  Ca14  1  0.500540  0.000176  0.747675  1
  Ca  Ca15  1  0.999824  0.499460  0.752325  1
  Ca  Ca16  1  0.831601  0.165706  0.890920  1
  Ca  Ca17  1  0.334236  0.331465  0.889741  1
  Ca  Ca18  1  0.665875  0.668513  0.889800  1
  Ca  Ca19  1  0.169144  0.833701  0.890093  1
  Hg  Hg20  1  0.501737  0.999265  0.000128  1
  Hg  Hg21  1  0.868757  0.131244  0.250000  1
  Hg  Hg22  1  0.000735  0.498263  0.499872  1
  Hg  Hg23  1  0.501691  0.999215  0.504035  1
  Hg  Hg24  1  0.000785  0.498309  0.995965  1
  Au  Au25  1  0.368108  0.367950  0.249985  1
  Au  Au26  1  0.632050  0.631892  0.250015  1
  Au  Au27  1  0.131352  0.868649  0.250000  1
  Au  Au28  1  0.132350  0.131861  0.749982  1
  Au  Au29  1  0.631371  0.368629  0.750000  1
  Au  Au30  1  0.368705  0.631295  0.750000  1
  Au  Au31  1  0.868140  0.867651  0.750018  1
