# generated using pymatgen
data_Zr5Co16Si4Mo3P8
_symmetry_space_group_name_H-M   'P 1'
_cell_length_a   11.95875582
_cell_length_b   11.96598171
_cell_length_c   3.65996700
_cell_angle_alpha   90.00000000
_cell_angle_beta   90.00000000
_cell_angle_gamma   120.02251406
_symmetry_Int_Tables_number   1
_chemical_formula_structural   Zr5Co16Si4Mo3P8
_chemical_formula_sum   'Zr5 Co16 Si4 Mo3 P8'
_cell_volume   453.46478136
_cell_formula_units_Z   1
loop_
 _symmetry_equiv_pos_site_id
 _symmetry_equiv_pos_as_xyz
  1  'x, y, z'
loop_
 _atom_site_type_symbol
 _atom_site_label
 _atom_site_symmetry_multiplicity
 _atom_site_fract_x
 _atom_site_fract_y
 _atom_site_fract_z
 _atom_site_occupancy
  Zr  Zr0  1  0.666892  0.333131  0.000000  1
  Zr  Zr1  1  0.332031  0.665949  0.000000  1
  Zr  Zr2  1  0.818840  0.818370  0.500000  1
  Zr  Zr3  1  0.181308  0.001064  0.500000  1
  Zr  Zr4  1  0.998895  0.180276  0.500000  1
  Co  Co5  1  0.194459  0.373425  0.000000  1
  Co  Co6  1  0.177184  0.805473  0.000000  1
  Co  Co7  1  0.824751  0.630702  0.000000  1
  Co  Co8  1  0.807132  0.176160  0.000000  1
  Co  Co9  1  0.368332  0.193479  0.000000  1
  Co  Co10  1  0.131366  0.484389  0.500000  1
  Co  Co11  1  0.349168  0.871226  0.500000  1
  Co  Co12  1  0.516821  0.643371  0.500000  1
  Co  Co13  1  0.647005  0.524058  0.500000  1
  Co  Co14  1  0.879024  0.353546  0.500000  1
  Co  Co15  1  0.474737  0.122380  0.500000  1
  Co  Co16  1  0.000357  0.000119  0.000000  1
  Co  Co17  1  0.723871  0.999209  0.500000  1
  Co  Co18  1  0.003303  0.723778  0.500000  1
  Co  Co19  1  0.629598  0.821103  0.000000  1
  Co  Co20  1  0.275802  0.279783  0.500000  1
  Si  Si21  1  0.482156  0.315009  0.500000  1
  Si  Si22  1  0.684925  0.166788  0.500000  1
  Si  Si23  1  0.833222  0.517551  0.500000  1
  Si  Si24  1  0.517792  0.832626  0.500000  1
  Mo  Mo25  1  0.446561  0.447997  0.000000  1
  Mo  Mo26  1  0.551497  0.998941  0.000000  1
  Mo  Mo27  1  0.002684  0.553219  0.000000  1
  P  P28  1  0.643512  0.642557  0.000000  1
  P  P29  1  0.356449  0.000348  0.000000  1
  P  P30  1  0.999379  0.356257  0.000000  1
  P  P31  1  0.166626  0.685812  0.500000  1
  P  P32  1  0.823688  0.999028  0.000000  1
  P  P33  1  0.000303  0.824554  0.000000  1
  P  P34  1  0.315082  0.481595  0.500000  1
  P  P35  1  0.175252  0.176725  0.000000  1
