# generated using pymatgen
data_KLaH9W
_symmetry_space_group_name_H-M   'P 1'
_cell_length_a   9.13087400
_cell_length_b   9.13087277
_cell_length_c   5.28640300
_cell_angle_alpha   90.00000000
_cell_angle_beta   90.00000000
_cell_angle_gamma   119.99999721
_symmetry_Int_Tables_number   1
_chemical_formula_structural   KLaH9W
_chemical_formula_sum   'K3 La3 H27 W3'
_cell_volume   381.69419310
_cell_formula_units_Z   3
loop_
 _symmetry_equiv_pos_site_id
 _symmetry_equiv_pos_as_xyz
  1  'x, y, z'
loop_
 _atom_site_type_symbol
 _atom_site_label
 _atom_site_symmetry_multiplicity
 _atom_site_fract_x
 _atom_site_fract_y
 _atom_site_fract_z
 _atom_site_occupancy
  K  K0  1  0.000000  0.603492  0.000000  1
  K  K1  1  0.396508  0.396508  0.000000  1
  K  K2  1  0.603492  0.000000  0.000000  1
  La  La3  1  0.000000  0.265473  0.500000  1
  La  La4  1  0.734527  0.734527  0.500000  1
  La  La5  1  0.265473  0.000000  0.500000  1
  H  H6  1  0.802707  0.329411  0.740326  1
  H  H7  1  0.670589  0.473295  0.740326  1
  H  H8  1  0.526705  0.197293  0.740326  1
  H  H9  1  0.197293  0.526705  0.259674  1
  H  H10  1  0.526705  0.197293  0.259674  1
  H  H11  1  0.802707  0.329411  0.259674  1
  H  H12  1  0.670589  0.473295  0.259674  1
  H  H13  1  0.329411  0.802707  0.740326  1
  H  H14  1  0.473295  0.670589  0.740326  1
  H  H15  1  0.196936  0.000000  0.000000  1
  H  H16  1  0.803064  0.803064  0.000000  1
  H  H17  1  0.000000  0.196936  0.000000  1
  H  H18  1  0.860487  0.000000  0.254967  1
  H  H19  1  0.139513  0.139513  0.745033  1
  H  H20  1  0.000000  0.860487  0.745033  1
  H  H21  1  0.000000  0.860487  0.254967  1
  H  H22  1  0.139513  0.139513  0.254967  1
  H  H23  1  0.860487  0.000000  0.745033  1
  H  H24  1  0.140148  0.669963  0.500000  1
  H  H25  1  0.529815  0.859852  0.500000  1
  H  H26  1  0.330037  0.470185  0.500000  1
  H  H27  1  0.470185  0.330037  0.500000  1
  H  H28  1  0.859852  0.529815  0.500000  1
  H  H29  1  0.669963  0.140148  0.500000  1
  H  H30  1  0.197293  0.526705  0.740326  1
  H  H31  1  0.329411  0.802707  0.259674  1
  H  H32  1  0.473295  0.670589  0.259674  1
  W  W33  1  0.666667  0.333333  0.500000  1
  W  W34  1  0.333333  0.666667  0.500000  1
  W  W35  1  0.000000  0.000000  0.000000  1
