# generated using pymatgen
data_Tm4Al4OsPd3
_symmetry_space_group_name_H-M   'P 1'
_cell_length_a   4.31826500
_cell_length_b   6.84093908
_cell_length_c   7.85652301
_cell_angle_alpha   90.30226205
_cell_angle_beta   90.00000000
_cell_angle_gamma   90.00000000
_symmetry_Int_Tables_number   1
_chemical_formula_structural   Tm4Al4OsPd3
_chemical_formula_sum   'Tm4 Al4 Os1 Pd3'
_cell_volume   232.08622078
_cell_formula_units_Z   1
loop_
 _symmetry_equiv_pos_site_id
 _symmetry_equiv_pos_as_xyz
  1  'x, y, z'
loop_
 _atom_site_type_symbol
 _atom_site_label
 _atom_site_symmetry_multiplicity
 _atom_site_fract_x
 _atom_site_fract_y
 _atom_site_fract_z
 _atom_site_occupancy
  Tm  Tm0  1  0.250000  0.034103  0.323430  1
  Tm  Tm1  1  0.250000  0.531515  0.180008  1
  Tm  Tm2  1  0.750000  0.981062  0.677700  1
  Tm  Tm3  1  0.750000  0.462983  0.815127  1
  Al  Al4  1  0.250000  0.142804  0.937176  1
  Al  Al5  1  0.250000  0.637992  0.560571  1
  Al  Al6  1  0.750000  0.858503  0.059753  1
  Al  Al7  1  0.750000  0.355488  0.442518  1
  Os  Os8  1  0.250000  0.265526  0.624529  1
  Pd  Pd9  1  0.250000  0.768678  0.880346  1
  Pd  Pd10  1  0.750000  0.729890  0.376026  1
  Pd  Pd11  1  0.750000  0.231457  0.122816  1
