# generated using pymatgen
data_Ba4Ho2UFeO12
_symmetry_space_group_name_H-M   'P 1'
_cell_length_a   5.94988401
_cell_length_b   5.96103229
_cell_length_c   8.90456519
_cell_angle_alpha   89.92642303
_cell_angle_beta   90.18218262
_cell_angle_gamma   89.98763193
_symmetry_Int_Tables_number   1
_chemical_formula_structural   Ba4Ho2UFeO12
_chemical_formula_sum   'Ba4 Ho2 U1 Fe1 O12'
_cell_volume   315.82036219
_cell_formula_units_Z   1
loop_
 _symmetry_equiv_pos_site_id
 _symmetry_equiv_pos_as_xyz
  1  'x, y, z'
loop_
 _atom_site_type_symbol
 _atom_site_label
 _atom_site_symmetry_multiplicity
 _atom_site_fract_x
 _atom_site_fract_y
 _atom_site_fract_z
 _atom_site_occupancy
  Ba  Ba0  1  0.001633  0.004122  0.731367  1
  Ba  Ba1  1  0.496611  0.500554  0.268692  1
  Ba  Ba2  1  0.503389  0.499446  0.731308  1
  Ba  Ba3  1  0.998368  0.995878  0.268633  1
  Ho  Ho4  1  0.000000  0.500000  0.000000  1
  Ho  Ho5  1  0.000000  0.500000  0.500000  1
  U  U6  1  0.500000  0.000000  0.000000  1
  Fe  Fe7  1  0.500000  0.000000  0.500000  1
  O  O8  1  0.199524  0.177657  0.010641  1
  O  O9  1  0.501481  0.978309  0.238671  1
  O  O10  1  0.735443  0.219695  0.491628  1
  O  O11  1  0.677817  0.300098  0.011636  1
  O  O12  1  0.720103  0.764761  0.508046  1
  O  O13  1  0.003733  0.522412  0.251509  1
  O  O14  1  0.279897  0.235239  0.491954  1
  O  O15  1  0.322183  0.699902  0.988364  1
  O  O16  1  0.264557  0.780305  0.508372  1
  O  O17  1  0.498519  0.021691  0.761329  1
  O  O18  1  0.800476  0.822343  0.989359  1
  O  O19  1  0.996267  0.477588  0.748491  1
