# generated using pymatgen
data_Nd3In3Hg2Ir
_symmetry_space_group_name_H-M   'P 1'
_cell_length_a   8.10423000
_cell_length_b   8.10422995
_cell_length_c   4.04708900
_cell_angle_alpha   90.00000000
_cell_angle_beta   90.00000000
_cell_angle_gamma   120.00000021
_symmetry_Int_Tables_number   1
_chemical_formula_structural   Nd3In3Hg2Ir
_chemical_formula_sum   'Nd3 In3 Hg2 Ir1'
_cell_volume   230.19553684
_cell_formula_units_Z   1
loop_
 _symmetry_equiv_pos_site_id
 _symmetry_equiv_pos_as_xyz
  1  'x, y, z'
loop_
 _atom_site_type_symbol
 _atom_site_label
 _atom_site_symmetry_multiplicity
 _atom_site_fract_x
 _atom_site_fract_y
 _atom_site_fract_z
 _atom_site_occupancy
  Nd  Nd0  1  0.583114  0.612782  0.000000  1
  Nd  Nd1  1  0.387218  0.970332  0.000000  1
  Nd  Nd2  1  0.029668  0.416886  0.000000  1
  In  In3  1  0.003975  0.731361  0.500000  1
  In  In4  1  0.268639  0.272614  0.500000  1
  In  In5  1  0.727386  0.996025  0.500000  1
  Hg  Hg6  1  0.000000  0.000000  0.000000  1
  Hg  Hg7  1  0.666667  0.333333  0.500000  1
  Ir  Ir8  1  0.333333  0.666667  0.500000  1
