# generated using pymatgen
data_Ce7Th(Si3Os4)2
_symmetry_space_group_name_H-M   'P 1'
_cell_length_a   10.69209946
_cell_length_b   10.68753794
_cell_length_c   7.84264395
_cell_angle_alpha   71.26285496
_cell_angle_beta   71.26110695
_cell_angle_gamma   30.57621086
_symmetry_Int_Tables_number   1
_chemical_formula_structural   Ce7Th(Si3Os4)2
_chemical_formula_sum   'Ce7 Th1 Si6 Os8'
_cell_volume   429.85789186
_cell_formula_units_Z   1
loop_
 _symmetry_equiv_pos_site_id
 _symmetry_equiv_pos_as_xyz
  1  'x, y, z'
loop_
 _atom_site_type_symbol
 _atom_site_label
 _atom_site_symmetry_multiplicity
 _atom_site_fract_x
 _atom_site_fract_y
 _atom_site_fract_z
 _atom_site_occupancy
  Ce  Ce0  1  0.446285  0.213616  0.899806  1
  Ce  Ce1  1  0.215335  0.446586  0.398907  1
  Ce  Ce2  1  0.554173  0.785969  0.099921  1
  Ce  Ce3  1  0.778496  0.083204  0.164898  1
  Ce  Ce4  1  0.917200  0.219759  0.334524  1
  Ce  Ce5  1  0.218765  0.917960  0.836295  1
  Ce  Ce6  1  0.082924  0.779016  0.665062  1
  Th  Th7  1  0.788533  0.551078  0.600072  1
  Si  Si8  1  0.951081  0.703567  0.054978  1
  Si  Si9  1  0.296469  0.048791  0.443829  1
  Si  Si10  1  0.050898  0.294319  0.947475  1
  Si  Si11  1  0.703643  0.951251  0.554863  1
  Si  Si12  1  0.607823  0.391120  0.750508  1
  Si  Si13  1  0.391094  0.608909  0.250201  1
  Os  Os14  1  0.594136  0.284747  0.522334  1
  Os  Os15  1  0.715688  0.405490  0.978074  1
  Os  Os16  1  0.405746  0.715544  0.477426  1
  Os  Os17  1  0.284425  0.594535  0.022418  1
  Os  Os18  1  0.626906  0.933951  0.305710  1
  Os  Os19  1  0.067631  0.372419  0.193655  1
  Os  Os20  1  0.369938  0.070586  0.692696  1
  Os  Os21  1  0.932811  0.627580  0.806349  1
