# generated using pymatgen
data_Y2Co2B4Ir3
_symmetry_space_group_name_H-M   'P 1'
_cell_length_a   7.39883093
_cell_length_b   6.17035051
_cell_length_c   5.49335156
_cell_angle_alpha   78.50491711
_cell_angle_beta   54.80478255
_cell_angle_gamma   47.40229807
_symmetry_Int_Tables_number   1
_chemical_formula_structural   Y2Co2B4Ir3
_chemical_formula_sum   'Y2 Co2 B4 Ir3'
_cell_volume   143.07226996
_cell_formula_units_Z   1
loop_
 _symmetry_equiv_pos_site_id
 _symmetry_equiv_pos_as_xyz
  1  'x, y, z'
loop_
 _atom_site_type_symbol
 _atom_site_label
 _atom_site_symmetry_multiplicity
 _atom_site_fract_x
 _atom_site_fract_y
 _atom_site_fract_z
 _atom_site_occupancy
  Y  Y0  1  0.856448  0.856681  0.143606  1
  Y  Y1  1  0.144454  0.144798  0.855511  1
  Co  Co2  1  0.499297  0.499370  0.000631  1
  Co  Co3  1  0.249675  0.249336  0.250600  1
  B  B4  1  0.469039  0.799966  0.216440  1
  B  B5  1  0.226519  0.504630  0.454868  1
  B  B6  1  0.800101  0.468977  0.514213  1
  B  B7  1  0.504631  0.226541  0.814127  1
  Ir  Ir8  1  0.001449  0.001396  0.498657  1
  Ir  Ir9  1  0.498934  0.498684  0.501075  1
  Ir  Ir10  1  0.749461  0.749618  0.750268  1
