# generated using pymatgen
data_Sc6CrCo17P12
_symmetry_space_group_name_H-M   'P 1'
_cell_length_a   3.57799000
_cell_length_b   10.34375000
_cell_length_c   11.92360400
_cell_angle_alpha   90.00000000
_cell_angle_beta   90.00000000
_cell_angle_gamma   90.00000000
_symmetry_Int_Tables_number   1
_chemical_formula_structural   Sc6CrCo17P12
_chemical_formula_sum   'Sc6 Cr1 Co17 P12'
_cell_volume   441.29060547
_cell_formula_units_Z   1
loop_
 _symmetry_equiv_pos_site_id
 _symmetry_equiv_pos_as_xyz
  1  'x, y, z'
loop_
 _atom_site_type_symbol
 _atom_site_label
 _atom_site_symmetry_multiplicity
 _atom_site_fract_x
 _atom_site_fract_y
 _atom_site_fract_z
 _atom_site_occupancy
  Sc  Sc0  1  0.750000  0.250000  0.475429  1
  Sc  Sc1  1  0.250000  0.750000  0.524243  1
  Sc  Sc2  1  0.250000  0.931760  0.793279  1
  Sc  Sc3  1  0.250000  0.568240  0.793279  1
  Sc  Sc4  1  0.750000  0.069091  0.204421  1
  Sc  Sc5  1  0.750000  0.430909  0.204421  1
  Cr  Cr6  1  0.250000  0.250000  0.842362  1
  Co  Co7  1  0.750000  0.750000  0.162174  1
  Co  Co8  1  0.250000  0.250000  0.298592  1
  Co  Co9  1  0.750000  0.750000  0.702284  1
  Co  Co10  1  0.750000  0.250000  0.012826  1
  Co  Co11  1  0.250000  0.750000  0.985403  1
  Co  Co12  1  0.250000  0.417506  0.008171  1
  Co  Co13  1  0.250000  0.082494  0.008171  1
  Co  Co14  1  0.750000  0.583041  0.993289  1
  Co  Co15  1  0.750000  0.916959  0.993289  1
  Co  Co16  1  0.250000  0.452660  0.568027  1
  Co  Co17  1  0.250000  0.047340  0.568027  1
  Co  Co18  1  0.750000  0.548343  0.431714  1
  Co  Co19  1  0.750000  0.951657  0.431714  1
  Co  Co20  1  0.250000  0.873054  0.292533  1
  Co  Co21  1  0.250000  0.626946  0.292533  1
  Co  Co22  1  0.750000  0.127248  0.707313  1
  Co  Co23  1  0.750000  0.372752  0.707313  1
  P  P24  1  0.250000  0.250000  0.121351  1
  P  P25  1  0.750000  0.750000  0.879635  1
  P  P26  1  0.250000  0.250000  0.647720  1
  P  P27  1  0.750000  0.750000  0.350327  1
  P  P28  1  0.250000  0.435429  0.381758  1
  P  P29  1  0.250000  0.064571  0.381758  1
  P  P30  1  0.750000  0.565082  0.617535  1
  P  P31  1  0.750000  0.934918  0.617535  1
  P  P32  1  0.250000  0.903399  0.111083  1
  P  P33  1  0.250000  0.596601  0.111083  1
  P  P34  1  0.750000  0.093489  0.889706  1
  P  P35  1  0.750000  0.406511  0.889706  1
