# generated using pymatgen
data_Y2B6(IrRh2)3
_symmetry_space_group_name_H-M   'P 1'
_cell_length_a   5.61813911
_cell_length_b   5.62424831
_cell_length_c   8.61939700
_cell_angle_alpha   90.00000000
_cell_angle_beta   90.00000000
_cell_angle_gamma   120.03597799
_symmetry_Int_Tables_number   1
_chemical_formula_structural   Y2B6(IrRh2)3
_chemical_formula_sum   'Y2 B6 Ir3 Rh6'
_cell_volume   235.77998087
_cell_formula_units_Z   1
loop_
 _symmetry_equiv_pos_site_id
 _symmetry_equiv_pos_as_xyz
  1  'x, y, z'
loop_
 _atom_site_type_symbol
 _atom_site_label
 _atom_site_symmetry_multiplicity
 _atom_site_fract_x
 _atom_site_fract_y
 _atom_site_fract_z
 _atom_site_occupancy
  Y  Y0  1  0.000000  0.000000  0.702275  1
  Y  Y1  1  0.000000  0.000000  0.298266  1
  B  B2  1  0.667307  0.333653  0.999880  1
  B  B3  1  0.332693  0.666347  0.999880  1
  B  B4  1  0.666765  0.333382  0.668017  1
  B  B5  1  0.333235  0.666618  0.668017  1
  B  B6  1  0.334709  0.667355  0.331877  1
  B  B7  1  0.665291  0.332645  0.331877  1
  Ir  Ir8  1  0.000000  0.500000  0.836723  1
  Ir  Ir9  1  0.500000  0.500000  0.499704  1
  Ir  Ir10  1  0.500000  0.000000  0.499704  1
  Rh  Rh11  1  0.500000  0.500000  0.836937  1
  Rh  Rh12  1  0.500000  0.000000  0.836937  1
  Rh  Rh13  1  0.500000  0.500000  0.163220  1
  Rh  Rh14  1  0.500000  0.000000  0.163220  1
  Rh  Rh15  1  0.000000  0.500000  0.164479  1
  Rh  Rh16  1  0.000000  0.500000  0.498989  1
