# generated using pymatgen
data_TbNdDyTaO7
_symmetry_space_group_name_H-M   'P 1'
_cell_length_a   6.51591050
_cell_length_b   6.51667525
_cell_length_c   7.62536500
_cell_angle_alpha   90.00000000
_cell_angle_beta   90.00000000
_cell_angle_gamma   109.35139643
_symmetry_Int_Tables_number   1
_chemical_formula_structural   TbNdDyTaO7
_chemical_formula_sum   'Tb2 Nd2 Dy2 Ta2 O14'
_cell_volume   305.49605921
_cell_formula_units_Z   2
loop_
 _symmetry_equiv_pos_site_id
 _symmetry_equiv_pos_as_xyz
  1  'x, y, z'
loop_
 _atom_site_type_symbol
 _atom_site_label
 _atom_site_symmetry_multiplicity
 _atom_site_fract_x
 _atom_site_fract_y
 _atom_site_fract_z
 _atom_site_occupancy
  Tb  Tb0  1  0.534590  0.000382  0.750000  1
  Tb  Tb1  1  0.465410  0.999618  0.250000  1
  Nd  Nd2  1  0.500000  0.500000  0.500000  1
  Nd  Nd3  1  0.500000  0.500000  0.000000  1
  Dy  Dy4  1  0.000680  0.533893  0.250000  1
  Dy  Dy5  1  0.999320  0.466107  0.750000  1
  Ta  Ta6  1  0.000000  0.000000  0.500000  1
  Ta  Ta7  1  0.000000  0.000000  0.000000  1
  O  O8  1  0.937212  0.063344  0.750000  1
  O  O9  1  0.062788  0.936656  0.250000  1
  O  O10  1  0.357621  0.640857  0.250000  1
  O  O11  1  0.642379  0.359143  0.750000  1
  O  O12  1  0.363510  0.634461  0.750000  1
  O  O13  1  0.636490  0.365539  0.250000  1
  O  O14  1  0.319664  0.069363  0.968521  1
  O  O15  1  0.680336  0.930637  0.468521  1
  O  O16  1  0.319664  0.069363  0.531479  1
  O  O17  1  0.680336  0.930637  0.031479  1
  O  O18  1  0.068594  0.319830  0.468363  1
  O  O19  1  0.931406  0.680170  0.968363  1
  O  O20  1  0.931406  0.680170  0.531637  1
  O  O21  1  0.068594  0.319830  0.031637  1
