# generated using pymatgen
data_Ce3Ga3Ni2Os
_symmetry_space_group_name_H-M   'P 1'
_cell_length_a   6.99756900
_cell_length_b   6.99756917
_cell_length_c   3.97532000
_cell_angle_alpha   90.00000000
_cell_angle_beta   90.00000000
_cell_angle_gamma   119.99999448
_symmetry_Int_Tables_number   1
_chemical_formula_structural   Ce3Ga3Ni2Os
_chemical_formula_sum   'Ce3 Ga3 Ni2 Os1'
_cell_volume   168.57654123
_cell_formula_units_Z   1
loop_
 _symmetry_equiv_pos_site_id
 _symmetry_equiv_pos_as_xyz
  1  'x, y, z'
loop_
 _atom_site_type_symbol
 _atom_site_label
 _atom_site_symmetry_multiplicity
 _atom_site_fract_x
 _atom_site_fract_y
 _atom_site_fract_z
 _atom_site_occupancy
  Ce  Ce0  1  0.000267  0.581169  0.500000  1
  Ce  Ce1  1  0.418831  0.419098  0.500000  1
  Ce  Ce2  1  0.580902  0.999733  0.500000  1
  Ga  Ga3  1  0.233925  0.998488  0.000000  1
  Ga  Ga4  1  0.764563  0.766075  0.000000  1
  Ga  Ga5  1  0.001512  0.235437  0.000000  1
  Ni  Ni6  1  0.333333  0.666667  0.000000  1
  Ni  Ni7  1  0.000000  0.000000  0.500000  1
  Os  Os8  1  0.666667  0.333333  0.000000  1
