# generated using pymatgen
data_Sm2Be(PdPt2)2
_symmetry_space_group_name_H-M   'P 1'
_cell_length_a   6.07855066
_cell_length_b   6.07855038
_cell_length_c   6.11271900
_cell_angle_alpha   59.81388347
_cell_angle_beta   59.81388503
_cell_angle_gamma   60.05437697
_symmetry_Int_Tables_number   1
_chemical_formula_structural   Sm2Be(PdPt2)2
_chemical_formula_sum   'Sm2 Be1 Pd2 Pt4'
_cell_volume   159.31958391
_cell_formula_units_Z   1
loop_
 _symmetry_equiv_pos_site_id
 _symmetry_equiv_pos_as_xyz
  1  'x, y, z'
loop_
 _atom_site_type_symbol
 _atom_site_label
 _atom_site_symmetry_multiplicity
 _atom_site_fract_x
 _atom_site_fract_y
 _atom_site_fract_z
 _atom_site_occupancy
  Sm  Sm0  1  0.249964  0.249964  0.250453  1
  Sm  Sm1  1  0.750036  0.750036  0.750382  1
  Be  Be2  1  0.500000  0.500000  0.498672  1
  Pd  Pd3  1  0.761550  0.238450  0.762222  1
  Pd  Pd4  1  0.238450  0.761550  0.762222  1
  Pt  Pt5  1  0.762973  0.237027  0.237027  1
  Pt  Pt6  1  0.237027  0.762973  0.237027  1
  Pt  Pt7  1  0.761497  0.761497  0.239502  1
  Pt  Pt8  1  0.238503  0.238503  0.762494  1
