# generated using pymatgen
data_Yb2Cu3Ru
_symmetry_space_group_name_H-M   'P 1'
_cell_length_a   5.19256158
_cell_length_b   5.04976631
_cell_length_c   8.65061000
_cell_angle_alpha   90.00000000
_cell_angle_beta   90.00000000
_cell_angle_gamma   119.09440526
_symmetry_Int_Tables_number   1
_chemical_formula_structural   Yb2Cu3Ru
_chemical_formula_sum   'Yb4 Cu6 Ru2'
_cell_volume   198.20814852
_cell_formula_units_Z   2
loop_
 _symmetry_equiv_pos_site_id
 _symmetry_equiv_pos_as_xyz
  1  'x, y, z'
loop_
 _atom_site_type_symbol
 _atom_site_label
 _atom_site_symmetry_multiplicity
 _atom_site_fract_x
 _atom_site_fract_y
 _atom_site_fract_z
 _atom_site_occupancy
  Yb  Yb0  1  0.327538  0.663770  0.433990  1
  Yb  Yb1  1  0.670399  0.335199  0.562634  1
  Yb  Yb2  1  0.670399  0.335199  0.937366  1
  Yb  Yb3  1  0.327538  0.663770  0.066010  1
  Cu  Cu4  1  0.998334  0.999167  0.498941  1
  Cu  Cu5  1  0.998334  0.999167  0.001059  1
  Cu  Cu6  1  0.331219  0.165610  0.250000  1
  Cu  Cu7  1  0.168871  0.835792  0.750000  1
  Cu  Cu8  1  0.168871  0.333079  0.750000  1
  Cu  Cu9  1  0.674688  0.837344  0.750000  1
  Ru  Ru10  1  0.831904  0.172853  0.250000  1
  Ru  Ru11  1  0.831904  0.659051  0.250000  1
