# generated using pymatgen
data_Na16Ca3Cd5P8(O4F)8
_symmetry_space_group_name_H-M   'P 1'
_cell_length_a   7.16915100
_cell_length_b   10.77983196
_cell_length_c   13.45175800
_cell_angle_alpha   66.42652336
_cell_angle_beta   90.00000000
_cell_angle_gamma   90.00000000
_symmetry_Int_Tables_number   1
_chemical_formula_structural   Na16Ca3Cd5P8(O4F)8
_chemical_formula_sum   'Na16 Ca3 Cd5 P8 O32 F8'
_cell_volume   952.82679104
_cell_formula_units_Z   1
loop_
 _symmetry_equiv_pos_site_id
 _symmetry_equiv_pos_as_xyz
  1  'x, y, z'
loop_
 _atom_site_type_symbol
 _atom_site_label
 _atom_site_symmetry_multiplicity
 _atom_site_fract_x
 _atom_site_fract_y
 _atom_site_fract_z
 _atom_site_occupancy
  Na  Na0  1  0.749873  0.914519  0.908562  1
  Na  Na1  1  0.730095  0.822886  0.591471  1
  Na  Na2  1  0.017467  0.434109  0.330893  1
  Na  Na3  1  0.770438  0.321931  0.591647  1
  Na  Na4  1  0.521398  0.062247  0.671002  1
  Na  Na5  1  0.751342  0.414219  0.907287  1
  Na  Na6  1  0.246242  0.589085  0.088023  1
  Na  Na7  1  0.474113  0.790389  0.163638  1
  Na  Na8  1  0.526410  0.213911  0.831541  1
  Na  Na9  1  0.270593  0.175949  0.414269  1
  Na  Na10  1  0.482847  0.931351  0.332181  1
  Na  Na11  1  0.979168  0.562563  0.670519  1
  Na  Na12  1  0.226554  0.676394  0.412140  1
  Na  Na13  1  0.024670  0.291921  0.162736  1
  Na  Na14  1  0.972578  0.713816  0.831639  1
  Na  Na15  1  0.250625  0.085333  0.087770  1
  Ca  Ca16  1  0.495540  0.275016  0.173822  1
  Ca  Ca17  1  0.014097  0.970133  0.330250  1
  Ca  Ca18  1  0.486130  0.470250  0.331847  1
  Cd  Cd19  1  0.993964  0.037538  0.668217  1
  Cd  Cd20  1  0.499359  0.725460  0.829549  1
  Cd  Cd21  1  0.000411  0.225543  0.829258  1
  Cd  Cd22  1  0.506599  0.538468  0.667411  1
  Cd  Cd23  1  0.996735  0.773770  0.171447  1
  P  P24  1  0.736750  0.644235  0.413956  1
  P  P25  1  0.236627  0.852082  0.588336  1
  P  P26  1  0.260463  0.436949  0.912688  1
  P  P27  1  0.238679  0.936350  0.913590  1
  P  P28  1  0.764035  0.144452  0.414772  1
  P  P29  1  0.760716  0.064172  0.084284  1
  P  P30  1  0.740742  0.563837  0.083414  1
  P  P31  1  0.263471  0.352289  0.588361  1
  O  O32  1  0.728242  0.638017  0.531876  1
  O  O33  1  0.548336  0.695025  0.353854  1
  O  O34  1  0.448956  0.291329  0.645377  1
  O  O35  1  0.075590  0.416816  0.859702  1
  O  O36  1  0.051187  0.791339  0.645549  1
  O  O37  1  0.236669  0.864808  0.469057  1
  O  O38  1  0.576810  0.083113  0.138195  1
  O  O39  1  0.931809  0.083027  0.147813  1
  O  O40  1  0.952128  0.195595  0.354256  1
  O  O41  1  0.407032  0.761819  0.650318  1
  O  O42  1  0.067669  0.918217  0.849315  1
  O  O43  1  0.773976  0.135978  0.533328  1
  O  O44  1  0.240099  0.497824  0.588861  1
  O  O45  1  0.567192  0.576352  0.148345  1
  O  O46  1  0.768161  0.167751  0.963802  1
  O  O47  1  0.770879  0.499903  0.416094  1
  O  O48  1  0.601471  0.242859  0.353836  1
  O  O49  1  0.424051  0.916268  0.861049  1
  O  O50  1  0.729272  0.000692  0.415451  1
  O  O51  1  0.923225  0.583953  0.139354  1
  O  O52  1  0.899818  0.742599  0.352198  1
  O  O53  1  0.228055  0.832534  0.034039  1
  O  O54  1  0.093246  0.262093  0.650632  1
  O  O55  1  0.240563  0.083771  0.910963  1
  O  O56  1  0.431910  0.419275  0.848336  1
  O  O57  1  0.262684  0.364579  0.469203  1
  O  O58  1  0.273509  0.333773  0.032781  1
  O  O59  1  0.260626  0.997297  0.589424  1
  O  O60  1  0.731509  0.671185  0.964440  1
  O  O61  1  0.745907  0.418081  0.084235  1
  O  O62  1  0.258085  0.584359  0.910343  1
  O  O63  1  0.761137  0.916274  0.087008  1
  F  F64  1  0.767149  0.386374  0.735466  1
  F  F65  1  0.276205  0.378571  0.240354  1
  F  F66  1  0.725695  0.621502  0.762125  1
  F  F67  1  0.230476  0.614687  0.264184  1
  F  F68  1  0.732079  0.885924  0.736060  1
  F  F69  1  0.774455  0.121306  0.762038  1
  F  F70  1  0.272731  0.114798  0.264354  1
  F  F71  1  0.222675  0.879168  0.239863  1
