# generated using pymatgen
data_Sc6TaSb5Ru12
_symmetry_space_group_name_H-M   'P 1'
_cell_length_a   4.51999300
_cell_length_b   6.39145500
_cell_length_c   13.58041100
_cell_angle_alpha   90.00066076
_cell_angle_beta   89.99886001
_cell_angle_gamma   89.99971714
_symmetry_Int_Tables_number   1
_chemical_formula_structural   Sc6TaSb5Ru12
_chemical_formula_sum   'Sc6 Ta1 Sb5 Ru12'
_cell_volume   392.32900012
_cell_formula_units_Z   1
loop_
 _symmetry_equiv_pos_site_id
 _symmetry_equiv_pos_as_xyz
  1  'x, y, z'
loop_
 _atom_site_type_symbol
 _atom_site_label
 _atom_site_symmetry_multiplicity
 _atom_site_fract_x
 _atom_site_fract_y
 _atom_site_fract_z
 _atom_site_occupancy
  Sc  Sc0  1  0.000001  0.999989  0.002360  1
  Sc  Sc1  1  0.499886  0.499992  0.166078  1
  Sc  Sc2  1  0.999896  0.000009  0.333328  1
  Sc  Sc3  1  0.500013  0.499999  0.500586  1
  Sc  Sc4  1  0.000109  0.999979  0.664334  1
  Sc  Sc5  1  0.500076  0.500033  0.833339  1
  Ta  Ta6  1  0.500081  0.000013  0.833345  1
  Sb  Sb7  1  0.000009  0.500001  0.999350  1
  Sb  Sb8  1  0.499900  0.999996  0.166715  1
  Sb  Sb9  1  0.999915  0.500006  0.333334  1
  Sb  Sb10  1  0.500007  0.999998  0.499954  1
  Sb  Sb11  1  0.000109  0.499999  0.667316  1
  Ru  Ru12  1  0.500011  0.245678  0.996200  1
  Ru  Ru13  1  0.500011  0.754318  0.996201  1
  Ru  Ru14  1  0.999885  0.250749  0.167251  1
  Ru  Ru15  1  0.999887  0.749251  0.167250  1
  Ru  Ru16  1  0.499916  0.250623  0.333325  1
  Ru  Ru17  1  0.499917  0.749378  0.333325  1
  Ru  Ru18  1  0.000004  0.250737  0.499412  1
  Ru  Ru19  1  0.000003  0.749263  0.499411  1
  Ru  Ru20  1  0.500099  0.245690  0.670457  1
  Ru  Ru21  1  0.500101  0.754305  0.670455  1
  Ru  Ru22  1  0.000080  0.241357  0.833334  1
  Ru  Ru23  1  0.000082  0.758636  0.833337  1
