# generated using pymatgen
data_La7Yb2Pr(Si2Ge)2
_symmetry_space_group_name_H-M   'P 1'
_cell_length_a   7.89488452
_cell_length_b   9.03021694
_cell_length_c   7.89488452
_cell_angle_alpha   115.90509851
_cell_angle_beta   90.06835117
_cell_angle_gamma   115.87118807
_symmetry_Int_Tables_number   1
_chemical_formula_structural   La7Yb2Pr(Si2Ge)2
_chemical_formula_sum   'La7 Yb2 Pr1 Si4 Ge2'
_cell_volume   442.56938923
_cell_formula_units_Z   1
loop_
 _symmetry_equiv_pos_site_id
 _symmetry_equiv_pos_as_xyz
  1  'x, y, z'
loop_
 _atom_site_type_symbol
 _atom_site_label
 _atom_site_symmetry_multiplicity
 _atom_site_fract_x
 _atom_site_fract_y
 _atom_site_fract_z
 _atom_site_occupancy
  La  La0  1  0.532738  0.709337  0.676600  1
  La  La1  1  0.177049  0.710093  0.033045  1
  La  La2  1  0.676517  0.708517  0.176195  1
  La  La3  1  0.032323  0.708517  0.532001  1
  La  La4  1  0.467817  0.291537  0.323719  1
  La  La5  1  0.323934  0.291097  0.824119  1
  La  La6  1  0.966978  0.291097  0.467162  1
  Yb  Yb7  1  0.999975  0.000366  0.000013  1
  Yb  Yb8  1  0.500353  0.000366  0.500391  1
  Pr  Pr9  1  0.821848  0.288114  0.966265  1
  Si  Si10  1  0.885951  0.000401  0.614450  1
  Si  Si11  1  0.113706  0.000532  0.386826  1
  Si  Si12  1  0.614176  0.000714  0.113437  1
  Si  Si13  1  0.387278  0.000714  0.886539  1
  Ge  Ge14  1  0.750410  0.499299  0.750351  1
  Ge  Ge15  1  0.248949  0.499299  0.248889  1
