# generated using pymatgen
data_Hf18Si16MoW
_symmetry_space_group_name_H-M   'P 1'
_cell_length_a   7.00511711
_cell_length_b   7.00511574
_cell_length_c   12.80146409
_cell_angle_alpha   89.99041125
_cell_angle_beta   89.99041281
_cell_angle_gamma   89.80330745
_symmetry_Int_Tables_number   1
_chemical_formula_structural   Hf18Si16MoW
_chemical_formula_sum   'Hf18 Si16 Mo1 W1'
_cell_volume   628.18532385
_cell_formula_units_Z   1
loop_
 _symmetry_equiv_pos_site_id
 _symmetry_equiv_pos_as_xyz
  1  'x, y, z'
loop_
 _atom_site_type_symbol
 _atom_site_label
 _atom_site_symmetry_multiplicity
 _atom_site_fract_x
 _atom_site_fract_y
 _atom_site_fract_z
 _atom_site_occupancy
  Hf  Hf0  1  0.824761  0.824837  0.499992  1
  Hf  Hf1  1  0.175163  0.175239  0.000008  1
  Hf  Hf2  1  0.495891  0.152950  0.530789  1
  Hf  Hf3  1  0.504077  0.847002  0.030992  1
  Hf  Hf4  1  0.653545  0.002194  0.282439  1
  Hf  Hf5  1  0.346320  0.997742  0.782444  1
  Hf  Hf6  1  0.847050  0.504109  0.969211  1
  Hf  Hf7  1  0.152998  0.495923  0.469008  1
  Hf  Hf8  1  0.002258  0.653680  0.717556  1
  Hf  Hf9  1  0.997806  0.346455  0.217561  1
  Hf  Hf10  1  0.498044  0.355673  0.126878  1
  Hf  Hf11  1  0.501891  0.644197  0.626865  1
  Hf  Hf12  1  0.853418  0.001951  0.875409  1
  Hf  Hf13  1  0.146682  0.998081  0.375355  1
  Hf  Hf14  1  0.644327  0.501956  0.373122  1
  Hf  Hf15  1  0.355803  0.498109  0.873135  1
  Hf  Hf16  1  0.001919  0.853318  0.124645  1
  Hf  Hf17  1  0.998049  0.146582  0.624591  1
  Si  Si18  1  0.796287  0.147146  0.071545  1
  Si  Si19  1  0.203641  0.852879  0.571617  1
  Si  Si20  1  0.647117  0.701954  0.822419  1
  Si  Si21  1  0.352872  0.298270  0.322425  1
  Si  Si22  1  0.852854  0.203713  0.428455  1
  Si  Si23  1  0.147121  0.796359  0.928383  1
  Si  Si24  1  0.701730  0.647128  0.177575  1
  Si  Si25  1  0.298046  0.352883  0.677581  1
  Si  Si26  1  0.550839  0.199868  0.934083  1
  Si  Si27  1  0.449294  0.800098  0.434027  1
  Si  Si28  1  0.695634  0.956092  0.685732  1
  Si  Si29  1  0.304423  0.043766  0.185683  1
  Si  Si30  1  0.800132  0.449161  0.565917  1
  Si  Si31  1  0.199902  0.550706  0.065973  1
  Si  Si32  1  0.956234  0.695577  0.314317  1
  Si  Si33  1  0.043908  0.304366  0.814268  1
  Mo  Mo34  1  0.675341  0.324659  0.750000  1
  W  W35  1  0.324620  0.675380  0.250000  1
