# generated using pymatgen
data_TbHo3Lu2(Al3Os)8
_symmetry_space_group_name_H-M   'P 1'
_cell_length_a   8.78571846
_cell_length_b   8.78025629
_cell_length_c   9.60545800
_cell_angle_alpha   90.00000000
_cell_angle_beta   90.00000000
_cell_angle_gamma   119.97300009
_symmetry_Int_Tables_number   1
_chemical_formula_structural   TbHo3Lu2(Al3Os)8
_chemical_formula_sum   'Tb1 Ho3 Lu2 Al24 Os8'
_cell_volume   641.87620777
_cell_formula_units_Z   1
loop_
 _symmetry_equiv_pos_site_id
 _symmetry_equiv_pos_as_xyz
  1  'x, y, z'
loop_
 _atom_site_type_symbol
 _atom_site_label
 _atom_site_symmetry_multiplicity
 _atom_site_fract_x
 _atom_site_fract_y
 _atom_site_fract_z
 _atom_site_occupancy
  Tb  Tb0  1  0.807944  0.192391  0.750000  1
  Ho  Ho1  1  0.193220  0.387432  0.250000  1
  Ho  Ho2  1  0.806111  0.612239  0.750000  1
  Ho  Ho3  1  0.388037  0.194240  0.750000  1
  Lu  Lu4  1  0.608687  0.804982  0.250000  1
  Lu  Lu5  1  0.195268  0.804866  0.250000  1
  Al  Al6  1  0.333447  0.666984  0.022422  1
  Al  Al7  1  0.666894  0.333432  0.980241  1
  Al  Al8  1  0.666894  0.333432  0.519759  1
  Al  Al9  1  0.333447  0.666984  0.477578  1
  Al  Al10  1  0.164225  0.328005  0.575366  1
  Al  Al11  1  0.836620  0.673660  0.423315  1
  Al  Al12  1  0.672445  0.836109  0.574673  1
  Al  Al13  1  0.836620  0.673660  0.076685  1
  Al  Al14  1  0.326943  0.163261  0.423386  1
  Al  Al15  1  0.164225  0.328005  0.924634  1
  Al  Al16  1  0.163792  0.836422  0.574751  1
  Al  Al17  1  0.326943  0.163261  0.076614  1
  Al  Al18  1  0.835943  0.163178  0.422860  1
  Al  Al19  1  0.672445  0.836109  0.925327  1
  Al  Al20  1  0.835943  0.163178  0.077140  1
  Al  Al21  1  0.163792  0.836422  0.925249  1
  Al  Al22  1  0.560909  0.122814  0.250000  1
  Al  Al23  1  0.437869  0.875766  0.750000  1
  Al  Al24  1  0.876351  0.439376  0.250000  1
  Al  Al25  1  0.124456  0.562482  0.750000  1
  Al  Al26  1  0.562110  0.439287  0.250000  1
  Al  Al27  1  0.438046  0.562469  0.750000  1
  Al  Al28  1  0.998344  0.997857  0.250000  1
  Al  Al29  1  0.001784  0.998673  0.750000  1
  Os  Os30  1  0.499257  0.999226  0.001326  1
  Os  Os31  1  0.000717  0.501174  0.001004  1
  Os  Os32  1  0.499257  0.999226  0.498674  1
  Os  Os33  1  0.500177  0.500750  0.000520  1
  Os  Os34  1  0.000717  0.501174  0.498996  1
  Os  Os35  1  0.500177  0.500750  0.499480  1
  Os  Os36  1  0.999971  0.000361  0.000193  1
  Os  Os37  1  0.999971  0.000361  0.499807  1
