# generated using pymatgen
data_Yb3LuBeOs7
_symmetry_space_group_name_H-M   'P 1'
_cell_length_a   5.22956700
_cell_length_b   5.23606061
_cell_length_c   8.71523595
_cell_angle_alpha   89.67297739
_cell_angle_beta   90.00000000
_cell_angle_gamma   119.95897766
_symmetry_Int_Tables_number   1
_chemical_formula_structural   Yb3LuBeOs7
_chemical_formula_sum   'Yb3 Lu1 Be1 Os7'
_cell_volume   206.75219465
_cell_formula_units_Z   1
loop_
 _symmetry_equiv_pos_site_id
 _symmetry_equiv_pos_as_xyz
  1  'x, y, z'
loop_
 _atom_site_type_symbol
 _atom_site_label
 _atom_site_symmetry_multiplicity
 _atom_site_fract_x
 _atom_site_fract_y
 _atom_site_fract_z
 _atom_site_occupancy
  Yb  Yb0  1  0.329988  0.659976  0.440741  1
  Yb  Yb1  1  0.667016  0.334031  0.562828  1
  Yb  Yb2  1  0.668012  0.336024  0.931589  1
  Lu  Lu3  1  0.332614  0.665228  0.066155  1
  Be  Be4  1  0.172649  0.345298  0.754599  1
  Os  Os5  1  0.185834  0.842286  0.750448  1
  Os  Os6  1  0.344574  0.173364  0.248036  1
  Os  Os7  1  0.831125  0.662251  0.248737  1
  Os  Os8  1  0.656452  0.842286  0.750448  1
  Os  Os9  1  0.992805  0.985610  0.992721  1
  Os  Os10  1  0.828791  0.173364  0.248036  1
  Os  Os11  1  0.990141  0.980282  0.505664  1
