# generated using pymatgen
data_Tm3BiBRh6
_symmetry_space_group_name_H-M   'P 1'
_cell_length_a   5.82793500
_cell_length_b   5.82793496
_cell_length_c   13.85467900
_cell_angle_alpha   90.00000000
_cell_angle_beta   90.00000000
_cell_angle_gamma   119.99999457
_symmetry_Int_Tables_number   1
_chemical_formula_structural   Tm3BiBRh6
_chemical_formula_sum   'Tm6 Bi2 B2 Rh12'
_cell_volume   407.52712340
_cell_formula_units_Z   2
loop_
 _symmetry_equiv_pos_site_id
 _symmetry_equiv_pos_as_xyz
  1  'x, y, z'
loop_
 _atom_site_type_symbol
 _atom_site_label
 _atom_site_symmetry_multiplicity
 _atom_site_fract_x
 _atom_site_fract_y
 _atom_site_fract_z
 _atom_site_occupancy
  Tm  Tm0  1  0.000000  0.000000  0.750000  1
  Tm  Tm1  1  0.000000  0.000000  0.250000  1
  Tm  Tm2  1  0.333333  0.666667  0.416566  1
  Tm  Tm3  1  0.666667  0.333333  0.916566  1
  Tm  Tm4  1  0.666667  0.333333  0.583434  1
  Tm  Tm5  1  0.333333  0.666667  0.083434  1
  Bi  Bi6  1  0.333333  0.666667  0.750000  1
  Bi  Bi7  1  0.666667  0.333333  0.250000  1
  B  B8  1  0.000000  0.000000  0.500000  1
  B  B9  1  0.000000  0.000000  0.000000  1
  Rh  Rh10  1  0.341630  0.170815  0.413514  1
  Rh  Rh11  1  0.829185  0.170815  0.413514  1
  Rh  Rh12  1  0.829185  0.658370  0.413514  1
  Rh  Rh13  1  0.170815  0.341630  0.913514  1
  Rh  Rh14  1  0.658370  0.829185  0.586486  1
  Rh  Rh15  1  0.658370  0.829185  0.913514  1
  Rh  Rh16  1  0.341630  0.170815  0.086486  1
  Rh  Rh17  1  0.170815  0.341630  0.586486  1
  Rh  Rh18  1  0.170815  0.829185  0.586486  1
  Rh  Rh19  1  0.829185  0.170815  0.086486  1
  Rh  Rh20  1  0.829185  0.658370  0.086486  1
  Rh  Rh21  1  0.170815  0.829185  0.913514  1
