# generated using pymatgen
data_Pr3ThAl14(Ga2Ir3)2
_symmetry_space_group_name_H-M   'P 1'
_cell_length_a   7.62707708
_cell_length_b   7.62678872
_cell_length_c   9.66295200
_cell_angle_alpha   90.00000000
_cell_angle_beta   90.00000000
_cell_angle_gamma   119.41652321
_symmetry_Int_Tables_number   1
_chemical_formula_structural   Pr3ThAl14(Ga2Ir3)2
_chemical_formula_sum   'Pr3 Th1 Al14 Ga4 Ir6'
_cell_volume   489.62527632
_cell_formula_units_Z   1
loop_
 _symmetry_equiv_pos_site_id
 _symmetry_equiv_pos_as_xyz
  1  'x, y, z'
loop_
 _atom_site_type_symbol
 _atom_site_label
 _atom_site_symmetry_multiplicity
 _atom_site_fract_x
 _atom_site_fract_y
 _atom_site_fract_z
 _atom_site_occupancy
  Pr  Pr0  1  0.002338  0.327608  0.750000  1
  Pr  Pr1  1  0.670135  0.993419  0.250000  1
  Pr  Pr2  1  0.330467  0.006094  0.750000  1
  Th  Th3  1  0.997218  0.672869  0.250000  1
  Al  Al4  1  0.002656  0.332881  0.072578  1
  Al  Al5  1  0.997080  0.664710  0.925010  1
  Al  Al6  1  0.997080  0.664710  0.574990  1
  Al  Al7  1  0.338283  0.005579  0.427659  1
  Al  Al8  1  0.002656  0.332881  0.427422  1
  Al  Al9  1  0.664523  0.996934  0.572584  1
  Al  Al10  1  0.664523  0.996934  0.927416  1
  Al  Al11  1  0.338283  0.005579  0.072341  1
  Al  Al12  1  0.333863  0.334308  0.548862  1
  Al  Al13  1  0.663701  0.664983  0.452551  1
  Al  Al14  1  0.663701  0.664983  0.047449  1
  Al  Al15  1  0.333863  0.334308  0.951138  1
  Al  Al16  1  0.545615  0.340524  0.250000  1
  Al  Al17  1  0.452357  0.660171  0.750000  1
  Ga  Ga18  1  0.133184  0.134114  0.250000  1
  Ga  Ga19  1  0.868992  0.869393  0.750000  1
  Ga  Ga20  1  0.340766  0.544682  0.250000  1
  Ga  Ga21  1  0.659475  0.454493  0.750000  1
  Ir  Ir22  1  0.671667  0.330713  0.004180  1
  Ir  Ir23  1  0.328186  0.670806  0.999294  1
  Ir  Ir24  1  0.328186  0.670806  0.500706  1
  Ir  Ir25  1  0.671667  0.330713  0.495820  1
  Ir  Ir26  1  0.999771  0.997403  0.002357  1
  Ir  Ir27  1  0.999771  0.997403  0.497643  1
