# generated using pymatgen
data_Hf9MnRe4
_symmetry_space_group_name_H-M   'P 1'
_cell_length_a   8.54884600
_cell_length_b   8.54884617
_cell_length_c   8.51730400
_cell_angle_alpha   90.00000000
_cell_angle_beta   90.00000000
_cell_angle_gamma   119.99999936
_symmetry_Int_Tables_number   1
_chemical_formula_structural   Hf9MnRe4
_chemical_formula_sum   'Hf18 Mn2 Re8'
_cell_volume   539.07324627
_cell_formula_units_Z   2
loop_
 _symmetry_equiv_pos_site_id
 _symmetry_equiv_pos_as_xyz
  1  'x, y, z'
loop_
 _atom_site_type_symbol
 _atom_site_label
 _atom_site_symmetry_multiplicity
 _atom_site_fract_x
 _atom_site_fract_y
 _atom_site_fract_z
 _atom_site_occupancy
  Hf  Hf0  1  0.200471  0.799529  0.443686  1
  Hf  Hf1  1  0.200471  0.400943  0.443686  1
  Hf  Hf2  1  0.599057  0.799529  0.443686  1
  Hf  Hf3  1  0.799529  0.200471  0.556314  1
  Hf  Hf4  1  0.799529  0.599057  0.556314  1
  Hf  Hf5  1  0.400943  0.200471  0.556314  1
  Hf  Hf6  1  0.799529  0.200471  0.943686  1
  Hf  Hf7  1  0.799529  0.599057  0.943686  1
  Hf  Hf8  1  0.400943  0.200471  0.943686  1
  Hf  Hf9  1  0.200471  0.799529  0.056314  1
  Hf  Hf10  1  0.200471  0.400943  0.056314  1
  Hf  Hf11  1  0.599057  0.799529  0.056314  1
  Hf  Hf12  1  0.539100  0.460900  0.250000  1
  Hf  Hf13  1  0.539100  0.078200  0.250000  1
  Hf  Hf14  1  0.921800  0.460900  0.250000  1
  Hf  Hf15  1  0.460900  0.539100  0.750000  1
  Hf  Hf16  1  0.460900  0.921800  0.750000  1
  Hf  Hf17  1  0.078200  0.539100  0.750000  1
  Mn  Mn18  1  0.333333  0.666667  0.250000  1
  Mn  Mn19  1  0.666667  0.333333  0.750000  1
  Re  Re20  1  0.889064  0.110936  0.250000  1
  Re  Re21  1  0.889064  0.778129  0.250000  1
  Re  Re22  1  0.221871  0.110936  0.250000  1
  Re  Re23  1  0.110936  0.889064  0.750000  1
  Re  Re24  1  0.110936  0.221871  0.750000  1
  Re  Re25  1  0.778129  0.889064  0.750000  1
  Re  Re26  1  0.000000  0.000000  0.500000  1
  Re  Re27  1  0.000000  0.000000  0.000000  1
