# generated using pymatgen
data_Er9Tm(In2Ni)4
_symmetry_space_group_name_H-M   'P 1'
_cell_length_a   3.56937700
_cell_length_b   7.96769200
_cell_length_c   17.83942900
_cell_angle_alpha   89.99979976
_cell_angle_beta   90.00000000
_cell_angle_gamma   90.00000000
_symmetry_Int_Tables_number   1
_chemical_formula_structural   Er9Tm(In2Ni)4
_chemical_formula_sum   'Er9 Tm1 In8 Ni4'
_cell_volume   507.34794770
_cell_formula_units_Z   1
loop_
 _symmetry_equiv_pos_site_id
 _symmetry_equiv_pos_as_xyz
  1  'x, y, z'
loop_
 _atom_site_type_symbol
 _atom_site_label
 _atom_site_symmetry_multiplicity
 _atom_site_fract_x
 _atom_site_fract_y
 _atom_site_fract_z
 _atom_site_occupancy
  Er  Er0  1  0.000000  0.499986  0.499928  1
  Er  Er1  1  0.000000  0.000010  0.000039  1
  Er  Er2  1  0.000000  0.746072  0.278149  1
  Er  Er3  1  0.000000  0.253909  0.721913  1
  Er  Er4  1  0.000000  0.754028  0.778027  1
  Er  Er5  1  0.000000  0.245901  0.222016  1
  Er  Er6  1  0.000000  0.617068  0.088324  1
  Er  Er7  1  0.000000  0.382865  0.911785  1
  Er  Er8  1  0.000000  0.882926  0.588167  1
  Tm  Tm9  1  0.000000  0.116999  0.411434  1
  In  In10  1  0.500000  0.705587  0.931006  1
  In  In11  1  0.500000  0.294411  0.069126  1
  In  In12  1  0.500000  0.795265  0.431102  1
  In  In13  1  0.500000  0.205233  0.568652  1
  In  In14  1  0.500000  0.573444  0.651674  1
  In  In15  1  0.500000  0.425997  0.348311  1
  In  In16  1  0.500000  0.926673  0.151965  1
  In  In17  1  0.500000  0.073244  0.848106  1
  Ni  Ni18  1  0.500000  0.524436  0.195583  1
  Ni  Ni19  1  0.500000  0.475551  0.804412  1
  Ni  Ni20  1  0.500000  0.975575  0.695488  1
  Ni  Ni21  1  0.500000  0.024819  0.304794  1
