# generated using pymatgen
data_ErLu4(In2Pd)2
_symmetry_space_group_name_H-M   'P 1'
_cell_length_a   3.57868400
_cell_length_b   8.02774800
_cell_length_c   18.04604200
_cell_angle_alpha   90.00000000
_cell_angle_beta   90.00000000
_cell_angle_gamma   90.00000000
_symmetry_Int_Tables_number   1
_chemical_formula_structural   ErLu4(In2Pd)2
_chemical_formula_sum   'Er2 Lu8 In8 Pd4'
_cell_volume   518.44065001
_cell_formula_units_Z   2
loop_
 _symmetry_equiv_pos_site_id
 _symmetry_equiv_pos_as_xyz
  1  'x, y, z'
loop_
 _atom_site_type_symbol
 _atom_site_label
 _atom_site_symmetry_multiplicity
 _atom_site_fract_x
 _atom_site_fract_y
 _atom_site_fract_z
 _atom_site_occupancy
  Er  Er0  1  0.000000  0.500000  0.500000  1
  Er  Er1  1  0.000000  0.000000  0.000000  1
  Lu  Lu2  1  0.000000  0.742954  0.279540  1
  Lu  Lu3  1  0.000000  0.257046  0.720460  1
  Lu  Lu4  1  0.000000  0.757046  0.779540  1
  Lu  Lu5  1  0.000000  0.242954  0.220460  1
  Lu  Lu6  1  0.000000  0.618463  0.084274  1
  Lu  Lu7  1  0.000000  0.381537  0.915726  1
  Lu  Lu8  1  0.000000  0.881537  0.584274  1
  Lu  Lu9  1  0.000000  0.118463  0.415726  1
  In  In10  1  0.500000  0.707571  0.932530  1
  In  In11  1  0.500000  0.292429  0.067470  1
  In  In12  1  0.500000  0.792429  0.432530  1
  In  In13  1  0.500000  0.207571  0.567470  1
  In  In14  1  0.500000  0.578177  0.649765  1
  In  In15  1  0.500000  0.421823  0.350235  1
  In  In16  1  0.500000  0.921823  0.149765  1
  In  In17  1  0.500000  0.078177  0.850235  1
  Pd  Pd18  1  0.500000  0.525673  0.195233  1
  Pd  Pd19  1  0.500000  0.474327  0.804767  1
  Pd  Pd20  1  0.500000  0.974327  0.695233  1
  Pd  Pd21  1  0.500000  0.025673  0.304767  1
