# generated using pymatgen
data_Sb11P(RuPt)2
_symmetry_space_group_name_H-M   'P 1'
_cell_length_a   7.95263826
_cell_length_b   7.95263740
_cell_length_c   7.95068100
_cell_angle_alpha   109.11107626
_cell_angle_beta   109.46631920
_cell_angle_gamma   109.84698397
_symmetry_Int_Tables_number   1
_chemical_formula_structural   Sb11P(RuPt)2
_chemical_formula_sum   'Sb11 P1 Ru2 Pt2'
_cell_volume   387.02048323
_cell_formula_units_Z   1
loop_
 _symmetry_equiv_pos_site_id
 _symmetry_equiv_pos_as_xyz
  1  'x, y, z'
loop_
 _atom_site_type_symbol
 _atom_site_label
 _atom_site_symmetry_multiplicity
 _atom_site_fract_x
 _atom_site_fract_y
 _atom_site_fract_z
 _atom_site_occupancy
  Sb  Sb0  1  0.844288  0.348015  0.192333  1
  Sb  Sb1  1  0.139050  0.668113  0.807181  1
  Sb  Sb2  1  0.335926  0.494182  0.146467  1
  Sb  Sb3  1  0.155926  0.343295  0.499208  1
  Sb  Sb4  1  0.652382  0.810588  0.146457  1
  Sb  Sb5  1  0.188277  0.839623  0.339258  1
  Sb  Sb6  1  0.663886  0.506972  0.848632  1
  Sb  Sb7  1  0.816132  0.157908  0.666326  1
  Sb  Sb8  1  0.341583  0.184785  0.848658  1
  Sb  Sb9  1  0.508500  0.850217  0.666332  1
  Sb  Sb10  1  0.499512  0.150929  0.339217  1
  P  P11  1  0.847031  0.652653  0.499703  1
  Ru  Ru12  1  0.998797  0.502258  0.000260  1
  Ru  Ru13  1  0.498015  0.001487  0.000287  1
  Pt  Pt14  1  0.990713  0.979857  0.499835  1
  Pt  Pt15  1  0.519978  0.509121  0.499846  1
