# generated using pymatgen
data_Ta2InRh5
_symmetry_space_group_name_H-M   'P 1'
_cell_length_a   5.58548431
_cell_length_b   5.58548396
_cell_length_c   8.14362000
_cell_angle_alpha   90.00000000
_cell_angle_beta   90.00000000
_cell_angle_gamma   96.30305785
_symmetry_Int_Tables_number   1
_chemical_formula_structural   Ta2InRh5
_chemical_formula_sum   'Ta4 In2 Rh10'
_cell_volume   252.52589015
_cell_formula_units_Z   2
loop_
 _symmetry_equiv_pos_site_id
 _symmetry_equiv_pos_as_xyz
  1  'x, y, z'
loop_
 _atom_site_type_symbol
 _atom_site_label
 _atom_site_symmetry_multiplicity
 _atom_site_fract_x
 _atom_site_fract_y
 _atom_site_fract_z
 _atom_site_occupancy
  Ta  Ta0  1  0.785242  0.214758  0.500000  1
  Ta  Ta1  1  0.214758  0.785242  0.000000  1
  Ta  Ta2  1  0.214758  0.785242  0.500000  1
  Ta  Ta3  1  0.785242  0.214758  0.000000  1
  In  In4  1  0.500830  0.500830  0.750000  1
  In  In5  1  0.499170  0.499170  0.250000  1
  Rh  Rh6  1  0.737522  0.737522  0.000302  1
  Rh  Rh7  1  0.737522  0.737522  0.499698  1
  Rh  Rh8  1  0.262478  0.262478  0.999698  1
  Rh  Rh9  1  0.262478  0.262478  0.500302  1
  Rh  Rh10  1  0.500064  0.000446  0.750000  1
  Rh  Rh11  1  0.499936  0.999554  0.250000  1
  Rh  Rh12  1  0.000192  0.000192  0.250000  1
  Rh  Rh13  1  0.999808  0.999808  0.750000  1
  Rh  Rh14  1  0.000446  0.500064  0.750000  1
  Rh  Rh15  1  0.999554  0.499936  0.250000  1
