# generated using pymatgen
data_Tb4DyCoBi2
_symmetry_space_group_name_H-M   'P 1'
_cell_length_a   8.05920568
_cell_length_b   8.88165115
_cell_length_c   12.46216426
_cell_angle_alpha   89.97908232
_cell_angle_beta   90.04712136
_cell_angle_gamma   90.00020707
_symmetry_Int_Tables_number   1
_chemical_formula_structural   Tb4DyCoBi2
_chemical_formula_sum   'Tb16 Dy4 Co4 Bi8'
_cell_volume   892.02955991
_cell_formula_units_Z   4
loop_
 _symmetry_equiv_pos_site_id
 _symmetry_equiv_pos_as_xyz
  1  'x, y, z'
loop_
 _atom_site_type_symbol
 _atom_site_label
 _atom_site_symmetry_multiplicity
 _atom_site_fract_x
 _atom_site_fract_y
 _atom_site_fract_z
 _atom_site_occupancy
  Tb  Tb0  1  0.848160  0.750142  0.801607  1
  Tb  Tb1  1  0.152096  0.249913  0.198442  1
  Tb  Tb2  1  0.348274  0.249858  0.698139  1
  Tb  Tb3  1  0.651530  0.750089  0.301783  1
  Tb  Tb4  1  0.379448  0.750104  0.689879  1
  Tb  Tb5  1  0.620101  0.249784  0.310188  1
  Tb  Tb6  1  0.879728  0.249898  0.809808  1
  Tb  Tb7  1  0.120615  0.750214  0.190151  1
  Tb  Tb8  1  0.954731  0.750154  0.502472  1
  Tb  Tb9  1  0.045818  0.249886  0.497528  1
  Tb  Tb10  1  0.454320  0.249843  0.997564  1
  Tb  Tb11  1  0.545205  0.750115  0.002446  1
  Tb  Tb12  1  0.823181  0.033654  0.062855  1
  Tb  Tb13  1  0.676812  0.466260  0.562827  1
  Tb  Tb14  1  0.822905  0.466350  0.062897  1
  Tb  Tb15  1  0.177065  0.533952  0.937028  1
  Dy  Dy16  1  0.675770  0.033778  0.562719  1
  Dy  Dy17  1  0.324234  0.966129  0.437202  1
  Dy  Dy18  1  0.176044  0.966005  0.937138  1
  Dy  Dy19  1  0.323959  0.533865  0.437161  1
  Co  Co20  1  0.558471  0.750282  0.507938  1
  Co  Co21  1  0.440712  0.249668  0.491917  1
  Co  Co22  1  0.059553  0.249717  0.991784  1
  Co  Co23  1  0.941229  0.750332  0.008102  1
  Bi  Bi24  1  0.570688  0.492249  0.825471  1
  Bi  Bi25  1  0.429268  0.507793  0.174689  1
  Bi  Bi26  1  0.070593  0.507769  0.674476  1
  Bi  Bi27  1  0.429327  0.992215  0.174633  1
  Bi  Bi28  1  0.929727  0.492309  0.325579  1
  Bi  Bi29  1  0.570374  0.007708  0.825423  1
  Bi  Bi30  1  0.929780  0.007690  0.325636  1
  Bi  Bi31  1  0.070283  0.992274  0.674520  1
