# generated using pymatgen
data_Tb4Pr2ScCo17P12
_symmetry_space_group_name_H-M   'P 1'
_cell_length_a   3.74434400
_cell_length_b   10.66619100
_cell_length_c   12.36875200
_cell_angle_alpha   90.00000000
_cell_angle_beta   90.00000000
_cell_angle_gamma   90.00000000
_symmetry_Int_Tables_number   1
_chemical_formula_structural   Tb4Pr2ScCo17P12
_chemical_formula_sum   'Tb4 Pr2 Sc1 Co17 P12'
_cell_volume   493.98183546
_cell_formula_units_Z   1
loop_
 _symmetry_equiv_pos_site_id
 _symmetry_equiv_pos_as_xyz
  1  'x, y, z'
loop_
 _atom_site_type_symbol
 _atom_site_label
 _atom_site_symmetry_multiplicity
 _atom_site_fract_x
 _atom_site_fract_y
 _atom_site_fract_z
 _atom_site_occupancy
  Tb  Tb0  1  0.500000  0.821302  0.206351  1
  Tb  Tb1  1  0.500000  0.178698  0.206351  1
  Tb  Tb2  1  0.000000  0.682668  0.796636  1
  Tb  Tb3  1  0.000000  0.317332  0.796636  1
  Pr  Pr4  1  0.000000  0.500000  0.528642  1
  Pr  Pr5  1  0.500000  0.000000  0.477222  1
  Sc  Sc6  1  0.500000  0.500000  0.149736  1
  Co  Co7  1  0.000000  0.000000  0.839580  1
  Co  Co8  1  0.500000  0.500000  0.707673  1
  Co  Co9  1  0.000000  0.000000  0.291857  1
  Co  Co10  1  0.000000  0.500000  0.984779  1
  Co  Co11  1  0.500000  0.000000  0.012103  1
  Co  Co12  1  0.500000  0.326477  0.990349  1
  Co  Co13  1  0.500000  0.673523  0.990349  1
  Co  Co14  1  0.000000  0.162187  0.001247  1
  Co  Co15  1  0.000000  0.837813  0.001247  1
  Co  Co16  1  0.500000  0.294709  0.432682  1
  Co  Co17  1  0.500000  0.705291  0.432682  1
  Co  Co18  1  0.000000  0.202645  0.572102  1
  Co  Co19  1  0.000000  0.797355  0.572102  1
  Co  Co20  1  0.500000  0.881207  0.710841  1
  Co  Co21  1  0.500000  0.118793  0.710841  1
  Co  Co22  1  0.000000  0.621882  0.293427  1
  Co  Co23  1  0.000000  0.378118  0.293427  1
  P  P24  1  0.500000  0.500000  0.885085  1
  P  P25  1  0.000000  0.000000  0.113949  1
  P  P26  1  0.500000  0.500000  0.353037  1
  P  P27  1  0.000000  0.000000  0.659771  1
  P  P28  1  0.500000  0.304915  0.619175  1
  P  P29  1  0.500000  0.695085  0.619175  1
  P  P30  1  0.000000  0.193186  0.384907  1
  P  P31  1  0.000000  0.806814  0.384907  1
  P  P32  1  0.500000  0.851336  0.890281  1
  P  P33  1  0.500000  0.148664  0.890281  1
  P  P34  1  0.000000  0.663248  0.100284  1
  P  P35  1  0.000000  0.336752  0.100284  1
