# generated using pymatgen
data_Y2Ho3SnSb2
_symmetry_space_group_name_H-M   'P 1'
_cell_length_a   8.97099211
_cell_length_b   8.94734744
_cell_length_c   6.38400600
_cell_angle_alpha   90.00000000
_cell_angle_beta   90.00000000
_cell_angle_gamma   119.91285501
_symmetry_Int_Tables_number   1
_chemical_formula_structural   Y2Ho3SnSb2
_chemical_formula_sum   'Y4 Ho6 Sn2 Sb4'
_cell_volume   444.15994720
_cell_formula_units_Z   2
loop_
 _symmetry_equiv_pos_site_id
 _symmetry_equiv_pos_as_xyz
  1  'x, y, z'
loop_
 _atom_site_type_symbol
 _atom_site_label
 _atom_site_symmetry_multiplicity
 _atom_site_fract_x
 _atom_site_fract_y
 _atom_site_fract_z
 _atom_site_occupancy
  Y  Y0  1  0.755116  0.999307  0.750000  1
  Y  Y1  1  0.755116  0.755808  0.250000  1
  Y  Y2  1  0.001085  0.244066  0.250000  1
  Y  Y3  1  0.001085  0.757019  0.750000  1
  Ho  Ho4  1  0.333655  0.666828  0.000000  1
  Ho  Ho5  1  0.665057  0.332528  0.500000  1
  Ho  Ho6  1  0.665057  0.332528  0.000000  1
  Ho  Ho7  1  0.333655  0.666828  0.500000  1
  Ho  Ho8  1  0.244232  0.242512  0.750000  1
  Ho  Ho9  1  0.244232  0.001721  0.250000  1
  Sn  Sn10  1  0.391956  0.999478  0.750000  1
  Sn  Sn11  1  0.391956  0.392478  0.250000  1
  Sb  Sb12  1  0.999695  0.609569  0.250000  1
  Sb  Sb13  1  0.999695  0.390126  0.750000  1
  Sb  Sb14  1  0.609205  0.608975  0.750000  1
  Sb  Sb15  1  0.609205  0.000229  0.250000  1
