# generated using pymatgen
data_PrThInPd2
_symmetry_space_group_name_H-M   'P 1'
_cell_length_a   7.98583100
_cell_length_b   7.97220100
_cell_length_c   3.83695900
_cell_angle_alpha   90.00000000
_cell_angle_beta   90.00000000
_cell_angle_gamma   90.00000000
_symmetry_Int_Tables_number   1
_chemical_formula_structural   PrThInPd2
_chemical_formula_sum   'Pr2 Th2 In2 Pd4'
_cell_volume   244.27865135
_cell_formula_units_Z   2
loop_
 _symmetry_equiv_pos_site_id
 _symmetry_equiv_pos_as_xyz
  1  'x, y, z'
loop_
 _atom_site_type_symbol
 _atom_site_label
 _atom_site_symmetry_multiplicity
 _atom_site_fract_x
 _atom_site_fract_y
 _atom_site_fract_z
 _atom_site_occupancy
  Pr  Pr0  1  0.175785  0.323044  0.500000  1
  Pr  Pr1  1  0.675785  0.176956  0.500000  1
  Th  Th2  1  0.325155  0.828062  0.500000  1
  Th  Th3  1  0.825155  0.671938  0.500000  1
  In  In4  1  0.997715  0.000669  0.000000  1
  In  In5  1  0.497715  0.499331  0.000000  1
  Pd  Pd6  1  0.373286  0.112627  0.000000  1
  Pd  Pd7  1  0.873286  0.387373  0.000000  1
  Pd  Pd8  1  0.128059  0.639117  0.000000  1
  Pd  Pd9  1  0.628059  0.860883  0.000000  1
