# generated using pymatgen
data_Ta2NbCr2ReSi3
_symmetry_space_group_name_H-M   'P 1'
_cell_length_a   6.70317300
_cell_length_b   6.74937547
_cell_length_c   3.31079600
_cell_angle_alpha   90.00000000
_cell_angle_beta   90.00000000
_cell_angle_gamma   120.12007191
_symmetry_Int_Tables_number   1
_chemical_formula_structural   Ta2NbCr2ReSi3
_chemical_formula_sum   'Ta2 Nb1 Cr2 Re1 Si3'
_cell_volume   129.56280284
_cell_formula_units_Z   1
loop_
 _symmetry_equiv_pos_site_id
 _symmetry_equiv_pos_as_xyz
  1  'x, y, z'
loop_
 _atom_site_type_symbol
 _atom_site_label
 _atom_site_symmetry_multiplicity
 _atom_site_fract_x
 _atom_site_fract_y
 _atom_site_fract_z
 _atom_site_occupancy
  Ta  Ta0  1  0.591415  0.996221  0.500000  1
  Ta  Ta1  1  0.999936  0.605585  0.500000  1
  Nb  Nb2  1  0.409384  0.405515  0.500000  1
  Cr  Cr3  1  0.744329  0.744732  0.000000  1
  Cr  Cr4  1  0.256085  0.999838  0.000000  1
  Re  Re5  1  0.999068  0.253858  0.000000  1
  Si  Si6  1  0.665103  0.334078  0.000000  1
  Si  Si7  1  0.334604  0.668625  0.000000  1
  Si  Si8  1  0.000077  0.991547  0.500000  1
