# generated using pymatgen
data_NdHoSi3Ni
_symmetry_space_group_name_H-M   'P 1'
_cell_length_a   4.15646300
_cell_length_b   7.99861140
_cell_length_c   7.99861213
_cell_angle_alpha   119.80423571
_cell_angle_beta   90.00000000
_cell_angle_gamma   90.00000000
_symmetry_Int_Tables_number   1
_chemical_formula_structural   NdHoSi3Ni
_chemical_formula_sum   'Nd2 Ho2 Si6 Ni2'
_cell_volume   230.74756239
_cell_formula_units_Z   2
loop_
 _symmetry_equiv_pos_site_id
 _symmetry_equiv_pos_as_xyz
  1  'x, y, z'
loop_
 _atom_site_type_symbol
 _atom_site_label
 _atom_site_symmetry_multiplicity
 _atom_site_fract_x
 _atom_site_fract_y
 _atom_site_fract_z
 _atom_site_occupancy
  Nd  Nd0  1  0.500000  0.000003  0.000003  1
  Nd  Nd1  1  0.500000  0.499994  0.499994  1
  Ho  Ho2  1  0.500000  0.000020  0.500005  1
  Ho  Ho3  1  0.500000  0.500005  0.000020  1
  Si  Si4  1  0.000000  0.827976  0.172054  1
  Si  Si5  1  0.000000  0.831011  0.656738  1
  Si  Si6  1  0.000000  0.343280  0.169017  1
  Si  Si7  1  0.000000  0.172054  0.827976  1
  Si  Si8  1  0.000000  0.656738  0.831011  1
  Si  Si9  1  0.000000  0.169017  0.343280  1
  Ni  Ni10  1  0.000000  0.667758  0.332245  1
  Ni  Ni11  1  0.000000  0.332245  0.667758  1
