# generated using pymatgen
data_Tb10Dy2InCo4Ir
_symmetry_space_group_name_H-M   'P 1'
_cell_length_a   8.35399461
_cell_length_b   8.36025262
_cell_length_c   8.35399609
_cell_angle_alpha   111.19145301
_cell_angle_beta   110.34154723
_cell_angle_gamma   106.88253396
_symmetry_Int_Tables_number   1
_chemical_formula_structural   Tb10Dy2InCo4Ir
_chemical_formula_sum   'Tb10 Dy2 In1 Co4 Ir1'
_cell_volume   448.60437951
_cell_formula_units_Z   1
loop_
 _symmetry_equiv_pos_site_id
 _symmetry_equiv_pos_as_xyz
  1  'x, y, z'
loop_
 _atom_site_type_symbol
 _atom_site_label
 _atom_site_symmetry_multiplicity
 _atom_site_fract_x
 _atom_site_fract_y
 _atom_site_fract_z
 _atom_site_occupancy
  Tb  Tb0  1  0.407798  0.213495  0.193172  1
  Tb  Tb1  1  0.592202  0.786505  0.806828  1
  Tb  Tb2  1  0.020322  0.213495  0.805696  1
  Tb  Tb3  1  0.979678  0.786505  0.194304  1
  Tb  Tb4  1  0.182516  0.288233  0.471856  1
  Tb  Tb5  1  0.817484  0.711767  0.528144  1
  Tb  Tb6  1  0.183624  0.711767  0.894284  1
  Tb  Tb7  1  0.816376  0.288233  0.105716  1
  Tb  Tb8  1  0.316016  0.622381  0.306367  1
  Tb  Tb9  1  0.683984  0.377619  0.693633  1
  Dy  Dy10  1  0.316189  0.009077  0.692888  1
  Dy  Dy11  1  0.683811  0.990923  0.307112  1
  In  In12  1  0.500000  0.500000  0.000000  1
  Co  Co13  1  0.379874  0.000000  0.379874  1
  Co  Co14  1  0.620126  0.000000  0.620126  1
  Co  Co15  1  0.111320  0.611824  0.500504  1
  Co  Co16  1  0.888680  0.388176  0.499496  1
  Ir  Ir17  1  0.000000  0.000000  0.000000  1
