# generated using pymatgen
data_Ta9Ga6TcC
_symmetry_space_group_name_H-M   'P 1'
_cell_length_a   7.72014000
_cell_length_b   7.72013919
_cell_length_c   5.23249300
_cell_angle_alpha   90.00000000
_cell_angle_beta   90.00000000
_cell_angle_gamma   119.99999491
_symmetry_Int_Tables_number   1
_chemical_formula_structural   Ta9Ga6TcC
_chemical_formula_sum   'Ta9 Ga6 Tc1 C1'
_cell_volume   270.07825343
_cell_formula_units_Z   1
loop_
 _symmetry_equiv_pos_site_id
 _symmetry_equiv_pos_as_xyz
  1  'x, y, z'
loop_
 _atom_site_type_symbol
 _atom_site_label
 _atom_site_symmetry_multiplicity
 _atom_site_fract_x
 _atom_site_fract_y
 _atom_site_fract_z
 _atom_site_occupancy
  Ta  Ta0  1  0.666667  0.333333  0.500000  1
  Ta  Ta1  1  0.666667  0.333333  0.000000  1
  Ta  Ta2  1  0.333333  0.666667  0.000000  1
  Ta  Ta3  1  0.997186  0.765477  0.244754  1
  Ta  Ta4  1  0.234523  0.231709  0.244754  1
  Ta  Ta5  1  0.768291  0.002814  0.244754  1
  Ta  Ta6  1  0.997186  0.231709  0.755246  1
  Ta  Ta7  1  0.768291  0.765477  0.755246  1
  Ta  Ta8  1  0.234523  0.002814  0.755246  1
  Ga  Ga9  1  0.004052  0.405706  0.254351  1
  Ga  Ga10  1  0.594294  0.598346  0.254351  1
  Ga  Ga11  1  0.401654  0.995948  0.254351  1
  Ga  Ga12  1  0.004052  0.598346  0.745649  1
  Ga  Ga13  1  0.401654  0.405706  0.745649  1
  Ga  Ga14  1  0.594294  0.995948  0.745649  1
  Tc  Tc15  1  0.333333  0.666667  0.500000  1
  C  C16  1  0.000000  0.000000  0.500000  1
