# generated using pymatgen
data_Ho4ScV3(WO6)4
_symmetry_space_group_name_H-M   'P 1'
_cell_length_a   5.22715776
_cell_length_b   7.45690084
_cell_length_c   11.20741084
_cell_angle_alpha   89.97404749
_cell_angle_beta   90.07722330
_cell_angle_gamma   90.11350451
_symmetry_Int_Tables_number   1
_chemical_formula_structural   Ho4ScV3(WO6)4
_chemical_formula_sum   'Ho4 Sc1 V3 W4 O24'
_cell_volume   436.84561113
_cell_formula_units_Z   1
loop_
 _symmetry_equiv_pos_site_id
 _symmetry_equiv_pos_as_xyz
  1  'x, y, z'
loop_
 _atom_site_type_symbol
 _atom_site_label
 _atom_site_symmetry_multiplicity
 _atom_site_fract_x
 _atom_site_fract_y
 _atom_site_fract_z
 _atom_site_occupancy
  Ho  Ho0  1  0.545477  0.254146  0.042841  1
  Ho  Ho1  1  0.043231  0.748969  0.455866  1
  Ho  Ho2  1  0.954499  0.251165  0.546793  1
  Ho  Ho3  1  0.455600  0.750592  0.951999  1
  Sc  Sc4  1  0.043265  0.995000  0.139247  1
  V  V5  1  0.551222  0.497800  0.365353  1
  V  V6  1  0.448863  0.997830  0.635234  1
  V  V7  1  0.949506  0.498139  0.865962  1
  W  W8  1  0.058007  0.506439  0.143294  1
  W  W9  1  0.553455  0.006910  0.359492  1
  W  W10  1  0.442971  0.505935  0.643047  1
  W  W11  1  0.944362  0.006479  0.856682  1
  O  O12  1  0.750776  0.960261  0.016513  1
  O  O13  1  0.764258  0.548512  0.028356  1
  O  O14  1  0.189671  0.744275  0.114105  1
  O  O15  1  0.926926  0.262896  0.143036  1
  O  O16  1  0.375490  0.430586  0.206509  1
  O  O17  1  0.406790  0.070759  0.213144  1
  O  O18  1  0.894126  0.569759  0.286017  1
  O  O19  1  0.875405  0.929029  0.299264  1
  O  O20  1  0.431127  0.759036  0.357735  1
  O  O21  1  0.681453  0.249086  0.386088  1
  O  O22  1  0.263112  0.047186  0.470698  1
  O  O23  1  0.255171  0.459499  0.480224  1
  O  O24  1  0.744067  0.960463  0.521142  1
  O  O25  1  0.735947  0.546519  0.528947  1
  O  O26  1  0.320081  0.749011  0.615040  1
  O  O27  1  0.566365  0.258815  0.642439  1
  O  O28  1  0.124489  0.432796  0.705858  1
  O  O29  1  0.105357  0.068921  0.712840  1
  O  O30  1  0.606757  0.568302  0.785774  1
  O  O31  1  0.625496  0.932154  0.791913  1
  O  O32  1  0.066151  0.758492  0.856899  1
  O  O33  1  0.819937  0.249518  0.883644  1
  O  O34  1  0.236718  0.047284  0.968610  1
  O  O35  1  0.243868  0.457831  0.979392  1
