# generated using pymatgen
data_Y3Er5Re3B24Ru
_symmetry_space_group_name_H-M   'P 1'
_cell_length_a   3.66217900
_cell_length_b   9.14018358
_cell_length_c   11.52851509
_cell_angle_alpha   89.88881348
_cell_angle_beta   90.00000000
_cell_angle_gamma   90.00000000
_symmetry_Int_Tables_number   1
_chemical_formula_structural   Y3Er5Re3B24Ru
_chemical_formula_sum   'Y3 Er5 Re3 B24 Ru1'
_cell_volume   385.89312477
_cell_formula_units_Z   1
loop_
 _symmetry_equiv_pos_site_id
 _symmetry_equiv_pos_as_xyz
  1  'x, y, z'
loop_
 _atom_site_type_symbol
 _atom_site_label
 _atom_site_symmetry_multiplicity
 _atom_site_fract_x
 _atom_site_fract_y
 _atom_site_fract_z
 _atom_site_occupancy
  Y  Y0  1  0.000000  0.322815  0.413737  1
  Y  Y1  1  0.000000  0.675717  0.584504  1
  Y  Y2  1  0.000000  0.822428  0.087436  1
  Er  Er3  1  0.000000  0.178381  0.914099  1
  Er  Er4  1  0.000000  0.943193  0.370948  1
  Er  Er5  1  0.000000  0.056888  0.630561  1
  Er  Er6  1  0.000000  0.443505  0.128962  1
  Er  Er7  1  0.000000  0.558153  0.869935  1
  Re  Re8  1  0.000000  0.638550  0.320333  1
  Re  Re9  1  0.000000  0.361109  0.680586  1
  Re  Re10  1  0.000000  0.138114  0.178039  1
  B  B11  1  0.500000  0.552877  0.432646  1
  B  B12  1  0.500000  0.446587  0.567343  1
  B  B13  1  0.500000  0.053097  0.066290  1
  B  B14  1  0.500000  0.946645  0.932461  1
  B  B15  1  0.500000  0.749184  0.418591  1
  B  B16  1  0.500000  0.250063  0.581958  1
  B  B17  1  0.500000  0.249705  0.080457  1
  B  B18  1  0.500000  0.751353  0.918257  1
  B  B19  1  0.500000  0.792312  0.265818  1
  B  B20  1  0.500000  0.207601  0.735553  1
  B  B21  1  0.500000  0.292092  0.233754  1
  B  B22  1  0.500000  0.709143  0.765675  1
  B  B23  1  0.500000  0.630665  0.185213  1
  B  B24  1  0.500000  0.369058  0.815734  1
  B  B25  1  0.500000  0.130055  0.313988  1
  B  B26  1  0.500000  0.869256  0.685782  1
  B  B27  1  0.500000  0.981611  0.212088  1
  B  B28  1  0.500000  0.017243  0.788209  1
  B  B29  1  0.500000  0.481933  0.287144  1
  B  B30  1  0.500000  0.517737  0.712558  1
  B  B31  1  0.500000  0.601409  0.027652  1
  B  B32  1  0.500000  0.399998  0.971614  1
  B  B33  1  0.500000  0.100117  0.472674  1
  B  B34  1  0.500000  0.899477  0.528619  1
  Ru  Ru35  1  0.000000  0.861926  0.820783  1
