# generated using pymatgen
data_TbDy2In4CoRu
_symmetry_space_group_name_H-M   'P 1'
_cell_length_a   7.91548100
_cell_length_b   7.91902488
_cell_length_c   3.73381600
_cell_angle_alpha   90.00000000
_cell_angle_beta   90.00000000
_cell_angle_gamma   119.98526176
_symmetry_Int_Tables_number   1
_chemical_formula_structural   TbDy2In4CoRu
_chemical_formula_sum   'Tb1 Dy2 In4 Co1 Ru1'
_cell_volume   202.72020706
_cell_formula_units_Z   1
loop_
 _symmetry_equiv_pos_site_id
 _symmetry_equiv_pos_as_xyz
  1  'x, y, z'
loop_
 _atom_site_type_symbol
 _atom_site_label
 _atom_site_symmetry_multiplicity
 _atom_site_fract_x
 _atom_site_fract_y
 _atom_site_fract_z
 _atom_site_occupancy
  Tb  Tb0  1  0.046899  0.296013  0.500000  1
  Dy  Dy1  1  0.704442  0.750718  0.500000  1
  Dy  Dy2  1  0.249070  0.953536  0.500000  1
  In  In3  1  0.665769  0.083108  0.000000  1
  In  In4  1  0.916460  0.583156  0.000000  1
  In  In5  1  0.417463  0.333515  0.000000  1
  In  In6  1  0.333723  0.667385  0.000000  1
  Co  Co7  1  0.666376  0.333330  0.500000  1
  Ru  Ru8  1  0.999798  0.999239  0.000000  1
