# generated using pymatgen
data_Tb4Ho12Cd4Ir3Ru
_symmetry_space_group_name_H-M   'P 1'
_cell_length_a   9.63969207
_cell_length_b   9.63463955
_cell_length_c   9.63463890
_cell_angle_alpha   59.76815623
_cell_angle_beta   59.75019610
_cell_angle_gamma   59.75020455
_symmetry_Int_Tables_number   1
_chemical_formula_structural   Tb4Ho12Cd4Ir3Ru
_chemical_formula_sum   'Tb4 Ho12 Cd4 Ir3 Ru1'
_cell_volume   629.22791934
_cell_formula_units_Z   1
loop_
 _symmetry_equiv_pos_site_id
 _symmetry_equiv_pos_as_xyz
  1  'x, y, z'
loop_
 _atom_site_type_symbol
 _atom_site_label
 _atom_site_symmetry_multiplicity
 _atom_site_fract_x
 _atom_site_fract_y
 _atom_site_fract_z
 _atom_site_occupancy
  Tb  Tb0  1  0.811715  0.188456  0.811709  1
  Tb  Tb1  1  0.188374  0.809749  0.188340  1
  Tb  Tb2  1  0.811715  0.811709  0.188456  1
  Tb  Tb3  1  0.188374  0.188340  0.809749  1
  Ho  Ho4  1  0.598962  0.598909  0.598909  1
  Ho  Ho5  1  0.598191  0.598123  0.206685  1
  Ho  Ho6  1  0.598191  0.206685  0.598123  1
  Ho  Ho7  1  0.206601  0.598200  0.598200  1
  Ho  Ho8  1  0.062314  0.438470  0.438470  1
  Ho  Ho9  1  0.437873  0.060578  0.060578  1
  Ho  Ho10  1  0.438575  0.062336  0.438526  1
  Ho  Ho11  1  0.060423  0.438030  0.060423  1
  Ho  Ho12  1  0.438575  0.438526  0.062336  1
  Ho  Ho13  1  0.060423  0.060423  0.438030  1
  Ho  Ho14  1  0.188882  0.811243  0.811243  1
  Ho  Ho15  1  0.809419  0.188696  0.188696  1
  Cd  Cd16  1  0.830136  0.829774  0.829774  1
  Cd  Cd17  1  0.830369  0.830769  0.507455  1
  Cd  Cd18  1  0.830369  0.507455  0.830769  1
  Cd  Cd19  1  0.507521  0.830387  0.830387  1
  Ir  Ir20  1  0.392710  0.393316  0.826091  1
  Ir  Ir21  1  0.392710  0.826091  0.393316  1
  Ir  Ir22  1  0.826103  0.392784  0.392784  1
  Ru  Ru23  1  0.391475  0.390954  0.390954  1
