# generated using pymatgen
data_Tb3In3Hg2Ir
_symmetry_space_group_name_H-M   'P 1'
_cell_length_a   7.99445700
_cell_length_b   7.99445788
_cell_length_c   3.92529000
_cell_angle_alpha   90.00000000
_cell_angle_beta   90.00000000
_cell_angle_gamma   120.00000161
_symmetry_Int_Tables_number   1
_chemical_formula_structural   Tb3In3Hg2Ir
_chemical_formula_sum   'Tb3 In3 Hg2 Ir1'
_cell_volume   217.26029360
_cell_formula_units_Z   1
loop_
 _symmetry_equiv_pos_site_id
 _symmetry_equiv_pos_as_xyz
  1  'x, y, z'
loop_
 _atom_site_type_symbol
 _atom_site_label
 _atom_site_symmetry_multiplicity
 _atom_site_fract_x
 _atom_site_fract_y
 _atom_site_fract_z
 _atom_site_occupancy
  Tb  Tb0  1  0.416991  0.383083  0.000000  1
  Tb  Tb1  1  0.616917  0.033907  0.000000  1
  Tb  Tb2  1  0.966093  0.583009  0.000000  1
  In  In3  1  0.999038  0.273681  0.500000  1
  In  In4  1  0.726319  0.725357  0.500000  1
  In  In5  1  0.274643  0.000962  0.500000  1
  Hg  Hg6  1  0.000000  0.000000  0.000000  1
  Hg  Hg7  1  0.333333  0.666667  0.500000  1
  Ir  Ir8  1  0.666667  0.333333  0.500000  1
