# generated using pymatgen
data_Tm4MoW3N8
_symmetry_space_group_name_H-M   'P 1'
_cell_length_a   3.17148600
_cell_length_b   5.66385902
_cell_length_c   10.50247004
_cell_angle_alpha   89.98944559
_cell_angle_beta   90.00000000
_cell_angle_gamma   90.00000000
_symmetry_Int_Tables_number   1
_chemical_formula_structural   Tm4MoW3N8
_chemical_formula_sum   'Tm4 Mo1 W3 N8'
_cell_volume   188.65428664
_cell_formula_units_Z   1
loop_
 _symmetry_equiv_pos_site_id
 _symmetry_equiv_pos_as_xyz
  1  'x, y, z'
loop_
 _atom_site_type_symbol
 _atom_site_label
 _atom_site_symmetry_multiplicity
 _atom_site_fract_x
 _atom_site_fract_y
 _atom_site_fract_z
 _atom_site_occupancy
  Tm  Tm0  1  0.250000  0.079024  0.853405  1
  Tm  Tm1  1  0.250000  0.578851  0.645797  1
  Tm  Tm2  1  0.750000  0.920669  0.145432  1
  Tm  Tm3  1  0.750000  0.420846  0.354258  1
  Mo  Mo4  1  0.750000  0.067921  0.594299  1
  W  W5  1  0.250000  0.431678  0.095172  1
  W  W6  1  0.250000  0.932609  0.405402  1
  W  W7  1  0.750000  0.568593  0.904856  1
  N  N8  1  0.250000  0.164234  0.248312  1
  N  N9  1  0.250000  0.665542  0.252246  1
  N  N10  1  0.750000  0.833752  0.752675  1
  N  N11  1  0.750000  0.337494  0.749692  1
  N  N12  1  0.250000  0.766480  0.994639  1
  N  N13  1  0.250000  0.264281  0.504340  1
  N  N14  1  0.750000  0.233667  0.005809  1
  N  N15  1  0.750000  0.734358  0.493664  1
