# generated using pymatgen
data_Dy6Al24Ir3Os5
_symmetry_space_group_name_H-M   'P 1'
_cell_length_a   8.77547181
_cell_length_b   8.78616108
_cell_length_c   9.56734507
_cell_angle_alpha   90.00618636
_cell_angle_beta   89.84374434
_cell_angle_gamma   119.47514542
_symmetry_Int_Tables_number   1
_chemical_formula_structural   Dy6Al24Ir3Os5
_chemical_formula_sum   'Dy6 Al24 Ir3 Os5'
_cell_volume   642.18821832
_cell_formula_units_Z   1
loop_
 _symmetry_equiv_pos_site_id
 _symmetry_equiv_pos_as_xyz
  1  'x, y, z'
loop_
 _atom_site_type_symbol
 _atom_site_label
 _atom_site_symmetry_multiplicity
 _atom_site_fract_x
 _atom_site_fract_y
 _atom_site_fract_z
 _atom_site_occupancy
  Dy  Dy0  1  0.187801  0.384947  0.251178  1
  Dy  Dy1  1  0.812199  0.615053  0.748822  1
  Dy  Dy2  1  0.613338  0.811788  0.250333  1
  Dy  Dy3  1  0.386662  0.188212  0.749667  1
  Dy  Dy4  1  0.194614  0.808396  0.250758  1
  Dy  Dy5  1  0.805386  0.191604  0.749242  1
  Al  Al6  1  0.333750  0.668211  0.025462  1
  Al  Al7  1  0.666250  0.331789  0.974538  1
  Al  Al8  1  0.667697  0.332499  0.525004  1
  Al  Al9  1  0.332303  0.667501  0.474996  1
  Al  Al10  1  0.162778  0.326925  0.576187  1
  Al  Al11  1  0.837222  0.673075  0.423813  1
  Al  Al12  1  0.672615  0.836529  0.575653  1
  Al  Al13  1  0.835507  0.673411  0.076702  1
  Al  Al14  1  0.327385  0.163471  0.424347  1
  Al  Al15  1  0.164493  0.326589  0.923298  1
  Al  Al16  1  0.164263  0.835111  0.575757  1
  Al  Al17  1  0.326843  0.163236  0.076566  1
  Al  Al18  1  0.835737  0.164889  0.424243  1
  Al  Al19  1  0.673157  0.836764  0.923434  1
  Al  Al20  1  0.833848  0.162967  0.075797  1
  Al  Al21  1  0.166152  0.837033  0.924203  1
  Al  Al22  1  0.560955  0.125750  0.249754  1
  Al  Al23  1  0.439045  0.874250  0.750246  1
  Al  Al24  1  0.875067  0.439479  0.250532  1
  Al  Al25  1  0.124933  0.560521  0.749468  1
  Al  Al26  1  0.561326  0.438466  0.249757  1
  Al  Al27  1  0.438674  0.561534  0.750243  1
  Al  Al28  1  0.998819  0.001783  0.250044  1
  Al  Al29  1  0.001181  0.998217  0.749956  1
  Ir  Ir30  1  0.000000  0.500000  0.000000  1
  Ir  Ir31  1  0.500000  0.500000  0.000000  1
  Ir  Ir32  1  0.500000  0.500000  0.500000  1
  Os  Os33  1  0.500000  0.000000  0.000000  1
  Os  Os34  1  0.500000  0.000000  0.500000  1
  Os  Os35  1  0.000000  0.500000  0.500000  1
  Os  Os36  1  0.000000  0.000000  0.000000  1
  Os  Os37  1  0.000000  0.000000  0.500000  1
