# generated using pymatgen
data_HoTm15In4(RuRh)2
_symmetry_space_group_name_H-M   'P 1'
_cell_length_a   9.53677989
_cell_length_b   9.53678018
_cell_length_c   9.56180200
_cell_angle_alpha   59.91316316
_cell_angle_beta   59.91316214
_cell_angle_gamma   59.81100782
_symmetry_Int_Tables_number   1
_chemical_formula_structural   HoTm15In4(RuRh)2
_chemical_formula_sum   'Ho1 Tm15 In4 Ru2 Rh2'
_cell_volume   613.24565538
_cell_formula_units_Z   1
loop_
 _symmetry_equiv_pos_site_id
 _symmetry_equiv_pos_as_xyz
  1  'x, y, z'
loop_
 _atom_site_type_symbol
 _atom_site_label
 _atom_site_symmetry_multiplicity
 _atom_site_fract_x
 _atom_site_fract_y
 _atom_site_fract_z
 _atom_site_occupancy
  Ho  Ho0  1  0.058904  0.058904  0.441096  1
  Tm  Tm1  1  0.443218  0.060760  0.437460  1
  Tm  Tm2  1  0.060760  0.443218  0.058563  1
  Tm  Tm3  1  0.043998  0.652286  0.651858  1
  Tm  Tm4  1  0.438167  0.438167  0.061833  1
  Tm  Tm5  1  0.652286  0.043998  0.651858  1
  Tm  Tm6  1  0.190227  0.809132  0.192700  1
  Tm  Tm7  1  0.192089  0.192089  0.807911  1
  Tm  Tm8  1  0.808805  0.808805  0.191195  1
  Tm  Tm9  1  0.443218  0.060760  0.058563  1
  Tm  Tm10  1  0.809132  0.190227  0.192700  1
  Tm  Tm11  1  0.060760  0.443218  0.437460  1
  Tm  Tm12  1  0.809132  0.190227  0.807941  1
  Tm  Tm13  1  0.190227  0.809132  0.807941  1
  Tm  Tm14  1  0.651192  0.651192  0.047343  1
  Tm  Tm15  1  0.651192  0.651192  0.650274  1
  In  In16  1  0.416857  0.416857  0.417906  1
  In  In17  1  0.750112  0.416710  0.416589  1
  In  In18  1  0.416710  0.750112  0.416589  1
  In  In19  1  0.416857  0.416857  0.748379  1
  Ru  Ru20  1  0.858113  0.858113  0.421066  1
  Ru  Ru21  1  0.858113  0.858113  0.862707  1
  Rh  Rh22  1  0.422483  0.857451  0.860033  1
  Rh  Rh23  1  0.857451  0.422483  0.860033  1
