# generated using pymatgen
data_Zr2TaMo3
_symmetry_space_group_name_H-M   'P 1'
_cell_length_a   5.48178347
_cell_length_b   5.48178395
_cell_length_c   5.48178283
_cell_angle_alpha   58.92354961
_cell_angle_beta   58.92354691
_cell_angle_gamma   58.92355590
_symmetry_Int_Tables_number   1
_chemical_formula_structural   Zr2TaMo3
_chemical_formula_sum   'Zr2 Ta1 Mo3'
_cell_volume   113.61844686
_cell_formula_units_Z   1
loop_
 _symmetry_equiv_pos_site_id
 _symmetry_equiv_pos_as_xyz
  1  'x, y, z'
loop_
 _atom_site_type_symbol
 _atom_site_label
 _atom_site_symmetry_multiplicity
 _atom_site_fract_x
 _atom_site_fract_y
 _atom_site_fract_z
 _atom_site_occupancy
  Zr  Zr0  1  0.749274  0.749274  0.749274  1
  Zr  Zr1  1  0.500726  0.500726  0.500726  1
  Ta  Ta2  1  0.125000  0.125000  0.125000  1
  Mo  Mo3  1  0.125000  0.625000  0.125000  1
  Mo  Mo4  1  0.125000  0.125000  0.625000  1
  Mo  Mo5  1  0.625000  0.125000  0.125000  1
