# generated using pymatgen
data_Tb11Sm5(HgRh)4
_symmetry_space_group_name_H-M   'P 1'
_cell_length_a   9.66871939
_cell_length_b   9.68099176
_cell_length_c   9.68223797
_cell_angle_alpha   59.92592381
_cell_angle_beta   59.81855182
_cell_angle_gamma   59.85886311
_symmetry_Int_Tables_number   1
_chemical_formula_structural   Tb11Sm5(HgRh)4
_chemical_formula_sum   'Tb11 Sm5 Hg4 Rh4'
_cell_volume   638.91609422
_cell_formula_units_Z   1
loop_
 _symmetry_equiv_pos_site_id
 _symmetry_equiv_pos_as_xyz
  1  'x, y, z'
loop_
 _atom_site_type_symbol
 _atom_site_label
 _atom_site_symmetry_multiplicity
 _atom_site_fract_x
 _atom_site_fract_y
 _atom_site_fract_z
 _atom_site_occupancy
  Tb  Tb0  1  0.440392  0.060413  0.440007  1
  Tb  Tb1  1  0.440090  0.060672  0.059982  1
  Tb  Tb2  1  0.898951  0.899482  0.899541  1
  Tb  Tb3  1  0.060242  0.440756  0.058288  1
  Tb  Tb4  1  0.897379  0.303997  0.898750  1
  Tb  Tb5  1  0.311428  0.687908  0.687736  1
  Tb  Tb6  1  0.897622  0.898436  0.304389  1
  Tb  Tb7  1  0.439925  0.439503  0.061036  1
  Tb  Tb8  1  0.311810  0.311859  0.690512  1
  Tb  Tb9  1  0.688135  0.689655  0.310229  1
  Tb  Tb10  1  0.060551  0.058882  0.440317  1
  Sm  Sm11  1  0.305143  0.897039  0.897568  1
  Sm  Sm12  1  0.686711  0.312069  0.688090  1
  Sm  Sm13  1  0.313672  0.688686  0.313202  1
  Sm  Sm14  1  0.061833  0.439892  0.440074  1
  Sm  Sm15  1  0.688269  0.312822  0.312292  1
  Hg  Hg16  1  0.006379  0.663752  0.666137  1
  Hg  Hg17  1  0.664931  0.005092  0.664697  1
  Hg  Hg18  1  0.667537  0.665029  0.004414  1
  Hg  Hg19  1  0.665287  0.665754  0.663446  1
  Rh  Rh20  1  0.106398  0.105929  0.677141  1
  Rh  Rh21  1  0.104462  0.676838  0.105935  1
  Rh  Rh22  1  0.106177  0.109686  0.108401  1
  Rh  Rh23  1  0.676677  0.105851  0.107816  1
