# generated using pymatgen
data_CsV(CuSe2)2
_symmetry_space_group_name_H-M   'P 1'
_cell_length_a   10.22381150
_cell_length_b   10.22381224
_cell_length_c   7.84995900
_cell_angle_alpha   90.00000000
_cell_angle_beta   90.00000000
_cell_angle_gamma   147.84544063
_symmetry_Int_Tables_number   1
_chemical_formula_structural   CsV(CuSe2)2
_chemical_formula_sum   'Cs2 V2 Cu4 Se8'
_cell_volume   436.68878574
_cell_formula_units_Z   2
loop_
 _symmetry_equiv_pos_site_id
 _symmetry_equiv_pos_as_xyz
  1  'x, y, z'
loop_
 _atom_site_type_symbol
 _atom_site_label
 _atom_site_symmetry_multiplicity
 _atom_site_fract_x
 _atom_site_fract_y
 _atom_site_fract_z
 _atom_site_occupancy
  Cs  Cs0  1  0.174765  0.541991  0.750000  1
  Cs  Cs1  1  0.541991  0.174765  0.250000  1
  V  V2  1  0.707114  0.500365  0.750000  1
  V  V3  1  0.500365  0.707114  0.250000  1
  Cu  Cu4  1  0.618153  0.618153  0.500000  1
  Cu  Cu5  1  0.999290  0.206515  0.250000  1
  Cu  Cu6  1  0.206515  0.999290  0.750000  1
  Cu  Cu7  1  0.618153  0.618153  0.000000  1
  Se  Se8  1  0.735180  0.945505  0.006685  1
  Se  Se9  1  0.368168  0.358751  0.750000  1
  Se  Se10  1  0.358751  0.368168  0.250000  1
  Se  Se11  1  0.945505  0.735180  0.506685  1
  Se  Se12  1  0.567724  0.169444  0.750000  1
  Se  Se13  1  0.945505  0.735180  0.993315  1
  Se  Se14  1  0.169444  0.567724  0.250000  1
  Se  Se15  1  0.735180  0.945505  0.493315  1
