# generated using pymatgen
data_AcPrBiTe
_symmetry_space_group_name_H-M   'P 1'
_cell_length_a   8.13130428
_cell_length_b   8.13130371
_cell_length_c   8.13130400
_cell_angle_alpha   33.44805415
_cell_angle_beta   33.44806025
_cell_angle_gamma   33.44806170
_symmetry_Int_Tables_number   1
_chemical_formula_structural   AcPrBiTe
_chemical_formula_sum   'Ac1 Pr1 Bi1 Te1'
_cell_volume   145.45671660
_cell_formula_units_Z   1
loop_
 _symmetry_equiv_pos_site_id
 _symmetry_equiv_pos_as_xyz
  1  'x, y, z'
loop_
 _atom_site_type_symbol
 _atom_site_label
 _atom_site_symmetry_multiplicity
 _atom_site_fract_x
 _atom_site_fract_y
 _atom_site_fract_z
 _atom_site_occupancy
  Ac  Ac0  1  0.000432  0.000432  0.000432  1
  Pr  Pr1  1  0.499539  0.499539  0.499539  1
  Bi  Bi2  1  0.753719  0.753719  0.753719  1
  Te  Te3  1  0.246310  0.246310  0.246310  1
