# generated using pymatgen
data_TaBe8V2Rh
_symmetry_space_group_name_H-M   'P 1'
_cell_length_a   4.39220900
_cell_length_b   4.39220875
_cell_length_c   7.22551700
_cell_angle_alpha   90.00000000
_cell_angle_beta   90.00000000
_cell_angle_gamma   120.00000938
_symmetry_Int_Tables_number   1
_chemical_formula_structural   TaBe8V2Rh
_chemical_formula_sum   'Ta1 Be8 V2 Rh1'
_cell_volume   120.71618126
_cell_formula_units_Z   1
loop_
 _symmetry_equiv_pos_site_id
 _symmetry_equiv_pos_as_xyz
  1  'x, y, z'
loop_
 _atom_site_type_symbol
 _atom_site_label
 _atom_site_symmetry_multiplicity
 _atom_site_fract_x
 _atom_site_fract_y
 _atom_site_fract_z
 _atom_site_occupancy
  Ta  Ta0  1  0.666667  0.333333  0.062809  1
  Be  Be1  1  0.000000  0.000000  0.506414  1
  Be  Be2  1  0.000000  0.000000  0.998638  1
  Be  Be3  1  0.663663  0.831831  0.258689  1
  Be  Be4  1  0.168169  0.831831  0.258689  1
  Be  Be5  1  0.168169  0.336337  0.258689  1
  Be  Be6  1  0.339714  0.169857  0.742582  1
  Be  Be7  1  0.830143  0.169857  0.742582  1
  Be  Be8  1  0.830143  0.660286  0.742582  1
  V  V9  1  0.666667  0.333333  0.436752  1
  V  V10  1  0.333333  0.666667  0.563435  1
  Rh  Rh11  1  0.333333  0.666667  0.928137  1
