# generated using pymatgen
data_Ho4Re5TcB12
_symmetry_space_group_name_H-M   'P 1'
_cell_length_a   6.20030678
_cell_length_b   6.20030587
_cell_length_c   7.49081260
_cell_angle_alpha   90.61140590
_cell_angle_beta   90.61141492
_cell_angle_gamma   113.67980930
_symmetry_Int_Tables_number   1
_chemical_formula_structural   Ho4Re5TcB12
_chemical_formula_sum   'Ho4 Re5 Tc1 B12'
_cell_volume   263.67878340
_cell_formula_units_Z   1
loop_
 _symmetry_equiv_pos_site_id
 _symmetry_equiv_pos_as_xyz
  1  'x, y, z'
loop_
 _atom_site_type_symbol
 _atom_site_label
 _atom_site_symmetry_multiplicity
 _atom_site_fract_x
 _atom_site_fract_y
 _atom_site_fract_z
 _atom_site_occupancy
  Ho  Ho0  1  0.101680  0.443845  0.321548  1
  Ho  Ho1  1  0.556155  0.898320  0.178452  1
  Ho  Ho2  1  0.899241  0.556617  0.677817  1
  Ho  Ho3  1  0.443383  0.100759  0.822183  1
  Re  Re4  1  0.411606  0.588394  0.750000  1
  Re  Re5  1  0.990481  0.807055  0.088897  1
  Re  Re6  1  0.192945  0.009519  0.411103  1
  Re  Re7  1  0.009350  0.193401  0.911351  1
  Re  Re8  1  0.806599  0.990650  0.588649  1
  Tc  Tc9  1  0.588791  0.411209  0.250000  1
  B  B10  1  0.248380  0.152667  0.130462  1
  B  B11  1  0.847333  0.751620  0.369538  1
  B  B12  1  0.750725  0.847893  0.870135  1
  B  B13  1  0.152107  0.249275  0.629865  1
  B  B14  1  0.586100  0.158398  0.481492  1
  B  B15  1  0.841602  0.413900  0.018508  1
  B  B16  1  0.411806  0.839037  0.520342  1
  B  B17  1  0.160963  0.588194  0.979658  1
  B  B18  1  0.444029  0.350266  0.535299  1
  B  B19  1  0.649734  0.555971  0.964701  1
  B  B20  1  0.556466  0.649475  0.463887  1
  B  B21  1  0.350525  0.443534  0.036113  1
