# generated using pymatgen
data_Ba6Ca2ErUSe12
_symmetry_space_group_name_H-M   'P 1'
_cell_length_a   8.89528974
_cell_length_b   8.89528957
_cell_length_c   8.89528961
_cell_angle_alpha   91.99434242
_cell_angle_beta   91.99434695
_cell_angle_gamma   91.99434888
_symmetry_Int_Tables_number   1
_chemical_formula_structural   Ba6Ca2ErUSe12
_chemical_formula_sum   'Ba6 Ca2 Er1 U1 Se12'
_cell_volume   702.54073450
_cell_formula_units_Z   1
loop_
 _symmetry_equiv_pos_site_id
 _symmetry_equiv_pos_as_xyz
  1  'x, y, z'
loop_
 _atom_site_type_symbol
 _atom_site_label
 _atom_site_symmetry_multiplicity
 _atom_site_fract_x
 _atom_site_fract_y
 _atom_site_fract_z
 _atom_site_occupancy
  Ba  Ba0  1  0.870080  0.622840  0.258444  1
  Ba  Ba1  1  0.258444  0.870080  0.622840  1
  Ba  Ba2  1  0.622840  0.258444  0.870080  1
  Ba  Ba3  1  0.741556  0.129920  0.377160  1
  Ba  Ba4  1  0.377160  0.741556  0.129920  1
  Ba  Ba5  1  0.129920  0.377160  0.741556  1
  Ca  Ca6  1  0.256118  0.256118  0.256118  1
  Ca  Ca7  1  0.743882  0.743882  0.743882  1
  Er  Er8  1  0.500000  0.500000  0.500000  1
  U  U9  1  0.000000  0.000000  0.000000  1
  Se  Se10  1  0.198353  0.549566  0.409001  1
  Se  Se11  1  0.409001  0.198353  0.549566  1
  Se  Se12  1  0.549566  0.409001  0.198353  1
  Se  Se13  1  0.918550  0.044977  0.703369  1
  Se  Se14  1  0.703369  0.918550  0.044977  1
  Se  Se15  1  0.044977  0.703369  0.918550  1
  Se  Se16  1  0.801647  0.450434  0.590999  1
  Se  Se17  1  0.590999  0.801647  0.450434  1
  Se  Se18  1  0.450434  0.590999  0.801647  1
  Se  Se19  1  0.081450  0.955023  0.296631  1
  Se  Se20  1  0.296631  0.081450  0.955023  1
  Se  Se21  1  0.955023  0.296631  0.081450  1
