# generated using pymatgen
data_Ce2Dy(ZnPt)3
_symmetry_space_group_name_H-M   'P 1'
_cell_length_a   7.42312502
_cell_length_b   7.41249711
_cell_length_c   3.85457900
_cell_angle_alpha   90.00000000
_cell_angle_beta   90.00000000
_cell_angle_gamma   119.95265410
_symmetry_Int_Tables_number   1
_chemical_formula_structural   Ce2Dy(ZnPt)3
_chemical_formula_sum   'Ce2 Dy1 Zn3 Pt3'
_cell_volume   183.76630965
_cell_formula_units_Z   1
loop_
 _symmetry_equiv_pos_site_id
 _symmetry_equiv_pos_as_xyz
  1  'x, y, z'
loop_
 _atom_site_type_symbol
 _atom_site_label
 _atom_site_symmetry_multiplicity
 _atom_site_fract_x
 _atom_site_fract_y
 _atom_site_fract_z
 _atom_site_occupancy
  Ce  Ce0  1  0.593340  0.999579  0.500000  1
  Ce  Ce1  1  0.406660  0.406239  0.500000  1
  Dy  Dy2  1  0.000000  0.596867  0.500000  1
  Zn  Zn3  1  0.754679  0.749137  0.000000  1
  Zn  Zn4  1  0.000000  0.255532  0.000000  1
  Zn  Zn5  1  0.245321  0.994458  0.000000  1
  Pt  Pt6  1  0.338151  0.667516  0.000000  1
  Pt  Pt7  1  0.661849  0.329364  0.000000  1
  Pt  Pt8  1  0.000000  0.001306  0.500000  1
