# generated using pymatgen
data_TbCe2Y(Al3Ir)6
_symmetry_space_group_name_H-M   'P 1'
_cell_length_a   7.60340503
_cell_length_b   7.60284251
_cell_length_c   9.48925200
_cell_angle_alpha   90.00000000
_cell_angle_beta   90.00000000
_cell_angle_gamma   119.58251068
_symmetry_Int_Tables_number   1
_chemical_formula_structural   TbCe2Y(Al3Ir)6
_chemical_formula_sum   'Tb1 Ce2 Y1 Al18 Ir6'
_cell_volume   477.04399729
_cell_formula_units_Z   1
loop_
 _symmetry_equiv_pos_site_id
 _symmetry_equiv_pos_as_xyz
  1  'x, y, z'
loop_
 _atom_site_type_symbol
 _atom_site_label
 _atom_site_symmetry_multiplicity
 _atom_site_fract_x
 _atom_site_fract_y
 _atom_site_fract_z
 _atom_site_occupancy
  Tb  Tb0  1  0.671120  0.995269  0.250000  1
  Ce  Ce1  1  0.995562  0.669913  0.250000  1
  Ce  Ce2  1  0.004494  0.330060  0.750000  1
  Y  Y3  1  0.328853  0.004718  0.750000  1
  Al  Al4  1  0.129362  0.128467  0.250000  1
  Al  Al5  1  0.870721  0.871453  0.750000  1
  Al  Al6  1  0.001271  0.333458  0.075516  1
  Al  Al7  1  0.998811  0.666746  0.924701  1
  Al  Al8  1  0.998811  0.666746  0.575299  1
  Al  Al9  1  0.336598  0.002161  0.425968  1
  Al  Al10  1  0.001271  0.333458  0.424484  1
  Al  Al11  1  0.663203  0.997716  0.573963  1
  Al  Al12  1  0.663203  0.997716  0.926037  1
  Al  Al13  1  0.336598  0.002161  0.074032  1
  Al  Al14  1  0.334828  0.333363  0.551894  1
  Al  Al15  1  0.665266  0.666581  0.448007  1
  Al  Al16  1  0.665266  0.666581  0.051993  1
  Al  Al17  1  0.334828  0.333363  0.948106  1
  Al  Al18  1  0.341104  0.548413  0.250000  1
  Al  Al19  1  0.658792  0.451532  0.750000  1
  Al  Al20  1  0.546818  0.339343  0.250000  1
  Al  Al21  1  0.453250  0.660773  0.750000  1
  Ir  Ir22  1  0.672405  0.328754  0.999960  1
  Ir  Ir23  1  0.327573  0.671242  0.000054  1
  Ir  Ir24  1  0.327573  0.671242  0.499946  1
  Ir  Ir25  1  0.672405  0.328754  0.500040  1
  Ir  Ir26  1  0.000009  0.000007  0.000002  1
  Ir  Ir27  1  0.000009  0.000007  0.499998  1
