# generated using pymatgen
data_Dy9Lu(IrPt2)2
_symmetry_space_group_name_H-M   'P 1'
_cell_length_a   11.04533600
_cell_length_b   11.04533600
_cell_length_c   6.31910200
_cell_angle_alpha   90.00000000
_cell_angle_beta   90.00000000
_cell_angle_gamma   90.00000000
_symmetry_Int_Tables_number   1
_chemical_formula_structural   Dy9Lu(IrPt2)2
_chemical_formula_sum   'Dy18 Lu2 Ir4 Pt8'
_cell_volume   770.92695177
_cell_formula_units_Z   2
loop_
 _symmetry_equiv_pos_site_id
 _symmetry_equiv_pos_as_xyz
  1  'x, y, z'
loop_
 _atom_site_type_symbol
 _atom_site_label
 _atom_site_symmetry_multiplicity
 _atom_site_fract_x
 _atom_site_fract_y
 _atom_site_fract_z
 _atom_site_occupancy
  Dy  Dy0  1  0.293562  0.087220  0.375153  1
  Dy  Dy1  1  0.293562  0.912780  0.875153  1
  Dy  Dy2  1  0.706438  0.087220  0.875153  1
  Dy  Dy3  1  0.706438  0.912780  0.375153  1
  Dy  Dy4  1  0.587515  0.794962  0.874561  1
  Dy  Dy5  1  0.587515  0.205038  0.374561  1
  Dy  Dy6  1  0.412485  0.794962  0.374561  1
  Dy  Dy7  1  0.412485  0.205038  0.874561  1
  Dy  Dy8  1  0.205038  0.412485  0.625439  1
  Dy  Dy9  1  0.205038  0.587515  0.125439  1
  Dy  Dy10  1  0.794962  0.412485  0.125439  1
  Dy  Dy11  1  0.794962  0.587515  0.625439  1
  Dy  Dy12  1  0.912780  0.706438  0.124847  1
  Dy  Dy13  1  0.912780  0.293562  0.624847  1
  Dy  Dy14  1  0.087220  0.706438  0.624847  1
  Dy  Dy15  1  0.087220  0.293562  0.124847  1
  Dy  Dy16  1  0.500000  0.500000  0.000000  1
  Dy  Dy17  1  0.500000  0.500000  0.500000  1
  Lu  Lu18  1  0.000000  0.000000  0.500000  1
  Lu  Lu19  1  0.000000  0.000000  0.000000  1
  Ir  Ir20  1  0.500000  0.000000  0.121217  1
  Ir  Ir21  1  0.500000  0.000000  0.621217  1
  Ir  Ir22  1  0.000000  0.500000  0.878783  1
  Ir  Ir23  1  0.000000  0.500000  0.378783  1
  Pt  Pt24  1  0.848942  0.151058  0.250000  1
  Pt  Pt25  1  0.848942  0.848942  0.750000  1
  Pt  Pt26  1  0.151058  0.151058  0.750000  1
  Pt  Pt27  1  0.151058  0.848942  0.250000  1
  Pt  Pt28  1  0.653656  0.346344  0.750000  1
  Pt  Pt29  1  0.653656  0.653656  0.250000  1
  Pt  Pt30  1  0.346344  0.346344  0.250000  1
  Pt  Pt31  1  0.346344  0.653656  0.750000  1
