# generated using pymatgen
data_NdTh2Al2Pt3Au
_symmetry_space_group_name_H-M   'P 1'
_cell_length_a   7.35993721
_cell_length_b   7.35993667
_cell_length_c   4.05292600
_cell_angle_alpha   90.00000000
_cell_angle_beta   90.00000000
_cell_angle_gamma   117.51237844
_symmetry_Int_Tables_number   1
_chemical_formula_structural   NdTh2Al2Pt3Au
_chemical_formula_sum   'Nd1 Th2 Al2 Pt3 Au1'
_cell_volume   194.71388798
_cell_formula_units_Z   1
loop_
 _symmetry_equiv_pos_site_id
 _symmetry_equiv_pos_as_xyz
  1  'x, y, z'
loop_
 _atom_site_type_symbol
 _atom_site_label
 _atom_site_symmetry_multiplicity
 _atom_site_fract_x
 _atom_site_fract_y
 _atom_site_fract_z
 _atom_site_occupancy
  Nd  Nd0  1  0.417788  0.417788  0.500000  1
  Th  Th1  1  0.592089  0.988730  0.500000  1
  Th  Th2  1  0.988730  0.592089  0.500000  1
  Al  Al3  1  0.239568  0.006951  0.000000  1
  Al  Al4  1  0.006951  0.239568  0.000000  1
  Pt  Pt5  1  0.672880  0.303420  0.000000  1
  Pt  Pt6  1  0.303420  0.672880  0.000000  1
  Pt  Pt7  1  0.030879  0.030879  0.500000  1
  Au  Au8  1  0.747696  0.747696  0.000000  1
