# generated using pymatgen
data_Y10Sn6N
_symmetry_space_group_name_H-M   'P 1'
_cell_length_a   8.94369800
_cell_length_b   8.94369778
_cell_length_c   6.53534600
_cell_angle_alpha   90.00000000
_cell_angle_beta   90.00000000
_cell_angle_gamma   119.99999340
_symmetry_Int_Tables_number   1
_chemical_formula_structural   Y10Sn6N
_chemical_formula_sum   'Y10 Sn6 N1'
_cell_volume   452.72396813
_cell_formula_units_Z   1
loop_
 _symmetry_equiv_pos_site_id
 _symmetry_equiv_pos_as_xyz
  1  'x, y, z'
loop_
 _atom_site_type_symbol
 _atom_site_label
 _atom_site_symmetry_multiplicity
 _atom_site_fract_x
 _atom_site_fract_y
 _atom_site_fract_z
 _atom_site_occupancy
  Y  Y0  1  0.333333  0.666667  0.500000  1
  Y  Y1  1  0.666667  0.333333  0.500000  1
  Y  Y2  1  0.666667  0.333333  0.000000  1
  Y  Y3  1  0.333333  0.666667  0.000000  1
  Y  Y4  1  0.000000  0.774023  0.272052  1
  Y  Y5  1  0.225977  0.225977  0.272052  1
  Y  Y6  1  0.774023  0.000000  0.272052  1
  Y  Y7  1  0.000000  0.225977  0.727948  1
  Y  Y8  1  0.774023  0.774023  0.727948  1
  Y  Y9  1  0.225977  0.000000  0.727948  1
  Sn  Sn10  1  0.000000  0.400020  0.250431  1
  Sn  Sn11  1  0.599980  0.599980  0.250431  1
  Sn  Sn12  1  0.400020  0.000000  0.250431  1
  Sn  Sn13  1  0.000000  0.599980  0.749569  1
  Sn  Sn14  1  0.400020  0.400020  0.749569  1
  Sn  Sn15  1  0.599980  0.000000  0.749569  1
  N  N16  1  0.000000  0.000000  0.500000  1
