# generated using pymatgen
data_Rb3MnSe3
_symmetry_space_group_name_H-M   'P 1'
_cell_length_a   10.74183556
_cell_length_b   10.74183541
_cell_length_c   13.68322200
_cell_angle_alpha   90.00000000
_cell_angle_beta   90.00000000
_cell_angle_gamma   140.37146172
_symmetry_Int_Tables_number   1
_chemical_formula_structural   Rb3MnSe3
_chemical_formula_sum   'Rb12 Mn4 Se12'
_cell_volume   1007.01309977
_cell_formula_units_Z   4
loop_
 _symmetry_equiv_pos_site_id
 _symmetry_equiv_pos_as_xyz
  1  'x, y, z'
loop_
 _atom_site_type_symbol
 _atom_site_label
 _atom_site_symmetry_multiplicity
 _atom_site_fract_x
 _atom_site_fract_y
 _atom_site_fract_z
 _atom_site_occupancy
  Rb  Rb0  1  0.857467  0.857467  0.323675  1
  Rb  Rb1  1  0.142533  0.142533  0.676325  1
  Rb  Rb2  1  0.642533  0.642533  0.823675  1
  Rb  Rb3  1  0.357467  0.357467  0.176325  1
  Rb  Rb4  1  0.835590  0.479638  0.126736  1
  Rb  Rb5  1  0.520362  0.164410  0.873264  1
  Rb  Rb6  1  0.020362  0.664410  0.626736  1
  Rb  Rb7  1  0.335590  0.979638  0.373264  1
  Rb  Rb8  1  0.164410  0.520362  0.873264  1
  Rb  Rb9  1  0.479638  0.835590  0.126736  1
  Rb  Rb10  1  0.979638  0.335590  0.373264  1
  Rb  Rb11  1  0.664410  0.020362  0.626736  1
  Mn  Mn12  1  0.081735  0.918265  0.000000  1
  Mn  Mn13  1  0.581735  0.418265  0.500000  1
  Mn  Mn14  1  0.918265  0.081735  0.000000  1
  Mn  Mn15  1  0.418265  0.581735  0.500000  1
  Se  Se16  1  0.003476  0.301427  0.120384  1
  Se  Se17  1  0.698573  0.996524  0.879616  1
  Se  Se18  1  0.198573  0.496524  0.620384  1
  Se  Se19  1  0.503476  0.801427  0.379616  1
  Se  Se20  1  0.996524  0.698573  0.879616  1
  Se  Se21  1  0.301427  0.003476  0.120384  1
  Se  Se22  1  0.801427  0.503476  0.379616  1
  Se  Se23  1  0.496524  0.198573  0.620384  1
  Se  Se24  1  0.786161  0.786161  0.070105  1
  Se  Se25  1  0.213839  0.213839  0.929895  1
  Se  Se26  1  0.713839  0.713839  0.570105  1
  Se  Se27  1  0.286161  0.286161  0.429895  1
