# generated using pymatgen
data_Tb4Dy2Al24Ir5Ru3
_symmetry_space_group_name_H-M   'P 1'
_cell_length_a   8.82667213
_cell_length_b   8.78530808
_cell_length_c   9.54288500
_cell_angle_alpha   89.99863597
_cell_angle_beta   90.10663137
_cell_angle_gamma   119.83417243
_symmetry_Int_Tables_number   1
_chemical_formula_structural   Tb4Dy2Al24Ir5Ru3
_chemical_formula_sum   'Tb4 Dy2 Al24 Ir5 Ru3'
_cell_volume   641.92842124
_cell_formula_units_Z   1
loop_
 _symmetry_equiv_pos_site_id
 _symmetry_equiv_pos_as_xyz
  1  'x, y, z'
loop_
 _atom_site_type_symbol
 _atom_site_label
 _atom_site_symmetry_multiplicity
 _atom_site_fract_x
 _atom_site_fract_y
 _atom_site_fract_z
 _atom_site_occupancy
  Tb  Tb0  1  0.190765  0.806399  0.249814  1
  Tb  Tb1  1  0.190794  0.384511  0.249822  1
  Tb  Tb2  1  0.615486  0.807783  0.249920  1
  Tb  Tb3  1  0.809152  0.193710  0.750198  1
  Dy  Dy4  1  0.808716  0.614562  0.750242  1
  Dy  Dy5  1  0.385425  0.192750  0.750071  1
  Al  Al6  1  0.561847  0.436730  0.250269  1
  Al  Al7  1  0.561779  0.125163  0.250261  1
  Al  Al8  1  0.875422  0.437797  0.248716  1
  Al  Al9  1  0.438349  0.563107  0.749757  1
  Al  Al10  1  0.438072  0.875034  0.749741  1
  Al  Al11  1  0.124355  0.562356  0.751225  1
  Al  Al12  1  0.325852  0.162924  0.423951  1
  Al  Al13  1  0.835293  0.162623  0.423512  1
  Al  Al14  1  0.835333  0.672740  0.423735  1
  Al  Al15  1  0.674301  0.837006  0.576641  1
  Al  Al16  1  0.164541  0.837591  0.576988  1
  Al  Al17  1  0.164747  0.327088  0.576918  1
  Al  Al18  1  0.673384  0.836549  0.924244  1
  Al  Al19  1  0.162391  0.835431  0.923111  1
  Al  Al20  1  0.162638  0.327133  0.923198  1
  Al  Al21  1  0.326741  0.163375  0.075156  1
  Al  Al22  1  0.837398  0.164774  0.076371  1
  Al  Al23  1  0.837431  0.672712  0.076167  1
  Al  Al24  1  0.667332  0.333735  0.528617  1
  Al  Al25  1  0.332587  0.666348  0.472108  1
  Al  Al26  1  0.330462  0.665297  0.027225  1
  Al  Al27  1  0.669396  0.334781  0.972102  1
  Al  Al28  1  0.998007  0.999050  0.250049  1
  Al  Al29  1  0.002343  0.000662  0.749963  1
  Ir  Ir30  1  0.500094  0.499915  0.500273  1
  Ir  Ir31  1  0.499954  0.000164  0.500161  1
  Ir  Ir32  1  0.999835  0.500047  0.500165  1
  Ir  Ir33  1  0.500072  0.499907  0.999737  1
  Ir  Ir34  1  0.499948  0.000171  0.999824  1
  Ru  Ru35  1  0.999996  0.000017  0.500044  1
  Ru  Ru36  1  0.999965  0.000015  0.999970  1
  Ru  Ru37  1  0.999796  0.500047  0.999733  1
