# generated using pymatgen
data_ErLu9In8(RuPt)2
_symmetry_space_group_name_H-M   'P 1'
_cell_length_a   3.54559900
_cell_length_b   7.96988540
_cell_length_c   18.11363317
_cell_angle_alpha   89.89896859
_cell_angle_beta   90.00000000
_cell_angle_gamma   90.00000000
_symmetry_Int_Tables_number   1
_chemical_formula_structural   ErLu9In8(RuPt)2
_chemical_formula_sum   'Er1 Lu9 In8 Ru2 Pt2'
_cell_volume   511.85457104
_cell_formula_units_Z   1
loop_
 _symmetry_equiv_pos_site_id
 _symmetry_equiv_pos_as_xyz
  1  'x, y, z'
loop_
 _atom_site_type_symbol
 _atom_site_label
 _atom_site_symmetry_multiplicity
 _atom_site_fract_x
 _atom_site_fract_y
 _atom_site_fract_z
 _atom_site_occupancy
  Er  Er0  1  0.000000  0.500000  0.500000  1
  Lu  Lu1  1  0.000000  0.115765  0.412300  1
  Lu  Lu2  1  0.000000  0.884235  0.587700  1
  Lu  Lu3  1  0.000000  0.382252  0.914321  1
  Lu  Lu4  1  0.000000  0.617748  0.085679  1
  Lu  Lu5  1  0.000000  0.237568  0.222461  1
  Lu  Lu6  1  0.000000  0.762432  0.777539  1
  Lu  Lu7  1  0.000000  0.248461  0.719973  1
  Lu  Lu8  1  0.000000  0.751539  0.280027  1
  Lu  Lu9  1  0.000000  0.000000  0.000000  1
  In  In10  1  0.500000  0.423800  0.352134  1
  In  In11  1  0.500000  0.576200  0.647866  1
  In  In12  1  0.500000  0.070489  0.850515  1
  In  In13  1  0.500000  0.929511  0.149485  1
  In  In14  1  0.500000  0.291247  0.065426  1
  In  In15  1  0.500000  0.708753  0.934574  1
  In  In16  1  0.500000  0.206172  0.567471  1
  In  In17  1  0.500000  0.793828  0.432529  1
  Ru  Ru18  1  0.500000  0.023608  0.303544  1
  Ru  Ru19  1  0.500000  0.976392  0.696456  1
  Pt  Pt20  1  0.500000  0.474741  0.803785  1
  Pt  Pt21  1  0.500000  0.525259  0.196215  1
