# generated using pymatgen
data_Zr3Al3Pt2Au
_symmetry_space_group_name_H-M   'P 1'
_cell_length_a   6.86648000
_cell_length_b   6.86647903
_cell_length_c   4.03984100
_cell_angle_alpha   90.00000000
_cell_angle_beta   90.00000000
_cell_angle_gamma   120.00000465
_symmetry_Int_Tables_number   1
_chemical_formula_structural   Zr3Al3Pt2Au
_chemical_formula_sum   'Zr3 Al3 Pt2 Au1'
_cell_volume   164.95411028
_cell_formula_units_Z   1
loop_
 _symmetry_equiv_pos_site_id
 _symmetry_equiv_pos_as_xyz
  1  'x, y, z'
loop_
 _atom_site_type_symbol
 _atom_site_label
 _atom_site_symmetry_multiplicity
 _atom_site_fract_x
 _atom_site_fract_y
 _atom_site_fract_z
 _atom_site_occupancy
  Zr  Zr0  1  0.990605  0.407961  0.500000  1
  Zr  Zr1  1  0.592039  0.582644  0.500000  1
  Zr  Zr2  1  0.417356  0.009395  0.500000  1
  Al  Al3  1  0.996357  0.751721  0.000000  1
  Al  Al4  1  0.248279  0.244636  0.000000  1
  Al  Al5  1  0.755364  0.003643  0.000000  1
  Pt  Pt6  1  0.666667  0.333333  0.000000  1
  Pt  Pt7  1  0.000000  0.000000  0.500000  1
  Au  Au8  1  0.333333  0.666667  0.000000  1
