# generated using pymatgen
data_Ba5SrCa4Re4(HgN8)2
_symmetry_space_group_name_H-M   'P 1'
_cell_length_a   10.68084428
_cell_length_b   10.32580007
_cell_length_c   7.72521100
_cell_angle_alpha   71.02400447
_cell_angle_beta   65.99389734
_cell_angle_gamma   43.11253373
_symmetry_Int_Tables_number   1
_chemical_formula_structural   Ba5SrCa4Re4(HgN8)2
_chemical_formula_sum   'Ba5 Sr1 Ca4 Re4 Hg2 N16'
_cell_volume   531.37689156
_cell_formula_units_Z   1
loop_
 _symmetry_equiv_pos_site_id
 _symmetry_equiv_pos_as_xyz
  1  'x, y, z'
loop_
 _atom_site_type_symbol
 _atom_site_label
 _atom_site_symmetry_multiplicity
 _atom_site_fract_x
 _atom_site_fract_y
 _atom_site_fract_z
 _atom_site_occupancy
  Ba  Ba0  1  0.115133  0.115806  0.884343  1
  Ba  Ba1  1  0.143067  0.139272  0.358472  1
  Ba  Ba2  1  0.359189  0.358472  0.139272  1
  Ba  Ba3  1  0.670773  0.329227  0.329227  1
  Ba  Ba4  1  0.884719  0.884343  0.115806  1
  Sr  Sr5  1  0.318711  0.681289  0.681289  1
  Ca  Ca6  1  0.337619  0.337874  0.662777  1
  Ca  Ca7  1  0.896267  0.888334  0.607717  1
  Ca  Ca8  1  0.661730  0.662777  0.337874  1
  Ca  Ca9  1  0.607683  0.607717  0.888334  1
  Re  Re10  1  0.491144  0.007902  0.492185  1
  Re  Re11  1  0.008768  0.492185  0.007902  1
  Re  Re12  1  0.757252  0.242280  0.755659  1
  Re  Re13  1  0.244808  0.755659  0.242280  1
  Hg  Hg14  1  0.583930  0.916070  0.916070  1
  Hg  Hg15  1  0.917311  0.582689  0.582689  1
  N  N16  1  0.055387  0.636952  0.837095  1
  N  N17  1  0.700169  0.291827  0.995659  1
  N  N18  1  0.639423  0.047454  0.477411  1
  N  N19  1  0.470567  0.837095  0.636952  1
  N  N20  1  0.252951  0.585123  0.422220  1
  N  N21  1  0.739707  0.422220  0.585123  1
  N  N22  1  0.999821  0.008227  0.698224  1
  N  N23  1  0.545494  0.972588  0.248428  1
  N  N24  1  0.419869  0.744254  0.252895  1
  N  N25  1  0.971631  0.545465  0.234284  1
  N  N26  1  0.293728  0.698224  0.008227  1
  N  N27  1  0.835713  0.477411  0.047454  1
  N  N28  1  0.233490  0.248428  0.972588  1
  N  N29  1  0.582980  0.252895  0.744254  1
  N  N30  1  0.248620  0.234284  0.545465  1
  N  N31  1  0.012345  0.995659  0.291827  1
