# generated using pymatgen
data_K4Zr6CCl18
_symmetry_space_group_name_H-M   'P 1'
_cell_length_a   10.16232842
_cell_length_b   10.16232840
_cell_length_c   9.93486256
_cell_angle_alpha   77.53911241
_cell_angle_beta   77.53911838
_cell_angle_gamma   117.78403474
_symmetry_Int_Tables_number   1
_chemical_formula_structural   K4Zr6CCl18
_chemical_formula_sum   'K4 Zr6 C1 Cl18'
_cell_volume   824.76302453
_cell_formula_units_Z   1
loop_
 _symmetry_equiv_pos_site_id
 _symmetry_equiv_pos_as_xyz
  1  'x, y, z'
loop_
 _atom_site_type_symbol
 _atom_site_label
 _atom_site_symmetry_multiplicity
 _atom_site_fract_x
 _atom_site_fract_y
 _atom_site_fract_z
 _atom_site_occupancy
  K  K0  1  0.772123  0.447944  0.675593  1
  K  K1  1  0.552056  0.227877  0.324407  1
  K  K2  1  0.227877  0.552056  0.324407  1
  K  K3  1  0.447944  0.772123  0.675593  1
  Zr  Zr4  1  0.127136  0.127136  0.141946  1
  Zr  Zr5  1  0.872864  0.872864  0.858054  1
  Zr  Zr6  1  0.948563  0.761949  0.150188  1
  Zr  Zr7  1  0.238051  0.051437  0.849812  1
  Zr  Zr8  1  0.051437  0.238051  0.849812  1
  Zr  Zr9  1  0.761949  0.948563  0.150188  1
  C  C10  1  0.000000  0.000000  0.000000  1
  Cl  Cl11  1  0.803467  0.594191  0.010064  1
  Cl  Cl12  1  0.405810  0.196533  0.989936  1
  Cl  Cl13  1  0.196533  0.405810  0.989936  1
  Cl  Cl14  1  0.594190  0.803467  0.010064  1
  Cl  Cl15  1  0.207690  0.792310  0.000000  1
  Cl  Cl16  1  0.792310  0.207690  0.000000  1
  Cl  Cl17  1  0.323170  0.323170  0.670514  1
  Cl  Cl18  1  0.676830  0.676830  0.329486  1
  Cl  Cl19  1  0.887675  0.488297  0.329941  1
  Cl  Cl20  1  0.511703  0.112325  0.670059  1
  Cl  Cl21  1  0.112325  0.511703  0.670059  1
  Cl  Cl22  1  0.488297  0.887675  0.329941  1
  Cl  Cl23  1  0.274130  0.274130  0.299270  1
  Cl  Cl24  1  0.725870  0.725870  0.700730  1
  Cl  Cl25  1  0.083035  0.876123  0.321058  1
  Cl  Cl26  1  0.123877  0.916965  0.678942  1
  Cl  Cl27  1  0.916965  0.123877  0.678942  1
  Cl  Cl28  1  0.876123  0.083035  0.321058  1
