# generated using pymatgen
data_PtPbF6
_symmetry_space_group_name_H-M   'P 1'
_cell_length_a   6.09991112
_cell_length_b   6.10105480
_cell_length_c   6.09815823
_cell_angle_alpha   53.96531981
_cell_angle_beta   53.99765736
_cell_angle_gamma   53.94890226
_symmetry_Int_Tables_number   1
_chemical_formula_structural   PtPbF6
_chemical_formula_sum   'Pt1 Pb1 F6'
_cell_volume   137.87409848
_cell_formula_units_Z   1
loop_
 _symmetry_equiv_pos_site_id
 _symmetry_equiv_pos_as_xyz
  1  'x, y, z'
loop_
 _atom_site_type_symbol
 _atom_site_label
 _atom_site_symmetry_multiplicity
 _atom_site_fract_x
 _atom_site_fract_y
 _atom_site_fract_z
 _atom_site_occupancy
  Pt  Pt0  1  0.500000  0.500000  0.500000  1
  Pb  Pb1  1  0.000000  0.000000  0.000000  1
  F  F2  1  0.291139  0.868094  0.564500  1
  F  F3  1  0.564425  0.291398  0.868302  1
  F  F4  1  0.132023  0.435536  0.708288  1
  F  F5  1  0.435575  0.708602  0.131698  1
  F  F6  1  0.708861  0.131906  0.435500  1
  F  F7  1  0.867977  0.564464  0.291712  1
