# generated using pymatgen
data_Li2LaCe(PO3)8
_symmetry_space_group_name_H-M   'P 1'
_cell_length_a   7.21992423
_cell_length_b   9.12254440
_cell_length_c   9.13967100
_cell_angle_alpha   95.18494875
_cell_angle_beta   113.26455859
_cell_angle_gamma   113.31080617
_symmetry_Int_Tables_number   1
_chemical_formula_structural   Li2LaCe(PO3)8
_chemical_formula_sum   'Li2 La1 Ce1 P8 O24'
_cell_volume   485.69533793
_cell_formula_units_Z   1
loop_
 _symmetry_equiv_pos_site_id
 _symmetry_equiv_pos_as_xyz
  1  'x, y, z'
loop_
 _atom_site_type_symbol
 _atom_site_label
 _atom_site_symmetry_multiplicity
 _atom_site_fract_x
 _atom_site_fract_y
 _atom_site_fract_z
 _atom_site_occupancy
  Li  Li0  1  0.448803  0.250001  0.250000  1
  Li  Li1  1  0.550985  0.750001  0.750000  1
  La  La2  1  0.052646  0.750001  0.750000  1
  Ce  Ce3  1  0.946669  0.250001  0.250000  1
  P  P4  1  0.612445  0.798942  0.097015  1
  P  P5  1  0.085638  0.887262  0.164961  1
  P  P6  1  0.533413  0.612738  0.335039  1
  P  P7  1  0.216487  0.701058  0.402985  1
  P  P8  1  0.783310  0.297839  0.596839  1
  P  P9  1  0.465104  0.386642  0.663534  1
  P  P10  1  0.914926  0.113358  0.836465  1
  P  P11  1  0.388632  0.202161  0.903161  1
  O  O12  1  0.154007  0.821758  0.049233  1
  O  O13  1  0.553732  0.235537  0.082066  1
  O  O14  1  0.815765  0.768179  0.091865  1
  O  O15  1  0.492952  0.644728  0.156641  1
  O  O16  1  0.145478  0.069634  0.204579  1
  O  O17  1  0.711319  0.964067  0.220207  1
  O  O18  1  0.027045  0.535933  0.279793  1
  O  O19  1  0.371266  0.430366  0.295421  1
  O  O20  1  0.191581  0.855272  0.343358  1
  O  O21  1  0.455722  0.731822  0.408135  1
  O  O22  1  0.736129  0.264463  0.417934  1
  O  O23  1  0.783018  0.678242  0.450767  1
  O  O24  1  0.215492  0.320642  0.546978  1
  O  O25  1  0.264151  0.734570  0.581940  1
  O  O26  1  0.543949  0.268003  0.591223  1
  O  O27  1  0.807119  0.143618  0.657338  1
  O  O28  1  0.626895  0.569131  0.703144  1
  O  O29  1  0.973499  0.462143  0.720552  1
  O  O30  1  0.290805  0.037857  0.779448  1
  O  O31  1  0.854620  0.930868  0.796856  1
  O  O32  1  0.506163  0.356382  0.842661  1
  O  O33  1  0.184722  0.231996  0.908777  1
  O  O34  1  0.447644  0.765430  0.918061  1
  O  O35  1  0.847871  0.179358  0.953022  1
