# generated using pymatgen
data_Ta3(Se4Cl3)2
_symmetry_space_group_name_H-M   'P 1'
_cell_length_a   7.58909825
_cell_length_b   11.24549763
_cell_length_c   13.01283109
_cell_angle_alpha   70.85533506
_cell_angle_beta   79.68046168
_cell_angle_gamma   82.91681206
_symmetry_Int_Tables_number   1
_chemical_formula_structural   Ta3(Se4Cl3)2
_chemical_formula_sum   'Ta6 Se16 Cl12'
_cell_volume   1029.67143450
_cell_formula_units_Z   2
loop_
 _symmetry_equiv_pos_site_id
 _symmetry_equiv_pos_as_xyz
  1  'x, y, z'
loop_
 _atom_site_type_symbol
 _atom_site_label
 _atom_site_symmetry_multiplicity
 _atom_site_fract_x
 _atom_site_fract_y
 _atom_site_fract_z
 _atom_site_occupancy
  Ta  Ta0  1  0.398231  0.500178  0.245239  1
  Ta  Ta1  1  0.601769  0.499822  0.754761  1
  Ta  Ta2  1  0.997517  0.001916  0.124331  1
  Ta  Ta3  1  0.002483  0.998084  0.875669  1
  Ta  Ta4  1  0.998641  0.001169  0.375517  1
  Ta  Ta5  1  0.001359  0.998831  0.624483  1
  Se  Se6  1  0.781865  0.883043  0.313766  1
  Se  Se7  1  0.218135  0.116957  0.686234  1
  Se  Se8  1  0.245078  0.893834  0.246732  1
  Se  Se9  1  0.754922  0.106166  0.753268  1
  Se  Se10  1  0.216511  0.119426  0.202137  1
  Se  Se11  1  0.783489  0.880574  0.797863  1
  Se  Se12  1  0.996939  0.798753  0.059804  1
  Se  Se13  1  0.003061  0.201247  0.940196  1
  Se  Se14  1  0.738094  0.939734  0.043457  1
  Se  Se15  1  0.261906  0.060266  0.956543  1
  Se  Se16  1  0.277896  0.951540  0.483493  1
  Se  Se17  1  0.722104  0.048460  0.516507  1
  Se  Se18  1  0.061139  0.800050  0.549199  1
  Se  Se19  1  0.255543  0.892884  0.760960  1
  Se  Se20  1  0.938861  0.199950  0.450801  1
  Se  Se21  1  0.744457  0.107116  0.239040  1
  Cl  Cl22  1  0.800777  0.574464  0.838199  1
  Cl  Cl23  1  0.199223  0.425536  0.161801  1
  Cl  Cl24  1  0.347041  0.593395  0.840320  1
  Cl  Cl25  1  0.637594  0.688797  0.603234  1
  Cl  Cl26  1  0.587254  0.575180  0.330619  1
  Cl  Cl27  1  0.412746  0.424820  0.669381  1
  Cl  Cl28  1  0.146264  0.601448  0.330851  1
  Cl  Cl29  1  0.853736  0.398552  0.669149  1
  Cl  Cl30  1  0.417937  0.685466  0.088791  1
  Cl  Cl31  1  0.582063  0.314534  0.911209  1
  Cl  Cl32  1  0.362406  0.311203  0.396766  1
  Cl  Cl33  1  0.652959  0.406605  0.159680  1
