# generated using pymatgen
data_Zr14(PdAu3)5
_symmetry_space_group_name_H-M   'P 1'
_cell_length_a   8.38129093
_cell_length_b   8.32494964
_cell_length_c   9.90572808
_cell_angle_alpha   89.97347536
_cell_angle_beta   90.05239211
_cell_angle_gamma   107.02754044
_symmetry_Int_Tables_number   1
_chemical_formula_structural   Zr14(PdAu3)5
_chemical_formula_sum   'Zr14 Pd5 Au15'
_cell_volume   660.86260999
_cell_formula_units_Z   1
loop_
 _symmetry_equiv_pos_site_id
 _symmetry_equiv_pos_as_xyz
  1  'x, y, z'
loop_
 _atom_site_type_symbol
 _atom_site_label
 _atom_site_symmetry_multiplicity
 _atom_site_fract_x
 _atom_site_fract_y
 _atom_site_fract_z
 _atom_site_occupancy
  Zr  Zr0  1  0.688658  0.309818  0.002539  1
  Zr  Zr1  1  0.311253  0.690978  0.002661  1
  Zr  Zr2  1  0.808563  0.192226  0.496251  1
  Zr  Zr3  1  0.189544  0.808741  0.501863  1
  Zr  Zr4  1  0.000120  0.999921  0.999628  1
  Zr  Zr5  1  0.501985  0.499686  0.496820  1
  Zr  Zr6  1  0.001434  0.499025  0.250288  1
  Zr  Zr7  1  0.992495  0.498257  0.750055  1
  Zr  Zr8  1  0.493296  0.998919  0.749678  1
  Zr  Zr9  1  0.508500  0.005255  0.250308  1
  Zr  Zr10  1  0.318691  0.318544  0.194992  1
  Zr  Zr11  1  0.687634  0.682009  0.806871  1
  Zr  Zr12  1  0.187710  0.182490  0.692564  1
  Zr  Zr13  1  0.811929  0.816950  0.307187  1
  Pd  Pd14  1  0.856660  0.150060  0.207642  1
  Pd  Pd15  1  0.143336  0.850086  0.792328  1
  Pd  Pd16  1  0.642717  0.350878  0.707036  1
  Pd  Pd17  1  0.651191  0.356263  0.291278  1
  Pd  Pd18  1  0.356216  0.649671  0.291953  1
  Au  Au19  1  0.347096  0.641835  0.708867  1
  Au  Au20  1  0.846590  0.142997  0.790685  1
  Au  Au21  1  0.153067  0.857150  0.209554  1
  Au  Au22  1  0.942094  0.648405  0.002315  1
  Au  Au23  1  0.058755  0.351736  0.998220  1
  Au  Au24  1  0.557953  0.851369  0.502421  1
  Au  Au25  1  0.148965  0.442207  0.496768  1
  Au  Au26  1  0.442374  0.149238  0.496226  1
  Au  Au27  1  0.850625  0.556904  0.501440  1
  Au  Au28  1  0.350965  0.057261  0.996864  1
  Au  Au29  1  0.648500  0.941915  0.003004  1
  Au  Au30  1  0.103016  0.105372  0.395547  1
  Au  Au31  1  0.896845  0.894760  0.604347  1
  Au  Au32  1  0.397063  0.394562  0.895859  1
  Au  Au33  1  0.604160  0.604510  0.105939  1
