# generated using pymatgen
data_ScTa2SbPb4O13
_symmetry_space_group_name_H-M   'P 1'
_cell_length_a   7.57463190
_cell_length_b   7.55474520
_cell_length_c   7.57463125
_cell_angle_alpha   60.07975156
_cell_angle_beta   60.03618593
_cell_angle_gamma   60.07975615
_symmetry_Int_Tables_number   1
_chemical_formula_structural   ScTa2SbPb4O13
_chemical_formula_sum   'Sc1 Ta2 Sb1 Pb4 O13'
_cell_volume   306.95113793
_cell_formula_units_Z   1
loop_
 _symmetry_equiv_pos_site_id
 _symmetry_equiv_pos_as_xyz
  1  'x, y, z'
loop_
 _atom_site_type_symbol
 _atom_site_label
 _atom_site_symmetry_multiplicity
 _atom_site_fract_x
 _atom_site_fract_y
 _atom_site_fract_z
 _atom_site_occupancy
  Sc  Sc0  1  0.500193  0.499161  0.500193  1
  Ta  Ta1  1  0.001538  0.499688  0.500254  1
  Ta  Ta2  1  0.500254  0.499688  0.001538  1
  Sb  Sb3  1  0.499971  0.000500  0.499971  1
  Pb  Pb4  1  0.999950  0.998517  0.999950  1
  Pb  Pb5  1  0.501647  0.001040  0.999586  1
  Pb  Pb6  1  0.999586  0.001040  0.501647  1
  Pb  Pb7  1  0.001770  0.499650  0.001770  1
  O  O8  1  0.837115  0.422619  0.424679  1
  O  O9  1  0.426417  0.817193  0.817341  1
  O  O10  1  0.424679  0.422619  0.837115  1
  O  O11  1  0.817341  0.817193  0.426417  1
  O  O12  1  0.814653  0.428772  0.814653  1
  O  O13  1  0.423016  0.838978  0.423016  1
  O  O14  1  0.168019  0.573988  0.569797  1
  O  O15  1  0.571847  0.185534  0.184148  1
  O  O16  1  0.569797  0.573988  0.168019  1
  O  O17  1  0.184148  0.185534  0.571847  1
  O  O18  1  0.186699  0.570772  0.186699  1
  O  O19  1  0.573623  0.165801  0.573623  1
  O  O20  1  0.122741  0.122730  0.122741  1
