# generated using pymatgen
data_Ta4Al6OsAu
_symmetry_space_group_name_H-M   'P 1'
_cell_length_a   5.19390300
_cell_length_b   5.19390280
_cell_length_c   8.14389900
_cell_angle_alpha   90.00000000
_cell_angle_beta   90.00000000
_cell_angle_gamma   119.99999491
_symmetry_Int_Tables_number   1
_chemical_formula_structural   Ta4Al6OsAu
_chemical_formula_sum   'Ta4 Al6 Os1 Au1'
_cell_volume   190.26139880
_cell_formula_units_Z   1
loop_
 _symmetry_equiv_pos_site_id
 _symmetry_equiv_pos_as_xyz
  1  'x, y, z'
loop_
 _atom_site_type_symbol
 _atom_site_label
 _atom_site_symmetry_multiplicity
 _atom_site_fract_x
 _atom_site_fract_y
 _atom_site_fract_z
 _atom_site_occupancy
  Ta  Ta0  1  0.666668  0.333334  0.071205  1
  Ta  Ta1  1  0.666668  0.333334  0.426085  1
  Ta  Ta2  1  0.333334  0.666667  0.573915  1
  Ta  Ta3  1  0.333334  0.666667  0.928795  1
  Al  Al4  1  0.171356  0.342713  0.255381  1
  Al  Al5  1  0.171355  0.828644  0.255381  1
  Al  Al6  1  0.657287  0.828644  0.255381  1
  Al  Al7  1  0.342713  0.171355  0.744619  1
  Al  Al8  1  0.828643  0.171355  0.744619  1
  Al  Al9  1  0.828645  0.657287  0.744619  1
  Os  Os10  1  0.000000  0.000000  0.500000  1
  Au  Au11  1  0.000000  0.000000  0.000000  1
