# generated using pymatgen
data_Zr2Sc6TiNb11Si15As
_symmetry_space_group_name_H-M   'P 1'
_cell_length_a   6.71747450
_cell_length_b   6.90162319
_cell_length_c   13.18813400
_cell_angle_alpha   89.90201400
_cell_angle_beta   90.22867283
_cell_angle_gamma   90.10765762
_symmetry_Int_Tables_number   1
_chemical_formula_structural   Zr2Sc6TiNb11Si15As
_chemical_formula_sum   'Zr2 Sc6 Ti1 Nb11 Si15 As1'
_cell_volume   611.41454614
_cell_formula_units_Z   1
loop_
 _symmetry_equiv_pos_site_id
 _symmetry_equiv_pos_as_xyz
  1  'x, y, z'
loop_
 _atom_site_type_symbol
 _atom_site_label
 _atom_site_symmetry_multiplicity
 _atom_site_fract_x
 _atom_site_fract_y
 _atom_site_fract_z
 _atom_site_occupancy
  Zr  Zr0  1  0.498189  0.674147  0.596627  1
  Zr  Zr1  1  0.001670  0.824963  0.903567  1
  Sc  Sc2  1  0.499725  0.325561  0.094928  1
  Sc  Sc3  1  0.005284  0.177045  0.402984  1
  Sc  Sc4  1  0.499606  0.326806  0.404159  1
  Sc  Sc5  1  0.999928  0.172851  0.094963  1
  Sc  Sc6  1  0.499297  0.674672  0.905306  1
  Sc  Sc7  1  0.998020  0.821906  0.596221  1
  Ti  Ti8  1  0.658949  0.172569  0.625676  1
  Nb  Nb9  1  0.162767  0.327039  0.875601  1
  Nb  Nb10  1  0.336669  0.827200  0.124580  1
  Nb  Nb11  1  0.838845  0.670035  0.374794  1
  Nb  Nb12  1  0.338695  0.827828  0.376553  1
  Nb  Nb13  1  0.836912  0.673883  0.124664  1
  Nb  Nb14  1  0.664486  0.172082  0.874082  1
  Nb  Nb15  1  0.164617  0.330025  0.625457  1
  Nb  Nb16  1  0.836496  0.495369  0.750391  1
  Nb  Nb17  1  0.337722  0.004207  0.748779  1
  Nb  Nb18  1  0.162747  0.505417  0.250330  1
  Nb  Nb19  1  0.663142  0.993525  0.249478  1
  Si  Si20  1  0.167957  0.532126  0.039930  1
  Si  Si21  1  0.331048  0.034241  0.960182  1
  Si  Si22  1  0.828410  0.462067  0.540454  1
  Si  Si23  1  0.319138  0.036216  0.541297  1
  Si  Si24  1  0.830698  0.466006  0.960339  1
  Si  Si25  1  0.668958  0.967539  0.039654  1
  Si  Si26  1  0.170423  0.534585  0.460748  1
  Si  Si27  1  0.461109  0.385491  0.749965  1
  Si  Si28  1  0.958489  0.114370  0.747772  1
  Si  Si29  1  0.539238  0.612885  0.249778  1
  Si  Si30  1  0.041042  0.886242  0.250311  1
  Si  Si31  1  0.704675  0.864411  0.749158  1
  Si  Si32  1  0.205449  0.636658  0.750974  1
  Si  Si33  1  0.295905  0.138158  0.249382  1
  Si  Si34  1  0.795068  0.361606  0.248999  1
  As  As35  1  0.678623  0.970266  0.461920  1
