# generated using pymatgen
data_Nd3MgCd2In2Ag
_symmetry_space_group_name_H-M   'P 1'
_cell_length_a   7.73148753
_cell_length_b   7.73148664
_cell_length_c   4.63213200
_cell_angle_alpha   90.00000000
_cell_angle_beta   90.00000000
_cell_angle_gamma   120.30776475
_symmetry_Int_Tables_number   1
_chemical_formula_structural   Nd3MgCd2In2Ag
_chemical_formula_sum   'Nd3 Mg1 Cd2 In2 Ag1'
_cell_volume   239.04650846
_cell_formula_units_Z   1
loop_
 _symmetry_equiv_pos_site_id
 _symmetry_equiv_pos_as_xyz
  1  'x, y, z'
loop_
 _atom_site_type_symbol
 _atom_site_label
 _atom_site_symmetry_multiplicity
 _atom_site_fract_x
 _atom_site_fract_y
 _atom_site_fract_z
 _atom_site_occupancy
  Nd  Nd0  1  0.587806  0.002582  0.000000  1
  Nd  Nd1  1  0.002582  0.587806  0.000000  1
  Nd  Nd2  1  0.406135  0.406135  0.000000  1
  Mg  Mg3  1  0.770713  0.770713  0.500000  1
  Cd  Cd4  1  0.237553  0.997821  0.500000  1
  Cd  Cd5  1  0.997821  0.237553  0.500000  1
  In  In6  1  0.338230  0.666702  0.500000  1
  In  In7  1  0.666702  0.338230  0.500000  1
  Ag  Ag8  1  0.992459  0.992459  0.000000  1
