# generated using pymatgen
data_Tb2DyAl3PdAu2
_symmetry_space_group_name_H-M   'P 1'
_cell_length_a   7.27766061
_cell_length_b   7.27766095
_cell_length_c   4.09364100
_cell_angle_alpha   90.00000000
_cell_angle_beta   90.00000000
_cell_angle_gamma   119.97707741
_symmetry_Int_Tables_number   1
_chemical_formula_structural   Tb2DyAl3PdAu2
_chemical_formula_sum   'Tb2 Dy1 Al3 Pd1 Au2'
_cell_volume   187.81240380
_cell_formula_units_Z   1
loop_
 _symmetry_equiv_pos_site_id
 _symmetry_equiv_pos_as_xyz
  1  'x, y, z'
loop_
 _atom_site_type_symbol
 _atom_site_label
 _atom_site_symmetry_multiplicity
 _atom_site_fract_x
 _atom_site_fract_y
 _atom_site_fract_z
 _atom_site_occupancy
  Tb  Tb0  1  0.411423  0.000251  0.500000  1
  Tb  Tb1  1  0.000251  0.411423  0.500000  1
  Dy  Dy2  1  0.589423  0.589423  0.500000  1
  Al  Al3  1  0.765719  0.999598  0.000000  1
  Al  Al4  1  0.999598  0.765719  0.000000  1
  Al  Al5  1  0.233821  0.233821  0.000000  1
  Pd  Pd6  1  0.998770  0.998770  0.500000  1
  Au  Au7  1  0.335034  0.665961  0.000000  1
  Au  Au8  1  0.665961  0.335034  0.000000  1
