# generated using pymatgen
data_Th2Mg4CoCu17
_symmetry_space_group_name_H-M   'P 1'
_cell_length_a   5.03817400
_cell_length_b   5.03786450
_cell_length_c   15.92520000
_cell_angle_alpha   90.00000000
_cell_angle_beta   90.00000000
_cell_angle_gamma   120.00351730
_symmetry_Int_Tables_number   1
_chemical_formula_structural   Th2Mg4CoCu17
_chemical_formula_sum   'Th2 Mg4 Co1 Cu17'
_cell_volume   350.04169515
_cell_formula_units_Z   1
loop_
 _symmetry_equiv_pos_site_id
 _symmetry_equiv_pos_as_xyz
  1  'x, y, z'
loop_
 _atom_site_type_symbol
 _atom_site_label
 _atom_site_symmetry_multiplicity
 _atom_site_fract_x
 _atom_site_fract_y
 _atom_site_fract_z
 _atom_site_occupancy
  Th  Th0  1  0.666667  0.333331  0.250000  1
  Th  Th1  1  0.333329  0.666659  0.750000  1
  Mg  Mg2  1  0.666676  0.333344  0.468991  1
  Mg  Mg3  1  0.333325  0.666655  0.968671  1
  Mg  Mg4  1  0.666676  0.333344  0.031009  1
  Mg  Mg5  1  0.333325  0.666655  0.531329  1
  Co  Co6  1  0.333331  0.666673  0.250000  1
  Cu  Cu7  1  0.666669  0.333332  0.750000  1
  Cu  Cu8  1  0.168708  0.831315  0.377557  1
  Cu  Cu9  1  0.168700  0.337397  0.377556  1
  Cu  Cu10  1  0.999990  0.999994  0.750000  1
  Cu  Cu11  1  0.000014  0.000009  0.250000  1
  Cu  Cu12  1  0.000000  0.000001  0.999708  1
  Cu  Cu13  1  0.000000  0.000001  0.500292  1
  Cu  Cu14  1  0.168700  0.337397  0.122444  1
  Cu  Cu15  1  0.831632  0.168343  0.622278  1
  Cu  Cu16  1  0.336704  0.168343  0.622280  1
  Cu  Cu17  1  0.662614  0.831317  0.122445  1
  Cu  Cu18  1  0.168708  0.831315  0.122443  1
  Cu  Cu19  1  0.831641  0.663287  0.877721  1
  Cu  Cu20  1  0.831632  0.168343  0.877722  1
  Cu  Cu21  1  0.831641  0.663287  0.622279  1
  Cu  Cu22  1  0.336704  0.168343  0.877720  1
  Cu  Cu23  1  0.662614  0.831317  0.377555  1
