# generated using pymatgen
data_SmY2PtO7
_symmetry_space_group_name_H-M   'P 1'
_cell_length_a   6.50391431
_cell_length_b   6.50391619
_cell_length_c   7.51508500
_cell_angle_alpha   90.00000000
_cell_angle_beta   90.00000000
_cell_angle_gamma   109.42787919
_symmetry_Int_Tables_number   1
_chemical_formula_structural   SmY2PtO7
_chemical_formula_sum   'Sm2 Y4 Pt2 O14'
_cell_volume   299.79431494
_cell_formula_units_Z   2
loop_
 _symmetry_equiv_pos_site_id
 _symmetry_equiv_pos_as_xyz
  1  'x, y, z'
loop_
 _atom_site_type_symbol
 _atom_site_label
 _atom_site_symmetry_multiplicity
 _atom_site_fract_x
 _atom_site_fract_y
 _atom_site_fract_z
 _atom_site_occupancy
  Sm  Sm0  1  0.500000  0.500000  0.500000  1
  Sm  Sm1  1  0.500000  0.500000  0.000000  1
  Y  Y2  1  0.532219  0.998751  0.750000  1
  Y  Y3  1  0.998751  0.532219  0.250000  1
  Y  Y4  1  0.467781  0.001249  0.250000  1
  Y  Y5  1  0.001249  0.467781  0.750000  1
  Pt  Pt6  1  0.000000  0.000000  0.500000  1
  Pt  Pt7  1  0.000000  0.000000  0.000000  1
  O  O8  1  0.675801  0.925042  0.473720  1
  O  O9  1  0.925042  0.675802  0.526280  1
  O  O10  1  0.675801  0.925042  0.026280  1
  O  O11  1  0.925042  0.675802  0.973720  1
  O  O12  1  0.324199  0.074958  0.526280  1
  O  O13  1  0.074958  0.324199  0.473720  1
  O  O14  1  0.324199  0.074958  0.973720  1
  O  O15  1  0.074958  0.324199  0.026280  1
  O  O16  1  0.926736  0.073264  0.750000  1
  O  O17  1  0.073264  0.926736  0.250000  1
  O  O18  1  0.365715  0.634285  0.750000  1
  O  O19  1  0.634285  0.365715  0.250000  1
  O  O20  1  0.639582  0.360418  0.750000  1
  O  O21  1  0.360418  0.639582  0.250000  1
