# generated using pymatgen
data_DyTm11TcOs3
_symmetry_space_group_name_H-M   'P 1'
_cell_length_a   7.37594126
_cell_length_b   8.91638200
_cell_length_c   6.23313537
_cell_angle_alpha   90.00000000
_cell_angle_beta   90.01640527
_cell_angle_gamma   90.00000000
_symmetry_Int_Tables_number   1
_chemical_formula_structural   DyTm11TcOs3
_chemical_formula_sum   'Dy1 Tm11 Tc1 Os3'
_cell_volume   409.93278869
_cell_formula_units_Z   1
loop_
 _symmetry_equiv_pos_site_id
 _symmetry_equiv_pos_as_xyz
  1  'x, y, z'
loop_
 _atom_site_type_symbol
 _atom_site_label
 _atom_site_symmetry_multiplicity
 _atom_site_fract_x
 _atom_site_fract_y
 _atom_site_fract_z
 _atom_site_occupancy
  Dy  Dy0  1  0.039934  0.250000  0.626246  1
  Tm  Tm1  1  0.959709  0.750000  0.371085  1
  Tm  Tm2  1  0.460483  0.750000  0.129392  1
  Tm  Tm3  1  0.539257  0.250000  0.875128  1
  Tm  Tm4  1  0.174921  0.061795  0.163467  1
  Tm  Tm5  1  0.824281  0.937649  0.833941  1
  Tm  Tm6  1  0.325917  0.937124  0.665073  1
  Tm  Tm7  1  0.824281  0.562351  0.833941  1
  Tm  Tm8  1  0.674823  0.062284  0.334572  1
  Tm  Tm9  1  0.174921  0.438205  0.163467  1
  Tm  Tm10  1  0.674823  0.437716  0.334572  1
  Tm  Tm11  1  0.325917  0.562876  0.665073  1
  Tc  Tc12  1  0.382969  0.250000  0.463663  1
  Os  Os13  1  0.618836  0.750000  0.538556  1
  Os  Os14  1  0.117801  0.750000  0.962154  1
  Os  Os15  1  0.881123  0.250000  0.039667  1
