# generated using pymatgen
data_TbY5(AlAu5)2
_symmetry_space_group_name_H-M   'P 1'
_cell_length_a   8.51110272
_cell_length_b   8.51110397
_cell_length_c   13.49848200
_cell_angle_alpha   90.00000000
_cell_angle_beta   90.00000000
_cell_angle_gamma   128.45054533
_symmetry_Int_Tables_number   1
_chemical_formula_structural   TbY5(AlAu5)2
_chemical_formula_sum   'Tb2 Y10 Al4 Au20'
_cell_volume   765.77104845
_cell_formula_units_Z   2
loop_
 _symmetry_equiv_pos_site_id
 _symmetry_equiv_pos_as_xyz
  1  'x, y, z'
loop_
 _atom_site_type_symbol
 _atom_site_label
 _atom_site_symmetry_multiplicity
 _atom_site_fract_x
 _atom_site_fract_y
 _atom_site_fract_z
 _atom_site_occupancy
  Tb  Tb0  1  0.320642  0.679358  0.250000  1
  Tb  Tb1  1  0.679358  0.320642  0.750000  1
  Y  Y2  1  0.927066  0.072934  0.250000  1
  Y  Y3  1  0.072934  0.927066  0.750000  1
  Y  Y4  1  0.630763  0.369237  0.464740  1
  Y  Y5  1  0.369237  0.630763  0.535260  1
  Y  Y6  1  0.630763  0.369237  0.035260  1
  Y  Y7  1  0.369237  0.630763  0.964740  1
  Y  Y8  1  0.881769  0.118231  0.951290  1
  Y  Y9  1  0.118231  0.881769  0.048710  1
  Y  Y10  1  0.881769  0.118231  0.548710  1
  Y  Y11  1  0.118231  0.881769  0.451290  1
  Al  Al12  1  0.720194  0.279806  0.250000  1
  Al  Al13  1  0.279806  0.720194  0.750000  1
  Al  Al14  1  0.532620  0.467380  0.250000  1
  Al  Al15  1  0.467380  0.532620  0.750000  1
  Au  Au16  1  0.323644  0.069695  0.250000  1
  Au  Au17  1  0.069695  0.323644  0.750000  1
  Au  Au18  1  0.676356  0.930305  0.750000  1
  Au  Au19  1  0.930305  0.676356  0.250000  1
  Au  Au20  1  0.570837  0.004209  0.396544  1
  Au  Au21  1  0.004209  0.570837  0.603456  1
  Au  Au22  1  0.570837  0.004209  0.103456  1
  Au  Au23  1  0.004209  0.570837  0.896544  1
  Au  Au24  1  0.429163  0.995791  0.603456  1
  Au  Au25  1  0.995791  0.429163  0.396544  1
  Au  Au26  1  0.429163  0.995791  0.896544  1
  Au  Au27  1  0.995791  0.429163  0.103456  1
  Au  Au28  1  0.685830  0.740928  0.394717  1
  Au  Au29  1  0.740928  0.685830  0.605283  1
  Au  Au30  1  0.685830  0.740928  0.105283  1
  Au  Au31  1  0.740928  0.685830  0.894717  1
  Au  Au32  1  0.314170  0.259072  0.605283  1
  Au  Au33  1  0.259072  0.314170  0.394717  1
  Au  Au34  1  0.314170  0.259072  0.894717  1
  Au  Au35  1  0.259072  0.314170  0.105283  1
