# generated using pymatgen
data_Pr4ErTm3(ScSi4)2
_symmetry_space_group_name_H-M   'P 1'
_cell_length_a   7.36348328
_cell_length_b   7.72156200
_cell_length_c   14.63335757
_cell_angle_alpha   90.00000000
_cell_angle_beta   89.96816755
_cell_angle_gamma   90.00000000
_symmetry_Int_Tables_number   1
_chemical_formula_structural   Pr4ErTm3(ScSi4)2
_chemical_formula_sum   'Pr8 Er2 Tm6 Sc4 Si16'
_cell_volume   832.01735604
_cell_formula_units_Z   2
loop_
 _symmetry_equiv_pos_site_id
 _symmetry_equiv_pos_as_xyz
  1  'x, y, z'
loop_
 _atom_site_type_symbol
 _atom_site_label
 _atom_site_symmetry_multiplicity
 _atom_site_fract_x
 _atom_site_fract_y
 _atom_site_fract_z
 _atom_site_occupancy
  Pr  Pr0  1  0.016414  0.177661  0.401470  1
  Pr  Pr1  1  0.516414  0.322339  0.401470  1
  Pr  Pr2  1  0.483606  0.677643  0.901342  1
  Pr  Pr3  1  0.483614  0.677640  0.598562  1
  Pr  Pr4  1  0.983614  0.822360  0.598562  1
  Pr  Pr5  1  0.983606  0.822357  0.901342  1
  Pr  Pr6  1  0.516445  0.322288  0.098532  1
  Pr  Pr7  1  0.016445  0.177712  0.098532  1
  Er  Er8  1  0.175242  0.677713  0.124895  1
  Er  Er9  1  0.675242  0.822287  0.124895  1
  Tm  Tm10  1  0.324706  0.177498  0.624978  1
  Tm  Tm11  1  0.675310  0.822523  0.375125  1
  Tm  Tm12  1  0.175310  0.677477  0.375125  1
  Tm  Tm13  1  0.824671  0.322466  0.875003  1
  Tm  Tm14  1  0.824706  0.322502  0.624978  1
  Tm  Tm15  1  0.324671  0.177534  0.875003  1
  Sc  Sc16  1  0.656643  0.991724  0.750006  1
  Sc  Sc17  1  0.843304  0.491527  0.250093  1
  Sc  Sc18  1  0.343304  0.008473  0.250093  1
  Sc  Sc19  1  0.156643  0.508276  0.750006  1
  Si  Si20  1  0.282815  0.876107  0.749996  1
  Si  Si21  1  0.473801  0.610401  0.250283  1
  Si  Si22  1  0.026247  0.110771  0.749983  1
  Si  Si23  1  0.526247  0.389229  0.749983  1
  Si  Si24  1  0.148990  0.466914  0.539479  1
  Si  Si25  1  0.973801  0.889599  0.250283  1
  Si  Si26  1  0.717313  0.124101  0.250124  1
  Si  Si27  1  0.850979  0.532644  0.039263  1
  Si  Si28  1  0.350979  0.967356  0.039263  1
  Si  Si29  1  0.148881  0.466652  0.960337  1
  Si  Si30  1  0.648990  0.033086  0.539479  1
  Si  Si31  1  0.351020  0.966911  0.460528  1
  Si  Si32  1  0.851020  0.533089  0.460528  1
  Si  Si33  1  0.782815  0.623893  0.749996  1
  Si  Si34  1  0.217313  0.375899  0.250124  1
  Si  Si35  1  0.648881  0.033348  0.960337  1
