# generated using pymatgen
data_Tb3YEr2(RuI3)2
_symmetry_space_group_name_H-M   'P 1'
_cell_length_a   4.22976600
_cell_length_b   8.88430712
_cell_length_c   12.27452436
_cell_angle_alpha   86.00012638
_cell_angle_beta   90.00000000
_cell_angle_gamma   90.00000000
_symmetry_Int_Tables_number   1
_chemical_formula_structural   Tb3YEr2(RuI3)2
_chemical_formula_sum   'Tb3 Y1 Er2 Ru2 I6'
_cell_volume   460.13517489
_cell_formula_units_Z   1
loop_
 _symmetry_equiv_pos_site_id
 _symmetry_equiv_pos_as_xyz
  1  'x, y, z'
loop_
 _atom_site_type_symbol
 _atom_site_label
 _atom_site_symmetry_multiplicity
 _atom_site_fract_x
 _atom_site_fract_y
 _atom_site_fract_z
 _atom_site_occupancy
  Tb  Tb0  1  0.750000  0.097958  0.683940  1
  Tb  Tb1  1  0.250000  0.901767  0.315916  1
  Tb  Tb2  1  0.250000  0.261469  0.897905  1
  Y  Y3  1  0.750000  0.738611  0.102285  1
  Er  Er4  1  0.750000  0.128965  0.124842  1
  Er  Er5  1  0.250000  0.870311  0.875266  1
  Ru  Ru6  1  0.750000  0.052252  0.907876  1
  Ru  Ru7  1  0.250000  0.948435  0.091944  1
  I  I8  1  0.250000  0.353564  0.636376  1
  I  I9  1  0.750000  0.646418  0.363467  1
  I  I10  1  0.750000  0.143266  0.392204  1
  I  I11  1  0.250000  0.856595  0.607785  1
  I  I12  1  0.250000  0.425890  0.133247  1
  I  I13  1  0.750000  0.574500  0.866948  1
