# generated using pymatgen
data_KRb5(DyBi2)2
_symmetry_space_group_name_H-M   'P 1'
_cell_length_a   10.39818914
_cell_length_b   10.39818975
_cell_length_c   10.39818900
_cell_angle_alpha   129.38163136
_cell_angle_beta   69.49549135
_cell_angle_gamma   135.70866952
_symmetry_Int_Tables_number   1
_chemical_formula_structural   KRb5(DyBi2)2
_chemical_formula_sum   'K1 Rb5 Dy2 Bi4'
_cell_volume   595.48036363
_cell_formula_units_Z   1
loop_
 _symmetry_equiv_pos_site_id
 _symmetry_equiv_pos_as_xyz
  1  'x, y, z'
loop_
 _atom_site_type_symbol
 _atom_site_label
 _atom_site_symmetry_multiplicity
 _atom_site_fract_x
 _atom_site_fract_y
 _atom_site_fract_z
 _atom_site_occupancy
  K  K0  1  0.250000  0.250000  0.000000  1
  Rb  Rb1  1  0.750000  0.750000  0.000000  1
  Rb  Rb2  1  0.312970  0.804384  0.118059  1
  Rb  Rb3  1  0.187030  0.305089  0.491414  1
  Rb  Rb4  1  0.813676  0.695617  0.508587  1
  Rb  Rb5  1  0.686324  0.194910  0.881940  1
  Dy  Dy6  1  0.750000  0.250000  0.500000  1
  Dy  Dy7  1  0.250000  0.749999  0.499999  1
  Bi  Bi8  1  0.902808  0.302600  0.202220  1
  Bi  Bi9  1  0.597192  0.799415  0.399792  1
  Bi  Bi10  1  0.399623  0.197400  0.600208  1
  Bi  Bi11  1  0.100377  0.700585  0.797779  1
