# generated using pymatgen
data_Hf2Zr2TaSi4
_symmetry_space_group_name_H-M   'P 1'
_cell_length_a   7.02817700
_cell_length_b   7.02817700
_cell_length_c   12.85912200
_cell_angle_alpha   90.00000000
_cell_angle_beta   90.00000000
_cell_angle_gamma   90.00000000
_symmetry_Int_Tables_number   1
_chemical_formula_structural   Hf2Zr2TaSi4
_chemical_formula_sum   'Hf8 Zr8 Ta4 Si16'
_cell_volume   635.17982814
_cell_formula_units_Z   4
loop_
 _symmetry_equiv_pos_site_id
 _symmetry_equiv_pos_as_xyz
  1  'x, y, z'
loop_
 _atom_site_type_symbol
 _atom_site_label
 _atom_site_symmetry_multiplicity
 _atom_site_fract_x
 _atom_site_fract_y
 _atom_site_fract_z
 _atom_site_occupancy
  Hf  Hf0  1  0.496865  0.354183  0.126010  1
  Hf  Hf1  1  0.503135  0.645817  0.626010  1
  Hf  Hf2  1  0.854183  0.003135  0.876010  1
  Hf  Hf3  1  0.145817  0.996865  0.376010  1
  Hf  Hf4  1  0.645817  0.503135  0.373990  1
  Hf  Hf5  1  0.354183  0.496865  0.873990  1
  Hf  Hf6  1  0.003135  0.854183  0.123990  1
  Hf  Hf7  1  0.996865  0.145817  0.623990  1
  Zr  Zr8  1  0.497982  0.153010  0.532089  1
  Zr  Zr9  1  0.502018  0.846990  0.032089  1
  Zr  Zr10  1  0.653010  0.002018  0.282089  1
  Zr  Zr11  1  0.346990  0.997982  0.782089  1
  Zr  Zr12  1  0.846990  0.502018  0.967911  1
  Zr  Zr13  1  0.153010  0.497982  0.467911  1
  Zr  Zr14  1  0.002018  0.653010  0.717911  1
  Zr  Zr15  1  0.997982  0.346990  0.217911  1
  Ta  Ta16  1  0.675186  0.324814  0.750000  1
  Ta  Ta17  1  0.324814  0.675186  0.250000  1
  Ta  Ta18  1  0.824814  0.824814  0.500000  1
  Ta  Ta19  1  0.175186  0.175186  0.000000  1
  Si  Si20  1  0.797809  0.146522  0.071662  1
  Si  Si21  1  0.202191  0.853478  0.571662  1
  Si  Si22  1  0.646522  0.702191  0.821662  1
  Si  Si23  1  0.353478  0.297809  0.321662  1
  Si  Si24  1  0.853478  0.202191  0.428338  1
  Si  Si25  1  0.146522  0.797809  0.928338  1
  Si  Si26  1  0.702191  0.646522  0.178338  1
  Si  Si27  1  0.297809  0.353478  0.678338  1
  Si  Si28  1  0.547948  0.199110  0.935222  1
  Si  Si29  1  0.452052  0.800890  0.435222  1
  Si  Si30  1  0.699110  0.952052  0.685222  1
  Si  Si31  1  0.300890  0.047948  0.185222  1
  Si  Si32  1  0.800890  0.452052  0.564778  1
  Si  Si33  1  0.199110  0.547948  0.064778  1
  Si  Si34  1  0.952052  0.699110  0.314778  1
  Si  Si35  1  0.047948  0.300890  0.814778  1
