# generated using pymatgen
data_Sr2Li4YbSb4
_symmetry_space_group_name_H-M   'P 1'
_cell_length_a   8.99859903
_cell_length_b   8.99859839
_cell_length_c   8.99859795
_cell_angle_alpha   148.61639980
_cell_angle_beta   132.37034566
_cell_angle_gamma   58.15521096
_symmetry_Int_Tables_number   1
_chemical_formula_structural   Sr2Li4YbSb4
_chemical_formula_sum   'Sr2 Li4 Yb1 Sb4'
_cell_volume   278.18366574
_cell_formula_units_Z   1
loop_
 _symmetry_equiv_pos_site_id
 _symmetry_equiv_pos_as_xyz
  1  'x, y, z'
loop_
 _atom_site_type_symbol
 _atom_site_label
 _atom_site_symmetry_multiplicity
 _atom_site_fract_x
 _atom_site_fract_y
 _atom_site_fract_z
 _atom_site_occupancy
  Sr  Sr0  1  0.629944  0.629944  0.000000  1
  Sr  Sr1  1  0.370056  0.370056  0.000000  1
  Li  Li2  1  0.982680  0.175762  0.806918  1
  Li  Li3  1  0.368844  0.175762  0.193082  1
  Li  Li4  1  0.631156  0.824238  0.806918  1
  Li  Li5  1  0.017320  0.824238  0.193082  1
  Yb  Yb6  1  0.000000  0.500000  0.500000  1
  Sb  Sb7  1  0.790755  0.290755  0.500000  1
  Sb  Sb8  1  0.209245  0.709245  0.500000  1
  Sb  Sb9  1  0.299128  0.000000  0.299128  1
  Sb  Sb10  1  0.700872  0.000000  0.700872  1
