# generated using pymatgen
data_Cs6DyLuF12
_symmetry_space_group_name_H-M   'P 1'
_cell_length_a   7.03140413
_cell_length_b   6.78332553
_cell_length_c   11.78768400
_cell_angle_alpha   55.26956668
_cell_angle_beta   89.92437324
_cell_angle_gamma   90.02447822
_symmetry_Int_Tables_number   1
_chemical_formula_structural   Cs6DyLuF12
_chemical_formula_sum   'Cs6 Dy1 Lu1 F12'
_cell_volume   462.06223040
_cell_formula_units_Z   1
loop_
 _symmetry_equiv_pos_site_id
 _symmetry_equiv_pos_as_xyz
  1  'x, y, z'
loop_
 _atom_site_type_symbol
 _atom_site_label
 _atom_site_symmetry_multiplicity
 _atom_site_fract_x
 _atom_site_fract_y
 _atom_site_fract_z
 _atom_site_occupancy
  Cs  Cs0  1  0.500000  0.500000  0.000000  1
  Cs  Cs1  1  0.000000  0.500000  0.500000  1
  Cs  Cs2  1  0.048233  0.737323  0.748533  1
  Cs  Cs3  1  0.951767  0.262677  0.251467  1
  Cs  Cs4  1  0.547050  0.268317  0.744732  1
  Cs  Cs5  1  0.452950  0.731683  0.255268  1
  Dy  Dy6  1  0.000000  0.000000  0.000000  1
  Lu  Lu7  1  0.500000  0.000000  0.500000  1
  F  F8  1  0.748809  0.782915  0.559167  1
  F  F9  1  0.251191  0.217085  0.440833  1
  F  F10  1  0.256826  0.222359  0.935705  1
  F  F11  1  0.743174  0.777641  0.064295  1
  F  F12  1  0.455846  0.889148  0.707023  1
  F  F13  1  0.544154  0.110852  0.292977  1
  F  F14  1  0.952209  0.110634  0.787905  1
  F  F15  1  0.047791  0.889366  0.212095  1
  F  F16  1  0.332888  0.704120  0.540800  1
  F  F17  1  0.667112  0.295880  0.459200  1
  F  F18  1  0.832453  0.307704  0.955767  1
  F  F19  1  0.167547  0.692296  0.044233  1
