# generated using pymatgen
data_Tm5Th3(ZnRh)8
_symmetry_space_group_name_H-M   'P 1'
_cell_length_a   3.87608900
_cell_length_b   7.34002701
_cell_length_c   16.35156309
_cell_angle_alpha   90.19282755
_cell_angle_beta   90.00000000
_cell_angle_gamma   90.00000000
_symmetry_Int_Tables_number   1
_chemical_formula_structural   Tm5Th3(ZnRh)8
_chemical_formula_sum   'Tm5 Th3 Zn8 Rh8'
_cell_volume   465.20911291
_cell_formula_units_Z   1
loop_
 _symmetry_equiv_pos_site_id
 _symmetry_equiv_pos_as_xyz
  1  'x, y, z'
loop_
 _atom_site_type_symbol
 _atom_site_label
 _atom_site_symmetry_multiplicity
 _atom_site_fract_x
 _atom_site_fract_y
 _atom_site_fract_z
 _atom_site_occupancy
  Tm  Tm0  1  0.750000  0.939924  0.284268  1
  Tm  Tm1  1  0.750000  0.830697  0.063458  1
  Tm  Tm2  1  0.750000  0.451373  0.209717  1
  Tm  Tm3  1  0.250000  0.056686  0.714457  1
  Tm  Tm4  1  0.250000  0.555540  0.790035  1
  Th  Th5  1  0.250000  0.169059  0.939641  1
  Th  Th6  1  0.250000  0.672984  0.564384  1
  Th  Th7  1  0.750000  0.323718  0.434374  1
  Zn  Zn8  1  0.750000  0.010442  0.564329  1
  Zn  Zn9  1  0.250000  0.618126  0.339857  1
  Zn  Zn10  1  0.750000  0.381207  0.661168  1
  Zn  Zn11  1  0.250000  0.506524  0.060729  1
  Zn  Zn12  1  0.750000  0.515204  0.940205  1
  Zn  Zn13  1  0.250000  0.987379  0.434505  1
  Zn  Zn14  1  0.250000  0.109477  0.155266  1
  Zn  Zn15  1  0.750000  0.879380  0.842117  1
  Rh  Rh16  1  0.750000  0.738704  0.439171  1
  Rh  Rh17  1  0.250000  0.242256  0.312634  1
  Rh  Rh18  1  0.750000  0.253653  0.817340  1
  Rh  Rh19  1  0.750000  0.754425  0.685331  1
  Rh  Rh20  1  0.250000  0.259939  0.561159  1
  Rh  Rh21  1  0.250000  0.742415  0.186646  1
  Rh  Rh22  1  0.750000  0.241612  0.062266  1
  Rh  Rh23  1  0.250000  0.759276  0.936940  1
