# generated using pymatgen
data_Ac4Zn5Pd3
_symmetry_space_group_name_H-M   'P 1'
_cell_length_a   4.58170300
_cell_length_b   8.09134834
_cell_length_c   8.04915111
_cell_angle_alpha   90.04255090
_cell_angle_beta   90.00000000
_cell_angle_gamma   90.00000000
_symmetry_Int_Tables_number   1
_chemical_formula_structural   Ac4Zn5Pd3
_chemical_formula_sum   'Ac4 Zn5 Pd3'
_cell_volume   298.39929503
_cell_formula_units_Z   1
loop_
 _symmetry_equiv_pos_site_id
 _symmetry_equiv_pos_as_xyz
  1  'x, y, z'
loop_
 _atom_site_type_symbol
 _atom_site_label
 _atom_site_symmetry_multiplicity
 _atom_site_fract_x
 _atom_site_fract_y
 _atom_site_fract_z
 _atom_site_occupancy
  Ac  Ac0  1  0.250000  0.995790  0.257951  1
  Ac  Ac1  1  0.250000  0.505926  0.254039  1
  Ac  Ac2  1  0.750000  0.996789  0.743861  1
  Ac  Ac3  1  0.750000  0.501904  0.746959  1
  Zn  Zn4  1  0.250000  0.747693  0.584361  1
  Zn  Zn5  1  0.250000  0.247383  0.916861  1
  Zn  Zn6  1  0.750000  0.252451  0.415633  1
  Zn  Zn7  1  0.750000  0.752780  0.082293  1
  Zn  Zn8  1  0.750000  0.248241  0.083154  1
  Pd  Pd9  1  0.250000  0.250656  0.585270  1
  Pd  Pd10  1  0.250000  0.751501  0.915140  1
  Pd  Pd11  1  0.750000  0.748884  0.414478  1
