# generated using pymatgen
data_Ho2Pa2Ge6Os7
_symmetry_space_group_name_H-M   'P 1'
_cell_length_a   7.26905762
_cell_length_b   7.25497780
_cell_length_c   7.25497673
_cell_angle_alpha   109.41760060
_cell_angle_beta   109.45874135
_cell_angle_gamma   109.45873982
_symmetry_Int_Tables_number   1
_chemical_formula_structural   Ho2Pa2Ge6Os7
_chemical_formula_sum   'Ho2 Pa2 Ge6 Os7'
_cell_volume   294.81442872
_cell_formula_units_Z   1
loop_
 _symmetry_equiv_pos_site_id
 _symmetry_equiv_pos_as_xyz
  1  'x, y, z'
loop_
 _atom_site_type_symbol
 _atom_site_label
 _atom_site_symmetry_multiplicity
 _atom_site_fract_x
 _atom_site_fract_y
 _atom_site_fract_z
 _atom_site_occupancy
  Ho  Ho0  1  0.000000  0.000000  0.500000  1
  Ho  Ho1  1  0.000000  0.500000  0.000000  1
  Pa  Pa2  1  0.500000  0.000000  0.000000  1
  Pa  Pa3  1  0.500000  0.500000  0.500000  1
  Ge  Ge4  1  0.694995  0.689420  0.005575  1
  Ge  Ge5  1  0.305005  0.994425  0.310580  1
  Ge  Ge6  1  0.000000  0.311720  0.311720  1
  Ge  Ge7  1  0.305005  0.310580  0.994425  1
  Ge  Ge8  1  0.694995  0.005575  0.689420  1
  Ge  Ge9  1  0.000000  0.688280  0.688280  1
  Os  Os10  1  0.743166  0.249195  0.493971  1
  Os  Os11  1  0.743166  0.493971  0.249195  1
  Os  Os12  1  0.500000  0.250000  0.750000  1
  Os  Os13  1  0.256834  0.506029  0.750805  1
  Os  Os14  1  0.256834  0.750805  0.506029  1
  Os  Os15  1  0.500000  0.750000  0.250000  1
  Os  Os16  1  0.000000  0.000000  0.000000  1
