# generated using pymatgen
data_Zr6Sc4Al12Pt2Rh5
_symmetry_space_group_name_H-M   'P 1'
_cell_length_a   8.94023201
_cell_length_b   8.94023191
_cell_length_c   8.93868800
_cell_angle_alpha   60.00570506
_cell_angle_beta   60.00570544
_cell_angle_gamma   59.93439372
_symmetry_Int_Tables_number   1
_chemical_formula_structural   Zr6Sc4Al12Pt2Rh5
_chemical_formula_sum   'Zr6 Sc4 Al12 Pt2 Rh5'
_cell_volume   504.98440884
_cell_formula_units_Z   1
loop_
 _symmetry_equiv_pos_site_id
 _symmetry_equiv_pos_as_xyz
  1  'x, y, z'
loop_
 _atom_site_type_symbol
 _atom_site_label
 _atom_site_symmetry_multiplicity
 _atom_site_fract_x
 _atom_site_fract_y
 _atom_site_fract_z
 _atom_site_occupancy
  Zr  Zr0  1  0.681942  0.681942  0.318058  1
  Zr  Zr1  1  0.316616  0.683591  0.316245  1
  Zr  Zr2  1  0.683591  0.316616  0.316245  1
  Zr  Zr3  1  0.317854  0.317854  0.682146  1
  Zr  Zr4  1  0.683591  0.316616  0.683549  1
  Zr  Zr5  1  0.316616  0.683591  0.683549  1
  Sc  Sc6  1  0.878324  0.878324  0.360098  1
  Sc  Sc7  1  0.879327  0.360933  0.879869  1
  Sc  Sc8  1  0.360933  0.879327  0.879869  1
  Sc  Sc9  1  0.878324  0.878324  0.883253  1
  Al  Al10  1  0.123313  0.123313  0.632919  1
  Al  Al11  1  0.123244  0.632316  0.122220  1
  Al  Al12  1  0.632316  0.123244  0.122220  1
  Al  Al13  1  0.123313  0.123313  0.120454  1
  Al  Al14  1  0.662401  0.662401  0.012519  1
  Al  Al15  1  0.659699  0.013612  0.663344  1
  Al  Al16  1  0.013612  0.659699  0.663344  1
  Al  Al17  1  0.662401  0.662401  0.662679  1
  Al  Al18  1  0.336541  0.336541  0.990556  1
  Al  Al19  1  0.339318  0.990066  0.335309  1
  Al  Al20  1  0.990066  0.339318  0.335309  1
  Al  Al21  1  0.336541  0.336541  0.336363  1
  Pt  Pt22  1  0.000069  0.000069  0.999931  1
  Pt  Pt23  1  0.000845  0.000845  0.499155  1
  Rh  Rh24  1  0.499155  0.000928  0.499020  1
  Rh  Rh25  1  0.000928  0.499155  0.499020  1
  Rh  Rh26  1  0.499039  0.499039  0.000961  1
  Rh  Rh27  1  0.000928  0.499155  0.000898  1
  Rh  Rh28  1  0.499155  0.000928  0.000898  1
