# generated using pymatgen
data_NdNi9P5
_symmetry_space_group_name_H-M   'P 1'
_cell_length_a   6.47127800
_cell_length_b   6.47127838
_cell_length_c   10.74575100
_cell_angle_alpha   90.00000000
_cell_angle_beta   90.00000000
_cell_angle_gamma   120.00000830
_symmetry_Int_Tables_number   1
_chemical_formula_structural   NdNi9P5
_chemical_formula_sum   'Nd2 Ni18 P10'
_cell_volume   389.71534616
_cell_formula_units_Z   2
loop_
 _symmetry_equiv_pos_site_id
 _symmetry_equiv_pos_as_xyz
  1  'x, y, z'
loop_
 _atom_site_type_symbol
 _atom_site_label
 _atom_site_symmetry_multiplicity
 _atom_site_fract_x
 _atom_site_fract_y
 _atom_site_fract_z
 _atom_site_occupancy
  Nd  Nd0  1  0.000000  0.000000  0.500000  1
  Nd  Nd1  1  0.000000  0.000000  0.000000  1
  Ni  Ni2  1  0.464532  0.929064  0.893889  1
  Ni  Ni3  1  0.929064  0.464532  0.106111  1
  Ni  Ni4  1  0.535468  0.070936  0.106111  1
  Ni  Ni5  1  0.070936  0.535468  0.606111  1
  Ni  Ni6  1  0.202213  0.404426  0.250000  1
  Ni  Ni7  1  0.797787  0.202213  0.750000  1
  Ni  Ni8  1  0.404426  0.202213  0.750000  1
  Ni  Ni9  1  0.595574  0.797787  0.250000  1
  Ni  Ni10  1  0.202213  0.797787  0.250000  1
  Ni  Ni11  1  0.797787  0.595574  0.750000  1
  Ni  Ni12  1  0.464532  0.929064  0.606111  1
  Ni  Ni13  1  0.535468  0.464532  0.393889  1
  Ni  Ni14  1  0.929064  0.464532  0.393889  1
  Ni  Ni15  1  0.070936  0.535468  0.893889  1
  Ni  Ni16  1  0.464532  0.535468  0.893889  1
  Ni  Ni17  1  0.535468  0.070936  0.393889  1
  Ni  Ni18  1  0.535468  0.464532  0.106111  1
  Ni  Ni19  1  0.464532  0.535468  0.606111  1
  P  P20  1  0.174445  0.348891  0.750000  1
  P  P21  1  0.825555  0.174445  0.250000  1
  P  P22  1  0.174445  0.825555  0.750000  1
  P  P23  1  0.825555  0.651109  0.250000  1
  P  P24  1  0.333333  0.666667  0.438269  1
  P  P25  1  0.666667  0.333333  0.938269  1
  P  P26  1  0.666667  0.333333  0.561731  1
  P  P27  1  0.333333  0.666667  0.061731  1
  P  P28  1  0.348891  0.174445  0.250000  1
  P  P29  1  0.651109  0.825555  0.750000  1
