# generated using pymatgen
data_Dy5Co14Si9P3Ru5
_symmetry_space_group_name_H-M   'P 1'
_cell_length_a   12.28703893
_cell_length_b   12.23851319
_cell_length_c   3.74937200
_cell_angle_alpha   90.00000000
_cell_angle_beta   90.00000000
_cell_angle_gamma   119.98064402
_symmetry_Int_Tables_number   1
_chemical_formula_structural   Dy5Co14Si9P3Ru5
_chemical_formula_sum   'Dy5 Co14 Si9 P3 Ru5'
_cell_volume   488.37084745
_cell_formula_units_Z   1
loop_
 _symmetry_equiv_pos_site_id
 _symmetry_equiv_pos_as_xyz
  1  'x, y, z'
loop_
 _atom_site_type_symbol
 _atom_site_label
 _atom_site_symmetry_multiplicity
 _atom_site_fract_x
 _atom_site_fract_y
 _atom_site_fract_z
 _atom_site_occupancy
  Dy  Dy0  1  0.663993  0.333535  0.000000  1
  Dy  Dy1  1  0.333413  0.666628  0.000000  1
  Dy  Dy2  1  0.183583  0.182534  0.500000  1
  Dy  Dy3  1  0.818824  0.000903  0.500000  1
  Dy  Dy4  1  0.999057  0.818702  0.500000  1
  Co  Co5  1  0.830391  0.197012  0.000000  1
  Co  Co6  1  0.801736  0.631729  0.000000  1
  Co  Co7  1  0.369598  0.174965  0.000000  1
  Co  Co8  1  0.194078  0.823550  0.000000  1
  Co  Co9  1  0.627243  0.803828  0.000000  1
  Co  Co10  1  0.179089  0.371132  0.000000  1
  Co  Co11  1  0.474690  0.353510  0.500000  1
  Co  Co12  1  0.128731  0.648024  0.500000  1
  Co  Co13  1  0.519040  0.871052  0.500000  1
  Co  Co14  1  0.353660  0.477378  0.500000  1
  Co  Co15  1  0.722437  0.726223  0.500000  1
  Co  Co16  1  0.273811  0.999119  0.500000  1
  Co  Co17  1  0.004896  0.276409  0.500000  1
  Co  Co18  1  0.999487  0.999504  0.000000  1
  Si  Si19  1  0.366230  0.365864  0.000000  1
  Si  Si20  1  0.629973  0.994775  0.000000  1
  Si  Si21  1  0.004525  0.635561  0.000000  1
  Si  Si22  1  0.845620  0.317965  0.500000  1
  Si  Si23  1  0.677708  0.524173  0.500000  1
  Si  Si24  1  0.472841  0.160224  0.500000  1
  Si  Si25  1  0.317207  0.840083  0.500000  1
  Si  Si26  1  0.521544  0.681887  0.500000  1
  Si  Si27  1  0.162866  0.477624  0.500000  1
  P  P28  1  0.817508  0.819824  0.000000  1
  P  P29  1  0.180007  0.999174  0.000000  1
  P  P30  1  0.002944  0.181873  0.000000  1
  Ru  Ru31  1  0.557029  0.558975  0.000000  1
  Ru  Ru32  1  0.435498  0.994410  0.000000  1
  Ru  Ru33  1  0.008175  0.442558  0.000000  1
  Ru  Ru34  1  0.647337  0.124837  0.500000  1
  Ru  Ru35  1  0.875232  0.524455  0.500000  1
