# generated using pymatgen
data_TbDy11(BBr3)4
_symmetry_space_group_name_H-M   'P 1'
_cell_length_a   9.73455598
_cell_length_b   9.73455549
_cell_length_c   9.73449700
_cell_angle_alpha   109.46952206
_cell_angle_beta   109.46952056
_cell_angle_gamma   109.47480166
_symmetry_Int_Tables_number   1
_chemical_formula_structural   TbDy11(BBr3)4
_chemical_formula_sum   'Tb1 Dy11 B4 Br12'
_cell_volume   710.10556843
_cell_formula_units_Z   1
loop_
 _symmetry_equiv_pos_site_id
 _symmetry_equiv_pos_as_xyz
  1  'x, y, z'
loop_
 _atom_site_type_symbol
 _atom_site_label
 _atom_site_symmetry_multiplicity
 _atom_site_fract_x
 _atom_site_fract_y
 _atom_site_fract_z
 _atom_site_occupancy
  Tb  Tb0  1  0.230766  0.269234  0.750000  1
  Dy  Dy1  1  0.460731  0.480342  0.230424  1
  Dy  Dy2  1  0.749879  0.230363  0.269525  1
  Dy  Dy3  1  0.749998  0.019665  0.480394  1
  Dy  Dy4  1  0.230355  0.460747  0.480341  1
  Dy  Dy5  1  0.269637  0.750121  0.230475  1
  Dy  Dy6  1  0.039253  0.269645  0.019659  1
  Dy  Dy7  1  0.019658  0.039269  0.269576  1
  Dy  Dy8  1  0.480335  0.750002  0.019606  1
  Dy  Dy9  1  0.480344  0.230361  0.460724  1
  Dy  Dy10  1  0.019515  0.480485  0.750000  1
  Dy  Dy11  1  0.269639  0.019656  0.039276  1
  B  B12  1  0.249984  0.250016  0.250000  1
  B  B13  1  0.500010  0.999990  0.250000  1
  B  B14  1  0.999695  0.249995  0.499691  1
  B  B15  1  0.250005  0.500305  0.000309  1
  Br  Br16  1  0.249995  0.758449  0.741563  1
  Br  Br17  1  0.517164  0.508754  0.758428  1
  Br  Br18  1  0.983154  0.741567  0.991564  1
  Br  Br19  1  0.741551  0.250005  0.758437  1
  Br  Br20  1  0.991246  0.982836  0.741572  1
  Br  Br21  1  0.249986  0.991320  0.508138  1
  Br  Br22  1  0.758433  0.516846  0.508436  1
  Br  Br23  1  0.508680  0.250014  0.991862  1
  Br  Br24  1  0.758439  0.741561  0.250000  1
  Br  Br25  1  0.741560  0.991564  0.983137  1
  Br  Br26  1  0.991554  0.508446  0.250000  1
  Br  Br27  1  0.508436  0.758440  0.516863  1
