# generated using pymatgen
data_NdDy2BiO7
_symmetry_space_group_name_H-M   'P 1'
_cell_length_a   6.62718676
_cell_length_b   6.62718675
_cell_length_c   7.79047300
_cell_angle_alpha   90.00000000
_cell_angle_beta   90.00000000
_cell_angle_gamma   109.40189222
_symmetry_Int_Tables_number   1
_chemical_formula_structural   NdDy2BiO7
_chemical_formula_sum   'Nd2 Dy4 Bi2 O14'
_cell_volume   322.72411504
_cell_formula_units_Z   2
loop_
 _symmetry_equiv_pos_site_id
 _symmetry_equiv_pos_as_xyz
  1  'x, y, z'
loop_
 _atom_site_type_symbol
 _atom_site_label
 _atom_site_symmetry_multiplicity
 _atom_site_fract_x
 _atom_site_fract_y
 _atom_site_fract_z
 _atom_site_occupancy
  Nd  Nd0  1  0.500000  0.500000  0.500000  1
  Nd  Nd1  1  0.500000  0.500000  0.000000  1
  Dy  Dy2  1  0.530801  0.002126  0.750000  1
  Dy  Dy3  1  0.002126  0.530801  0.250000  1
  Dy  Dy4  1  0.469199  0.997874  0.250000  1
  Dy  Dy5  1  0.997874  0.469199  0.750000  1
  Bi  Bi6  1  0.000000  0.000000  0.500000  1
  Bi  Bi7  1  0.000000  0.000000  0.000000  1
  O  O8  1  0.664936  0.921843  0.470128  1
  O  O9  1  0.921843  0.664936  0.529872  1
  O  O10  1  0.664936  0.921843  0.029872  1
  O  O11  1  0.921843  0.664936  0.970128  1
  O  O12  1  0.335064  0.078157  0.529872  1
  O  O13  1  0.078157  0.335064  0.470128  1
  O  O14  1  0.335064  0.078157  0.970128  1
  O  O15  1  0.078157  0.335064  0.029872  1
  O  O16  1  0.914958  0.085042  0.750000  1
  O  O17  1  0.085042  0.914958  0.250000  1
  O  O18  1  0.362264  0.637736  0.750000  1
  O  O19  1  0.637736  0.362264  0.250000  1
  O  O20  1  0.641745  0.358255  0.750000  1
  O  O21  1  0.358255  0.641745  0.250000  1
