# generated using pymatgen
data_CuPd7Au20
_symmetry_space_group_name_H-M   'P 1'
_cell_length_a   4.10549500
_cell_length_b   4.10549500
_cell_length_c   28.67841000
_cell_angle_alpha   90.00000000
_cell_angle_beta   90.00000000
_cell_angle_gamma   90.00000000
_symmetry_Int_Tables_number   1
_chemical_formula_structural   CuPd7Au20
_chemical_formula_sum   'Cu1 Pd7 Au20'
_cell_volume   483.37715852
_cell_formula_units_Z   1
loop_
 _symmetry_equiv_pos_site_id
 _symmetry_equiv_pos_as_xyz
  1  'x, y, z'
loop_
 _atom_site_type_symbol
 _atom_site_label
 _atom_site_symmetry_multiplicity
 _atom_site_fract_x
 _atom_site_fract_y
 _atom_site_fract_z
 _atom_site_occupancy
  Cu  Cu0  1  0.500000  0.500000  0.427025  1
  Pd  Pd1  1  0.000000  0.000000  0.428010  1
  Pd  Pd2  1  0.000000  0.000000  0.141877  1
  Pd  Pd3  1  0.500000  0.500000  0.710742  1
  Pd  Pd4  1  0.500000  0.500000  0.854619  1
  Pd  Pd5  1  0.500000  0.500000  0.566891  1
  Pd  Pd6  1  0.000000  0.000000  0.997616  1
  Pd  Pd7  1  0.000000  0.000000  0.287234  1
  Au  Au8  1  0.500000  0.500000  0.998453  1
  Au  Au9  1  0.500000  0.500000  0.286501  1
  Au  Au10  1  0.000000  0.500000  0.639076  1
  Au  Au11  1  0.000000  0.500000  0.926247  1
  Au  Au12  1  0.500000  0.000000  0.639076  1
  Au  Au13  1  0.000000  0.000000  0.567268  1
  Au  Au14  1  0.500000  0.000000  0.926247  1
  Au  Au15  1  0.500000  0.000000  0.782499  1
  Au  Au16  1  0.000000  0.500000  0.359887  1
  Au  Au17  1  0.500000  0.000000  0.214285  1
  Au  Au18  1  0.000000  0.500000  0.494883  1
  Au  Au19  1  0.500000  0.000000  0.070195  1
  Au  Au20  1  0.000000  0.500000  0.070195  1
  Au  Au21  1  0.000000  0.000000  0.710761  1
  Au  Au22  1  0.500000  0.000000  0.359887  1
  Au  Au23  1  0.000000  0.500000  0.214285  1
  Au  Au24  1  0.500000  0.500000  0.142363  1
  Au  Au25  1  0.000000  0.000000  0.854195  1
  Au  Au26  1  0.500000  0.000000  0.494883  1
  Au  Au27  1  0.000000  0.500000  0.782499  1
