# generated using pymatgen
data_Tb4Zr3ReF28
_symmetry_space_group_name_H-M   'P 1'
_cell_length_a   5.72890566
_cell_length_b   9.08221573
_cell_length_c   12.23209743
_cell_angle_alpha   62.52034101
_cell_angle_beta   90.00327445
_cell_angle_gamma   90.05018407
_symmetry_Int_Tables_number   1
_chemical_formula_structural   Tb4Zr3ReF28
_chemical_formula_sum   'Tb4 Zr3 Re1 F28'
_cell_volume   564.64224497
_cell_formula_units_Z   1
loop_
 _symmetry_equiv_pos_site_id
 _symmetry_equiv_pos_as_xyz
  1  'x, y, z'
loop_
 _atom_site_type_symbol
 _atom_site_label
 _atom_site_symmetry_multiplicity
 _atom_site_fract_x
 _atom_site_fract_y
 _atom_site_fract_z
 _atom_site_occupancy
  Tb  Tb0  1  0.256721  0.814854  0.266801  1
  Tb  Tb1  1  0.743766  0.186415  0.734114  1
  Tb  Tb2  1  0.756555  0.183491  0.235309  1
  Tb  Tb3  1  0.242764  0.815359  0.762572  1
  Zr  Zr4  1  0.754901  0.725975  0.043316  1
  Zr  Zr5  1  0.245416  0.274682  0.956043  1
  Zr  Zr6  1  0.254537  0.274598  0.456532  1
  Re  Re7  1  0.743449  0.726343  0.543959  1
  F  F8  1  0.952997  0.708255  0.421729  1
  F  F9  1  0.038664  0.290182  0.582461  1
  F  F10  1  0.461366  0.290459  0.082263  1
  F  F11  1  0.538797  0.710393  0.916949  1
  F  F12  1  0.477644  0.733145  0.145592  1
  F  F13  1  0.522865  0.268044  0.854043  1
  F  F14  1  0.976635  0.265903  0.355457  1
  F  F15  1  0.016451  0.731679  0.641758  1
  F  F16  1  0.962071  0.747411  0.172679  1
  F  F17  1  0.038780  0.253074  0.827328  1
  F  F18  1  0.462304  0.251709  0.328403  1
  F  F19  1  0.540550  0.745076  0.669332  1
  F  F20  1  0.769044  0.474385  0.143267  1
  F  F21  1  0.230685  0.526142  0.855622  1
  F  F22  1  0.267478  0.526233  0.357974  1
  F  F23  1  0.733829  0.480931  0.642208  1
  F  F24  1  0.950687  0.280736  0.049642  1
  F  F25  1  0.049078  0.719908  0.949347  1
  F  F26  1  0.459795  0.718418  0.452196  1
  F  F27  1  0.549323  0.281704  0.549339  1
  F  F28  1  0.741641  0.970845  0.446500  1
  F  F29  1  0.259987  0.023174  0.557519  1
  F  F30  1  0.239964  0.023365  0.058394  1
  F  F31  1  0.759883  0.977365  0.941845  1
  F  F32  1  0.574269  0.971812  0.233276  1
  F  F33  1  0.425715  0.027470  0.765595  1
  F  F34  1  0.075372  0.028014  0.266810  1
  F  F35  1  0.926015  0.972450  0.733825  1
