# generated using pymatgen
data_Sc4Fe2B8MoRu7
_symmetry_space_group_name_H-M   'P 1'
_cell_length_a   3.02148500
_cell_length_b   8.47883409
_cell_length_c   9.90663657
_cell_angle_alpha   90.47085159
_cell_angle_beta   90.00000000
_cell_angle_gamma   90.00000000
_symmetry_Int_Tables_number   1
_chemical_formula_structural   Sc4Fe2B8MoRu7
_chemical_formula_sum   'Sc4 Fe2 B8 Mo1 Ru7'
_cell_volume   253.78628339
_cell_formula_units_Z   1
loop_
 _symmetry_equiv_pos_site_id
 _symmetry_equiv_pos_as_xyz
  1  'x, y, z'
loop_
 _atom_site_type_symbol
 _atom_site_label
 _atom_site_symmetry_multiplicity
 _atom_site_fract_x
 _atom_site_fract_y
 _atom_site_fract_z
 _atom_site_occupancy
  Sc  Sc0  1  0.500000  0.840916  0.175664  1
  Sc  Sc1  1  0.500000  0.160890  0.823681  1
  Sc  Sc2  1  0.500000  0.660688  0.678501  1
  Sc  Sc3  1  0.500000  0.341534  0.321875  1
  Fe  Fe4  1  0.000000  0.002711  0.999605  1
  Fe  Fe5  1  0.000000  0.499510  0.500985  1
  B  B6  1  0.500000  0.967768  0.590368  1
  B  B7  1  0.500000  0.032928  0.408551  1
  B  B8  1  0.500000  0.859329  0.906596  1
  B  B9  1  0.500000  0.139733  0.092986  1
  B  B10  1  0.500000  0.635241  0.407324  1
  B  B11  1  0.500000  0.361987  0.593471  1
  B  B12  1  0.500000  0.465027  0.912048  1
  B  B13  1  0.500000  0.532077  0.089648  1
  Mo  Mo14  1  0.000000  0.663144  0.955489  1
  Ru  Ru15  1  0.000000  0.331860  0.046100  1
  Ru  Ru16  1  0.000000  0.837935  0.455366  1
  Ru  Ru17  1  0.000000  0.162545  0.542587  1
  Ru  Ru18  1  0.000000  0.407559  0.756166  1
  Ru  Ru19  1  0.000000  0.592773  0.244545  1
  Ru  Ru20  1  0.000000  0.911962  0.741729  1
  Ru  Ru21  1  0.000000  0.091882  0.256714  1
