# generated using pymatgen
data_Pr4Al24IrPt8
_symmetry_space_group_name_H-M   'P 1'
_cell_length_a   7.54691232
_cell_length_b   7.60777951
_cell_length_c   13.39259190
_cell_angle_alpha   84.61798191
_cell_angle_beta   79.24368810
_cell_angle_gamma   59.94262468
_symmetry_Int_Tables_number   1
_chemical_formula_structural   Pr4Al24IrPt8
_chemical_formula_sum   'Pr4 Al24 Ir1 Pt8'
_cell_volume   653.84171652
_cell_formula_units_Z   1
loop_
 _symmetry_equiv_pos_site_id
 _symmetry_equiv_pos_as_xyz
  1  'x, y, z'
loop_
 _atom_site_type_symbol
 _atom_site_label
 _atom_site_symmetry_multiplicity
 _atom_site_fract_x
 _atom_site_fract_y
 _atom_site_fract_z
 _atom_site_occupancy
  Pr  Pr0  1  0.394187  0.167776  0.808410  1
  Pr  Pr1  1  0.605813  0.832224  0.191590  1
  Pr  Pr2  1  0.733206  0.498245  0.808742  1
  Pr  Pr3  1  0.266794  0.501755  0.191258  1
  Al  Al4  1  0.688793  0.830733  0.947211  1
  Al  Al5  1  0.311207  0.169267  0.052789  1
  Al  Al6  1  0.146887  0.831846  0.559700  1
  Al  Al7  1  0.853113  0.168154  0.440300  1
  Al  Al8  1  0.480049  0.166448  0.557691  1
  Al  Al9  1  0.519951  0.833552  0.442309  1
  Al  Al10  1  0.214417  0.165592  0.331486  1
  Al  Al11  1  0.785583  0.834408  0.668514  1
  Al  Al12  1  0.436143  0.508049  0.668330  1
  Al  Al13  1  0.563857  0.491951  0.331670  1
  Al  Al14  1  0.110461  0.158794  0.665854  1
  Al  Al15  1  0.889539  0.841206  0.334146  1
  Al  Al16  1  0.347349  0.501104  0.947598  1
  Al  Al17  1  0.652651  0.498896  0.052402  1
  Al  Al18  1  0.014221  0.169536  0.958406  1
  Al  Al19  1  0.985779  0.830464  0.041594  1
  Al  Al20  1  0.185890  0.499142  0.442278  1
  Al  Al21  1  0.814110  0.500858  0.557722  1
  Al  Al22  1  0.736736  0.163676  0.183564  1
  Al  Al23  1  0.263264  0.836324  0.816436  1
  Al  Al24  1  0.061139  0.631620  0.817376  1
  Al  Al25  1  0.938861  0.368380  0.182624  1
  Al  Al26  1  0.858913  0.038402  0.816113  1
  Al  Al27  1  0.141087  0.961598  0.183888  1
  Ir  Ir28  1  0.000000  0.500000  0.000000  1
  Pt  Pt29  1  0.120778  0.494673  0.636389  1
  Pt  Pt30  1  0.879222  0.505327  0.363611  1
  Pt  Pt31  1  0.658565  0.170549  0.999899  1
  Pt  Pt32  1  0.341435  0.829451  0.000101  1
  Pt  Pt33  1  0.538956  0.167078  0.363711  1
  Pt  Pt34  1  0.461044  0.832922  0.636289  1
  Pt  Pt35  1  0.781251  0.172589  0.634571  1
  Pt  Pt36  1  0.218749  0.827411  0.365429  1
