# generated using pymatgen
data_HfZr3Pd11Rh
_symmetry_space_group_name_H-M   'P 1'
_cell_length_a   5.68081800
_cell_length_b   5.71339539
_cell_length_c   9.29915991
_cell_angle_alpha   89.26606335
_cell_angle_beta   90.00000000
_cell_angle_gamma   119.81156017
_symmetry_Int_Tables_number   1
_chemical_formula_structural   HfZr3Pd11Rh
_chemical_formula_sum   'Hf1 Zr3 Pd11 Rh1'
_cell_volume   261.85067805
_cell_formula_units_Z   1
loop_
 _symmetry_equiv_pos_site_id
 _symmetry_equiv_pos_as_xyz
  1  'x, y, z'
loop_
 _atom_site_type_symbol
 _atom_site_label
 _atom_site_symmetry_multiplicity
 _atom_site_fract_x
 _atom_site_fract_y
 _atom_site_fract_z
 _atom_site_occupancy
  Hf  Hf0  1  0.337136  0.674272  0.244614  1
  Zr  Zr1  1  0.663037  0.326072  0.755430  1
  Zr  Zr2  1  0.999968  0.999936  0.500253  1
  Zr  Zr3  1  0.999948  0.999896  0.999767  1
  Pd  Pd4  1  0.168529  0.337057  0.749076  1
  Pd  Pd5  1  0.831692  0.171934  0.250668  1
  Pd  Pd6  1  0.340241  0.171934  0.250668  1
  Pd  Pd7  1  0.659508  0.827878  0.749342  1
  Pd  Pd8  1  0.499641  0.500313  0.499295  1
  Pd  Pd9  1  0.000672  0.500313  0.499295  1
  Pd  Pd10  1  0.000754  0.500354  0.000726  1
  Pd  Pd11  1  0.499599  0.500354  0.000726  1
  Pd  Pd12  1  0.499672  0.999345  0.499372  1
  Pd  Pd13  1  0.831500  0.663000  0.250888  1
  Pd  Pd14  1  0.168371  0.827878  0.749342  1
  Rh  Rh15  1  0.499732  0.999463  0.000538  1
