# generated using pymatgen
data_Zr6AlIn5(IrPt2)2
_symmetry_space_group_name_H-M   'P 1'
_cell_length_a   7.57096099
_cell_length_b   7.57096123
_cell_length_c   7.08459382
_cell_angle_alpha   89.89559960
_cell_angle_beta   90.10439999
_cell_angle_gamma   120.52188027
_symmetry_Int_Tables_number   1
_chemical_formula_structural   Zr6AlIn5(IrPt2)2
_chemical_formula_sum   'Zr6 Al1 In5 Ir2 Pt4'
_cell_volume   349.81520529
_cell_formula_units_Z   1
loop_
 _symmetry_equiv_pos_site_id
 _symmetry_equiv_pos_as_xyz
  1  'x, y, z'
loop_
 _atom_site_type_symbol
 _atom_site_label
 _atom_site_symmetry_multiplicity
 _atom_site_fract_x
 _atom_site_fract_y
 _atom_site_fract_z
 _atom_site_occupancy
  Zr  Zr0  1  0.000916  0.606530  0.744881  1
  Zr  Zr1  1  0.983005  0.596578  0.256643  1
  Zr  Zr2  1  0.606530  0.000916  0.255119  1
  Zr  Zr3  1  0.596578  0.983005  0.743357  1
  Zr  Zr4  1  0.406033  0.397070  0.261060  1
  Zr  Zr5  1  0.397070  0.406033  0.738940  1
  Al  Al6  1  0.729275  0.729275  0.500000  1
  In  In7  1  0.000119  0.277989  0.500211  1
  In  In8  1  0.728909  0.728909  0.000000  1
  In  In9  1  0.002642  0.266188  0.999905  1
  In  In10  1  0.277989  0.000119  0.499789  1
  In  In11  1  0.266188  0.002642  0.000095  1
  Ir  Ir12  1  0.353983  0.672971  0.488149  1
  Ir  Ir13  1  0.672971  0.353983  0.511851  1
  Pt  Pt14  1  0.669230  0.333427  0.981045  1
  Pt  Pt15  1  0.987678  0.987457  0.264817  1
  Pt  Pt16  1  0.987457  0.987678  0.735183  1
  Pt  Pt17  1  0.333427  0.669230  0.018955  1
