# generated using pymatgen
data_Y6Lu10Cd3AgIr4
_symmetry_space_group_name_H-M   'P 1'
_cell_length_a   9.52299665
_cell_length_b   9.52299655
_cell_length_c   9.52299712
_cell_angle_alpha   59.73597778
_cell_angle_beta   59.73597583
_cell_angle_gamma   59.73598208
_symmetry_Int_Tables_number   1
_chemical_formula_structural   Y6Lu10Cd3AgIr4
_chemical_formula_sum   'Y6 Lu10 Cd3 Ag1 Ir4'
_cell_volume   607.00755236
_cell_formula_units_Z   1
loop_
 _symmetry_equiv_pos_site_id
 _symmetry_equiv_pos_as_xyz
  1  'x, y, z'
loop_
 _atom_site_type_symbol
 _atom_site_label
 _atom_site_symmetry_multiplicity
 _atom_site_fract_x
 _atom_site_fract_y
 _atom_site_fract_z
 _atom_site_occupancy
  Y  Y0  1  0.937748  0.559918  0.559918  1
  Y  Y1  1  0.560433  0.938080  0.938080  1
  Y  Y2  1  0.559918  0.937748  0.559918  1
  Y  Y3  1  0.938080  0.560433  0.938080  1
  Y  Y4  1  0.559918  0.559918  0.937748  1
  Y  Y5  1  0.938080  0.938080  0.560433  1
  Lu  Lu6  1  0.349190  0.349190  0.349190  1
  Lu  Lu7  1  0.349326  0.349326  0.953994  1
  Lu  Lu8  1  0.349326  0.953994  0.349326  1
  Lu  Lu9  1  0.953994  0.349326  0.349326  1
  Lu  Lu10  1  0.811279  0.188509  0.188509  1
  Lu  Lu11  1  0.186815  0.810836  0.810836  1
  Lu  Lu12  1  0.188509  0.811279  0.188509  1
  Lu  Lu13  1  0.810836  0.186815  0.810836  1
  Lu  Lu14  1  0.188509  0.188509  0.811279  1
  Lu  Lu15  1  0.810836  0.810836  0.186815  1
  Cd  Cd16  1  0.581049  0.581049  0.260058  1
  Cd  Cd17  1  0.581049  0.260058  0.581049  1
  Cd  Cd18  1  0.260058  0.581049  0.581049  1
  Ag  Ag19  1  0.582160  0.582160  0.582160  1
  Ir  Ir20  1  0.142011  0.142011  0.142011  1
  Ir  Ir21  1  0.142624  0.142624  0.575629  1
  Ir  Ir22  1  0.142624  0.575629  0.142624  1
  Ir  Ir23  1  0.575629  0.142624  0.142624  1
