# generated using pymatgen
data_Ca2TbNpN4
_symmetry_space_group_name_H-M   'P 1'
_cell_length_a   6.92017032
_cell_length_b   9.19990657
_cell_length_c   6.06214013
_cell_angle_alpha   29.12012693
_cell_angle_beta   55.19609929
_cell_angle_gamma   41.21870119
_symmetry_Int_Tables_number   1
_chemical_formula_structural   Ca2TbNpN4
_chemical_formula_sum   'Ca2 Tb1 Np1 N4'
_cell_volume   119.18759324
_cell_formula_units_Z   1
loop_
 _symmetry_equiv_pos_site_id
 _symmetry_equiv_pos_as_xyz
  1  'x, y, z'
loop_
 _atom_site_type_symbol
 _atom_site_label
 _atom_site_symmetry_multiplicity
 _atom_site_fract_x
 _atom_site_fract_y
 _atom_site_fract_z
 _atom_site_occupancy
  Ca  Ca0  1  0.750000  0.500000  0.000000  1
  Ca  Ca1  1  0.500000  0.000000  0.000000  1
  Tb  Tb2  1  0.250000  0.500000  0.000000  1
  Np  Np3  1  0.000000  0.000000  0.000000  1
  N  N4  1  0.491587  0.500000  0.516828  1
  N  N5  1  0.211083  0.000000  0.577835  1
  N  N6  1  0.008413  0.500000  0.483172  1
  N  N7  1  0.788917  0.000000  0.422165  1
