# generated using pymatgen
data_DyTm4Sc2Co17P12
_symmetry_space_group_name_H-M   'P 1'
_cell_length_a   12.12817448
_cell_length_b   12.09950211
_cell_length_c   3.68931400
_cell_angle_alpha   90.00000000
_cell_angle_beta   90.00000000
_cell_angle_gamma   119.92500969
_symmetry_Int_Tables_number   1
_chemical_formula_structural   DyTm4Sc2Co17P12
_chemical_formula_sum   'Dy1 Tm4 Sc2 Co17 P12'
_cell_volume   469.20957643
_cell_formula_units_Z   1
loop_
 _symmetry_equiv_pos_site_id
 _symmetry_equiv_pos_as_xyz
  1  'x, y, z'
loop_
 _atom_site_type_symbol
 _atom_site_label
 _atom_site_symmetry_multiplicity
 _atom_site_fract_x
 _atom_site_fract_y
 _atom_site_fract_z
 _atom_site_occupancy
  Dy  Dy0  1  0.332728  0.665926  0.000000  1
  Tm  Tm1  1  0.667253  0.333260  0.000000  1
  Tm  Tm2  1  0.182121  0.182253  0.500000  1
  Tm  Tm3  1  0.817723  0.999857  0.500000  1
  Tm  Tm4  1  0.000117  0.808927  0.500000  1
  Sc  Sc5  1  0.560546  0.559508  0.000000  1
  Sc  Sc6  1  0.439864  0.999892  0.000000  1
  Co  Co7  1  0.999883  0.447733  0.000000  1
  Co  Co8  1  0.827066  0.203581  0.000000  1
  Co  Co9  1  0.807853  0.623330  0.000000  1
  Co  Co10  1  0.371754  0.179778  0.000000  1
  Co  Co11  1  0.191954  0.816324  0.000000  1
  Co  Co12  1  0.629281  0.808211  0.000000  1
  Co  Co13  1  0.172029  0.375490  0.000000  1
  Co  Co14  1  0.648760  0.128318  0.500000  1
  Co  Co15  1  0.876078  0.514339  0.500000  1
  Co  Co16  1  0.479526  0.355391  0.500000  1
  Co  Co17  1  0.122690  0.638324  0.500000  1
  Co  Co18  1  0.522365  0.877422  0.500000  1
  Co  Co19  1  0.350771  0.477543  0.500000  1
  Co  Co20  1  0.724398  0.721484  0.500000  1
  Co  Co21  1  0.276140  0.998214  0.500000  1
  Co  Co22  1  0.999310  0.284428  0.500000  1
  Co  Co23  1  0.999969  0.002434  0.000000  1
  P  P24  1  0.350869  0.356550  0.000000  1
  P  P25  1  0.649066  0.005633  0.000000  1
  P  P26  1  0.999975  0.631711  0.000000  1
  P  P27  1  0.834702  0.314530  0.500000  1
  P  P28  1  0.691890  0.518438  0.500000  1
  P  P29  1  0.478902  0.171694  0.500000  1
  P  P30  1  0.307703  0.827808  0.500000  1
  P  P31  1  0.522894  0.693408  0.500000  1
  P  P32  1  0.163871  0.478547  0.500000  1
  P  P33  1  0.823935  0.820860  0.000000  1
  P  P34  1  0.176480  0.997764  0.000000  1
  P  P35  1  0.999536  0.181094  0.000000  1
