# generated using pymatgen
data_Sm2Y6Cu3Si12Rh
_symmetry_space_group_name_H-M   'P 1'
_cell_length_a   8.04992800
_cell_length_b   8.04993437
_cell_length_c   8.20582400
_cell_angle_alpha   89.99988917
_cell_angle_beta   89.99992991
_cell_angle_gamma   120.00008777
_symmetry_Int_Tables_number   1
_chemical_formula_structural   Sm2Y6Cu3Si12Rh
_chemical_formula_sum   'Sm2 Y6 Cu3 Si12 Rh1'
_cell_volume   460.50757804
_cell_formula_units_Z   1
loop_
 _symmetry_equiv_pos_site_id
 _symmetry_equiv_pos_as_xyz
  1  'x, y, z'
loop_
 _atom_site_type_symbol
 _atom_site_label
 _atom_site_symmetry_multiplicity
 _atom_site_fract_x
 _atom_site_fract_y
 _atom_site_fract_z
 _atom_site_occupancy
  Sm  Sm0  1  0.000000  0.000000  0.249865  1
  Sm  Sm1  1  0.000000  0.000000  0.749703  1
  Y  Y2  1  0.998724  0.499362  0.251521  1
  Y  Y3  1  0.500637  0.499362  0.251521  1
  Y  Y4  1  0.500375  0.000748  0.748240  1
  Y  Y5  1  0.500639  0.001276  0.251521  1
  Y  Y6  1  0.500375  0.499625  0.748241  1
  Y  Y7  1  0.999251  0.499625  0.748239  1
  Cu  Cu8  1  0.333332  0.666667  0.003208  1
  Cu  Cu9  1  0.333333  0.666667  0.499376  1
  Cu  Cu10  1  0.666666  0.333332  0.000982  1
  Si  Si11  1  0.169580  0.339159  0.999661  1
  Si  Si12  1  0.660840  0.830420  0.999661  1
  Si  Si13  1  0.168465  0.336927  0.499914  1
  Si  Si14  1  0.339087  0.169544  0.999707  1
  Si  Si15  1  0.169579  0.830421  0.999661  1
  Si  Si16  1  0.663072  0.831535  0.499913  1
  Si  Si17  1  0.830457  0.660914  0.999707  1
  Si  Si18  1  0.336887  0.168443  0.499966  1
  Si  Si19  1  0.168464  0.831536  0.499913  1
  Si  Si20  1  0.831557  0.663113  0.499966  1
  Si  Si21  1  0.830458  0.169542  0.999708  1
  Si  Si22  1  0.831557  0.168443  0.499966  1
  Rh  Rh23  1  0.666665  0.333333  0.499841  1
