# generated using pymatgen
data_Cs3Y(AsSe2)6
_symmetry_space_group_name_H-M   'P 1'
_cell_length_a   10.06454600
_cell_length_b   10.06454592
_cell_length_c   8.77250500
_cell_angle_alpha   90.00000000
_cell_angle_beta   90.00000000
_cell_angle_gamma   119.99999369
_symmetry_Int_Tables_number   1
_chemical_formula_structural   Cs3Y(AsSe2)6
_chemical_formula_sum   'Cs3 Y1 As6 Se12'
_cell_volume   769.56030598
_cell_formula_units_Z   1
loop_
 _symmetry_equiv_pos_site_id
 _symmetry_equiv_pos_as_xyz
  1  'x, y, z'
loop_
 _atom_site_type_symbol
 _atom_site_label
 _atom_site_symmetry_multiplicity
 _atom_site_fract_x
 _atom_site_fract_y
 _atom_site_fract_z
 _atom_site_occupancy
  Cs  Cs0  1  0.000000  0.000000  0.000000  1
  Cs  Cs1  1  0.333333  0.666667  0.854414  1
  Cs  Cs2  1  0.666667  0.333333  0.145586  1
  Y  Y3  1  0.000000  0.000000  0.500000  1
  As  As4  1  0.287584  0.836050  0.395889  1
  As  As5  1  0.163950  0.451535  0.395889  1
  As  As6  1  0.548465  0.712416  0.395889  1
  As  As7  1  0.712416  0.163950  0.604111  1
  As  As8  1  0.836050  0.548465  0.604111  1
  As  As9  1  0.451535  0.287584  0.604111  1
  Se  Se10  1  0.256110  0.043895  0.311508  1
  Se  Se11  1  0.956105  0.212215  0.311508  1
  Se  Se12  1  0.787785  0.743890  0.311508  1
  Se  Se13  1  0.743890  0.956105  0.688492  1
  Se  Se14  1  0.043895  0.787785  0.688492  1
  Se  Se15  1  0.212215  0.256110  0.688492  1
  Se  Se16  1  0.522682  0.904143  0.244057  1
  Se  Se17  1  0.095857  0.618538  0.244057  1
  Se  Se18  1  0.381462  0.477318  0.244057  1
  Se  Se19  1  0.477318  0.095857  0.755943  1
  Se  Se20  1  0.904143  0.381462  0.755943  1
  Se  Se21  1  0.618538  0.522682  0.755943  1
