# generated using pymatgen
data_Nd5Sm3(Si3Pt)4
_symmetry_space_group_name_H-M   'P 1'
_cell_length_a   8.22915200
_cell_length_b   8.22915227
_cell_length_c   8.51029900
_cell_angle_alpha   90.00000000
_cell_angle_beta   90.00000000
_cell_angle_gamma   119.99999890
_symmetry_Int_Tables_number   1
_chemical_formula_structural   Nd5Sm3(Si3Pt)4
_chemical_formula_sum   'Nd5 Sm3 Si12 Pt4'
_cell_volume   499.09778012
_cell_formula_units_Z   1
loop_
 _symmetry_equiv_pos_site_id
 _symmetry_equiv_pos_as_xyz
  1  'x, y, z'
loop_
 _atom_site_type_symbol
 _atom_site_label
 _atom_site_symmetry_multiplicity
 _atom_site_fract_x
 _atom_site_fract_y
 _atom_site_fract_z
 _atom_site_occupancy
  Nd  Nd0  1  0.500165  0.499835  0.250000  1
  Nd  Nd1  1  0.999670  0.499835  0.250000  1
  Nd  Nd2  1  0.500165  0.000330  0.250000  1
  Nd  Nd3  1  0.000000  0.000000  0.750000  1
  Nd  Nd4  1  0.000000  0.000000  0.250000  1
  Sm  Sm5  1  0.499778  0.500222  0.750000  1
  Sm  Sm6  1  0.000444  0.500222  0.750000  1
  Sm  Sm7  1  0.499778  0.999556  0.750000  1
  Si  Si8  1  0.834058  0.165942  0.998185  1
  Si  Si9  1  0.165942  0.834058  0.999766  1
  Si  Si10  1  0.331885  0.165942  0.998185  1
  Si  Si11  1  0.165942  0.834058  0.500234  1
  Si  Si12  1  0.668116  0.834058  0.999766  1
  Si  Si13  1  0.834058  0.165942  0.501815  1
  Si  Si14  1  0.834058  0.668115  0.998185  1
  Si  Si15  1  0.668116  0.834058  0.500234  1
  Si  Si16  1  0.165942  0.331884  0.999766  1
  Si  Si17  1  0.331885  0.165942  0.501815  1
  Si  Si18  1  0.165942  0.331884  0.500234  1
  Si  Si19  1  0.834058  0.668115  0.501815  1
  Pt  Pt20  1  0.666667  0.333333  0.996524  1
  Pt  Pt21  1  0.333333  0.666667  0.996812  1
  Pt  Pt22  1  0.333333  0.666667  0.503188  1
  Pt  Pt23  1  0.666667  0.333333  0.503476  1
