# generated using pymatgen
data_LuHf(Ni2As)4
_symmetry_space_group_name_H-M   'P 1'
_cell_length_a   3.77094700
_cell_length_b   7.11167809
_cell_length_c   7.11167809
_cell_angle_alpha   90.66871577
_cell_angle_beta   90.00000000
_cell_angle_gamma   90.00000000
_symmetry_Int_Tables_number   1
_chemical_formula_structural   LuHf(Ni2As)4
_chemical_formula_sum   'Lu1 Hf1 Ni8 As4'
_cell_volume   190.70629496
_cell_formula_units_Z   1
loop_
 _symmetry_equiv_pos_site_id
 _symmetry_equiv_pos_as_xyz
  1  'x, y, z'
loop_
 _atom_site_type_symbol
 _atom_site_label
 _atom_site_symmetry_multiplicity
 _atom_site_fract_x
 _atom_site_fract_y
 _atom_site_fract_z
 _atom_site_occupancy
  Lu  Lu0  1  0.500000  0.000000  0.000000  1
  Hf  Hf1  1  0.000000  0.500000  0.500000  1
  Ni  Ni2  1  0.500000  0.155124  0.589583  1
  Ni  Ni3  1  0.500000  0.844876  0.410417  1
  Ni  Ni4  1  0.000000  0.344737  0.090711  1
  Ni  Ni5  1  0.000000  0.655263  0.909289  1
  Ni  Ni6  1  0.500000  0.589583  0.155124  1
  Ni  Ni7  1  0.500000  0.410417  0.844876  1
  Ni  Ni8  1  0.000000  0.090711  0.344737  1
  Ni  Ni9  1  0.000000  0.909289  0.655263  1
  As  As10  1  0.500000  0.711553  0.711553  1
  As  As11  1  0.500000  0.288447  0.288447  1
  As  As12  1  0.000000  0.777684  0.222316  1
  As  As13  1  0.000000  0.222316  0.777684  1
