# generated using pymatgen
data_DyHoBeSi4Ni
_symmetry_space_group_name_H-M   'P 1'
_cell_length_a   8.45816007
_cell_length_b   8.45816117
_cell_length_c   3.90623600
_cell_angle_alpha   90.00000000
_cell_angle_beta   90.00000000
_cell_angle_gamma   152.66995543
_symmetry_Int_Tables_number   1
_chemical_formula_structural   DyHoBeSi4Ni
_chemical_formula_sum   'Dy1 Ho1 Be1 Si4 Ni1'
_cell_volume   128.30165333
_cell_formula_units_Z   1
loop_
 _symmetry_equiv_pos_site_id
 _symmetry_equiv_pos_as_xyz
  1  'x, y, z'
loop_
 _atom_site_type_symbol
 _atom_site_label
 _atom_site_symmetry_multiplicity
 _atom_site_fract_x
 _atom_site_fract_y
 _atom_site_fract_z
 _atom_site_occupancy
  Dy  Dy0  1  0.106598  0.893402  0.250000  1
  Ho  Ho1  1  0.898086  0.101914  0.750000  1
  Be  Be2  1  0.672607  0.327393  0.750000  1
  Si  Si3  1  0.751520  0.248480  0.250000  1
  Si  Si4  1  0.249682  0.750318  0.750000  1
  Si  Si5  1  0.538831  0.461169  0.750000  1
  Si  Si6  1  0.459889  0.540111  0.250000  1
  Ni  Ni7  1  0.322786  0.677214  0.250000  1
