# generated using pymatgen
data_YbEu3Al18(PdPt)3
_symmetry_space_group_name_H-M   'P 1'
_cell_length_a   7.66943767
_cell_length_b   7.67146476
_cell_length_c   9.55211700
_cell_angle_alpha   89.97949331
_cell_angle_beta   90.00229085
_cell_angle_gamma   119.54739169
_symmetry_Int_Tables_number   1
_chemical_formula_structural   YbEu3Al18(PdPt)3
_chemical_formula_sum   'Yb1 Eu3 Al18 Pd3 Pt3'
_cell_volume   488.91657196
_cell_formula_units_Z   1
loop_
 _symmetry_equiv_pos_site_id
 _symmetry_equiv_pos_as_xyz
  1  'x, y, z'
loop_
 _atom_site_type_symbol
 _atom_site_label
 _atom_site_symmetry_multiplicity
 _atom_site_fract_x
 _atom_site_fract_y
 _atom_site_fract_z
 _atom_site_occupancy
  Yb  Yb0  1  0.330016  0.003016  0.750244  1
  Eu  Eu1  1  0.996000  0.669395  0.249867  1
  Eu  Eu2  1  0.004007  0.331114  0.749884  1
  Eu  Eu3  1  0.669845  0.996550  0.249982  1
  Al  Al4  1  0.131482  0.130668  0.249801  1
  Al  Al5  1  0.870758  0.869703  0.750193  1
  Al  Al6  1  0.000847  0.334776  0.075205  1
  Al  Al7  1  0.999107  0.665510  0.923383  1
  Al  Al8  1  0.999407  0.665951  0.576806  1
  Al  Al9  1  0.334518  0.000571  0.425039  1
  Al  Al10  1  0.001602  0.334744  0.424383  1
  Al  Al11  1  0.664840  0.999001  0.577267  1
  Al  Al12  1  0.664951  0.999787  0.922946  1
  Al  Al13  1  0.334691  0.000633  0.074796  1
  Al  Al14  1  0.333083  0.332385  0.557355  1
  Al  Al15  1  0.666636  0.666454  0.446142  1
  Al  Al16  1  0.666509  0.666654  0.053497  1
  Al  Al17  1  0.332743  0.332316  0.943113  1
  Al  Al18  1  0.340739  0.545989  0.249885  1
  Al  Al19  1  0.658432  0.453703  0.749873  1
  Al  Al20  1  0.544653  0.340069  0.250111  1
  Al  Al21  1  0.455736  0.661265  0.750093  1
  Pd  Pd22  1  0.669258  0.327866  0.501349  1
  Pd  Pd23  1  0.001360  0.000407  0.998592  1
  Pd  Pd24  1  0.001674  0.000251  0.501471  1
  Pt  Pt25  1  0.669098  0.327985  0.998818  1
  Pt  Pt26  1  0.328840  0.671792  0.998637  1
  Pt  Pt27  1  0.329172  0.671441  0.501270  1
