# generated using pymatgen
data_Ca9PrSi5Sn
_symmetry_space_group_name_H-M   'P 1'
_cell_length_a   9.24687168
_cell_length_b   9.26237181
_cell_length_c   9.25035802
_cell_angle_alpha   130.77505967
_cell_angle_beta   130.76136273
_cell_angle_gamma   72.27638213
_symmetry_Int_Tables_number   1
_chemical_formula_structural   Ca9PrSi5Sn
_chemical_formula_sum   'Ca9 Pr1 Si5 Sn1'
_cell_volume   444.04539814
_cell_formula_units_Z   1
loop_
 _symmetry_equiv_pos_site_id
 _symmetry_equiv_pos_as_xyz
  1  'x, y, z'
loop_
 _atom_site_type_symbol
 _atom_site_label
 _atom_site_symmetry_multiplicity
 _atom_site_fract_x
 _atom_site_fract_y
 _atom_site_fract_z
 _atom_site_occupancy
  Ca  Ca0  1  0.191517  0.675082  0.144201  1
  Ca  Ca1  1  0.454269  0.971534  0.145059  1
  Ca  Ca2  1  0.311258  0.454415  0.485925  1
  Ca  Ca3  1  0.044582  0.191426  0.517206  1
  Ca  Ca4  1  0.529085  0.045636  0.854540  1
  Ca  Ca5  1  0.675153  0.527930  0.484141  1
  Ca  Ca6  1  0.971337  0.825367  0.516961  1
  Ca  Ca7  1  0.992246  0.987425  0.999957  1
  Ca  Ca8  1  0.505329  0.510005  0.999490  1
  Pr  Pr9  1  0.827141  0.309839  0.859221  1
  Si  Si10  1  0.111404  0.610986  0.722130  1
  Si  Si11  1  0.889272  0.389204  0.271670  1
  Si  Si12  1  0.614145  0.889182  0.502813  1
  Si  Si13  1  0.389659  0.113953  0.502126  1
  Si  Si14  1  0.244042  0.249561  0.996058  1
  Sn  Sn15  1  0.749560  0.748454  0.998501  1
