# generated using pymatgen
data_TbYb3Y4(Pt2Pb)4
_symmetry_space_group_name_H-M   'P 1'
_cell_length_a   7.89372350
_cell_length_b   7.89372436
_cell_length_c   7.32260500
_cell_angle_alpha   90.00000000
_cell_angle_beta   90.00000000
_cell_angle_gamma   90.37564757
_symmetry_Int_Tables_number   1
_chemical_formula_structural   TbYb3Y4(Pt2Pb)4
_chemical_formula_sum   'Tb1 Yb3 Y4 Pt8 Pb4'
_cell_volume   456.26813680
_cell_formula_units_Z   1
loop_
 _symmetry_equiv_pos_site_id
 _symmetry_equiv_pos_as_xyz
  1  'x, y, z'
loop_
 _atom_site_type_symbol
 _atom_site_label
 _atom_site_symmetry_multiplicity
 _atom_site_fract_x
 _atom_site_fract_y
 _atom_site_fract_z
 _atom_site_occupancy
  Tb  Tb0  1  0.676323  0.676323  0.000000  1
  Yb  Yb1  1  0.662264  0.662264  0.500000  1
  Yb  Yb2  1  0.839493  0.160383  0.000000  1
  Yb  Yb3  1  0.160383  0.839493  0.000000  1
  Y  Y4  1  0.338964  0.338964  0.500000  1
  Y  Y5  1  0.823321  0.174995  0.500000  1
  Y  Y6  1  0.323445  0.323445  0.000000  1
  Y  Y7  1  0.174995  0.823321  0.500000  1
  Pt  Pt8  1  0.873517  0.873517  0.734124  1
  Pt  Pt9  1  0.128801  0.128801  0.732272  1
  Pt  Pt10  1  0.626300  0.372613  0.764508  1
  Pt  Pt11  1  0.626300  0.372613  0.235492  1
  Pt  Pt12  1  0.372613  0.626300  0.235492  1
  Pt  Pt13  1  0.128801  0.128801  0.267728  1
  Pt  Pt14  1  0.873517  0.873517  0.265876  1
  Pt  Pt15  1  0.372613  0.626300  0.764508  1
  Pb  Pb16  1  0.500591  0.998583  0.751016  1
  Pb  Pb17  1  0.500591  0.998583  0.248984  1
  Pb  Pb18  1  0.998583  0.500591  0.751016  1
  Pb  Pb19  1  0.998583  0.500591  0.248984  1
