# generated using pymatgen
data_MgZr7Co16(SiP2)4
_symmetry_space_group_name_H-M   'P 1'
_cell_length_a   12.20158210
_cell_length_b   12.20510493
_cell_length_c   3.67945800
_cell_angle_alpha   90.00000000
_cell_angle_beta   90.00000000
_cell_angle_gamma   120.41431042
_symmetry_Int_Tables_number   1
_chemical_formula_structural   MgZr7Co16(SiP2)4
_chemical_formula_sum   'Mg1 Zr7 Co16 Si4 P8'
_cell_volume   472.54572928
_cell_formula_units_Z   1
loop_
 _symmetry_equiv_pos_site_id
 _symmetry_equiv_pos_as_xyz
  1  'x, y, z'
loop_
 _atom_site_type_symbol
 _atom_site_label
 _atom_site_symmetry_multiplicity
 _atom_site_fract_x
 _atom_site_fract_y
 _atom_site_fract_z
 _atom_site_occupancy
  Mg  Mg0  1  0.442879  0.443141  0.000000  1
  Zr  Zr1  1  0.557215  0.998346  0.000000  1
  Zr  Zr2  1  0.998852  0.557102  0.000000  1
  Zr  Zr3  1  0.670082  0.332258  0.000000  1
  Zr  Zr4  1  0.331890  0.667485  0.000000  1
  Zr  Zr5  1  0.820908  0.820527  0.500000  1
  Zr  Zr6  1  0.176865  0.997770  0.500000  1
  Zr  Zr7  1  0.997022  0.175771  0.500000  1
  Co  Co8  1  0.201077  0.374858  0.000000  1
  Co  Co9  1  0.175513  0.804657  0.000000  1
  Co  Co10  1  0.824317  0.629199  0.000000  1
  Co  Co11  1  0.804799  0.175163  0.000000  1
  Co  Co12  1  0.369718  0.198381  0.000000  1
  Co  Co13  1  0.126754  0.480577  0.500000  1
  Co  Co14  1  0.355061  0.871608  0.500000  1
  Co  Co15  1  0.512951  0.641841  0.500000  1
  Co  Co16  1  0.645522  0.520153  0.500000  1
  Co  Co17  1  0.873505  0.354747  0.500000  1
  Co  Co18  1  0.480119  0.123049  0.500000  1
  Co  Co19  1  0.002378  0.002606  0.000000  1
  Co  Co20  1  0.723822  0.999872  0.500000  1
  Co  Co21  1  0.000464  0.723789  0.500000  1
  Co  Co22  1  0.628001  0.822746  0.000000  1
  Co  Co23  1  0.278831  0.282802  0.500000  1
  Si  Si24  1  0.646751  0.646754  0.000000  1
  Si  Si25  1  0.348043  0.003510  0.000000  1
  Si  Si26  1  0.003237  0.347257  0.000000  1
  Si  Si27  1  0.483374  0.309296  0.500000  1
  P  P28  1  0.692511  0.173514  0.500000  1
  P  P29  1  0.824150  0.518998  0.500000  1
  P  P30  1  0.518640  0.824099  0.500000  1
  P  P31  1  0.173886  0.692534  0.500000  1
  P  P32  1  0.824373  0.998430  0.000000  1
  P  P33  1  0.999364  0.825146  0.000000  1
  P  P34  1  0.308663  0.482940  0.500000  1
  P  P35  1  0.178465  0.179073  0.000000  1
