# generated using pymatgen
data_Y2Sc2Co9As7Ru
_symmetry_space_group_name_H-M   'P 1'
_cell_length_a   3.82334000
_cell_length_b   9.51273289
_cell_length_c   9.56809043
_cell_angle_alpha   119.69374115
_cell_angle_beta   90.00000000
_cell_angle_gamma   90.00000000
_symmetry_Int_Tables_number   1
_chemical_formula_structural   Y2Sc2Co9As7Ru
_chemical_formula_sum   'Y2 Sc2 Co9 As7 Ru1'
_cell_volume   302.29859755
_cell_formula_units_Z   1
loop_
 _symmetry_equiv_pos_site_id
 _symmetry_equiv_pos_as_xyz
  1  'x, y, z'
loop_
 _atom_site_type_symbol
 _atom_site_label
 _atom_site_symmetry_multiplicity
 _atom_site_fract_x
 _atom_site_fract_y
 _atom_site_fract_z
 _atom_site_occupancy
  Y  Y0  1  0.000000  0.672534  0.335514  1
  Y  Y1  1  0.500000  0.327731  0.666489  1
  Sc  Sc2  1  0.500000  0.775524  0.886588  1
  Sc  Sc3  1  0.500000  0.119959  0.226560  1
  Co  Co4  1  0.000000  0.569223  0.942949  1
  Co  Co5  1  0.000000  0.367974  0.426963  1
  Co  Co6  1  0.000000  0.058568  0.635961  1
  Co  Co7  1  0.000000  0.881272  0.159715  1
  Co  Co8  1  0.000000  0.289265  0.122404  1
  Co  Co9  1  0.000000  0.840403  0.715399  1
  Co  Co10  1  0.500000  0.948342  0.391270  1
  Co  Co11  1  0.500000  0.435837  0.049538  1
  Co  Co12  1  0.500000  0.613904  0.561906  1
  As  As13  1  0.000000  0.007728  0.995399  1
  As  As14  1  0.500000  0.709989  0.123921  1
  As  As15  1  0.500000  0.421073  0.290781  1
  As  As16  1  0.500000  0.878580  0.591476  1
  As  As17  1  0.000000  0.575652  0.690134  1
  As  As18  1  0.000000  0.111724  0.422688  1
  As  As19  1  0.000000  0.300704  0.887568  1
  Ru  Ru20  1  0.500000  0.094015  0.876778  1
