# generated using pymatgen
data_Ca2Ho3Er(Si3Ru)8
_symmetry_space_group_name_H-M   'P 1'
_cell_length_a   10.15071873
_cell_length_b   10.15071888
_cell_length_c   8.12383620
_cell_angle_alpha   89.99237242
_cell_angle_beta   90.00762677
_cell_angle_gamma   132.73794274
_symmetry_Int_Tables_number   1
_chemical_formula_structural   Ca2Ho3Er(Si3Ru)8
_chemical_formula_sum   'Ca2 Ho3 Er1 Si24 Ru8'
_cell_volume   614.78895031
_cell_formula_units_Z   1
loop_
 _symmetry_equiv_pos_site_id
 _symmetry_equiv_pos_as_xyz
  1  'x, y, z'
loop_
 _atom_site_type_symbol
 _atom_site_label
 _atom_site_symmetry_multiplicity
 _atom_site_fract_x
 _atom_site_fract_y
 _atom_site_fract_z
 _atom_site_occupancy
  Ca  Ca0  1  0.500025  0.500028  0.500065  1
  Ca  Ca1  1  0.000028  0.000025  0.999935  1
  Ho  Ho2  1  0.998034  0.498034  0.250000  1
  Ho  Ho3  1  0.498123  0.998123  0.250000  1
  Ho  Ho4  1  0.001825  0.501825  0.750000  1
  Er  Er5  1  0.501866  0.001866  0.750000  1
  Si  Si6  1  0.795648  0.203721  0.499922  1
  Si  Si7  1  0.296064  0.704153  0.000084  1
  Si  Si8  1  0.204153  0.796064  0.499916  1
  Si  Si9  1  0.703721  0.295648  0.000078  1
  Si  Si10  1  0.332888  0.332945  0.832667  1
  Si  Si11  1  0.667126  0.667145  0.167435  1
  Si  Si12  1  0.167145  0.167126  0.332565  1
  Si  Si13  1  0.832945  0.832888  0.667333  1
  Si  Si14  1  0.123351  0.890590  0.729598  1
  Si  Si15  1  0.109730  0.876630  0.269849  1
  Si  Si16  1  0.609857  0.376766  0.230120  1
  Si  Si17  1  0.622990  0.390275  0.770462  1
  Si  Si18  1  0.876766  0.109857  0.269880  1
  Si  Si19  1  0.890275  0.122990  0.729538  1
  Si  Si20  1  0.390590  0.623351  0.770402  1
  Si  Si21  1  0.376630  0.609730  0.230151  1
  Si  Si22  1  0.346583  0.113799  0.506843  1
  Si  Si23  1  0.886089  0.653257  0.493160  1
  Si  Si24  1  0.386247  0.153517  0.006605  1
  Si  Si25  1  0.846683  0.613872  0.993361  1
  Si  Si26  1  0.653517  0.886247  0.493395  1
  Si  Si27  1  0.113872  0.346683  0.506639  1
  Si  Si28  1  0.613799  0.846583  0.993157  1
  Si  Si29  1  0.153257  0.386089  0.006840  1
  Ru  Ru30  1  0.671412  0.328119  0.500893  1
  Ru  Ru31  1  0.171827  0.828516  0.999155  1
  Ru  Ru32  1  0.328516  0.671827  0.500845  1
  Ru  Ru33  1  0.828119  0.171412  0.999107  1
  Ru  Ru34  1  0.126334  0.126374  0.626079  1
  Ru  Ru35  1  0.873806  0.873785  0.373718  1
  Ru  Ru36  1  0.373785  0.373806  0.126282  1
  Ru  Ru37  1  0.626374  0.626334  0.873921  1
