# generated using pymatgen
data_Ca2Hf3Co9As7
_symmetry_space_group_name_H-M   'P 1'
_cell_length_a   9.76055800
_cell_length_b   9.76055798
_cell_length_c   3.77672200
_cell_angle_alpha   90.00000000
_cell_angle_beta   90.00000000
_cell_angle_gamma   120.00001364
_symmetry_Int_Tables_number   1
_chemical_formula_structural   Ca2Hf3Co9As7
_chemical_formula_sum   'Ca2 Hf3 Co9 As7'
_cell_volume   311.59815823
_cell_formula_units_Z   1
loop_
 _symmetry_equiv_pos_site_id
 _symmetry_equiv_pos_as_xyz
  1  'x, y, z'
loop_
 _atom_site_type_symbol
 _atom_site_label
 _atom_site_symmetry_multiplicity
 _atom_site_fract_x
 _atom_site_fract_y
 _atom_site_fract_z
 _atom_site_occupancy
  Ca  Ca0  1  0.333333  0.666667  0.000000  1
  Ca  Ca1  1  0.666667  0.333333  0.500000  1
  Hf  Hf2  1  0.232806  0.121791  0.500000  1
  Hf  Hf3  1  0.878209  0.111016  0.500000  1
  Hf  Hf4  1  0.888984  0.767194  0.500000  1
  Co  Co5  1  0.119002  0.280757  0.000000  1
  Co  Co6  1  0.719243  0.838245  0.000000  1
  Co  Co7  1  0.161755  0.880998  0.000000  1
  Co  Co8  1  0.418109  0.359189  0.000000  1
  Co  Co9  1  0.640811  0.058920  0.000000  1
  Co  Co10  1  0.941080  0.581891  0.000000  1
  Co  Co11  1  0.051049  0.440216  0.500000  1
  Co  Co12  1  0.559784  0.610832  0.500000  1
  Co  Co13  1  0.389168  0.948951  0.500000  1
  As  As14  1  0.288032  0.421380  0.500000  1
  As  As15  1  0.578620  0.866650  0.500000  1
  As  As16  1  0.133350  0.711968  0.500000  1
  As  As17  1  0.428269  0.108785  0.000000  1
  As  As18  1  0.891215  0.319484  0.000000  1
  As  As19  1  0.680516  0.571731  0.000000  1
  As  As20  1  0.000000  0.000000  0.000000  1
