# generated using pymatgen
data_TbPr8ErRu4
_symmetry_space_group_name_H-M   'P 1'
_cell_length_a   6.63074655
_cell_length_b   7.35761695
_cell_length_c   8.87568900
_cell_angle_alpha   95.82822143
_cell_angle_beta   111.93373865
_cell_angle_gamma   90.00000129
_symmetry_Int_Tables_number   1
_chemical_formula_structural   TbPr8ErRu4
_chemical_formula_sum   'Tb1 Pr8 Er1 Ru4'
_cell_volume   399.25666544
_cell_formula_units_Z   1
loop_
 _symmetry_equiv_pos_site_id
 _symmetry_equiv_pos_as_xyz
  1  'x, y, z'
loop_
 _atom_site_type_symbol
 _atom_site_label
 _atom_site_symmetry_multiplicity
 _atom_site_fract_x
 _atom_site_fract_y
 _atom_site_fract_z
 _atom_site_occupancy
  Tb  Tb0  1  0.428674  0.750000  0.000000  1
  Pr  Pr1  1  0.794129  0.583804  0.817945  1
  Pr  Pr2  1  0.976185  0.916196  0.182055  1
  Pr  Pr3  1  0.205540  0.415487  0.181930  1
  Pr  Pr4  1  0.023608  0.084513  0.818070  1
  Pr  Pr5  1  0.208347  0.686169  0.569619  1
  Pr  Pr6  1  0.638728  0.813831  0.430381  1
  Pr  Pr7  1  0.791603  0.313553  0.429941  1
  Pr  Pr8  1  0.361661  0.186447  0.570059  1
  Er  Er9  1  0.570754  0.250000  0.000000  1
  Ru  Ru10  1  0.600352  0.928555  0.787408  1
  Ru  Ru11  1  0.812943  0.571445  0.212592  1
  Ru  Ru12  1  0.400137  0.072564  0.212799  1
  Ru  Ru13  1  0.187340  0.427436  0.787201  1
