# generated using pymatgen
data_Tb2Co5B8Ru3
_symmetry_space_group_name_H-M   'P 1'
_cell_length_a   7.09849605
_cell_length_b   7.20995181
_cell_length_c   3.89363661
_cell_angle_alpha   90.06309448
_cell_angle_beta   89.95760024
_cell_angle_gamma   89.51763831
_symmetry_Int_Tables_number   1
_chemical_formula_structural   Tb2Co5B8Ru3
_chemical_formula_sum   'Tb2 Co5 B8 Ru3'
_cell_volume   199.26836046
_cell_formula_units_Z   1
loop_
 _symmetry_equiv_pos_site_id
 _symmetry_equiv_pos_as_xyz
  1  'x, y, z'
loop_
 _atom_site_type_symbol
 _atom_site_label
 _atom_site_symmetry_multiplicity
 _atom_site_fract_x
 _atom_site_fract_y
 _atom_site_fract_z
 _atom_site_occupancy
  Tb  Tb0  1  0.004276  0.002039  0.913822  1
  Tb  Tb1  1  0.499728  0.502928  0.418257  1
  Co  Co2  1  0.124678  0.614115  0.123194  1
  Co  Co3  1  0.880749  0.622631  0.622384  1
  Co  Co4  1  0.875191  0.380074  0.122092  1
  Co  Co5  1  0.386309  0.164296  0.899904  1
  Co  Co6  1  0.122996  0.372647  0.623470  1
  B  B7  1  0.839928  0.319086  0.619259  1
  B  B8  1  0.157098  0.679302  0.620225  1
  B  B9  1  0.818345  0.659188  0.119770  1
  B  B10  1  0.328234  0.765191  0.903512  1
  B  B11  1  0.669203  0.225726  0.900813  1
  B  B12  1  0.288283  0.173193  0.402305  1
  B  B13  1  0.726309  0.830038  0.401238  1
  B  B14  1  0.184959  0.336720  0.118439  1
  Ru  Ru15  1  0.338049  0.890426  0.397335  1
  Ru  Ru16  1  0.610571  0.844549  0.897670  1
  Ru  Ru17  1  0.645095  0.117852  0.396311  1
