# generated using pymatgen
data_Lu4FeSi4Rh3
_symmetry_space_group_name_H-M   'P 1'
_cell_length_a   4.18561000
_cell_length_b   6.74820319
_cell_length_c   7.23204066
_cell_angle_alpha   90.22026776
_cell_angle_beta   90.00000000
_cell_angle_gamma   90.00000000
_symmetry_Int_Tables_number   1
_chemical_formula_structural   Lu4FeSi4Rh3
_chemical_formula_sum   'Lu4 Fe1 Si4 Rh3'
_cell_volume   204.26998669
_cell_formula_units_Z   1
loop_
 _symmetry_equiv_pos_site_id
 _symmetry_equiv_pos_as_xyz
  1  'x, y, z'
loop_
 _atom_site_type_symbol
 _atom_site_label
 _atom_site_symmetry_multiplicity
 _atom_site_fract_x
 _atom_site_fract_y
 _atom_site_fract_z
 _atom_site_occupancy
  Lu  Lu0  1  0.250000  0.997498  0.806724  1
  Lu  Lu1  1  0.750000  0.994071  0.191932  1
  Lu  Lu2  1  0.250000  0.495859  0.690514  1
  Lu  Lu3  1  0.750000  0.506190  0.313680  1
  Fe  Fe4  1  0.750000  0.846858  0.565499  1
  Si  Si5  1  0.250000  0.295006  0.107481  1
  Si  Si6  1  0.750000  0.710147  0.878060  1
  Si  Si7  1  0.250000  0.795246  0.408715  1
  Si  Si8  1  0.750000  0.195660  0.607020  1
  Rh  Rh9  1  0.250000  0.158232  0.432919  1
  Rh  Rh10  1  0.750000  0.346084  0.931344  1
  Rh  Rh11  1  0.250000  0.659150  0.066113  1
