# generated using pymatgen
data_Pa3Al3RePt2
_symmetry_space_group_name_H-M   'P 1'
_cell_length_a   7.10028400
_cell_length_b   7.10028509
_cell_length_c   8.19377000
_cell_angle_alpha   90.00000000
_cell_angle_beta   90.00000000
_cell_angle_gamma   120.00000424
_symmetry_Int_Tables_number   1
_chemical_formula_structural   Pa3Al3RePt2
_chemical_formula_sum   'Pa6 Al6 Re2 Pt4'
_cell_volume   357.73867100
_cell_formula_units_Z   2
loop_
 _symmetry_equiv_pos_site_id
 _symmetry_equiv_pos_as_xyz
  1  'x, y, z'
loop_
 _atom_site_type_symbol
 _atom_site_label
 _atom_site_symmetry_multiplicity
 _atom_site_fract_x
 _atom_site_fract_y
 _atom_site_fract_z
 _atom_site_occupancy
  Pa  Pa0  1  0.000889  0.578433  0.741114  1
  Pa  Pa1  1  0.999111  0.577545  0.258886  1
  Pa  Pa2  1  0.578433  0.000889  0.258886  1
  Pa  Pa3  1  0.577545  0.999111  0.741114  1
  Pa  Pa4  1  0.422455  0.421567  0.258886  1
  Pa  Pa5  1  0.421567  0.422455  0.741114  1
  Al  Al6  1  0.000000  0.237117  0.500000  1
  Al  Al7  1  0.759203  0.759203  0.000000  1
  Al  Al8  1  0.000000  0.240797  0.000000  1
  Al  Al9  1  0.237117  0.000000  0.500000  1
  Al  Al10  1  0.240797  0.000000  0.000000  1
  Al  Al11  1  0.762883  0.762883  0.500000  1
  Re  Re12  1  0.333333  0.666667  0.499652  1
  Re  Re13  1  0.666667  0.333333  0.500348  1
  Pt  Pt14  1  0.666667  0.333333  0.998870  1
  Pt  Pt15  1  0.000000  0.000000  0.248608  1
  Pt  Pt16  1  0.000000  0.000000  0.751392  1
  Pt  Pt17  1  0.333333  0.666667  0.001130  1
