# generated using pymatgen
data_Ho3HgRh2Pb3
_symmetry_space_group_name_H-M   'P 1'
_cell_length_a   7.89696100
_cell_length_b   7.89696089
_cell_length_c   3.90204300
_cell_angle_alpha   90.00000000
_cell_angle_beta   90.00000000
_cell_angle_gamma   119.99999627
_symmetry_Int_Tables_number   1
_chemical_formula_structural   Ho3HgRh2Pb3
_chemical_formula_sum   'Ho3 Hg1 Rh2 Pb3'
_cell_volume   210.73791519
_cell_formula_units_Z   1
loop_
 _symmetry_equiv_pos_site_id
 _symmetry_equiv_pos_as_xyz
  1  'x, y, z'
loop_
 _atom_site_type_symbol
 _atom_site_label
 _atom_site_symmetry_multiplicity
 _atom_site_fract_x
 _atom_site_fract_y
 _atom_site_fract_z
 _atom_site_occupancy
  Ho  Ho0  1  0.971528  0.386352  0.500000  1
  Ho  Ho1  1  0.613648  0.585177  0.500000  1
  Ho  Ho2  1  0.414823  0.028472  0.500000  1
  Hg  Hg3  1  0.333333  0.666667  0.000000  1
  Rh  Rh4  1  0.000000  0.000000  0.500000  1
  Rh  Rh5  1  0.666667  0.333333  0.000000  1
  Pb  Pb6  1  0.258865  0.256228  0.000000  1
  Pb  Pb7  1  0.997362  0.741135  0.000000  1
  Pb  Pb8  1  0.743772  0.002638  0.000000  1
