# generated using pymatgen
data_K4SmUTe6
_symmetry_space_group_name_H-M   'P 1'
_cell_length_a   8.11084299
_cell_length_b   8.11084346
_cell_length_c   8.64039410
_cell_angle_alpha   80.84685784
_cell_angle_beta   80.84686003
_cell_angle_gamma   120.03713258
_symmetry_Int_Tables_number   1
_chemical_formula_structural   K4SmUTe6
_chemical_formula_sum   'K4 Sm1 U1 Te6'
_cell_volume   466.48029263
_cell_formula_units_Z   1
loop_
 _symmetry_equiv_pos_site_id
 _symmetry_equiv_pos_as_xyz
  1  'x, y, z'
loop_
 _atom_site_type_symbol
 _atom_site_label
 _atom_site_symmetry_multiplicity
 _atom_site_fract_x
 _atom_site_fract_y
 _atom_site_fract_z
 _atom_site_occupancy
  K  K0  1  0.344952  0.655048  0.500000  1
  K  K1  1  0.654632  0.345368  0.500000  1
  K  K2  1  0.000247  0.999753  0.500000  1
  K  K3  1  0.499958  0.500042  0.000000  1
  Sm  Sm4  1  0.167959  0.832041  0.000000  1
  U  U5  1  0.832095  0.167905  0.000000  1
  Te  Te6  1  0.791340  0.804184  0.210016  1
  Te  Te7  1  0.440838  0.064054  0.213656  1
  Te  Te8  1  0.049837  0.413619  0.212926  1
  Te  Te9  1  0.586381  0.950163  0.787074  1
  Te  Te10  1  0.935946  0.559162  0.786344  1
  Te  Te11  1  0.195816  0.208660  0.789984  1
