# generated using pymatgen
data_Lu2GeB2IrRu4
_symmetry_space_group_name_H-M   'P 1'
_cell_length_a   9.54008100
_cell_length_b   9.54008100
_cell_length_c   3.06767200
_cell_angle_alpha   90.00000000
_cell_angle_beta   90.00000000
_cell_angle_gamma   90.00000000
_symmetry_Int_Tables_number   1
_chemical_formula_structural   Lu2GeB2IrRu4
_chemical_formula_sum   'Lu4 Ge2 B4 Ir2 Ru8'
_cell_volume   279.19847804
_cell_formula_units_Z   2
loop_
 _symmetry_equiv_pos_site_id
 _symmetry_equiv_pos_as_xyz
  1  'x, y, z'
loop_
 _atom_site_type_symbol
 _atom_site_label
 _atom_site_symmetry_multiplicity
 _atom_site_fract_x
 _atom_site_fract_y
 _atom_site_fract_z
 _atom_site_occupancy
  Lu  Lu0  1  0.677578  0.177578  0.000000  1
  Lu  Lu1  1  0.322422  0.822422  0.000000  1
  Lu  Lu2  1  0.177578  0.322422  0.000000  1
  Lu  Lu3  1  0.822422  0.677578  0.000000  1
  Ge  Ge4  1  0.000000  0.000000  0.000000  1
  Ge  Ge5  1  0.500000  0.500000  0.000000  1
  B  B6  1  0.125108  0.625108  0.000000  1
  B  B7  1  0.874892  0.374892  0.000000  1
  B  B8  1  0.625108  0.874892  0.000000  1
  B  B9  1  0.374892  0.125108  0.000000  1
  Ir  Ir10  1  0.500000  0.000000  0.500000  1
  Ir  Ir11  1  0.000000  0.500000  0.500000  1
  Ru  Ru12  1  0.215568  0.069023  0.500000  1
  Ru  Ru13  1  0.784432  0.930977  0.500000  1
  Ru  Ru14  1  0.069023  0.784432  0.500000  1
  Ru  Ru15  1  0.715568  0.430977  0.500000  1
  Ru  Ru16  1  0.930977  0.215568  0.500000  1
  Ru  Ru17  1  0.284432  0.569023  0.500000  1
  Ru  Ru18  1  0.569023  0.715568  0.500000  1
  Ru  Ru19  1  0.430977  0.284432  0.500000  1
