# generated using pymatgen
data_Pr3Sm(Si5Os3)2
_symmetry_space_group_name_H-M   'P 1'
_cell_length_a   8.23285571
_cell_length_b   8.24344683
_cell_length_c   5.89787069
_cell_angle_alpha   70.43060394
_cell_angle_beta   70.33585144
_cell_angle_gamma   93.62983112
_symmetry_Int_Tables_number   1
_chemical_formula_structural   Pr3Sm(Si5Os3)2
_chemical_formula_sum   'Pr3 Sm1 Si10 Os6'
_cell_volume   348.09658407
_cell_formula_units_Z   1
loop_
 _symmetry_equiv_pos_site_id
 _symmetry_equiv_pos_as_xyz
  1  'x, y, z'
loop_
 _atom_site_type_symbol
 _atom_site_label
 _atom_site_symmetry_multiplicity
 _atom_site_fract_x
 _atom_site_fract_y
 _atom_site_fract_z
 _atom_site_occupancy
  Pr  Pr0  1  0.868088  0.602838  0.754019  1
  Pr  Pr1  1  0.396940  0.133375  0.744691  1
  Pr  Pr2  1  0.133169  0.396483  0.245335  1
  Sm  Sm3  1  0.602190  0.867560  0.255276  1
  Si  Si4  1  0.061233  0.260577  0.837084  1
  Si  Si5  1  0.739134  0.937872  0.664317  1
  Si  Si6  1  0.935975  0.740812  0.163086  1
  Si  Si7  1  0.260171  0.059962  0.337160  1
  Si  Si8  1  0.208768  0.791324  0.750536  1
  Si  Si9  1  0.790124  0.207375  0.250351  1
  Si  Si10  1  0.512996  0.488943  0.749864  1
  Si  Si11  1  0.489722  0.513813  0.247743  1
  Si  Si12  1  0.771736  0.227008  0.751265  1
  Si  Si13  1  0.229743  0.772091  0.249809  1
  Os  Os14  1  0.258435  0.542650  0.631640  1
  Os  Os15  1  0.458611  0.743802  0.866998  1
  Os  Os16  1  0.743366  0.457980  0.367822  1
  Os  Os17  1  0.541690  0.255959  0.131917  1
  Os  Os18  1  0.002016  0.997105  0.750566  1
  Os  Os19  1  0.995892  0.002470  0.250523  1
