# generated using pymatgen
data_BaCa2(H6Ir)2
_symmetry_space_group_name_H-M   'P 1'
_cell_length_a   5.10471000
_cell_length_b   5.10471127
_cell_length_c   8.48197200
_cell_angle_alpha   90.00000000
_cell_angle_beta   90.00000000
_cell_angle_gamma   119.99999180
_symmetry_Int_Tables_number   1
_chemical_formula_structural   BaCa2(H6Ir)2
_chemical_formula_sum   'Ba1 Ca2 H12 Ir2'
_cell_volume   191.41226360
_cell_formula_units_Z   1
loop_
 _symmetry_equiv_pos_site_id
 _symmetry_equiv_pos_as_xyz
  1  'x, y, z'
loop_
 _atom_site_type_symbol
 _atom_site_label
 _atom_site_symmetry_multiplicity
 _atom_site_fract_x
 _atom_site_fract_y
 _atom_site_fract_z
 _atom_site_occupancy
  Ba  Ba0  1  0.000000  0.000000  0.000000  1
  Ca  Ca1  1  0.666667  0.333333  0.368304  1
  Ca  Ca2  1  0.333333  0.666667  0.631696  1
  H  H3  1  0.174715  0.825285  0.373719  1
  H  H4  1  0.650570  0.825285  0.373719  1
  H  H5  1  0.174715  0.349430  0.373719  1
  H  H6  1  0.825285  0.174715  0.626281  1
  H  H7  1  0.349430  0.174715  0.626281  1
  H  H8  1  0.825285  0.650570  0.626281  1
  H  H9  1  0.514027  0.028053  0.853436  1
  H  H10  1  0.514027  0.485973  0.853436  1
  H  H11  1  0.971947  0.485973  0.853436  1
  H  H12  1  0.485973  0.971947  0.146564  1
  H  H13  1  0.485973  0.514027  0.146564  1
  H  H14  1  0.028053  0.514027  0.146564  1
  Ir  Ir15  1  0.666667  0.333333  0.735717  1
  Ir  Ir16  1  0.333333  0.666667  0.264283  1
