# generated using pymatgen
data_K2MnAl2CrF12
_symmetry_space_group_name_H-M   'P 1'
_cell_length_a   7.10541103
_cell_length_b   7.18953100
_cell_length_c   9.94394650
_cell_angle_alpha   90.00000000
_cell_angle_beta   89.53223967
_cell_angle_gamma   90.00000000
_symmetry_Int_Tables_number   1
_chemical_formula_structural   K2MnAl2CrF12
_chemical_formula_sum   'K4 Mn2 Al4 Cr2 F24'
_cell_volume   507.96533087
_cell_formula_units_Z   2
loop_
 _symmetry_equiv_pos_site_id
 _symmetry_equiv_pos_as_xyz
  1  'x, y, z'
loop_
 _atom_site_type_symbol
 _atom_site_label
 _atom_site_symmetry_multiplicity
 _atom_site_fract_x
 _atom_site_fract_y
 _atom_site_fract_z
 _atom_site_occupancy
  K  K0  1  0.988348  0.250000  0.382215  1
  K  K1  1  0.511848  0.750000  0.881008  1
  K  K2  1  0.488152  0.250000  0.118992  1
  K  K3  1  0.011652  0.750000  0.617785  1
  Mn  Mn4  1  0.308207  0.250000  0.764517  1
  Mn  Mn5  1  0.691793  0.750000  0.235483  1
  Al  Al6  1  0.500000  0.000000  0.500000  1
  Al  Al7  1  0.000000  0.500000  0.000000  1
  Al  Al8  1  0.500000  0.500000  0.500000  1
  Al  Al9  1  0.000000  0.000000  0.000000  1
  Cr  Cr10  1  0.187832  0.750000  0.262406  1
  Cr  Cr11  1  0.812168  0.250000  0.737594  1
  F  F12  1  0.607975  0.013391  0.333037  1
  F  F13  1  0.106023  0.484163  0.165213  1
  F  F14  1  0.392025  0.513391  0.666963  1
  F  F15  1  0.893977  0.984163  0.834787  1
  F  F16  1  0.392025  0.986609  0.666963  1
  F  F17  1  0.893977  0.515837  0.834787  1
  F  F18  1  0.607975  0.486609  0.333037  1
  F  F19  1  0.106023  0.015837  0.165213  1
  F  F20  1  0.726643  0.049836  0.574801  1
  F  F21  1  0.227825  0.446837  0.923219  1
  F  F22  1  0.273357  0.549836  0.425199  1
  F  F23  1  0.772175  0.946837  0.076781  1
  F  F24  1  0.065597  0.250000  0.649632  1
  F  F25  1  0.576076  0.250000  0.847614  1
  F  F26  1  0.934403  0.750000  0.350368  1
  F  F27  1  0.423924  0.750000  0.152386  1
  F  F28  1  0.439749  0.250000  0.495395  1
  F  F29  1  0.938818  0.250000  0.006000  1
  F  F30  1  0.560251  0.750000  0.504605  1
  F  F31  1  0.061182  0.750000  0.994000  1
  F  F32  1  0.227825  0.053163  0.923219  1
  F  F33  1  0.726643  0.450164  0.574801  1
  F  F34  1  0.772175  0.553163  0.076781  1
  F  F35  1  0.273357  0.950164  0.425199  1
