# generated using pymatgen
data_Dy4Pd3RhF28
_symmetry_space_group_name_H-M   'P 1'
_cell_length_a   5.51903886
_cell_length_b   8.79086927
_cell_length_c   11.79263500
_cell_angle_alpha   62.47935562
_cell_angle_beta   89.74924498
_cell_angle_gamma   89.96218252
_symmetry_Int_Tables_number   1
_chemical_formula_structural   Dy4Pd3RhF28
_chemical_formula_sum   'Dy4 Pd3 Rh1 F28'
_cell_volume   507.39815904
_cell_formula_units_Z   1
loop_
 _symmetry_equiv_pos_site_id
 _symmetry_equiv_pos_as_xyz
  1  'x, y, z'
loop_
 _atom_site_type_symbol
 _atom_site_label
 _atom_site_symmetry_multiplicity
 _atom_site_fract_x
 _atom_site_fract_y
 _atom_site_fract_z
 _atom_site_occupancy
  Dy  Dy0  1  0.762124  0.812783  0.765395  1
  Dy  Dy1  1  0.262926  0.186986  0.733615  1
  Dy  Dy2  1  0.237048  0.187584  0.235393  1
  Dy  Dy3  1  0.736862  0.815660  0.264523  1
  Pd  Pd4  1  0.757270  0.273082  0.956095  1
  Pd  Pd5  1  0.257798  0.727283  0.543484  1
  Pd  Pd6  1  0.242913  0.727837  0.043900  1
  Rh  Rh7  1  0.742762  0.272877  0.455728  1
  F  F8  1  0.438196  0.701688  0.916771  1
  F  F9  1  0.933426  0.293882  0.585311  1
  F  F10  1  0.559178  0.298752  0.082450  1
  F  F11  1  0.063573  0.702377  0.416026  1
  F  F12  1  0.437279  0.279886  0.539553  1
  F  F13  1  0.943376  0.719220  0.959990  1
  F  F14  1  0.558748  0.716403  0.460473  1
  F  F15  1  0.054939  0.282411  0.040961  1
  F  F16  1  0.772883  0.521081  0.856872  1
  F  F17  1  0.268966  0.479252  0.642626  1
  F  F18  1  0.227670  0.480025  0.143683  1
  F  F19  1  0.730218  0.519527  0.357726  1
  F  F20  1  0.754532  0.024664  0.048822  1
  F  F21  1  0.258271  0.975808  0.451777  1
  F  F22  1  0.245978  0.976144  0.950950  1
  F  F23  1  0.744848  0.026571  0.547701  1
  F  F24  1  0.963044  0.726005  0.633985  1
  F  F25  1  0.466723  0.275878  0.863126  1
  F  F26  1  0.041606  0.272527  0.366588  1
  F  F27  1  0.535486  0.724189  0.136013  1
  F  F28  1  0.053876  0.745541  0.176884  1
  F  F29  1  0.557293  0.254849  0.322451  1
  F  F30  1  0.948649  0.255202  0.824049  1
  F  F31  1  0.445408  0.744294  0.676673  1
  F  F32  1  0.407339  0.967104  0.231958  1
  F  F33  1  0.907570  0.032675  0.270537  1
  F  F34  1  0.591099  0.032028  0.768309  1
  F  F35  1  0.090124  0.967926  0.729603  1
