# generated using pymatgen
data_La3NdZn4PtRh3
_symmetry_space_group_name_H-M   'P 1'
_cell_length_a   4.03975900
_cell_length_b   7.52073659
_cell_length_c   16.67053019
_cell_angle_alpha   89.82646079
_cell_angle_beta   90.00000000
_cell_angle_gamma   90.00000000
_symmetry_Int_Tables_number   1
_chemical_formula_structural   La3NdZn4PtRh3
_chemical_formula_sum   'La6 Nd2 Zn8 Pt2 Rh6'
_cell_volume   506.48111375
_cell_formula_units_Z   2
loop_
 _symmetry_equiv_pos_site_id
 _symmetry_equiv_pos_as_xyz
  1  'x, y, z'
loop_
 _atom_site_type_symbol
 _atom_site_label
 _atom_site_symmetry_multiplicity
 _atom_site_fract_x
 _atom_site_fract_y
 _atom_site_fract_z
 _atom_site_occupancy
  La  La0  1  0.250000  0.553887  0.782168  1
  La  La1  1  0.250000  0.673435  0.559760  1
  La  La2  1  0.750000  0.825700  0.059467  1
  La  La3  1  0.250000  0.171121  0.943157  1
  La  La4  1  0.750000  0.454112  0.215919  1
  La  La5  1  0.750000  0.947012  0.282877  1
  Nd  Nd6  1  0.750000  0.329310  0.443141  1
  Nd  Nd7  1  0.250000  0.045759  0.715319  1
  Zn  Zn8  1  0.250000  0.125927  0.148840  1
  Zn  Zn9  1  0.250000  0.999665  0.441449  1
  Zn  Zn10  1  0.750000  0.873126  0.848945  1
  Zn  Zn11  1  0.750000  0.002501  0.559696  1
  Zn  Zn12  1  0.250000  0.499274  0.059027  1
  Zn  Zn13  1  0.750000  0.373047  0.648288  1
  Zn  Zn14  1  0.750000  0.503093  0.940761  1
  Zn  Zn15  1  0.250000  0.626676  0.351301  1
  Pt  Pt16  1  0.750000  0.253558  0.814113  1
  Pt  Pt17  1  0.250000  0.245517  0.314167  1
  Rh  Rh18  1  0.250000  0.742216  0.934155  1
  Rh  Rh19  1  0.250000  0.239574  0.565892  1
  Rh  Rh20  1  0.250000  0.746257  0.185778  1
  Rh  Rh21  1  0.750000  0.758927  0.434419  1
  Rh  Rh22  1  0.750000  0.259716  0.065519  1
  Rh  Rh23  1  0.750000  0.750591  0.685842  1
