# generated using pymatgen
data_Dy8Ti11Si16Ir
_symmetry_space_group_name_H-M   'P 1'
_cell_length_a   7.03232717
_cell_length_b   7.03232717
_cell_length_c   12.87189967
_cell_angle_alpha   89.87775277
_cell_angle_beta   90.12224723
_cell_angle_gamma   89.84837544
_symmetry_Int_Tables_number   1
_chemical_formula_structural   Dy8Ti11Si16Ir
_chemical_formula_sum   'Dy8 Ti11 Si16 Ir1'
_cell_volume   636.55696995
_cell_formula_units_Z   1
loop_
 _symmetry_equiv_pos_site_id
 _symmetry_equiv_pos_as_xyz
  1  'x, y, z'
loop_
 _atom_site_type_symbol
 _atom_site_label
 _atom_site_symmetry_multiplicity
 _atom_site_fract_x
 _atom_site_fract_y
 _atom_site_fract_z
 _atom_site_occupancy
  Dy  Dy0  1  0.996051  0.659716  0.032590  1
  Dy  Dy1  1  0.001861  0.341831  0.531340  1
  Dy  Dy2  1  0.659716  0.996051  0.967410  1
  Dy  Dy3  1  0.158830  0.503282  0.781801  1
  Dy  Dy4  1  0.840914  0.499496  0.285077  1
  Dy  Dy5  1  0.503282  0.158830  0.218199  1
  Dy  Dy6  1  0.499496  0.840914  0.714923  1
  Dy  Dy7  1  0.341831  0.001861  0.468660  1
  Ti  Ti8  1  0.343153  0.506123  0.375151  1
  Ti  Ti9  1  0.850122  0.997019  0.376316  1
  Ti  Ti10  1  0.006327  0.151631  0.124820  1
  Ti  Ti11  1  0.997019  0.850122  0.623684  1
  Ti  Ti12  1  0.506123  0.343153  0.624849  1
  Ti  Ti13  1  0.151631  0.006327  0.875180  1
  Ti  Ti14  1  0.824255  0.172584  0.748213  1
  Ti  Ti15  1  0.172584  0.824255  0.251787  1
  Ti  Ti16  1  0.326384  0.326384  0.000000  1
  Ti  Ti17  1  0.493251  0.650732  0.128002  1
  Ti  Ti18  1  0.650732  0.493251  0.871998  1
  Si  Si19  1  0.048446  0.713476  0.435826  1
  Si  Si20  1  0.952268  0.291399  0.934199  1
  Si  Si21  1  0.713476  0.048446  0.564174  1
  Si  Si22  1  0.207989  0.452874  0.184265  1
  Si  Si23  1  0.790088  0.550333  0.681527  1
  Si  Si24  1  0.452874  0.207989  0.815735  1
  Si  Si25  1  0.550333  0.790088  0.318473  1
  Si  Si26  1  0.291399  0.952268  0.065801  1
  Si  Si27  1  0.797903  0.868112  0.185699  1
  Si  Si28  1  0.298729  0.626976  0.565912  1
  Si  Si29  1  0.704134  0.369148  0.065576  1
  Si  Si30  1  0.626976  0.298729  0.434088  1
  Si  Si31  1  0.369148  0.704134  0.934424  1
  Si  Si32  1  0.130932  0.203400  0.315891  1
  Si  Si33  1  0.203400  0.130932  0.684109  1
  Si  Si34  1  0.868112  0.797903  0.814301  1
  Ir  Ir35  1  0.670231  0.670231  0.500000  1
