# generated using pymatgen
data_Pr3Ho5(CdIr)2
_symmetry_space_group_name_H-M   'P 1'
_cell_length_a   9.73695801
_cell_length_b   9.73695817
_cell_length_c   9.73695800
_cell_angle_alpha   60.00000057
_cell_angle_beta   60.00000005
_cell_angle_gamma   59.99999859
_symmetry_Int_Tables_number   1
_chemical_formula_structural   Pr3Ho5(CdIr)2
_chemical_formula_sum   'Pr6 Ho10 Cd4 Ir4'
_cell_volume   652.76205009
_cell_formula_units_Z   2
loop_
 _symmetry_equiv_pos_site_id
 _symmetry_equiv_pos_as_xyz
  1  'x, y, z'
loop_
 _atom_site_type_symbol
 _atom_site_label
 _atom_site_symmetry_multiplicity
 _atom_site_fract_x
 _atom_site_fract_y
 _atom_site_fract_z
 _atom_site_occupancy
  Pr  Pr0  1  0.941257  0.558743  0.558743  1
  Pr  Pr1  1  0.558743  0.941257  0.941257  1
  Pr  Pr2  1  0.558743  0.941257  0.558743  1
  Pr  Pr3  1  0.941257  0.558743  0.941257  1
  Pr  Pr4  1  0.558743  0.558743  0.941257  1
  Pr  Pr5  1  0.941257  0.941257  0.558743  1
  Ho  Ho6  1  0.346843  0.346843  0.346843  1
  Ho  Ho7  1  0.346843  0.346843  0.959470  1
  Ho  Ho8  1  0.346843  0.959470  0.346843  1
  Ho  Ho9  1  0.959470  0.346843  0.346843  1
  Ho  Ho10  1  0.812705  0.187295  0.187295  1
  Ho  Ho11  1  0.187295  0.812705  0.812705  1
  Ho  Ho12  1  0.187295  0.812705  0.187295  1
  Ho  Ho13  1  0.812705  0.187295  0.812705  1
  Ho  Ho14  1  0.187295  0.187295  0.812705  1
  Ho  Ho15  1  0.812705  0.812705  0.187295  1
  Cd  Cd16  1  0.579189  0.579189  0.579189  1
  Cd  Cd17  1  0.579189  0.579189  0.262431  1
  Cd  Cd18  1  0.579189  0.262431  0.579189  1
  Cd  Cd19  1  0.262431  0.579189  0.579189  1
  Ir  Ir20  1  0.141102  0.141102  0.141102  1
  Ir  Ir21  1  0.141102  0.141102  0.576695  1
  Ir  Ir22  1  0.141102  0.576695  0.141102  1
  Ir  Ir23  1  0.576695  0.141102  0.141102  1
