# generated using pymatgen
data_TbErU2(B4Ru)4
_symmetry_space_group_name_H-M   'P 1'
_cell_length_a   3.54670400
_cell_length_b   5.96147975
_cell_length_c   11.53509161
_cell_angle_alpha   89.93240561
_cell_angle_beta   90.00000000
_cell_angle_gamma   90.00000000
_symmetry_Int_Tables_number   1
_chemical_formula_structural   TbErU2(B4Ru)4
_chemical_formula_sum   'Tb1 Er1 U2 B16 Ru4'
_cell_volume   243.89324008
_cell_formula_units_Z   1
loop_
 _symmetry_equiv_pos_site_id
 _symmetry_equiv_pos_as_xyz
  1  'x, y, z'
loop_
 _atom_site_type_symbol
 _atom_site_label
 _atom_site_symmetry_multiplicity
 _atom_site_fract_x
 _atom_site_fract_y
 _atom_site_fract_z
 _atom_site_occupancy
  Tb  Tb0  1  0.000000  0.128884  0.148421  1
  Er  Er1  1  0.000000  0.870969  0.851458  1
  U  U2  1  0.000000  0.628400  0.349524  1
  U  U3  1  0.000000  0.371580  0.650791  1
  B  B4  1  0.500000  0.787802  0.187523  1
  B  B5  1  0.500000  0.210515  0.812533  1
  B  B6  1  0.500000  0.291389  0.313598  1
  B  B7  1  0.500000  0.709002  0.687071  1
  B  B8  1  0.500000  0.863516  0.030367  1
  B  B9  1  0.500000  0.136303  0.968352  1
  B  B10  1  0.500000  0.368083  0.467542  1
  B  B11  1  0.500000  0.631997  0.532796  1
  B  B12  1  0.500000  0.885512  0.453253  1
  B  B13  1  0.500000  0.114357  0.547255  1
  B  B14  1  0.500000  0.387509  0.045500  1
  B  B15  1  0.500000  0.613942  0.953402  1
  B  B16  1  0.500000  0.974113  0.308393  1
  B  B17  1  0.500000  0.025119  0.692402  1
  B  B18  1  0.500000  0.474729  0.192057  1
  B  B19  1  0.500000  0.526362  0.807742  1
  Ru  Ru20  1  0.000000  0.638719  0.094487  1
  Ru  Ru21  1  0.000000  0.361330  0.904491  1
  Ru  Ru22  1  0.000000  0.141196  0.407499  1
  Ru  Ru23  1  0.000000  0.858673  0.593544  1
