# generated using pymatgen
data_Pr3TaIn2Ir3
_symmetry_space_group_name_H-M   'P 1'
_cell_length_a   7.46542000
_cell_length_b   7.25993645
_cell_length_c   4.32075300
_cell_angle_alpha   90.00000000
_cell_angle_beta   90.00000000
_cell_angle_gamma   119.11429026
_symmetry_Int_Tables_number   1
_chemical_formula_structural   Pr3TaIn2Ir3
_chemical_formula_sum   'Pr3 Ta1 In2 Ir3'
_cell_volume   204.59001439
_cell_formula_units_Z   1
loop_
 _symmetry_equiv_pos_site_id
 _symmetry_equiv_pos_as_xyz
  1  'x, y, z'
loop_
 _atom_site_type_symbol
 _atom_site_label
 _atom_site_symmetry_multiplicity
 _atom_site_fract_x
 _atom_site_fract_y
 _atom_site_fract_z
 _atom_site_occupancy
  Pr  Pr0  1  0.417726  0.415851  0.000000  1
  Pr  Pr1  1  0.582175  0.998019  0.000000  1
  Pr  Pr2  1  0.000021  0.597353  0.000000  1
  Ta  Ta3  1  0.000038  0.242126  0.500000  1
  In  In4  1  0.754364  0.753902  0.500000  1
  In  In5  1  0.245511  0.999823  0.500000  1
  Ir  Ir6  1  0.000014  0.042899  0.000000  1
  Ir  Ir7  1  0.305162  0.627630  0.500000  1
  Ir  Ir8  1  0.694989  0.322396  0.500000  1
