# generated using pymatgen
data_Tm5Sn2BiSe
_symmetry_space_group_name_H-M   'P 1'
_cell_length_a   9.11741000
_cell_length_b   9.11740899
_cell_length_c   6.61841800
_cell_angle_alpha   90.00000000
_cell_angle_beta   90.00000000
_cell_angle_gamma   120.29565708
_symmetry_Int_Tables_number   1
_chemical_formula_structural   Tm5Sn2BiSe
_chemical_formula_sum   'Tm10 Sn4 Bi2 Se2'
_cell_volume   475.03559701
_cell_formula_units_Z   2
loop_
 _symmetry_equiv_pos_site_id
 _symmetry_equiv_pos_as_xyz
  1  'x, y, z'
loop_
 _atom_site_type_symbol
 _atom_site_label
 _atom_site_symmetry_multiplicity
 _atom_site_fract_x
 _atom_site_fract_y
 _atom_site_fract_z
 _atom_site_occupancy
  Tm  Tm0  1  0.252421  0.994634  0.750000  1
  Tm  Tm1  1  0.747579  0.005366  0.250000  1
  Tm  Tm2  1  0.994634  0.252421  0.750000  1
  Tm  Tm3  1  0.005366  0.747579  0.250000  1
  Tm  Tm4  1  0.749324  0.749324  0.750000  1
  Tm  Tm5  1  0.250676  0.250676  0.250000  1
  Tm  Tm6  1  0.328702  0.671298  0.500000  1
  Tm  Tm7  1  0.671298  0.328702  0.500000  1
  Tm  Tm8  1  0.671298  0.328702  0.000000  1
  Tm  Tm9  1  0.328702  0.671298  0.000000  1
  Sn  Sn10  1  0.604013  0.998420  0.750000  1
  Sn  Sn11  1  0.395987  0.001580  0.250000  1
  Sn  Sn12  1  0.998420  0.604013  0.750000  1
  Sn  Sn13  1  0.001580  0.395987  0.250000  1
  Bi  Bi14  1  0.393566  0.393566  0.750000  1
  Bi  Bi15  1  0.606434  0.606434  0.250000  1
  Se  Se16  1  0.000000  0.000000  0.500000  1
  Se  Se17  1  0.000000  0.000000  0.000000  1
