# generated using pymatgen
data_Ho4Ag3RhPb2
_symmetry_space_group_name_H-M   'P 1'
_cell_length_a   8.09656736
_cell_length_b   8.09656763
_cell_length_c   3.65828400
_cell_angle_alpha   90.00000000
_cell_angle_beta   90.00000000
_cell_angle_gamma   90.21485132
_symmetry_Int_Tables_number   1
_chemical_formula_structural   Ho4Ag3RhPb2
_chemical_formula_sum   'Ho4 Ag3 Rh1 Pb2'
_cell_volume   239.81494551
_cell_formula_units_Z   1
loop_
 _symmetry_equiv_pos_site_id
 _symmetry_equiv_pos_as_xyz
  1  'x, y, z'
loop_
 _atom_site_type_symbol
 _atom_site_label
 _atom_site_symmetry_multiplicity
 _atom_site_fract_x
 _atom_site_fract_y
 _atom_site_fract_z
 _atom_site_occupancy
  Ho  Ho0  1  0.643563  0.177108  0.500000  1
  Ho  Ho1  1  0.189387  0.310613  0.500000  1
  Ho  Ho2  1  0.833124  0.666876  0.500000  1
  Ho  Ho3  1  0.322892  0.856437  0.500000  1
  Ag  Ag4  1  0.129494  0.618923  0.000000  1
  Ag  Ag5  1  0.625948  0.874052  0.000000  1
  Ag  Ag6  1  0.881077  0.370506  0.000000  1
  Rh  Rh7  1  0.378105  0.121895  0.000000  1
  Pb  Pb8  1  0.997980  0.001570  0.000000  1
  Pb  Pb9  1  0.498430  0.502020  0.000000  1
