# generated using pymatgen
data_Ho4Pa(In2Ir)2
_symmetry_space_group_name_H-M   'P 1'
_cell_length_a   8.02255201
_cell_length_b   18.30151169
_cell_length_c   3.62593900
_cell_angle_alpha   90.00000000
_cell_angle_beta   90.00000000
_cell_angle_gamma   90.52446912
_symmetry_Int_Tables_number   1
_chemical_formula_structural   Ho4Pa(In2Ir)2
_chemical_formula_sum   'Ho8 Pa2 In8 Ir4'
_cell_volume   532.35557123
_cell_formula_units_Z   2
loop_
 _symmetry_equiv_pos_site_id
 _symmetry_equiv_pos_as_xyz
  1  'x, y, z'
loop_
 _atom_site_type_symbol
 _atom_site_label
 _atom_site_symmetry_multiplicity
 _atom_site_fract_x
 _atom_site_fract_y
 _atom_site_fract_z
 _atom_site_occupancy
  Ho  Ho0  1  0.500000  0.500000  0.000000  1
  Ho  Ho1  1  0.000000  0.000000  0.000000  1
  Ho  Ho2  1  0.747988  0.777723  0.000000  1
  Ho  Ho3  1  0.252012  0.222277  0.000000  1
  Ho  Ho4  1  0.620025  0.085310  0.000000  1
  Ho  Ho5  1  0.379975  0.914690  0.000000  1
  Ho  Ho6  1  0.879811  0.586307  0.000000  1
  Ho  Ho7  1  0.120189  0.413693  0.000000  1
  Pa  Pa8  1  0.755113  0.274761  0.000000  1
  Pa  Pa9  1  0.244887  0.725239  0.000000  1
  In  In10  1  0.704519  0.931352  0.500000  1
  In  In11  1  0.295481  0.068648  0.500000  1
  In  In12  1  0.795808  0.435474  0.500000  1
  In  In13  1  0.204192  0.564526  0.500000  1
  In  In14  1  0.570012  0.648181  0.500000  1
  In  In15  1  0.429988  0.351819  0.500000  1
  In  In16  1  0.938875  0.144618  0.500000  1
  In  In17  1  0.061125  0.855382  0.500000  1
  Ir  Ir18  1  0.552828  0.203018  0.500000  1
  Ir  Ir19  1  0.447172  0.796982  0.500000  1
  Ir  Ir20  1  0.997069  0.696513  0.500000  1
  Ir  Ir21  1  0.002931  0.303487  0.500000  1
