# generated using pymatgen
data_LaTb5YCoI12
_symmetry_space_group_name_H-M   'P 1'
_cell_length_a   9.80614079
_cell_length_b   9.80557462
_cell_length_c   9.80691704
_cell_angle_alpha   106.34791430
_cell_angle_beta   106.36178831
_cell_angle_gamma   106.38956362
_symmetry_Int_Tables_number   1
_chemical_formula_structural   LaTb5YCoI12
_chemical_formula_sum   'La1 Tb5 Y1 Co1 I12'
_cell_volume   798.50917942
_cell_formula_units_Z   1
loop_
 _symmetry_equiv_pos_site_id
 _symmetry_equiv_pos_as_xyz
  1  'x, y, z'
loop_
 _atom_site_type_symbol
 _atom_site_label
 _atom_site_symmetry_multiplicity
 _atom_site_fract_x
 _atom_site_fract_y
 _atom_site_fract_z
 _atom_site_occupancy
  La  La0  1  0.995648  0.995631  0.995714  1
  Tb  Tb1  1  0.784629  0.517276  0.589178  1
  Tb  Tb2  1  0.589164  0.784621  0.517417  1
  Tb  Tb3  1  0.481190  0.409072  0.214004  1
  Tb  Tb4  1  0.214275  0.481195  0.409405  1
  Tb  Tb5  1  0.409184  0.214356  0.481312  1
  Y  Y6  1  0.517173  0.588994  0.784703  1
  Co  Co7  1  0.499582  0.499474  0.499177  1
  I  I8  1  0.275926  0.822578  0.426225  1
  I  I9  1  0.426408  0.276408  0.822591  1
  I  I10  1  0.822594  0.426271  0.275981  1
  I  I11  1  0.722912  0.176287  0.572541  1
  I  I12  1  0.572418  0.722919  0.175671  1
  I  I13  1  0.176719  0.572652  0.723165  1
  I  I14  1  0.043784  0.122680  0.349599  1
  I  I15  1  0.349624  0.043749  0.122708  1
  I  I16  1  0.122686  0.349706  0.043845  1
  I  I17  1  0.954137  0.874754  0.643337  1
  I  I18  1  0.642871  0.953698  0.874710  1
  I  I19  1  0.874444  0.643046  0.954084  1
