# generated using pymatgen
data_CaTa5(SiTc)6
_symmetry_space_group_name_H-M   'P 1'
_cell_length_a   7.66519204
_cell_length_b   7.56867637
_cell_length_c   7.66519200
_cell_angle_alpha   126.01283582
_cell_angle_beta   128.83933919
_cell_angle_gamma   77.85710169
_symmetry_Int_Tables_number   1
_chemical_formula_structural   CaTa5(SiTc)6
_chemical_formula_sum   'Ca1 Ta5 Si6 Tc6'
_cell_volume   271.18352406
_cell_formula_units_Z   1
loop_
 _symmetry_equiv_pos_site_id
 _symmetry_equiv_pos_as_xyz
  1  'x, y, z'
loop_
 _atom_site_type_symbol
 _atom_site_label
 _atom_site_symmetry_multiplicity
 _atom_site_fract_x
 _atom_site_fract_y
 _atom_site_fract_z
 _atom_site_occupancy
  Ca  Ca0  1  0.547137  0.090967  0.043831  1
  Ta  Ta1  1  0.451172  0.493273  0.542102  1
  Ta  Ta2  1  0.948298  0.493808  0.045510  1
  Ta  Ta3  1  0.049738  0.096160  0.546422  1
  Ta  Ta4  1  0.746140  0.895922  0.649783  1
  Ta  Ta5  1  0.250559  0.897096  0.146536  1
  Si  Si6  1  0.748121  0.495678  0.247558  1
  Si  Si7  1  0.254852  0.503948  0.749095  1
  Si  Si8  1  0.328469  0.826485  0.488318  1
  Si  Si9  1  0.669908  0.163791  0.503572  1
  Si  Si10  1  0.838168  0.826485  0.998015  1
  Si  Si11  1  0.160219  0.163791  0.993882  1
  Tc  Tc12  1  0.497618  0.243114  0.735582  1
  Tc  Tc13  1  0.007531  0.243114  0.245495  1
  Tc  Tc14  1  0.116042  0.752379  0.613165  1
  Tc  Tc15  1  0.882158  0.501905  0.637250  1
  Tc  Tc16  1  0.639215  0.752379  0.136338  1
  Tc  Tc17  1  0.364655  0.501905  0.119748  1
