# generated using pymatgen
data_Ca2Fe5Ni3B8
_symmetry_space_group_name_H-M   'P 1'
_cell_length_a   6.97230492
_cell_length_b   6.96642505
_cell_length_c   3.83914216
_cell_angle_alpha   89.99873646
_cell_angle_beta   90.08936322
_cell_angle_gamma   90.27399337
_symmetry_Int_Tables_number   1
_chemical_formula_structural   Ca2Fe5Ni3B8
_chemical_formula_sum   'Ca2 Fe5 Ni3 B8'
_cell_volume   186.47260645
_cell_formula_units_Z   1
loop_
 _symmetry_equiv_pos_site_id
 _symmetry_equiv_pos_as_xyz
  1  'x, y, z'
loop_
 _atom_site_type_symbol
 _atom_site_label
 _atom_site_symmetry_multiplicity
 _atom_site_fract_x
 _atom_site_fract_y
 _atom_site_fract_z
 _atom_site_occupancy
  Ca  Ca0  1  0.999317  0.000217  0.031292  1
  Ca  Ca1  1  0.504776  0.498501  0.520070  1
  Fe  Fe2  1  0.118665  0.367913  0.613123  1
  Fe  Fe3  1  0.629338  0.119342  0.384851  1
  Fe  Fe4  1  0.370185  0.881135  0.386878  1
  Fe  Fe5  1  0.618107  0.871319  0.885399  1
  Fe  Fe6  1  0.380624  0.129087  0.886565  1
  Ni  Ni7  1  0.861075  0.386230  0.109084  1
  Ni  Ni8  1  0.140423  0.619026  0.111197  1
  Ni  Ni9  1  0.880564  0.641833  0.609768  1
  B  B10  1  0.331213  0.816278  0.886076  1
  B  B11  1  0.667082  0.187760  0.884524  1
  B  B12  1  0.307310  0.170476  0.390811  1
  B  B13  1  0.683810  0.835093  0.385632  1
  B  B14  1  0.174448  0.689208  0.605587  1
  B  B15  1  0.843672  0.288531  0.602718  1
  B  B16  1  0.198978  0.328180  0.106520  1
  B  B17  1  0.790414  0.669871  0.099903  1
