# generated using pymatgen
data_Ce2MnCoRu2
_symmetry_space_group_name_H-M   'P 1'
_cell_length_a   4.82135432
_cell_length_b   5.41143863
_cell_length_c   5.41144017
_cell_angle_alpha   61.91543380
_cell_angle_beta   60.66485564
_cell_angle_gamma   60.66485967
_symmetry_Int_Tables_number   1
_chemical_formula_structural   Ce2MnCoRu2
_chemical_formula_sum   'Ce2 Mn1 Co1 Ru2'
_cell_volume   102.23372863
_cell_formula_units_Z   1
loop_
 _symmetry_equiv_pos_site_id
 _symmetry_equiv_pos_as_xyz
  1  'x, y, z'
loop_
 _atom_site_type_symbol
 _atom_site_label
 _atom_site_symmetry_multiplicity
 _atom_site_fract_x
 _atom_site_fract_y
 _atom_site_fract_z
 _atom_site_occupancy
  Ce  Ce0  1  0.617694  0.628828  0.628828  1
  Ce  Ce1  1  0.382306  0.371172  0.371172  1
  Mn  Mn2  1  0.500000  0.000000  0.000000  1
  Co  Co3  1  0.000000  0.000000  0.000000  1
  Ru  Ru4  1  0.000000  0.500000  0.000000  1
  Ru  Ru5  1  0.000000  0.000000  0.500000  1
