# generated using pymatgen
data_Li4Dy3YO8
_symmetry_space_group_name_H-M   'P 1'
_cell_length_a   3.39396300
_cell_length_b   5.31447800
_cell_length_c   11.23238100
_cell_angle_alpha   89.99917714
_cell_angle_beta   90.00000000
_cell_angle_gamma   90.00000000
_symmetry_Int_Tables_number   1
_chemical_formula_structural   Li4Dy3YO8
_chemical_formula_sum   'Li4 Dy3 Y1 O8'
_cell_volume   202.60004767
_cell_formula_units_Z   1
loop_
 _symmetry_equiv_pos_site_id
 _symmetry_equiv_pos_as_xyz
  1  'x, y, z'
loop_
 _atom_site_type_symbol
 _atom_site_label
 _atom_site_symmetry_multiplicity
 _atom_site_fract_x
 _atom_site_fract_y
 _atom_site_fract_z
 _atom_site_occupancy
  Li  Li0  1  0.250000  0.097705  0.067063  1
  Li  Li1  1  0.250000  0.402293  0.567135  1
  Li  Li2  1  0.750000  0.597727  0.432909  1
  Li  Li3  1  0.750000  0.902267  0.932935  1
  Dy  Dy4  1  0.250000  0.452730  0.859737  1
  Dy  Dy5  1  0.750000  0.547291  0.140025  1
  Dy  Dy6  1  0.750000  0.952691  0.640531  1
  Y  Y7  1  0.250000  0.047235  0.359704  1
  O  O8  1  0.250000  0.190671  0.705799  1
  O  O9  1  0.750000  0.243288  0.474087  1
  O  O10  1  0.750000  0.257389  0.973697  1
  O  O11  1  0.250000  0.309623  0.205601  1
  O  O12  1  0.750000  0.690698  0.794189  1
  O  O13  1  0.250000  0.742670  0.026117  1
  O  O14  1  0.250000  0.757169  0.526417  1
  O  O15  1  0.750000  0.808552  0.294055  1
