# generated using pymatgen
data_MnTcCl8
_symmetry_space_group_name_H-M   'P 1'
_cell_length_a   7.58069400
_cell_length_b   6.05113761
_cell_length_c   6.64046303
_cell_angle_alpha   72.57645079
_cell_angle_beta   90.00000000
_cell_angle_gamma   90.00000000
_symmetry_Int_Tables_number   1
_chemical_formula_structural   MnTcCl8
_chemical_formula_sum   'Mn1 Tc1 Cl8'
_cell_volume   290.63381759
_cell_formula_units_Z   1
loop_
 _symmetry_equiv_pos_site_id
 _symmetry_equiv_pos_as_xyz
  1  'x, y, z'
loop_
 _atom_site_type_symbol
 _atom_site_label
 _atom_site_symmetry_multiplicity
 _atom_site_fract_x
 _atom_site_fract_y
 _atom_site_fract_z
 _atom_site_occupancy
  Mn  Mn0  1  0.367177  0.250000  0.500000  1
  Tc  Tc1  1  0.630070  0.750000  0.500000  1
  Cl  Cl2  1  0.602180  0.487541  0.294459  1
  Cl  Cl3  1  0.602180  0.012459  0.705541  1
  Cl  Cl4  1  0.833199  0.963519  0.274017  1
  Cl  Cl5  1  0.833199  0.536481  0.725983  1
  Cl  Cl6  1  0.174792  0.045185  0.717720  1
  Cl  Cl7  1  0.174792  0.454815  0.282280  1
  Cl  Cl8  1  0.391205  0.998985  0.297122  1
  Cl  Cl9  1  0.391205  0.501015  0.702878  1
