# generated using pymatgen
data_Y3Mg2PaRh3
_symmetry_space_group_name_H-M   'P 1'
_cell_length_a   7.64673035
_cell_length_b   7.57801181
_cell_length_c   3.97364100
_cell_angle_alpha   90.00000000
_cell_angle_beta   90.00000000
_cell_angle_gamma   119.70316865
_symmetry_Int_Tables_number   1
_chemical_formula_structural   Y3Mg2PaRh3
_chemical_formula_sum   'Y3 Mg2 Pa1 Rh3'
_cell_volume   200.00532686
_cell_formula_units_Z   1
loop_
 _symmetry_equiv_pos_site_id
 _symmetry_equiv_pos_as_xyz
  1  'x, y, z'
loop_
 _atom_site_type_symbol
 _atom_site_label
 _atom_site_symmetry_multiplicity
 _atom_site_fract_x
 _atom_site_fract_y
 _atom_site_fract_z
 _atom_site_occupancy
  Y  Y0  1  0.000000  0.625087  0.500000  1
  Y  Y1  1  0.442399  0.408617  0.500000  1
  Y  Y2  1  0.557601  0.966218  0.500000  1
  Mg  Mg3  1  0.251685  0.005295  0.000000  1
  Mg  Mg4  1  0.748315  0.753610  0.000000  1
  Pa  Pa5  1  0.000000  0.266516  0.000000  1
  Rh  Rh6  1  0.307486  0.629114  0.000000  1
  Rh  Rh7  1  0.000000  0.023917  0.500000  1
  Rh  Rh8  1  0.692514  0.321627  0.000000  1
