# generated using pymatgen
data_Tb3Y7GaSb5
_symmetry_space_group_name_H-M   'P 1'
_cell_length_a   6.40261300
_cell_length_b   8.96145555
_cell_length_c   8.93031644
_cell_angle_alpha   120.10235644
_cell_angle_beta   90.00362098
_cell_angle_gamma   89.99730659
_symmetry_Int_Tables_number   1
_chemical_formula_structural   Tb3Y7GaSb5
_chemical_formula_sum   'Tb3 Y7 Ga1 Sb5'
_cell_volume   443.28641845
_cell_formula_units_Z   1
loop_
 _symmetry_equiv_pos_site_id
 _symmetry_equiv_pos_as_xyz
  1  'x, y, z'
loop_
 _atom_site_type_symbol
 _atom_site_label
 _atom_site_symmetry_multiplicity
 _atom_site_fract_x
 _atom_site_fract_y
 _atom_site_fract_z
 _atom_site_occupancy
  Tb  Tb0  1  0.501171  0.339906  0.674899  1
  Tb  Tb1  1  0.501031  0.665034  0.325240  1
  Tb  Tb2  1  0.998978  0.665110  0.325374  1
  Y  Y3  1  0.998974  0.339609  0.674537  1
  Y  Y4  1  0.749943  0.250089  0.000045  1
  Y  Y5  1  0.749956  0.752442  0.762917  1
  Y  Y6  1  0.750034  0.989531  0.237101  1
  Y  Y7  1  0.249906  0.755213  0.000055  1
  Y  Y8  1  0.249966  0.245915  0.245193  1
  Y  Y9  1  0.250027  0.000577  0.754722  1
  Ga  Ga10  1  0.750132  0.607025  0.999771  1
  Sb  Sb11  1  0.750160  0.387152  0.389279  1
  Sb  Sb12  1  0.750126  0.998293  0.610895  1
  Sb  Sb13  1  0.249812  0.389712  0.999710  1
  Sb  Sb14  1  0.249900  0.611354  0.608871  1
  Sb  Sb15  1  0.249886  0.003039  0.391390  1
