# generated using pymatgen
data_Tb3Mg3Ru2Pt
_symmetry_space_group_name_H-M   'P 1'
_cell_length_a   7.27906200
_cell_length_b   7.27906147
_cell_length_c   4.09466700
_cell_angle_alpha   90.00000000
_cell_angle_beta   90.00000000
_cell_angle_gamma   120.00000239
_symmetry_Int_Tables_number   1
_chemical_formula_structural   Tb3Mg3Ru2Pt
_chemical_formula_sum   'Tb3 Mg3 Ru2 Pt1'
_cell_volume   187.88842041
_cell_formula_units_Z   1
loop_
 _symmetry_equiv_pos_site_id
 _symmetry_equiv_pos_as_xyz
  1  'x, y, z'
loop_
 _atom_site_type_symbol
 _atom_site_label
 _atom_site_symmetry_multiplicity
 _atom_site_fract_x
 _atom_site_fract_y
 _atom_site_fract_z
 _atom_site_occupancy
  Tb  Tb0  1  0.582893  0.000000  0.000000  1
  Tb  Tb1  1  0.000000  0.582893  0.000000  1
  Tb  Tb2  1  0.417107  0.417107  0.000000  1
  Mg  Mg3  1  0.246515  0.000000  0.500000  1
  Mg  Mg4  1  0.000000  0.246515  0.500000  1
  Mg  Mg5  1  0.753485  0.753485  0.500000  1
  Ru  Ru6  1  0.333333  0.666667  0.500000  1
  Ru  Ru7  1  0.666667  0.333333  0.500000  1
  Pt  Pt8  1  0.000000  0.000000  0.000000  1
