# generated using pymatgen
data_Er4CrOsC4
_symmetry_space_group_name_H-M   'P 1'
_cell_length_a   5.01624000
_cell_length_b   6.44075015
_cell_length_c   9.72242442
_cell_angle_alpha   90.25012312
_cell_angle_beta   90.00000000
_cell_angle_gamma   90.00000000
_symmetry_Int_Tables_number   1
_chemical_formula_structural   Er4CrOsC4
_chemical_formula_sum   'Er8 Cr2 Os2 C8'
_cell_volume   314.11248364
_cell_formula_units_Z   2
loop_
 _symmetry_equiv_pos_site_id
 _symmetry_equiv_pos_as_xyz
  1  'x, y, z'
loop_
 _atom_site_type_symbol
 _atom_site_label
 _atom_site_symmetry_multiplicity
 _atom_site_fract_x
 _atom_site_fract_y
 _atom_site_fract_z
 _atom_site_occupancy
  Er  Er0  1  0.250000  0.682860  0.558028  1
  Er  Er1  1  0.750000  0.317140  0.441972  1
  Er  Er2  1  0.750000  0.821627  0.054127  1
  Er  Er3  1  0.250000  0.178373  0.945873  1
  Er  Er4  1  0.250000  0.531091  0.216439  1
  Er  Er5  1  0.750000  0.468909  0.783561  1
  Er  Er6  1  0.750000  0.973031  0.716645  1
  Er  Er7  1  0.250000  0.026969  0.283355  1
  Cr  Cr8  1  0.250000  0.725400  0.862026  1
  Cr  Cr9  1  0.750000  0.274600  0.137974  1
  Os  Os10  1  0.750000  0.775479  0.362591  1
  Os  Os11  1  0.250000  0.224521  0.637409  1
  C  C12  1  0.250000  0.464335  0.764020  1
  C  C13  1  0.750000  0.535665  0.235980  1
  C  C14  1  0.750000  0.045879  0.256062  1
  C  C15  1  0.250000  0.954121  0.743938  1
  C  C16  1  0.250000  0.813760  0.040795  1
  C  C17  1  0.750000  0.186240  0.959205  1
  C  C18  1  0.750000  0.678466  0.549397  1
  C  C19  1  0.250000  0.321534  0.450603  1
