# generated using pymatgen
data_TiNb5(GaRh2)6
_symmetry_space_group_name_H-M   'P 1'
_cell_length_a   4.04911100
_cell_length_b   7.35765200
_cell_length_c   12.14300700
_cell_angle_alpha   90.00000000
_cell_angle_beta   90.00010850
_cell_angle_gamma   90.00000000
_symmetry_Int_Tables_number   1
_chemical_formula_structural   TiNb5(GaRh2)6
_chemical_formula_sum   'Ti1 Nb5 Ga6 Rh12'
_cell_volume   361.76385311
_cell_formula_units_Z   1
loop_
 _symmetry_equiv_pos_site_id
 _symmetry_equiv_pos_as_xyz
  1  'x, y, z'
loop_
 _atom_site_type_symbol
 _atom_site_label
 _atom_site_symmetry_multiplicity
 _atom_site_fract_x
 _atom_site_fract_y
 _atom_site_fract_z
 _atom_site_occupancy
  Ti  Ti0  1  0.499991  0.000000  0.833342  1
  Nb  Nb1  1  0.999997  0.500001  0.998345  1
  Nb  Nb2  1  0.500010  0.000000  0.165338  1
  Nb  Nb3  1  0.000004  0.500001  0.333319  1
  Nb  Nb4  1  0.500000  0.000000  0.501315  1
  Nb  Nb5  1  0.999995  0.500001  0.668332  1
  Ga  Ga6  1  0.000000  0.000000  0.997726  1
  Ga  Ga7  1  0.500007  0.500001  0.165881  1
  Ga  Ga8  1  0.000003  0.000000  0.333340  1
  Ga  Ga9  1  0.500002  0.500001  0.500791  1
  Ga  Ga10  1  0.999991  0.000000  0.668930  1
  Ga  Ga11  1  0.499992  0.500001  0.833331  1
  Rh  Rh12  1  0.500001  0.247737  0.999673  1
  Rh  Rh13  1  0.500001  0.752263  0.999673  1
  Rh  Rh14  1  0.000005  0.250306  0.166359  1
  Rh  Rh15  1  0.000005  0.749694  0.166359  1
  Rh  Rh16  1  0.500004  0.249645  0.333322  1
  Rh  Rh17  1  0.500004  0.750355  0.333322  1
  Rh  Rh18  1  0.000003  0.250340  0.500299  1
  Rh  Rh19  1  0.000003  0.749660  0.500299  1
  Rh  Rh20  1  0.499993  0.247715  0.667012  1
  Rh  Rh21  1  0.499993  0.752285  0.667012  1
  Rh  Rh22  1  0.999996  0.244575  0.833340  1
  Rh  Rh23  1  0.999996  0.755425  0.833340  1
