# generated using pymatgen
data_Ac5Zn2Ru3
_symmetry_space_group_name_H-M   'P 1'
_cell_length_a   8.86896441
_cell_length_b   8.86896338
_cell_length_c   8.86896400
_cell_angle_alpha   109.47121977
_cell_angle_beta   109.47121742
_cell_angle_gamma   109.47122620
_symmetry_Int_Tables_number   1
_chemical_formula_structural   Ac5Zn2Ru3
_chemical_formula_sum   'Ac10 Zn4 Ru6'
_cell_volume   537.02779875
_cell_formula_units_Z   2
loop_
 _symmetry_equiv_pos_site_id
 _symmetry_equiv_pos_as_xyz
  1  'x, y, z'
loop_
 _atom_site_type_symbol
 _atom_site_label
 _atom_site_symmetry_multiplicity
 _atom_site_fract_x
 _atom_site_fract_y
 _atom_site_fract_z
 _atom_site_occupancy
  Ac  Ac0  1  0.250000  0.690920  0.440921  1
  Ac  Ac1  1  0.750000  0.809080  0.059080  1
  Ac  Ac2  1  0.440921  0.250000  0.690920  1
  Ac  Ac3  1  0.690920  0.440921  0.250000  1
  Ac  Ac4  1  0.059080  0.750000  0.809080  1
  Ac  Ac5  1  0.809080  0.059080  0.750000  1
  Ac  Ac6  1  0.218093  0.218093  0.218093  1
  Ac  Ac7  1  0.500001  0.000000  0.281907  1
  Ac  Ac8  1  0.281907  0.500001  0.000000  1
  Ac  Ac9  1  0.000000  0.281907  0.500001  1
  Zn  Zn10  1  0.500001  0.000000  0.915065  1
  Zn  Zn11  1  0.584935  0.584935  0.584935  1
  Zn  Zn12  1  0.915065  0.500001  0.000000  1
  Zn  Zn13  1  0.000000  0.915065  0.500001  1
  Ru  Ru14  1  0.250001  0.123429  0.873429  1
  Ru  Ru15  1  0.750000  0.376570  0.626570  1
  Ru  Ru16  1  0.873429  0.250001  0.123429  1
  Ru  Ru17  1  0.123429  0.873429  0.250001  1
  Ru  Ru18  1  0.626570  0.750000  0.376570  1
  Ru  Ru19  1  0.376570  0.626570  0.750000  1
