# generated using pymatgen
data_Cr4Pt7RhO24
_symmetry_space_group_name_H-M   'P 1'
_cell_length_a   4.56133330
_cell_length_b   18.82836100
_cell_length_c   4.58795552
_cell_angle_alpha   90.00118124
_cell_angle_beta   89.95202470
_cell_angle_gamma   89.99996466
_symmetry_Int_Tables_number   1
_chemical_formula_structural   Cr4Pt7RhO24
_chemical_formula_sum   'Cr4 Pt7 Rh1 O24'
_cell_volume   394.02463053
_cell_formula_units_Z   1
loop_
 _symmetry_equiv_pos_site_id
 _symmetry_equiv_pos_as_xyz
  1  'x, y, z'
loop_
 _atom_site_type_symbol
 _atom_site_label
 _atom_site_symmetry_multiplicity
 _atom_site_fract_x
 _atom_site_fract_y
 _atom_site_fract_z
 _atom_site_occupancy
  Cr  Cr0  1  0.000015  0.499894  0.999998  1
  Cr  Cr1  1  0.499982  0.750043  0.500037  1
  Cr  Cr2  1  0.999984  0.000864  0.999995  1
  Cr  Cr3  1  0.500025  0.249487  0.499982  1
  Pt  Pt4  1  0.000050  0.666037  0.000027  1
  Pt  Pt5  1  0.499964  0.415985  0.499995  1
  Pt  Pt6  1  0.499914  0.916066  0.500010  1
  Pt  Pt7  1  0.500065  0.084233  0.499980  1
  Pt  Pt8  1  0.500061  0.583973  0.500003  1
  Pt  Pt9  1  0.999971  0.333387  0.999984  1
  Pt  Pt10  1  0.999914  0.834052  0.000016  1
  Rh  Rh11  1  0.000077  0.166041  0.999990  1
  O  O12  1  0.803506  0.249350  0.189830  1
  O  O13  1  0.802991  0.749997  0.189773  1
  O  O14  1  0.302918  0.000055  0.310234  1
  O  O15  1  0.303000  0.500003  0.310183  1
  O  O16  1  0.697028  0.499998  0.689805  1
  O  O17  1  0.697065  0.000049  0.689734  1
  O  O18  1  0.196547  0.249354  0.810144  1
  O  O19  1  0.196973  0.750003  0.810290  1
  O  O20  1  0.804245  0.418138  0.188268  1
  O  O21  1  0.804210  0.918384  0.188273  1
  O  O22  1  0.804646  0.082490  0.188587  1
  O  O23  1  0.804357  0.581704  0.188548  1
  O  O24  1  0.302866  0.168207  0.309491  1
  O  O25  1  0.304348  0.668303  0.311552  1
  O  O26  1  0.304476  0.331624  0.311982  1
  O  O27  1  0.303955  0.831711  0.311531  1
  O  O28  1  0.697373  0.168206  0.690398  1
  O  O29  1  0.695834  0.668305  0.688415  1
  O  O30  1  0.695363  0.331627  0.688090  1
  O  O31  1  0.695778  0.831715  0.688601  1
  O  O32  1  0.195581  0.418137  0.811615  1
  O  O33  1  0.195516  0.918381  0.811643  1
  O  O34  1  0.195546  0.082485  0.811441  1
  O  O35  1  0.195854  0.581706  0.811555  1
