# generated using pymatgen
data_Tb4Ho4Sc12Si15Os
_symmetry_space_group_name_H-M   'P 1'
_cell_length_a   7.09042958
_cell_length_b   7.44084454
_cell_length_c   13.96081531
_cell_angle_alpha   90.00646524
_cell_angle_beta   89.97656690
_cell_angle_gamma   90.18695228
_symmetry_Int_Tables_number   1
_chemical_formula_structural   Tb4Ho4Sc12Si15Os
_chemical_formula_sum   'Tb4 Ho4 Sc12 Si15 Os1'
_cell_volume   736.55165540
_cell_formula_units_Z   1
loop_
 _symmetry_equiv_pos_site_id
 _symmetry_equiv_pos_as_xyz
  1  'x, y, z'
loop_
 _atom_site_type_symbol
 _atom_site_label
 _atom_site_symmetry_multiplicity
 _atom_site_fract_x
 _atom_site_fract_y
 _atom_site_fract_z
 _atom_site_occupancy
  Tb  Tb0  1  0.511350  0.323477  0.095751  1
  Tb  Tb1  1  0.011270  0.178372  0.404180  1
  Tb  Tb2  1  0.511264  0.323605  0.403647  1
  Tb  Tb3  1  0.488413  0.675919  0.596095  1
  Ho  Ho4  1  0.011755  0.179001  0.096111  1
  Ho  Ho5  1  0.990561  0.827668  0.903408  1
  Ho  Ho6  1  0.487990  0.676837  0.903589  1
  Ho  Ho7  1  0.990498  0.827792  0.597104  1
  Sc  Sc8  1  0.155324  0.496128  0.750133  1
  Sc  Sc9  1  0.838604  0.495801  0.249800  1
  Sc  Sc10  1  0.339305  0.005404  0.249835  1
  Sc  Sc11  1  0.668816  0.998067  0.750121  1
  Sc  Sc12  1  0.317801  0.171694  0.627614  1
  Sc  Sc13  1  0.672355  0.825813  0.373756  1
  Sc  Sc14  1  0.171100  0.678354  0.374031  1
  Sc  Sc15  1  0.672105  0.825608  0.125852  1
  Sc  Sc16  1  0.836910  0.318919  0.627789  1
  Sc  Sc17  1  0.317500  0.171738  0.872678  1
  Sc  Sc18  1  0.837337  0.318386  0.872612  1
  Sc  Sc19  1  0.171261  0.678286  0.125682  1
  Si  Si20  1  0.969010  0.884955  0.249657  1
  Si  Si21  1  0.469299  0.615565  0.249796  1
  Si  Si22  1  0.529150  0.388763  0.750531  1
  Si  Si23  1  0.285528  0.866831  0.750453  1
  Si  Si24  1  0.714051  0.129776  0.249414  1
  Si  Si25  1  0.213294  0.371504  0.249537  1
  Si  Si26  1  0.778820  0.626542  0.750634  1
  Si  Si27  1  0.158512  0.469658  0.537373  1
  Si  Si28  1  0.845194  0.537292  0.461899  1
  Si  Si29  1  0.345589  0.965408  0.460136  1
  Si  Si30  1  0.845614  0.536298  0.038278  1
  Si  Si31  1  0.655614  0.033764  0.538517  1
  Si  Si32  1  0.159648  0.469318  0.962726  1
  Si  Si33  1  0.655282  0.032871  0.961325  1
  Si  Si34  1  0.344609  0.965229  0.039784  1
  Os  Os35  1  0.029265  0.109359  0.750151  1
