# generated using pymatgen
data_Dy2YCoSn3Pt2
_symmetry_space_group_name_H-M   'P 1'
_cell_length_a   7.63054443
_cell_length_b   7.63054459
_cell_length_c   3.76362800
_cell_angle_alpha   90.00000000
_cell_angle_beta   90.00000000
_cell_angle_gamma   120.13666303
_symmetry_Int_Tables_number   1
_chemical_formula_structural   Dy2YCoSn3Pt2
_chemical_formula_sum   'Dy2 Y1 Co1 Sn3 Pt2'
_cell_volume   189.51721407
_cell_formula_units_Z   1
loop_
 _symmetry_equiv_pos_site_id
 _symmetry_equiv_pos_as_xyz
  1  'x, y, z'
loop_
 _atom_site_type_symbol
 _atom_site_label
 _atom_site_symmetry_multiplicity
 _atom_site_fract_x
 _atom_site_fract_y
 _atom_site_fract_z
 _atom_site_occupancy
  Dy  Dy0  1  0.596905  0.999819  0.500000  1
  Dy  Dy1  1  0.999819  0.596905  0.500000  1
  Y  Y2  1  0.402672  0.402672  0.500000  1
  Co  Co3  1  0.999675  0.999675  0.500000  1
  Sn  Sn4  1  0.750131  0.750131  0.000000  1
  Sn  Sn5  1  0.249434  0.999756  0.000000  1
  Sn  Sn6  1  0.999756  0.249434  0.000000  1
  Pt  Pt7  1  0.668253  0.333355  0.000000  1
  Pt  Pt8  1  0.333355  0.668253  0.000000  1
