# generated using pymatgen
data_Pr7Nd(CdOs)2
_symmetry_space_group_name_H-M   'P 1'
_cell_length_a   10.01690949
_cell_length_b   10.01691060
_cell_length_c   10.03983200
_cell_angle_alpha   59.92427570
_cell_angle_beta   59.92427203
_cell_angle_gamma   59.84112301
_symmetry_Int_Tables_number   1
_chemical_formula_structural   Pr7Nd(CdOs)2
_chemical_formula_sum   'Pr14 Nd2 Cd4 Os4'
_cell_volume   710.65361275
_cell_formula_units_Z   2
loop_
 _symmetry_equiv_pos_site_id
 _symmetry_equiv_pos_as_xyz
  1  'x, y, z'
loop_
 _atom_site_type_symbol
 _atom_site_label
 _atom_site_symmetry_multiplicity
 _atom_site_fract_x
 _atom_site_fract_y
 _atom_site_fract_z
 _atom_site_occupancy
  Pr  Pr0  1  0.345423  0.962817  0.345880  1
  Pr  Pr1  1  0.962817  0.345423  0.345880  1
  Pr  Pr2  1  0.808719  0.191612  0.190408  1
  Pr  Pr3  1  0.191612  0.808719  0.809261  1
  Pr  Pr4  1  0.191612  0.808719  0.190408  1
  Pr  Pr5  1  0.808719  0.191612  0.809261  1
  Pr  Pr6  1  0.191425  0.191425  0.808575  1
  Pr  Pr7  1  0.809396  0.809396  0.190604  1
  Pr  Pr8  1  0.940744  0.559472  0.559077  1
  Pr  Pr9  1  0.559472  0.940744  0.940708  1
  Pr  Pr10  1  0.559472  0.940744  0.559077  1
  Pr  Pr11  1  0.940744  0.559472  0.940708  1
  Pr  Pr12  1  0.559629  0.559629  0.940371  1
  Pr  Pr13  1  0.941090  0.941090  0.558910  1
  Nd  Nd14  1  0.345146  0.345146  0.345697  1
  Nd  Nd15  1  0.345146  0.345146  0.964012  1
  Cd  Cd16  1  0.578860  0.578860  0.579554  1
  Cd  Cd17  1  0.578860  0.578860  0.262724  1
  Cd  Cd18  1  0.578651  0.262666  0.579341  1
  Cd  Cd19  1  0.262666  0.578651  0.579341  1
  Os  Os20  1  0.138233  0.138233  0.138000  1
  Os  Os21  1  0.138233  0.138233  0.585532  1
  Os  Os22  1  0.138498  0.584830  0.138335  1
  Os  Os23  1  0.584830  0.138498  0.138335  1
