# generated using pymatgen
data_Np3Ge3Ir2Pd
_symmetry_space_group_name_H-M   'P 1'
_cell_length_a   7.05673200
_cell_length_b   7.05673098
_cell_length_c   3.95453100
_cell_angle_alpha   90.00000000
_cell_angle_beta   90.00000000
_cell_angle_gamma   120.00000479
_symmetry_Int_Tables_number   1
_chemical_formula_structural   Np3Ge3Ir2Pd
_chemical_formula_sum   'Np3 Ge3 Ir2 Pd1'
_cell_volume   170.54256105
_cell_formula_units_Z   1
loop_
 _symmetry_equiv_pos_site_id
 _symmetry_equiv_pos_as_xyz
  1  'x, y, z'
loop_
 _atom_site_type_symbol
 _atom_site_label
 _atom_site_symmetry_multiplicity
 _atom_site_fract_x
 _atom_site_fract_y
 _atom_site_fract_z
 _atom_site_occupancy
  Np  Np0  1  0.000000  0.574617  0.500000  1
  Np  Np1  1  0.574617  0.000000  0.500000  1
  Np  Np2  1  0.425383  0.425383  0.500000  1
  Ge  Ge3  1  0.000000  0.251813  0.000000  1
  Ge  Ge4  1  0.748187  0.748187  0.000000  1
  Ge  Ge5  1  0.251813  0.000000  0.000000  1
  Ir  Ir6  1  0.333333  0.666667  0.000000  1
  Ir  Ir7  1  0.666667  0.333333  0.000000  1
  Pd  Pd8  1  0.000000  0.000000  0.500000  1
