# generated using pymatgen
data_Y12ErTh3(MgCo)4
_symmetry_space_group_name_H-M   'P 1'
_cell_length_a   9.65032818
_cell_length_b   9.67444673
_cell_length_c   9.67444700
_cell_angle_alpha   60.00000251
_cell_angle_beta   59.91729360
_cell_angle_gamma   59.91729723
_symmetry_Int_Tables_number   1
_chemical_formula_structural   Y12ErTh3(MgCo)4
_chemical_formula_sum   'Y12 Er1 Th3 Mg4 Co4'
_cell_volume   637.87465338
_cell_formula_units_Z   1
loop_
 _symmetry_equiv_pos_site_id
 _symmetry_equiv_pos_as_xyz
  1  'x, y, z'
loop_
 _atom_site_type_symbol
 _atom_site_label
 _atom_site_symmetry_multiplicity
 _atom_site_fract_x
 _atom_site_fract_y
 _atom_site_fract_z
 _atom_site_occupancy
  Y  Y0  1  0.813313  0.187331  0.187331  1
  Y  Y1  1  0.187527  0.813280  0.813280  1
  Y  Y2  1  0.187527  0.813280  0.185913  1
  Y  Y3  1  0.813313  0.187331  0.812025  1
  Y  Y4  1  0.187527  0.185913  0.813280  1
  Y  Y5  1  0.813313  0.812025  0.187331  1
  Y  Y6  1  0.935820  0.563969  0.563969  1
  Y  Y7  1  0.562839  0.936794  0.936794  1
  Y  Y8  1  0.562839  0.936794  0.563572  1
  Y  Y9  1  0.935820  0.563969  0.936241  1
  Y  Y10  1  0.562839  0.563572  0.936794  1
  Y  Y11  1  0.935820  0.936241  0.563969  1
  Er  Er12  1  0.963631  0.345456  0.345456  1
  Th  Th13  1  0.339520  0.345040  0.345040  1
  Th  Th14  1  0.339520  0.345040  0.970400  1
  Th  Th15  1  0.339520  0.970400  0.345040  1
  Mg  Mg16  1  0.580155  0.579274  0.579274  1
  Mg  Mg17  1  0.580155  0.579274  0.261297  1
  Mg  Mg18  1  0.580155  0.261297  0.579274  1
  Mg  Mg19  1  0.258319  0.580561  0.580561  1
  Co  Co20  1  0.151938  0.140517  0.140517  1
  Co  Co21  1  0.151938  0.140517  0.567027  1
  Co  Co22  1  0.151938  0.567027  0.140517  1
  Co  Co23  1  0.564710  0.145097  0.145097  1
