# generated using pymatgen
data_La17Yb(TmIr6)2
_symmetry_space_group_name_H-M   'P 1'
_cell_length_a   11.39077400
_cell_length_b   11.39077400
_cell_length_c   6.54908100
_cell_angle_alpha   90.00000000
_cell_angle_beta   90.00000000
_cell_angle_gamma   90.00000000
_symmetry_Int_Tables_number   1
_chemical_formula_structural   La17Yb(TmIr6)2
_chemical_formula_sum   'La17 Yb1 Tm2 Ir12'
_cell_volume   849.74150669
_cell_formula_units_Z   1
loop_
 _symmetry_equiv_pos_site_id
 _symmetry_equiv_pos_as_xyz
  1  'x, y, z'
loop_
 _atom_site_type_symbol
 _atom_site_label
 _atom_site_symmetry_multiplicity
 _atom_site_fract_x
 _atom_site_fract_y
 _atom_site_fract_z
 _atom_site_occupancy
  La  La0  1  0.286652  0.090103  0.393387  1
  La  La1  1  0.287545  0.911354  0.891524  1
  La  La2  1  0.712455  0.088646  0.891524  1
  La  La3  1  0.713348  0.909897  0.393387  1
  La  La4  1  0.588724  0.787029  0.893428  1
  La  La5  1  0.588733  0.208011  0.392486  1
  La  La6  1  0.411267  0.791989  0.392486  1
  La  La7  1  0.411276  0.212971  0.893428  1
  La  La8  1  0.208011  0.411267  0.607514  1
  La  La9  1  0.212971  0.588724  0.106572  1
  La  La10  1  0.787029  0.411276  0.106572  1
  La  La11  1  0.791989  0.588733  0.607514  1
  La  La12  1  0.911354  0.712455  0.108476  1
  La  La13  1  0.909897  0.286652  0.606613  1
  La  La14  1  0.090103  0.713348  0.606613  1
  La  La15  1  0.088646  0.287545  0.108476  1
  La  La16  1  0.500000  0.500000  0.500000  1
  Yb  Yb17  1  0.500000  0.500000  0.000000  1
  Tm  Tm18  1  0.000000  0.000000  0.500000  1
  Tm  Tm19  1  0.000000  0.000000  0.000000  1
  Ir  Ir20  1  0.853744  0.146063  0.248781  1
  Ir  Ir21  1  0.853937  0.853744  0.751219  1
  Ir  Ir22  1  0.146063  0.146256  0.751219  1
  Ir  Ir23  1  0.146256  0.853937  0.248781  1
  Ir  Ir24  1  0.656443  0.345994  0.744727  1
  Ir  Ir25  1  0.654006  0.656443  0.255273  1
  Ir  Ir26  1  0.345994  0.343557  0.255273  1
  Ir  Ir27  1  0.343557  0.654006  0.744727  1
  Ir  Ir28  1  0.500000  0.000000  0.120349  1
  Ir  Ir29  1  0.500000  0.000000  0.623906  1
  Ir  Ir30  1  0.000000  0.500000  0.879651  1
  Ir  Ir31  1  0.000000  0.500000  0.376094  1
