# generated using pymatgen
data_Y3Ho2(In2Pd)2
_symmetry_space_group_name_H-M   'P 1'
_cell_length_a   3.63887600
_cell_length_b   8.16713600
_cell_length_c   18.28695700
_cell_angle_alpha   90.00000000
_cell_angle_beta   90.00000000
_cell_angle_gamma   90.00000000
_symmetry_Int_Tables_number   1
_chemical_formula_structural   Y3Ho2(In2Pd)2
_chemical_formula_sum   'Y6 Ho4 In8 Pd4'
_cell_volume   543.47364432
_cell_formula_units_Z   2
loop_
 _symmetry_equiv_pos_site_id
 _symmetry_equiv_pos_as_xyz
  1  'x, y, z'
loop_
 _atom_site_type_symbol
 _atom_site_label
 _atom_site_symmetry_multiplicity
 _atom_site_fract_x
 _atom_site_fract_y
 _atom_site_fract_z
 _atom_site_occupancy
  Y  Y0  1  0.000000  0.500000  0.500000  1
  Y  Y1  1  0.000000  0.000000  0.000000  1
  Y  Y2  1  0.000000  0.738890  0.281186  1
  Y  Y3  1  0.000000  0.261110  0.718814  1
  Y  Y4  1  0.000000  0.761110  0.781186  1
  Y  Y5  1  0.000000  0.238890  0.218814  1
  Ho  Ho6  1  0.000000  0.617036  0.083334  1
  Ho  Ho7  1  0.000000  0.382964  0.916666  1
  Ho  Ho8  1  0.000000  0.882964  0.583334  1
  Ho  Ho9  1  0.000000  0.117036  0.416666  1
  In  In10  1  0.500000  0.708087  0.932612  1
  In  In11  1  0.500000  0.291913  0.067388  1
  In  In12  1  0.500000  0.791913  0.432612  1
  In  In13  1  0.500000  0.208087  0.567388  1
  In  In14  1  0.500000  0.581356  0.650156  1
  In  In15  1  0.500000  0.418644  0.349844  1
  In  In16  1  0.500000  0.918644  0.150156  1
  In  In17  1  0.500000  0.081356  0.849844  1
  Pd  Pd18  1  0.500000  0.523991  0.194958  1
  Pd  Pd19  1  0.500000  0.476009  0.805042  1
  Pd  Pd20  1  0.500000  0.976009  0.694958  1
  Pd  Pd21  1  0.500000  0.023991  0.305042  1
