# generated using pymatgen
data_CeDyAl5Ga4Ir3
_symmetry_space_group_name_H-M   'P 1'
_cell_length_a   7.53491029
_cell_length_b   7.53350617
_cell_length_c   9.55049800
_cell_angle_alpha   90.10892546
_cell_angle_beta   89.84865656
_cell_angle_gamma   119.68033563
_symmetry_Int_Tables_number   1
_chemical_formula_structural   CeDyAl5Ga4Ir3
_chemical_formula_sum   'Ce2 Dy2 Al10 Ga8 Ir6'
_cell_volume   470.99923540
_cell_formula_units_Z   2
loop_
 _symmetry_equiv_pos_site_id
 _symmetry_equiv_pos_as_xyz
  1  'x, y, z'
loop_
 _atom_site_type_symbol
 _atom_site_label
 _atom_site_symmetry_multiplicity
 _atom_site_fract_x
 _atom_site_fract_y
 _atom_site_fract_z
 _atom_site_occupancy
  Ce  Ce0  1  0.670997  0.998130  0.248871  1
  Ce  Ce1  1  0.329003  0.001870  0.751129  1
  Dy  Dy2  1  0.996887  0.667525  0.245442  1
  Dy  Dy3  1  0.003113  0.332475  0.754558  1
  Al  Al4  1  0.996342  0.663715  0.570718  1
  Al  Al5  1  0.332937  0.000371  0.426146  1
  Al  Al6  1  0.003658  0.336285  0.429282  1
  Al  Al7  1  0.667063  0.999629  0.573854  1
  Al  Al8  1  0.665706  0.997145  0.925356  1
  Al  Al9  1  0.334294  0.002855  0.074644  1
  Al  Al10  1  0.333522  0.334800  0.557197  1
  Al  Al11  1  0.666478  0.665200  0.442803  1
  Al  Al12  1  0.666819  0.664885  0.055266  1
  Al  Al13  1  0.333181  0.335115  0.944734  1
  Ga  Ga14  1  0.130828  0.126384  0.250612  1
  Ga  Ga15  1  0.869172  0.873616  0.749388  1
  Ga  Ga16  1  0.001207  0.335397  0.079901  1
  Ga  Ga17  1  0.998793  0.664603  0.920099  1
  Ga  Ga18  1  0.340887  0.547542  0.250924  1
  Ga  Ga19  1  0.659113  0.452458  0.749076  1
  Ga  Ga20  1  0.546791  0.341310  0.249900  1
  Ga  Ga21  1  0.453209  0.658690  0.750100  1
  Ir  Ir22  1  0.667013  0.326126  0.999174  1
  Ir  Ir23  1  0.332987  0.673874  0.000826  1
  Ir  Ir24  1  0.328218  0.671352  0.500938  1
  Ir  Ir25  1  0.671782  0.328648  0.499062  1
  Ir  Ir26  1  0.000000  0.000000  0.000000  1
  Ir  Ir27  1  0.000000  0.000000  0.500000  1
