# generated using pymatgen
data_CsH9Ru
_symmetry_space_group_name_H-M   'P 1'
_cell_length_a   10.60527700
_cell_length_b   5.64620321
_cell_length_c   5.70776134
_cell_angle_alpha   66.36206026
_cell_angle_beta   90.00000000
_cell_angle_gamma   90.00000000
_symmetry_Int_Tables_number   1
_chemical_formula_structural   CsH9Ru
_chemical_formula_sum   'Cs2 H18 Ru2'
_cell_volume   313.10210722
_cell_formula_units_Z   2
loop_
 _symmetry_equiv_pos_site_id
 _symmetry_equiv_pos_as_xyz
  1  'x, y, z'
loop_
 _atom_site_type_symbol
 _atom_site_label
 _atom_site_symmetry_multiplicity
 _atom_site_fract_x
 _atom_site_fract_y
 _atom_site_fract_z
 _atom_site_occupancy
  Cs  Cs0  1  0.500000  0.000000  0.000000  1
  Cs  Cs1  1  0.000000  0.000000  0.000000  1
  H  H2  1  0.250000  0.704520  0.874376  1
  H  H3  1  0.750000  0.295480  0.125624  1
  H  H4  1  0.250000  0.348010  0.809515  1
  H  H5  1  0.750000  0.651990  0.190485  1
  H  H6  1  0.250000  0.811620  0.303342  1
  H  H7  1  0.750000  0.188380  0.696658  1
  H  H8  1  0.341227  0.516586  0.469916  1
  H  H9  1  0.841227  0.483414  0.530084  1
  H  H10  1  0.658773  0.483414  0.530084  1
  H  H11  1  0.158773  0.516586  0.469916  1
  H  H12  1  0.340861  0.907255  0.529614  1
  H  H13  1  0.840861  0.092745  0.470386  1
  H  H14  1  0.659139  0.092745  0.470386  1
  H  H15  1  0.159139  0.907255  0.529614  1
  H  H16  1  0.387226  0.582203  0.743729  1
  H  H17  1  0.887226  0.417797  0.256271  1
  H  H18  1  0.612774  0.417797  0.256271  1
  H  H19  1  0.112774  0.582203  0.743729  1
  Ru  Ru20  1  0.250000  0.652823  0.610603  1
  Ru  Ru21  1  0.750000  0.347177  0.389397  1
