# generated using pymatgen
data_Dy7HoSc12GaSi15
_symmetry_space_group_name_H-M   'P 1'
_cell_length_a   7.10341831
_cell_length_b   7.39628872
_cell_length_c   14.02897710
_cell_angle_alpha   89.95040117
_cell_angle_beta   89.98524088
_cell_angle_gamma   90.01961197
_symmetry_Int_Tables_number   1
_chemical_formula_structural   Dy7HoSc12GaSi15
_chemical_formula_sum   'Dy7 Ho1 Sc12 Ga1 Si15'
_cell_volume   737.06713985
_cell_formula_units_Z   1
loop_
 _symmetry_equiv_pos_site_id
 _symmetry_equiv_pos_as_xyz
  1  'x, y, z'
loop_
 _atom_site_type_symbol
 _atom_site_label
 _atom_site_symmetry_multiplicity
 _atom_site_fract_x
 _atom_site_fract_y
 _atom_site_fract_z
 _atom_site_occupancy
  Dy  Dy0  1  0.011812  0.175381  0.096982  1
  Dy  Dy1  1  0.988080  0.824854  0.903540  1
  Dy  Dy2  1  0.487744  0.676288  0.903513  1
  Dy  Dy3  1  0.987555  0.826503  0.597546  1
  Dy  Dy4  1  0.512064  0.323941  0.096813  1
  Dy  Dy5  1  0.010865  0.173949  0.401615  1
  Dy  Dy6  1  0.512861  0.323361  0.401542  1
  Ho  Ho7  1  0.489932  0.678720  0.597773  1
  Sc  Sc8  1  0.161117  0.502575  0.751634  1
  Sc  Sc9  1  0.839073  0.497774  0.249800  1
  Sc  Sc10  1  0.338859  0.002297  0.249585  1
  Sc  Sc11  1  0.661527  0.996807  0.750164  1
  Sc  Sc12  1  0.332844  0.173723  0.626299  1
  Sc  Sc13  1  0.668163  0.823945  0.374220  1
  Sc  Sc14  1  0.169789  0.677373  0.373289  1
  Sc  Sc15  1  0.669522  0.823658  0.125265  1
  Sc  Sc16  1  0.828442  0.323485  0.625671  1
  Sc  Sc17  1  0.330304  0.175846  0.874906  1
  Sc  Sc18  1  0.830416  0.323065  0.874905  1
  Sc  Sc19  1  0.169061  0.676801  0.125408  1
  Ga  Ga20  1  0.160812  0.462427  0.539275  1
  Si  Si21  1  0.033819  0.117839  0.750760  1
  Si  Si22  1  0.966223  0.883266  0.249576  1
  Si  Si23  1  0.467410  0.616019  0.249828  1
  Si  Si24  1  0.532279  0.385111  0.749768  1
  Si  Si25  1  0.284818  0.872911  0.750319  1
  Si  Si26  1  0.714408  0.126904  0.249375  1
  Si  Si27  1  0.214266  0.372692  0.249376  1
  Si  Si28  1  0.785552  0.626989  0.750707  1
  Si  Si29  1  0.841473  0.536176  0.460500  1
  Si  Si30  1  0.341871  0.963976  0.460315  1
  Si  Si31  1  0.842310  0.535510  0.038683  1
  Si  Si32  1  0.657295  0.035574  0.539026  1
  Si  Si33  1  0.157587  0.464164  0.961739  1
  Si  Si34  1  0.657247  0.035399  0.960712  1
  Si  Si35  1  0.342595  0.964696  0.039569  1
