# generated using pymatgen
data_Y8In4CuPd7
_symmetry_space_group_name_H-M   'P 1'
_cell_length_a   7.78319633
_cell_length_b   7.78319637
_cell_length_c   7.49627400
_cell_angle_alpha   90.01662956
_cell_angle_beta   90.01662220
_cell_angle_gamma   89.75348082
_symmetry_Int_Tables_number   1
_chemical_formula_structural   Y8In4CuPd7
_chemical_formula_sum   'Y8 In4 Cu1 Pd7'
_cell_volume   454.10613482
_cell_formula_units_Z   1
loop_
 _symmetry_equiv_pos_site_id
 _symmetry_equiv_pos_as_xyz
  1  'x, y, z'
loop_
 _atom_site_type_symbol
 _atom_site_label
 _atom_site_symmetry_multiplicity
 _atom_site_fract_x
 _atom_site_fract_y
 _atom_site_fract_z
 _atom_site_occupancy
  Y  Y0  1  0.824645  0.171754  0.502052  1
  Y  Y1  1  0.171754  0.824645  0.502052  1
  Y  Y2  1  0.328107  0.328107  0.999137  1
  Y  Y3  1  0.674205  0.674205  0.999995  1
  Y  Y4  1  0.673337  0.673337  0.500064  1
  Y  Y5  1  0.328763  0.328763  0.500809  1
  Y  Y6  1  0.170714  0.825154  0.997910  1
  Y  Y7  1  0.825154  0.170714  0.997910  1
  In  In8  1  0.497632  0.000242  0.250031  1
  In  In9  1  0.999809  0.497408  0.750060  1
  In  In10  1  0.497408  0.999809  0.750060  1
  In  In11  1  0.000242  0.497632  0.250031  1
  Cu  Cu12  1  0.122687  0.122687  0.250539  1
  Pd  Pd13  1  0.628234  0.373757  0.249173  1
  Pd  Pd14  1  0.373757  0.628234  0.249173  1
  Pd  Pd15  1  0.127531  0.127531  0.749293  1
  Pd  Pd16  1  0.873085  0.873085  0.748986  1
  Pd  Pd17  1  0.374169  0.627509  0.750837  1
  Pd  Pd18  1  0.627509  0.374169  0.750837  1
  Pd  Pd19  1  0.881259  0.881259  0.251048  1
