# generated using pymatgen
data_Ho5Lu2Co6Sn22Hg
_symmetry_space_group_name_H-M   'P 1'
_cell_length_a   9.63703122
_cell_length_b   9.63816944
_cell_length_c   9.97602627
_cell_angle_alpha   90.00000354
_cell_angle_beta   90.02329424
_cell_angle_gamma   120.00390642
_symmetry_Int_Tables_number   1
_chemical_formula_structural   Ho5Lu2Co6Sn22Hg
_chemical_formula_sum   'Ho5 Lu2 Co6 Sn22 Hg1'
_cell_volume   802.43321017
_cell_formula_units_Z   1
loop_
 _symmetry_equiv_pos_site_id
 _symmetry_equiv_pos_as_xyz
  1  'x, y, z'
loop_
 _atom_site_type_symbol
 _atom_site_label
 _atom_site_symmetry_multiplicity
 _atom_site_fract_x
 _atom_site_fract_y
 _atom_site_fract_z
 _atom_site_occupancy
  Ho  Ho0  1  0.000038  0.000019  0.999891  1
  Ho  Ho1  1  0.958589  0.479294  0.693615  1
  Ho  Ho2  1  0.041503  0.520753  0.306438  1
  Ho  Ho3  1  0.479271  0.958516  0.306651  1
  Ho  Ho4  1  0.479271  0.520757  0.306651  1
  Lu  Lu5  1  0.520322  0.479700  0.693611  1
  Lu  Lu6  1  0.520322  0.040619  0.693611  1
  Co  Co7  1  0.168712  0.832158  0.802759  1
  Co  Co8  1  0.168712  0.336555  0.802759  1
  Co  Co9  1  0.663220  0.831611  0.802613  1
  Co  Co10  1  0.336357  0.168178  0.197054  1
  Co  Co11  1  0.831797  0.663571  0.197012  1
  Co  Co12  1  0.831797  0.168225  0.197012  1
  Sn  Sn13  1  0.666601  0.333300  0.181638  1
  Sn  Sn14  1  0.665654  0.332826  0.878341  1
  Sn  Sn15  1  0.333364  0.666683  0.120453  1
  Sn  Sn16  1  0.346600  0.346585  0.999771  1
  Sn  Sn17  1  0.000131  0.653637  0.999972  1
  Sn  Sn18  1  0.653310  0.999782  0.999778  1
  Sn  Sn19  1  0.653310  0.653528  0.999778  1
  Sn  Sn20  1  0.333736  0.666869  0.818346  1
  Sn  Sn21  1  0.435194  0.217597  0.454376  1
  Sn  Sn22  1  0.218350  0.783141  0.546739  1
  Sn  Sn23  1  0.218350  0.435209  0.546739  1
  Sn  Sn24  1  0.564798  0.782399  0.547108  1
  Sn  Sn25  1  0.116980  0.883059  0.269922  1
  Sn  Sn26  1  0.782112  0.564863  0.454038  1
  Sn  Sn27  1  0.782112  0.217249  0.454038  1
  Sn  Sn28  1  0.346600  0.000015  0.999771  1
  Sn  Sn29  1  0.116980  0.233920  0.269922  1
  Sn  Sn30  1  0.766092  0.883045  0.269881  1
  Sn  Sn31  1  0.234878  0.117439  0.729818  1
  Sn  Sn32  1  0.882406  0.765703  0.729903  1
  Sn  Sn33  1  0.882406  0.116703  0.729903  1
  Sn  Sn34  1  0.000131  0.346495  0.999972  1
  Hg  Hg35  1  0.999996  0.999998  0.500115  1
