# generated using pymatgen
data_CaCd3Os3PdO14
_symmetry_space_group_name_H-M   'P 1'
_cell_length_a   7.29857392
_cell_length_b   7.22508479
_cell_length_c   7.22508474
_cell_angle_alpha   60.89437949
_cell_angle_beta   61.00693845
_cell_angle_gamma   61.00693918
_symmetry_Int_Tables_number   1
_chemical_formula_structural   CaCd3Os3PdO14
_chemical_formula_sum   'Ca1 Cd3 Os3 Pd1 O14'
_cell_volume   275.29033065
_cell_formula_units_Z   1
loop_
 _symmetry_equiv_pos_site_id
 _symmetry_equiv_pos_as_xyz
  1  'x, y, z'
loop_
 _atom_site_type_symbol
 _atom_site_label
 _atom_site_symmetry_multiplicity
 _atom_site_fract_x
 _atom_site_fract_y
 _atom_site_fract_z
 _atom_site_occupancy
  Ca  Ca0  1  0.625000  0.125000  0.125000  1
  Cd  Cd1  1  0.125000  0.125000  0.125000  1
  Cd  Cd2  1  0.125000  0.625000  0.125000  1
  Cd  Cd3  1  0.125000  0.125000  0.625000  1
  Os  Os4  1  0.125000  0.625000  0.625000  1
  Os  Os5  1  0.625000  0.125000  0.625000  1
  Os  Os6  1  0.625000  0.625000  0.125000  1
  Pd  Pd7  1  0.625000  0.625000  0.625000  1
  O  O8  1  0.236498  0.252231  0.252231  1
  O  O9  1  0.013502  0.997769  0.997769  1
  O  O10  1  0.542272  0.969540  0.541589  1
  O  O11  1  0.318533  0.699636  0.317361  1
  O  O12  1  0.542272  0.541589  0.969540  1
  O  O13  1  0.969538  0.542074  0.542074  1
  O  O14  1  0.549031  0.936535  0.936535  1
  O  O15  1  0.931467  0.932639  0.550364  1
  O  O16  1  0.931467  0.550364  0.932639  1
  O  O17  1  0.700969  0.313465  0.313465  1
  O  O18  1  0.280462  0.707926  0.707926  1
  O  O19  1  0.707728  0.280460  0.708411  1
  O  O20  1  0.318533  0.317361  0.699636  1
  O  O21  1  0.707728  0.708411  0.280460  1
