# generated using pymatgen
data_Zn2FeP6IN12
_symmetry_space_group_name_H-M   'P 1'
_cell_length_a   7.23981309
_cell_length_b   7.25858667
_cell_length_c   7.23981238
_cell_angle_alpha   109.51020496
_cell_angle_beta   109.48347211
_cell_angle_gamma   109.51018346
_symmetry_Int_Tables_number   1
_chemical_formula_structural   Zn2FeP6IN12
_chemical_formula_sum   'Zn2 Fe1 P6 I1 N12'
_cell_volume   292.55022076
_cell_formula_units_Z   1
loop_
 _symmetry_equiv_pos_site_id
 _symmetry_equiv_pos_as_xyz
  1  'x, y, z'
loop_
 _atom_site_type_symbol
 _atom_site_label
 _atom_site_symmetry_multiplicity
 _atom_site_fract_x
 _atom_site_fract_y
 _atom_site_fract_z
 _atom_site_occupancy
  Zn  Zn0  1  0.000536  0.998692  0.378782  1
  Zn  Zn1  1  0.378782  0.998692  0.000536  1
  Fe  Fe2  1  0.002298  0.384730  0.002298  1
  P  P3  1  0.497431  0.254141  0.749823  1
  P  P4  1  0.256778  0.749486  0.499998  1
  P  P5  1  0.745566  0.497551  0.253564  1
  P  P6  1  0.749823  0.254141  0.497431  1
  P  P7  1  0.499998  0.749486  0.256778  1
  P  P8  1  0.253564  0.497551  0.745566  1
  I  I9  1  0.990085  0.000305  0.990085  1
  N  N10  1  0.432269  0.706570  0.432269  1
  N  N11  1  0.719506  0.437887  0.438586  1
  N  N12  1  0.438586  0.437887  0.719506  1
  N  N13  1  0.727481  0.285508  0.727481  1
  N  N14  1  0.998708  0.561382  0.272351  1
  N  N15  1  0.272351  0.561382  0.998708  1
  N  N16  1  0.278367  0.998862  0.558545  1
  N  N17  1  0.999401  0.272707  0.562350  1
  N  N18  1  0.720771  0.720734  0.276799  1
  N  N19  1  0.558545  0.998862  0.278367  1
  N  N20  1  0.276799  0.720734  0.720771  1
  N  N21  1  0.562350  0.272707  0.999401  1
