# generated using pymatgen
data_Yb2Y(BPt2)3
_symmetry_space_group_name_H-M   'P 1'
_cell_length_a   5.43938744
_cell_length_b   5.43938795
_cell_length_c   7.66731600
_cell_angle_alpha   90.00000000
_cell_angle_beta   90.00000000
_cell_angle_gamma   120.08350741
_symmetry_Int_Tables_number   1
_chemical_formula_structural   Yb2Y(BPt2)3
_chemical_formula_sum   'Yb2 Y1 B3 Pt6'
_cell_volume   196.29442261
_cell_formula_units_Z   1
loop_
 _symmetry_equiv_pos_site_id
 _symmetry_equiv_pos_as_xyz
  1  'x, y, z'
loop_
 _atom_site_type_symbol
 _atom_site_label
 _atom_site_symmetry_multiplicity
 _atom_site_fract_x
 _atom_site_fract_y
 _atom_site_fract_z
 _atom_site_occupancy
  Yb  Yb0  1  0.000000  0.500000  0.669386  1
  Yb  Yb1  1  0.500000  0.000000  0.997281  1
  Y  Y2  1  0.500000  0.500000  0.333333  1
  B  B3  1  0.000000  0.500000  0.164000  1
  B  B4  1  0.500000  0.500000  0.833333  1
  B  B5  1  0.500000  0.000000  0.502667  1
  Pt  Pt6  1  0.294307  0.150349  0.665786  1
  Pt  Pt7  1  0.150062  0.849938  0.333333  1
  Pt  Pt8  1  0.849651  0.705693  0.000881  1
  Pt  Pt9  1  0.849938  0.150062  0.333333  1
  Pt  Pt10  1  0.150349  0.294307  0.000881  1
  Pt  Pt11  1  0.705693  0.849651  0.665786  1
