# generated using pymatgen
data_HoTm19(Cd3Ru)2
_symmetry_space_group_name_H-M   'P 1'
_cell_length_a   9.46160600
_cell_length_b   9.46162401
_cell_length_c   9.74031800
_cell_angle_alpha   90.00000000
_cell_angle_beta   90.00000000
_cell_angle_gamma   120.00083267
_symmetry_Int_Tables_number   1
_chemical_formula_structural   HoTm19(Cd3Ru)2
_chemical_formula_sum   'Ho1 Tm19 Cd6 Ru2'
_cell_volume   755.14555188
_cell_formula_units_Z   1
loop_
 _symmetry_equiv_pos_site_id
 _symmetry_equiv_pos_as_xyz
  1  'x, y, z'
loop_
 _atom_site_type_symbol
 _atom_site_label
 _atom_site_symmetry_multiplicity
 _atom_site_fract_x
 _atom_site_fract_y
 _atom_site_fract_z
 _atom_site_occupancy
  Ho  Ho0  1  0.541056  0.458943  0.250000  1
  Tm  Tm1  1  0.000003  0.999996  0.499982  1
  Tm  Tm2  1  0.000003  0.999996  0.000018  1
  Tm  Tm3  1  0.209937  0.790066  0.440819  1
  Tm  Tm4  1  0.209725  0.419868  0.440894  1
  Tm  Tm5  1  0.580132  0.790276  0.440895  1
  Tm  Tm6  1  0.790103  0.209897  0.559182  1
  Tm  Tm7  1  0.790195  0.580173  0.559296  1
  Tm  Tm8  1  0.419826  0.209804  0.559295  1
  Tm  Tm9  1  0.790103  0.209897  0.940818  1
  Tm  Tm10  1  0.790195  0.580173  0.940704  1
  Tm  Tm11  1  0.419826  0.209804  0.940705  1
  Tm  Tm12  1  0.209937  0.790066  0.059181  1
  Tm  Tm13  1  0.209725  0.419868  0.059106  1
  Tm  Tm14  1  0.580132  0.790276  0.059105  1
  Tm  Tm15  1  0.541049  0.081835  0.250000  1
  Tm  Tm16  1  0.918165  0.458949  0.250000  1
  Tm  Tm17  1  0.458992  0.541007  0.750000  1
  Tm  Tm18  1  0.458966  0.917949  0.750000  1
  Tm  Tm19  1  0.082050  0.541033  0.750000  1
  Cd  Cd20  1  0.885522  0.114478  0.250000  1
  Cd  Cd21  1  0.885824  0.771343  0.250000  1
  Cd  Cd22  1  0.228658  0.114177  0.250000  1
  Cd  Cd23  1  0.114472  0.885528  0.750000  1
  Cd  Cd24  1  0.114411  0.228900  0.750000  1
  Cd  Cd25  1  0.771100  0.885589  0.750000  1
  Ru  Ru26  1  0.333283  0.666716  0.250000  1
  Ru  Ru27  1  0.666609  0.333391  0.750000  1
