# generated using pymatgen
data_Er8Ga12CoAg3
_symmetry_space_group_name_H-M   'P 1'
_cell_length_a   6.96619300
_cell_length_b   8.93036306
_cell_length_c   8.93036300
_cell_angle_alpha   120.00000349
_cell_angle_beta   90.00000000
_cell_angle_gamma   90.00000000
_symmetry_Int_Tables_number   1
_chemical_formula_structural   Er8Ga12CoAg3
_chemical_formula_sum   'Er8 Ga12 Co1 Ag3'
_cell_volume   481.13211493
_cell_formula_units_Z   1
loop_
 _symmetry_equiv_pos_site_id
 _symmetry_equiv_pos_as_xyz
  1  'x, y, z'
loop_
 _atom_site_type_symbol
 _atom_site_label
 _atom_site_symmetry_multiplicity
 _atom_site_fract_x
 _atom_site_fract_y
 _atom_site_fract_z
 _atom_site_occupancy
  Er  Er0  1  0.740889  0.000000  0.000000  1
  Er  Er1  1  0.248265  0.000000  0.000000  1
  Er  Er2  1  0.749778  0.486591  0.513409  1
  Er  Er3  1  0.259426  0.524206  0.475794  1
  Er  Er4  1  0.749778  0.026817  0.513409  1
  Er  Er5  1  0.259426  0.951589  0.475794  1
  Er  Er6  1  0.749778  0.486591  0.973183  1
  Er  Er7  1  0.259426  0.524206  0.048411  1
  Ga  Ga8  1  0.959765  0.836090  0.163910  1
  Ga  Ga9  1  0.042404  0.165861  0.834139  1
  Ga  Ga10  1  0.959765  0.327821  0.163910  1
  Ga  Ga11  1  0.460075  0.164337  0.835663  1
  Ga  Ga12  1  0.042404  0.668277  0.834139  1
  Ga  Ga13  1  0.546273  0.825967  0.174033  1
  Ga  Ga14  1  0.959765  0.836090  0.672179  1
  Ga  Ga15  1  0.460075  0.671325  0.835663  1
  Ga  Ga16  1  0.042404  0.165861  0.331723  1
  Ga  Ga17  1  0.546273  0.348068  0.174033  1
  Ga  Ga18  1  0.460075  0.164337  0.328675  1
  Ga  Ga19  1  0.546273  0.825967  0.651932  1
  Co  Co20  1  0.512804  0.666667  0.333333  1
  Ag  Ag21  1  0.942588  0.666667  0.333333  1
  Ag  Ag22  1  0.040344  0.333333  0.666667  1
  Ag  Ag23  1  0.461951  0.333333  0.666667  1
