# generated using pymatgen
data_Dy5Ti3(Co4As3)4
_symmetry_space_group_name_H-M   'P 1'
_cell_length_a   12.56818300
_cell_length_b   12.56818396
_cell_length_c   3.79926000
_cell_angle_alpha   90.00000000
_cell_angle_beta   90.00000000
_cell_angle_gamma   120.00000537
_symmetry_Int_Tables_number   1
_chemical_formula_structural   Dy5Ti3(Co4As3)4
_chemical_formula_sum   'Dy5 Ti3 Co16 As12'
_cell_volume   519.72624460
_cell_formula_units_Z   1
loop_
 _symmetry_equiv_pos_site_id
 _symmetry_equiv_pos_as_xyz
  1  'x, y, z'
loop_
 _atom_site_type_symbol
 _atom_site_label
 _atom_site_symmetry_multiplicity
 _atom_site_fract_x
 _atom_site_fract_y
 _atom_site_fract_z
 _atom_site_occupancy
  Dy  Dy0  1  0.185917  0.185917  0.500000  1
  Dy  Dy1  1  0.814083  0.000000  0.500000  1
  Dy  Dy2  1  0.000000  0.814083  0.500000  1
  Dy  Dy3  1  0.333333  0.666667  0.000000  1
  Dy  Dy4  1  0.666667  0.333333  0.000000  1
  Ti  Ti5  1  0.563963  0.563963  0.000000  1
  Ti  Ti6  1  0.436037  0.000000  0.000000  1
  Ti  Ti7  1  0.000000  0.436037  0.000000  1
  Co  Co8  1  0.716478  0.716478  0.500000  1
  Co  Co9  1  0.283522  0.000000  0.500000  1
  Co  Co10  1  0.000000  0.283522  0.500000  1
  Co  Co11  1  0.177169  0.376159  0.000000  1
  Co  Co12  1  0.623841  0.801010  0.000000  1
  Co  Co13  1  0.198990  0.822831  0.000000  1
  Co  Co14  1  0.801010  0.623841  0.000000  1
  Co  Co15  1  0.822831  0.198990  0.000000  1
  Co  Co16  1  0.376159  0.177169  0.000000  1
  Co  Co17  1  0.355863  0.479631  0.500000  1
  Co  Co18  1  0.520369  0.876232  0.500000  1
  Co  Co19  1  0.123768  0.644137  0.500000  1
  Co  Co20  1  0.876232  0.520369  0.500000  1
  Co  Co21  1  0.644137  0.123768  0.500000  1
  Co  Co22  1  0.479631  0.355863  0.500000  1
  Co  Co23  1  0.000000  0.000000  0.000000  1
  As  As24  1  0.821676  0.821676  0.000000  1
  As  As25  1  0.178324  0.000000  0.000000  1
  As  As26  1  0.000000  0.178324  0.000000  1
  As  As27  1  0.168813  0.483158  0.500000  1
  As  As28  1  0.516842  0.685656  0.500000  1
  As  As29  1  0.314344  0.831187  0.500000  1
  As  As30  1  0.685656  0.516842  0.500000  1
  As  As31  1  0.831187  0.314344  0.500000  1
  As  As32  1  0.483158  0.168813  0.500000  1
  As  As33  1  0.359590  0.359590  0.000000  1
  As  As34  1  0.640410  0.000000  0.000000  1
  As  As35  1  0.000000  0.640410  0.000000  1
