# generated using pymatgen
data_Dy5Ho3Re3B24Rh
_symmetry_space_group_name_H-M   'P 1'
_cell_length_a   3.67793800
_cell_length_b   9.15775999
_cell_length_c   11.53958500
_cell_angle_alpha   90.16301265
_cell_angle_beta   90.00000000
_cell_angle_gamma   90.00000000
_symmetry_Int_Tables_number   1
_chemical_formula_structural   Dy5Ho3Re3B24Rh
_chemical_formula_sum   'Dy5 Ho3 Re3 B24 Rh1'
_cell_volume   388.67096058
_cell_formula_units_Z   1
loop_
 _symmetry_equiv_pos_site_id
 _symmetry_equiv_pos_as_xyz
  1  'x, y, z'
loop_
 _atom_site_type_symbol
 _atom_site_label
 _atom_site_symmetry_multiplicity
 _atom_site_fract_x
 _atom_site_fract_y
 _atom_site_fract_z
 _atom_site_occupancy
  Dy  Dy0  1  0.000000  0.318625  0.415458  1
  Dy  Dy1  1  0.000000  0.678198  0.591005  1
  Dy  Dy2  1  0.000000  0.826930  0.081431  1
  Dy  Dy3  1  0.000000  0.177190  0.912748  1
  Dy  Dy4  1  0.000000  0.943314  0.370042  1
  Ho  Ho5  1  0.000000  0.055818  0.628991  1
  Ho  Ho6  1  0.000000  0.441408  0.129037  1
  Ho  Ho7  1  0.000000  0.556639  0.871602  1
  Re  Re8  1  0.000000  0.362381  0.677777  1
  Re  Re9  1  0.000000  0.138657  0.179876  1
  Re  Re10  1  0.000000  0.861557  0.820899  1
  B  B11  1  0.500000  0.554125  0.433537  1
  B  B12  1  0.500000  0.446523  0.566831  1
  B  B13  1  0.500000  0.053563  0.066682  1
  B  B14  1  0.500000  0.946897  0.932587  1
  B  B15  1  0.500000  0.748848  0.420159  1
  B  B16  1  0.500000  0.250613  0.581120  1
  B  B17  1  0.500000  0.249326  0.081459  1
  B  B18  1  0.500000  0.751616  0.918711  1
  B  B19  1  0.500000  0.790793  0.265086  1
  B  B20  1  0.500000  0.208433  0.733978  1
  B  B21  1  0.500000  0.291810  0.235077  1
  B  B22  1  0.500000  0.708185  0.765933  1
  B  B23  1  0.500000  0.631852  0.184143  1
  B  B24  1  0.500000  0.369428  0.814031  1
  B  B25  1  0.500000  0.131075  0.314658  1
  B  B26  1  0.500000  0.868416  0.685624  1
  B  B27  1  0.500000  0.983373  0.211813  1
  B  B28  1  0.500000  0.017084  0.786986  1
  B  B29  1  0.500000  0.483441  0.287943  1
  B  B30  1  0.500000  0.517904  0.712466  1
  B  B31  1  0.500000  0.603673  0.029367  1
  B  B32  1  0.500000  0.397541  0.972180  1
  B  B33  1  0.500000  0.102257  0.471133  1
  B  B34  1  0.500000  0.894816  0.528525  1
  Rh  Rh35  1  0.000000  0.637692  0.321108  1
