# generated using pymatgen
data_Tb2LuBi(Mo2O7)2
_symmetry_space_group_name_H-M   'P 1'
_cell_length_a   7.36382683
_cell_length_b   7.39978910
_cell_length_c   7.39978880
_cell_angle_alpha   60.24859773
_cell_angle_beta   60.23381519
_cell_angle_gamma   60.23381171
_symmetry_Int_Tables_number   1
_chemical_formula_structural   Tb2LuBi(Mo2O7)2
_chemical_formula_sum   'Tb2 Lu1 Bi1 Mo4 O14'
_cell_volume   286.66066995
_cell_formula_units_Z   1
loop_
 _symmetry_equiv_pos_site_id
 _symmetry_equiv_pos_as_xyz
  1  'x, y, z'
loop_
 _atom_site_type_symbol
 _atom_site_label
 _atom_site_symmetry_multiplicity
 _atom_site_fract_x
 _atom_site_fract_y
 _atom_site_fract_z
 _atom_site_occupancy
  Tb  Tb0  1  0.125000  0.125000  0.625000  1
  Tb  Tb1  1  0.125000  0.625000  0.125000  1
  Lu  Lu2  1  0.625000  0.125000  0.125000  1
  Bi  Bi3  1  0.125000  0.125000  0.125000  1
  Mo  Mo4  1  0.625000  0.625000  0.625000  1
  Mo  Mo5  1  0.125000  0.625000  0.625000  1
  Mo  Mo6  1  0.625000  0.625000  0.125000  1
  Mo  Mo7  1  0.625000  0.125000  0.625000  1
  O  O8  1  0.988080  0.998659  0.998659  1
  O  O9  1  0.261920  0.251341  0.251341  1
  O  O10  1  0.291180  0.285965  0.713080  1
  O  O11  1  0.533609  0.541928  0.958899  1
  O  O12  1  0.716391  0.291101  0.708072  1
  O  O13  1  0.693839  0.284919  0.284919  1
  O  O14  1  0.280790  0.713808  0.713808  1
  O  O15  1  0.291180  0.713080  0.285965  1
  O  O16  1  0.716391  0.708072  0.291101  1
  O  O17  1  0.969210  0.536192  0.536192  1
  O  O18  1  0.556161  0.965081  0.965081  1
  O  O19  1  0.958820  0.964035  0.536920  1
  O  O20  1  0.958820  0.536920  0.964035  1
  O  O21  1  0.533609  0.958899  0.541928  1
