# generated using pymatgen
data_Th4Si7
_symmetry_space_group_name_H-M   'P 1'
_cell_length_a   7.95334474
_cell_length_b   7.95334489
_cell_length_c   8.61926000
_cell_angle_alpha   90.00000000
_cell_angle_beta   90.00000000
_cell_angle_gamma   120.07997497
_symmetry_Int_Tables_number   1
_chemical_formula_structural   Th4Si7
_chemical_formula_sum   'Th8 Si14'
_cell_volume   471.79103251
_cell_formula_units_Z   2
loop_
 _symmetry_equiv_pos_site_id
 _symmetry_equiv_pos_as_xyz
  1  'x, y, z'
loop_
 _atom_site_type_symbol
 _atom_site_label
 _atom_site_symmetry_multiplicity
 _atom_site_fract_x
 _atom_site_fract_y
 _atom_site_fract_z
 _atom_site_occupancy
  Th  Th0  1  0.255423  0.255423  0.000000  1
  Th  Th1  1  0.744577  0.744577  0.000000  1
  Th  Th2  1  0.744577  0.744577  0.500000  1
  Th  Th3  1  0.255423  0.255423  0.500000  1
  Th  Th4  1  0.252410  0.747590  0.495441  1
  Th  Th5  1  0.747590  0.252410  0.504559  1
  Th  Th6  1  0.747590  0.252410  0.995441  1
  Th  Th7  1  0.252410  0.747590  0.004559  1
  Si  Si8  1  0.056514  0.367528  0.250000  1
  Si  Si9  1  0.943486  0.632472  0.750000  1
  Si  Si10  1  0.584103  0.415897  0.250000  1
  Si  Si11  1  0.415897  0.584103  0.750000  1
  Si  Si12  1  0.410790  0.589210  0.250000  1
  Si  Si13  1  0.589210  0.410790  0.750000  1
  Si  Si14  1  0.063727  0.936273  0.250000  1
  Si  Si15  1  0.936273  0.063727  0.750000  1
  Si  Si16  1  0.632472  0.943486  0.250000  1
  Si  Si17  1  0.367528  0.056514  0.750000  1
  Si  Si18  1  0.928635  0.587854  0.250000  1
  Si  Si19  1  0.071365  0.412146  0.750000  1
  Si  Si20  1  0.412146  0.071365  0.250000  1
  Si  Si21  1  0.587854  0.928635  0.750000  1
