# generated using pymatgen
data_Hf3AlGa2Pt3
_symmetry_space_group_name_H-M   'P 1'
_cell_length_a   7.11659700
_cell_length_b   7.16164063
_cell_length_c   7.14012300
_cell_angle_alpha   90.00000000
_cell_angle_beta   90.00000000
_cell_angle_gamma   119.79216454
_symmetry_Int_Tables_number   1
_chemical_formula_structural   Hf3AlGa2Pt3
_chemical_formula_sum   'Hf6 Al2 Ga4 Pt6'
_cell_volume   315.81078407
_cell_formula_units_Z   2
loop_
 _symmetry_equiv_pos_site_id
 _symmetry_equiv_pos_as_xyz
  1  'x, y, z'
loop_
 _atom_site_type_symbol
 _atom_site_label
 _atom_site_symmetry_multiplicity
 _atom_site_fract_x
 _atom_site_fract_y
 _atom_site_fract_z
 _atom_site_occupancy
  Hf  Hf0  1  0.411906  0.388372  0.250000  1
  Hf  Hf1  1  0.592380  0.976205  0.750000  1
  Hf  Hf2  1  0.387464  0.410991  0.750000  1
  Hf  Hf3  1  0.023534  0.611628  0.750000  1
  Hf  Hf4  1  0.976473  0.589009  0.250000  1
  Hf  Hf5  1  0.616175  0.023795  0.250000  1
  Al  Al6  1  0.262522  0.000000  0.000000  1
  Al  Al7  1  0.262522  0.000000  0.500000  1
  Ga  Ga8  1  0.002633  0.268466  0.500040  1
  Ga  Ga9  1  0.002633  0.268466  0.999960  1
  Ga  Ga10  1  0.734167  0.731534  0.000040  1
  Ga  Ga11  1  0.734167  0.731534  0.499960  1
  Pt  Pt12  1  0.659697  0.327687  0.532896  1
  Pt  Pt13  1  0.004712  0.999414  0.750000  1
  Pt  Pt14  1  0.659697  0.327687  0.967104  1
  Pt  Pt15  1  0.332009  0.672313  0.032896  1
  Pt  Pt16  1  0.332009  0.672313  0.467104  1
  Pt  Pt17  1  0.005299  0.000586  0.250000  1
