# generated using pymatgen
data_TbCo2P3IrRh2
_symmetry_space_group_name_H-M   'P 1'
_cell_length_a   3.82984800
_cell_length_b   10.64430800
_cell_length_c   12.24278100
_cell_angle_alpha   90.00000000
_cell_angle_beta   90.00000000
_cell_angle_gamma   90.00000000
_symmetry_Int_Tables_number   1
_chemical_formula_structural   TbCo2P3IrRh2
_chemical_formula_sum   'Tb4 Co8 P12 Ir4 Rh8'
_cell_volume   499.09021054
_cell_formula_units_Z   4
loop_
 _symmetry_equiv_pos_site_id
 _symmetry_equiv_pos_as_xyz
  1  'x, y, z'
loop_
 _atom_site_type_symbol
 _atom_site_label
 _atom_site_symmetry_multiplicity
 _atom_site_fract_x
 _atom_site_fract_y
 _atom_site_fract_z
 _atom_site_occupancy
  Tb  Tb0  1  0.250000  0.583508  0.709427  1
  Tb  Tb1  1  0.250000  0.916492  0.209427  1
  Tb  Tb2  1  0.750000  0.416492  0.290573  1
  Tb  Tb3  1  0.750000  0.083508  0.790573  1
  Co  Co4  1  0.250000  0.883478  0.696566  1
  Co  Co5  1  0.250000  0.616522  0.196566  1
  Co  Co6  1  0.750000  0.116522  0.303434  1
  Co  Co7  1  0.750000  0.383478  0.803434  1
  Co  Co8  1  0.250000  0.464031  0.933253  1
  Co  Co9  1  0.250000  0.035969  0.433253  1
  Co  Co10  1  0.750000  0.535969  0.066747  1
  Co  Co11  1  0.750000  0.964031  0.566747  1
  P  P12  1  0.250000  0.430988  0.110294  1
  P  P13  1  0.250000  0.069012  0.610294  1
  P  P14  1  0.750000  0.569012  0.889706  1
  P  P15  1  0.750000  0.930988  0.389706  1
  P  P16  1  0.250000  0.274594  0.870875  1
  P  P17  1  0.250000  0.225406  0.370875  1
  P  P18  1  0.750000  0.725406  0.129125  1
  P  P19  1  0.750000  0.774594  0.629125  1
  P  P20  1  0.250000  0.599937  0.380180  1
  P  P21  1  0.250000  0.900063  0.880180  1
  P  P22  1  0.750000  0.400063  0.619820  1
  P  P23  1  0.750000  0.099937  0.119820  1
  Ir  Ir24  1  0.250000  0.225316  0.179439  1
  Ir  Ir25  1  0.250000  0.274684  0.679439  1
  Ir  Ir26  1  0.750000  0.774684  0.820561  1
  Ir  Ir27  1  0.750000  0.725316  0.320561  1
  Rh  Rh28  1  0.250000  0.718444  0.990586  1
  Rh  Rh29  1  0.250000  0.781556  0.490586  1
  Rh  Rh30  1  0.750000  0.281556  0.009414  1
  Rh  Rh31  1  0.750000  0.218444  0.509414  1
  Rh  Rh32  1  0.250000  0.409307  0.477935  1
  Rh  Rh33  1  0.250000  0.090693  0.977935  1
  Rh  Rh34  1  0.750000  0.590693  0.522065  1
  Rh  Rh35  1  0.750000  0.909307  0.022065  1
