# generated using pymatgen
data_Cs2Ta(WO4)3
_symmetry_space_group_name_H-M   'P 1'
_cell_length_a   7.43886167
_cell_length_b   7.43886194
_cell_length_c   7.43532713
_cell_angle_alpha   60.24375818
_cell_angle_beta   60.24375710
_cell_angle_gamma   60.05079237
_symmetry_Int_Tables_number   1
_chemical_formula_structural   Cs2Ta(WO4)3
_chemical_formula_sum   'Cs2 Ta1 W3 O12'
_cell_volume   292.11646736
_cell_formula_units_Z   1
loop_
 _symmetry_equiv_pos_site_id
 _symmetry_equiv_pos_as_xyz
  1  'x, y, z'
loop_
 _atom_site_type_symbol
 _atom_site_label
 _atom_site_symmetry_multiplicity
 _atom_site_fract_x
 _atom_site_fract_y
 _atom_site_fract_z
 _atom_site_occupancy
  Cs  Cs0  1  0.860292  0.886884  0.378925  1
  Cs  Cs1  1  0.113116  0.139708  0.621075  1
  Ta  Ta2  1  0.495598  0.504402  0.000000  1
  W  W3  1  0.993418  0.508782  0.997958  1
  W  W4  1  0.491218  0.006582  0.002042  1
  W  W5  1  0.497896  0.502104  0.500000  1
  O  O6  1  0.186519  0.193464  0.060964  1
  O  O7  1  0.559549  0.561995  0.685564  1
  O  O8  1  0.183971  0.563636  0.059276  1
  O  O9  1  0.560751  0.182047  0.696071  1
  O  O10  1  0.557650  0.189504  0.060128  1
  O  O11  1  0.178654  0.563988  0.695390  1
  O  O12  1  0.806536  0.813481  0.939036  1
  O  O13  1  0.438005  0.440451  0.314436  1
  O  O14  1  0.810496  0.442350  0.939872  1
  O  O15  1  0.436012  0.821346  0.304610  1
  O  O16  1  0.436364  0.816029  0.940724  1
  O  O17  1  0.817953  0.439249  0.303929  1
