# generated using pymatgen
data_Rb4Dy3U5Se16
_symmetry_space_group_name_H-M   'P 1'
_cell_length_a   7.37914930
_cell_length_b   8.48620900
_cell_length_c   18.27118500
_cell_angle_alpha   90.00000000
_cell_angle_beta   90.08058830
_cell_angle_gamma   90.00000000
_symmetry_Int_Tables_number   1
_chemical_formula_structural   Rb4Dy3U5Se16
_chemical_formula_sum   'Rb4 Dy3 U5 Se16'
_cell_volume   1144.15880250
_cell_formula_units_Z   1
loop_
 _symmetry_equiv_pos_site_id
 _symmetry_equiv_pos_as_xyz
  1  'x, y, z'
loop_
 _atom_site_type_symbol
 _atom_site_label
 _atom_site_symmetry_multiplicity
 _atom_site_fract_x
 _atom_site_fract_y
 _atom_site_fract_z
 _atom_site_occupancy
  Rb  Rb0  1  0.350464  0.000000  0.002620  1
  Rb  Rb1  1  0.648446  0.500000  0.497300  1
  Rb  Rb2  1  0.032060  0.000000  0.496748  1
  Rb  Rb3  1  0.968989  0.500000  0.003673  1
  Dy  Dy4  1  0.999262  0.000000  0.247190  1
  Dy  Dy5  1  0.998997  0.000000  0.752248  1
  Dy  Dy6  1  0.000687  0.500000  0.252891  1
  U  U7  1  0.001218  0.500000  0.748095  1
  U  U8  1  0.499993  0.250259  0.250036  1
  U  U9  1  0.499974  0.751968  0.749806  1
  U  U10  1  0.499993  0.749741  0.250036  1
  U  U11  1  0.499974  0.248032  0.749806  1
  Se  Se12  1  0.829300  0.247683  0.335748  1
  Se  Se13  1  0.832142  0.750053  0.664216  1
  Se  Se14  1  0.170653  0.747651  0.164261  1
  Se  Se15  1  0.167824  0.253637  0.835722  1
  Se  Se16  1  0.170653  0.252349  0.164261  1
  Se  Se17  1  0.167824  0.746363  0.835722  1
  Se  Se18  1  0.829300  0.752317  0.335748  1
  Se  Se19  1  0.832142  0.249947  0.664216  1
  Se  Se20  1  0.660099  0.000000  0.165963  1
  Se  Se21  1  0.661798  0.000000  0.834846  1
  Se  Se22  1  0.339941  0.500000  0.334006  1
  Se  Se23  1  0.336094  0.500000  0.666120  1
  Se  Se24  1  0.332078  0.000000  0.332341  1
  Se  Se25  1  0.330152  0.000000  0.666469  1
  Se  Se26  1  0.667895  0.500000  0.167733  1
  Se  Se27  1  0.672049  0.500000  0.832174  1
