# generated using pymatgen
data_Pr3Sm(WN3)4
_symmetry_space_group_name_H-M   'P 1'
_cell_length_a   7.42866643
_cell_length_b   7.42866633
_cell_length_c   6.36106072
_cell_angle_alpha   75.65036306
_cell_angle_beta   75.65036840
_cell_angle_gamma   83.89127694
_symmetry_Int_Tables_number   1
_chemical_formula_structural   Pr3Sm(WN3)4
_chemical_formula_sum   'Pr3 Sm1 W4 N12'
_cell_volume   329.09494764
_cell_formula_units_Z   1
loop_
 _symmetry_equiv_pos_site_id
 _symmetry_equiv_pos_as_xyz
  1  'x, y, z'
loop_
 _atom_site_type_symbol
 _atom_site_label
 _atom_site_symmetry_multiplicity
 _atom_site_fract_x
 _atom_site_fract_y
 _atom_site_fract_z
 _atom_site_occupancy
  Pr  Pr0  1  0.695106  0.304894  0.750000  1
  Pr  Pr1  1  0.090424  0.909576  0.750000  1
  Pr  Pr2  1  0.305589  0.694411  0.250000  1
  Sm  Sm3  1  0.907221  0.092779  0.250000  1
  W  W4  1  0.380053  0.201121  0.243856  1
  W  W5  1  0.620800  0.798460  0.753472  1
  W  W6  1  0.798879  0.619947  0.256144  1
  W  W7  1  0.201540  0.379200  0.746528  1
  N  N8  1  0.616215  0.115116  0.154263  1
  N  N9  1  0.362425  0.337393  0.475338  1
  N  N10  1  0.001984  0.224093  0.852079  1
  N  N11  1  0.386024  0.883333  0.849071  1
  N  N12  1  0.775907  0.998016  0.647921  1
  N  N13  1  0.116667  0.613976  0.650929  1
  N  N14  1  0.884884  0.383785  0.345737  1
  N  N15  1  0.633975  0.657003  0.527549  1
  N  N16  1  0.662607  0.637575  0.024662  1
  N  N17  1  0.342997  0.366025  0.972451  1
  N  N18  1  0.995248  0.778547  0.157778  1
  N  N19  1  0.221453  0.004752  0.342222  1
