# generated using pymatgen
data_Er3Lu5B24OsW3
_symmetry_space_group_name_H-M   'P 1'
_cell_length_a   3.56531400
_cell_length_b   9.19122425
_cell_length_c   11.57913502
_cell_angle_alpha   89.92178967
_cell_angle_beta   90.00000000
_cell_angle_gamma   90.00000000
_symmetry_Int_Tables_number   1
_chemical_formula_structural   Er3Lu5B24OsW3
_chemical_formula_sum   'Er3 Lu5 B24 Os1 W3'
_cell_volume   379.44327508
_cell_formula_units_Z   1
loop_
 _symmetry_equiv_pos_site_id
 _symmetry_equiv_pos_as_xyz
  1  'x, y, z'
loop_
 _atom_site_type_symbol
 _atom_site_label
 _atom_site_symmetry_multiplicity
 _atom_site_fract_x
 _atom_site_fract_y
 _atom_site_fract_z
 _atom_site_occupancy
  Er  Er0  1  0.000000  0.320498  0.413385  1
  Er  Er1  1  0.000000  0.678928  0.586061  1
  Er  Er2  1  0.000000  0.820801  0.085341  1
  Lu  Lu3  1  0.000000  0.178533  0.913557  1
  Lu  Lu4  1  0.000000  0.944212  0.372988  1
  Lu  Lu5  1  0.000000  0.054560  0.629796  1
  Lu  Lu6  1  0.000000  0.445329  0.126484  1
  Lu  Lu7  1  0.000000  0.558480  0.871455  1
  B  B8  1  0.500000  0.550955  0.435041  1
  B  B9  1  0.500000  0.447931  0.565704  1
  B  B10  1  0.500000  0.050747  0.062694  1
  B  B11  1  0.500000  0.945562  0.931995  1
  B  B12  1  0.500000  0.752753  0.422271  1
  B  B13  1  0.500000  0.246623  0.579187  1
  B  B14  1  0.500000  0.253602  0.076545  1
  B  B15  1  0.500000  0.750832  0.918191  1
  B  B16  1  0.500000  0.795702  0.264424  1
  B  B17  1  0.500000  0.203290  0.738261  1
  B  B18  1  0.500000  0.295099  0.235304  1
  B  B19  1  0.500000  0.708984  0.765527  1
  B  B20  1  0.500000  0.631284  0.182105  1
  B  B21  1  0.500000  0.369334  0.818947  1
  B  B22  1  0.500000  0.130030  0.316920  1
  B  B23  1  0.500000  0.869619  0.685965  1
  B  B24  1  0.500000  0.977893  0.212718  1
  B  B25  1  0.500000  0.016996  0.788298  1
  B  B26  1  0.500000  0.478049  0.286210  1
  B  B27  1  0.500000  0.522941  0.713468  1
  B  B28  1  0.500000  0.601863  0.026574  1
  B  B29  1  0.500000  0.401101  0.971700  1
  B  B30  1  0.500000  0.099240  0.473127  1
  B  B31  1  0.500000  0.899418  0.529559  1
  Os  Os32  1  0.000000  0.861209  0.820551  1
  W  W33  1  0.000000  0.639120  0.320142  1
  W  W34  1  0.000000  0.359841  0.681552  1
  W  W35  1  0.000000  0.138640  0.177956  1
