# generated using pymatgen
data_Sm6Cd21SiAg2
_symmetry_space_group_name_H-M   'P 1'
_cell_length_a   9.99017587
_cell_length_b   10.00063059
_cell_length_c   9.99017748
_cell_angle_alpha   59.96537605
_cell_angle_beta   60.06924748
_cell_angle_gamma   59.96537785
_symmetry_Int_Tables_number   1
_chemical_formula_structural   Sm6Cd21SiAg2
_chemical_formula_sum   'Sm6 Cd21 Si1 Ag2'
_cell_volume   705.76119685
_cell_formula_units_Z   1
loop_
 _symmetry_equiv_pos_site_id
 _symmetry_equiv_pos_as_xyz
  1  'x, y, z'
loop_
 _atom_site_type_symbol
 _atom_site_label
 _atom_site_symmetry_multiplicity
 _atom_site_fract_x
 _atom_site_fract_y
 _atom_site_fract_z
 _atom_site_occupancy
  Sm  Sm0  1  0.794034  0.794034  0.205966  1
  Sm  Sm1  1  0.206230  0.793770  0.206230  1
  Sm  Sm2  1  0.794034  0.205966  0.205966  1
  Sm  Sm3  1  0.205966  0.205966  0.794034  1
  Sm  Sm4  1  0.793770  0.206230  0.793770  1
  Sm  Sm5  1  0.205966  0.794034  0.794034  1
  Cd  Cd6  1  0.832386  0.838183  0.491248  1
  Cd  Cd7  1  0.838183  0.491248  0.838183  1
  Cd  Cd8  1  0.491248  0.838183  0.832386  1
  Cd  Cd9  1  0.838183  0.832386  0.838183  1
  Cd  Cd10  1  0.167614  0.161817  0.508752  1
  Cd  Cd11  1  0.161817  0.508752  0.161817  1
  Cd  Cd12  1  0.508752  0.161817  0.167614  1
  Cd  Cd13  1  0.161817  0.167614  0.161817  1
  Cd  Cd14  1  0.626299  0.620110  0.133482  1
  Cd  Cd15  1  0.620110  0.133482  0.620110  1
  Cd  Cd16  1  0.133482  0.620110  0.626299  1
  Cd  Cd17  1  0.620110  0.626299  0.620110  1
  Cd  Cd18  1  0.373701  0.379890  0.866518  1
  Cd  Cd19  1  0.379890  0.866518  0.379890  1
  Cd  Cd20  1  0.866518  0.379890  0.373701  1
  Cd  Cd21  1  0.379890  0.373701  0.379890  1
  Cd  Cd22  1  0.000000  0.000000  0.500000  1
  Cd  Cd23  1  0.000000  0.500000  0.500000  1
  Cd  Cd24  1  0.500000  0.500000  0.000000  1
  Cd  Cd25  1  0.500000  0.000000  0.000000  1
  Cd  Cd26  1  0.500000  0.500000  0.500000  1
  Si  Si27  1  0.000000  0.000000  0.000000  1
  Ag  Ag28  1  0.500000  0.000000  0.500000  1
  Ag  Ag29  1  0.000000  0.500000  0.000000  1
