# generated using pymatgen
data_TbNd2Ho(Ir2O7)2
_symmetry_space_group_name_H-M   'P 1'
_cell_length_a   7.32808820
_cell_length_b   7.28801912
_cell_length_c   7.32808895
_cell_angle_alpha   60.08947005
_cell_angle_beta   60.26667860
_cell_angle_gamma   60.08946997
_symmetry_Int_Tables_number   1
_chemical_formula_structural   TbNd2Ho(Ir2O7)2
_chemical_formula_sum   'Tb1 Nd2 Ho1 Ir4 O14'
_cell_volume   277.67190371
_cell_formula_units_Z   1
loop_
 _symmetry_equiv_pos_site_id
 _symmetry_equiv_pos_as_xyz
  1  'x, y, z'
loop_
 _atom_site_type_symbol
 _atom_site_label
 _atom_site_symmetry_multiplicity
 _atom_site_fract_x
 _atom_site_fract_y
 _atom_site_fract_z
 _atom_site_occupancy
  Tb  Tb0  1  0.125000  0.125000  0.125000  1
  Nd  Nd1  1  0.625000  0.125000  0.125000  1
  Nd  Nd2  1  0.125000  0.125000  0.625000  1
  Ho  Ho3  1  0.125000  0.625000  0.125000  1
  Ir  Ir4  1  0.125000  0.625000  0.625000  1
  Ir  Ir5  1  0.625000  0.125000  0.625000  1
  Ir  Ir6  1  0.625000  0.625000  0.125000  1
  Ir  Ir7  1  0.625000  0.625000  0.625000  1
  O  O8  1  0.718223  0.702056  0.289414  1
  O  O9  1  0.289784  0.290643  0.717141  1
  O  O10  1  0.709783  0.290192  0.709783  1
  O  O11  1  0.290102  0.709223  0.290102  1
  O  O12  1  0.289414  0.702056  0.718223  1
  O  O13  1  0.717141  0.290643  0.289784  1
  O  O14  1  0.531777  0.547944  0.960586  1
  O  O15  1  0.960216  0.959357  0.532859  1
  O  O16  1  0.540217  0.959808  0.540217  1
  O  O17  1  0.959898  0.540777  0.959898  1
  O  O18  1  0.960586  0.547944  0.531777  1
  O  O19  1  0.532859  0.959357  0.960216  1
  O  O20  1  0.243185  0.258644  0.243185  1
  O  O21  1  0.006815  0.991356  0.006815  1
