# generated using pymatgen
data_NdSb5(BrO4)2
_symmetry_space_group_name_H-M   'P 1'
_cell_length_a   5.75027200
_cell_length_b   5.68601800
_cell_length_c   18.94874000
_cell_angle_alpha   90.00000000
_cell_angle_beta   90.00000000
_cell_angle_gamma   90.00000000
_symmetry_Int_Tables_number   1
_chemical_formula_structural   NdSb5(BrO4)2
_chemical_formula_sum   'Nd2 Sb10 Br4 O16'
_cell_volume   619.55084719
_cell_formula_units_Z   2
loop_
 _symmetry_equiv_pos_site_id
 _symmetry_equiv_pos_as_xyz
  1  'x, y, z'
loop_
 _atom_site_type_symbol
 _atom_site_label
 _atom_site_symmetry_multiplicity
 _atom_site_fract_x
 _atom_site_fract_y
 _atom_site_fract_z
 _atom_site_occupancy
  Nd  Nd0  1  0.250000  0.236212  0.500000  1
  Nd  Nd1  1  0.250000  0.263788  0.000000  1
  Sb  Sb2  1  0.333161  0.694088  0.640207  1
  Sb  Sb3  1  0.823656  0.310100  0.641329  1
  Sb  Sb4  1  0.676344  0.189900  0.141329  1
  Sb  Sb5  1  0.823656  0.189900  0.858671  1
  Sb  Sb6  1  0.676344  0.310100  0.358671  1
  Sb  Sb7  1  0.166839  0.694088  0.359793  1
  Sb  Sb8  1  0.333161  0.805912  0.859793  1
  Sb  Sb9  1  0.166839  0.805912  0.140207  1
  Sb  Sb10  1  0.750000  0.839349  0.500000  1
  Sb  Sb11  1  0.750000  0.660651  0.000000  1
  Br  Br12  1  0.698253  0.750000  0.250000  1
  Br  Br13  1  0.302366  0.250000  0.750000  1
  Br  Br14  1  0.801747  0.750000  0.750000  1
  Br  Br15  1  0.197634  0.250000  0.250000  1
  O  O16  1  0.074699  0.918363  0.436487  1
  O  O17  1  0.425301  0.918363  0.563513  1
  O  O18  1  0.074699  0.581637  0.063513  1
  O  O19  1  0.425301  0.581637  0.936487  1
  O  O20  1  0.906724  0.089321  0.561147  1
  O  O21  1  0.593276  0.089321  0.438853  1
  O  O22  1  0.906724  0.410679  0.938853  1
  O  O23  1  0.593276  0.410679  0.061147  1
  O  O24  1  0.956379  0.450472  0.409073  1
  O  O25  1  0.433533  0.982450  0.088882  1
  O  O26  1  0.956379  0.049528  0.090927  1
  O  O27  1  0.543621  0.049528  0.909073  1
  O  O28  1  0.066467  0.517550  0.588882  1
  O  O29  1  0.433533  0.517550  0.411118  1
  O  O30  1  0.066467  0.982450  0.911118  1
  O  O31  1  0.543621  0.450472  0.590927  1
