# generated using pymatgen
data_TiMn(BRu)2
_symmetry_space_group_name_H-M   'P 1'
_cell_length_a   3.00448500
_cell_length_b   8.70626442
_cell_length_c   8.70723448
_cell_angle_alpha   119.99631347
_cell_angle_beta   90.00000000
_cell_angle_gamma   90.00000000
_symmetry_Int_Tables_number   1
_chemical_formula_structural   TiMn(BRu)2
_chemical_formula_sum   'Ti3 Mn3 B6 Ru6'
_cell_volume   197.25539791
_cell_formula_units_Z   3
loop_
 _symmetry_equiv_pos_site_id
 _symmetry_equiv_pos_as_xyz
  1  'x, y, z'
loop_
 _atom_site_type_symbol
 _atom_site_label
 _atom_site_symmetry_multiplicity
 _atom_site_fract_x
 _atom_site_fract_y
 _atom_site_fract_z
 _atom_site_occupancy
  Ti  Ti0  1  0.000000  0.586073  0.000000  1
  Ti  Ti1  1  0.000000  0.413831  0.413916  1
  Ti  Ti2  1  0.000000  0.999916  0.586084  1
  Mn  Mn3  1  0.000000  0.827519  0.827490  1
  Mn  Mn4  1  0.000000  0.000029  0.172510  1
  Mn  Mn5  1  0.000000  0.172501  0.000000  1
  B  B6  1  0.500000  0.000025  0.000000  1
  B  B7  1  0.500000  0.796826  0.000000  1
  B  B8  1  0.500000  0.203154  0.203103  1
  B  B9  1  0.500000  0.000052  0.796897  1
  B  B10  1  0.000000  0.333311  0.666678  1
  B  B11  1  0.000000  0.666633  0.333322  1
  Ru  Ru12  1  0.500000  0.540559  0.724910  1
  Ru  Ru13  1  0.500000  0.184364  0.459442  1
  Ru  Ru14  1  0.500000  0.275054  0.815574  1
  Ru  Ru15  1  0.500000  0.815649  0.275090  1
  Ru  Ru16  1  0.500000  0.724922  0.540558  1
  Ru  Ru17  1  0.500000  0.459481  0.184426  1
