# generated using pymatgen
data_Ho5Er11(In3Pt)2
_symmetry_space_group_name_H-M   'P 1'
_cell_length_a   10.42848001
_cell_length_b   10.42856257
_cell_length_c   6.96538301
_cell_angle_alpha   89.99531849
_cell_angle_beta   90.00449280
_cell_angle_gamma   120.00359436
_symmetry_Int_Tables_number   1
_chemical_formula_structural   Ho5Er11(In3Pt)2
_chemical_formula_sum   'Ho5 Er11 In6 Pt2'
_cell_volume   656.00230530
_cell_formula_units_Z   1
loop_
 _symmetry_equiv_pos_site_id
 _symmetry_equiv_pos_as_xyz
  1  'x, y, z'
loop_
 _atom_site_type_symbol
 _atom_site_label
 _atom_site_symmetry_multiplicity
 _atom_site_fract_x
 _atom_site_fract_y
 _atom_site_fract_z
 _atom_site_occupancy
  Ho  Ho0  1  0.531632  0.063316  0.795402  1
  Ho  Ho1  1  0.936685  0.468358  0.795384  1
  Ho  Ho2  1  0.531634  0.468374  0.795427  1
  Ho  Ho3  1  0.468351  0.936662  0.295366  1
  Ho  Ho4  1  0.063339  0.531647  0.295348  1
  Er  Er5  1  0.468264  0.531757  0.295403  1
  Er  Er6  1  0.824453  0.649095  0.500339  1
  Er  Er7  1  0.350897  0.175547  0.500316  1
  Er  Er8  1  0.824564  0.175436  0.500403  1
  Er  Er9  1  0.175509  0.350921  0.000468  1
  Er  Er10  1  0.649097  0.824506  0.000491  1
  Er  Er11  1  0.175422  0.824571  0.000407  1
  Er  Er12  1  0.666598  0.333369  0.171742  1
  Er  Er13  1  0.333378  0.666615  0.671640  1
  Er  Er14  1  0.000010  0.999986  0.776256  1
  Er  Er15  1  0.999996  0.000016  0.276337  1
  In  In16  1  0.837623  0.675255  0.038087  1
  In  In17  1  0.324728  0.162364  0.038078  1
  In  In18  1  0.837657  0.162378  0.038061  1
  In  In19  1  0.162449  0.324788  0.538031  1
  In  In20  1  0.675205  0.837540  0.538013  1
  In  In21  1  0.162356  0.837637  0.538073  1
  Pt  Pt22  1  0.666691  0.333318  0.568326  1
  Pt  Pt23  1  0.333462  0.666544  0.068502  1
