# generated using pymatgen
data_YbIrPdO6
_symmetry_space_group_name_H-M   'P 1'
_cell_length_a   5.22841511
_cell_length_b   5.22849770
_cell_length_c   9.88974530
_cell_angle_alpha   90.00259840
_cell_angle_beta   89.99766949
_cell_angle_gamma   119.99969733
_symmetry_Int_Tables_number   1
_chemical_formula_structural   YbIrPdO6
_chemical_formula_sum   'Yb2 Ir2 Pd2 O12'
_cell_volume   234.13376277
_cell_formula_units_Z   2
loop_
 _symmetry_equiv_pos_site_id
 _symmetry_equiv_pos_as_xyz
  1  'x, y, z'
loop_
 _atom_site_type_symbol
 _atom_site_label
 _atom_site_symmetry_multiplicity
 _atom_site_fract_x
 _atom_site_fract_y
 _atom_site_fract_z
 _atom_site_occupancy
  Yb  Yb0  1  0.999995  0.999991  0.999998  1
  Yb  Yb1  1  0.999995  0.000003  0.500002  1
  Ir  Ir2  1  0.666662  0.333333  0.249979  1
  Ir  Ir3  1  0.333337  0.666667  0.750022  1
  Pd  Pd4  1  0.333295  0.666648  0.249994  1
  Pd  Pd5  1  0.666705  0.333352  0.750004  1
  O  O6  1  0.367894  0.010303  0.140929  1
  O  O7  1  0.642437  0.632061  0.140924  1
  O  O8  1  0.989644  0.357559  0.140923  1
  O  O9  1  0.989622  0.632088  0.359074  1
  O  O10  1  0.642439  0.010370  0.359073  1
  O  O11  1  0.367869  0.357582  0.359069  1
  O  O12  1  0.632134  0.642421  0.640934  1
  O  O13  1  0.357561  0.989627  0.640928  1
  O  O14  1  0.010379  0.367912  0.640929  1
  O  O15  1  0.010355  0.642439  0.859073  1
  O  O16  1  0.357565  0.367943  0.859074  1
  O  O17  1  0.632108  0.989699  0.859068  1
