# generated using pymatgen
data_Ba8CrFe(CoO8)2
_symmetry_space_group_name_H-M   'P 1'
_cell_length_a   7.72084006
_cell_length_b   6.14459577
_cell_length_c   11.91117172
_cell_angle_alpha   62.38043894
_cell_angle_beta   90.14937299
_cell_angle_gamma   90.12308903
_symmetry_Int_Tables_number   1
_chemical_formula_structural   Ba8CrFe(CoO8)2
_chemical_formula_sum   'Ba8 Cr1 Fe1 Co2 O16'
_cell_volume   500.68731916
_cell_formula_units_Z   1
loop_
 _symmetry_equiv_pos_site_id
 _symmetry_equiv_pos_as_xyz
  1  'x, y, z'
loop_
 _atom_site_type_symbol
 _atom_site_label
 _atom_site_symmetry_multiplicity
 _atom_site_fract_x
 _atom_site_fract_y
 _atom_site_fract_z
 _atom_site_occupancy
  Ba  Ba0  1  0.005139  0.968639  0.312481  1
  Ba  Ba1  1  0.489639  0.031397  0.199987  1
  Ba  Ba2  1  0.006837  0.043121  0.685741  1
  Ba  Ba3  1  0.490322  0.983422  0.798360  1
  Ba  Ba4  1  0.650200  0.303344  0.434686  1
  Ba  Ba5  1  0.162383  0.684302  0.082144  1
  Ba  Ba6  1  0.350933  0.689581  0.576109  1
  Ba  Ba7  1  0.844183  0.328441  0.911578  1
  Cr  Cr8  1  0.725440  0.665638  0.078548  1
  Fe  Fe9  1  0.219291  0.344559  0.414731  1
  Co  Co10  1  0.780832  0.656091  0.584277  1
  Co  Co11  1  0.275338  0.338089  0.919809  1
  O  O12  1  0.326320  0.256839  0.577125  1
  O  O13  1  0.814700  0.759016  0.929113  1
  O  O14  1  0.685045  0.754721  0.428289  1
  O  O15  1  0.178232  0.258087  0.073562  1
  O  O16  1  0.336054  0.131077  0.364026  1
  O  O17  1  0.823574  0.853430  0.132208  1
  O  O18  1  0.679198  0.840704  0.648493  1
  O  O19  1  0.165181  0.135504  0.869508  1
  O  O20  1  0.257637  0.680271  0.299422  1
  O  O21  1  0.769614  0.356545  0.168294  1
  O  O22  1  0.734154  0.333739  0.684147  1
  O  O23  1  0.231519  0.657489  0.816798  1
  O  O24  1  0.502822  0.273117  0.933219  1
  O  O25  1  0.008658  0.700708  0.575848  1
  O  O26  1  0.505438  0.703545  0.071216  1
  O  O27  1  0.981315  0.268582  0.430283  1
