# generated using pymatgen
data_Pr3Th(Pd2Pb)2
_symmetry_space_group_name_H-M   'P 1'
_cell_length_a   8.07402180
_cell_length_b   8.07402180
_cell_length_c   3.84706300
_cell_angle_alpha   90.00000000
_cell_angle_beta   90.00000000
_cell_angle_gamma   91.61192371
_symmetry_Int_Tables_number   1
_chemical_formula_structural   Pr3Th(Pd2Pb)2
_chemical_formula_sum   'Pr3 Th1 Pd4 Pb2'
_cell_volume   250.69013350
_cell_formula_units_Z   1
loop_
 _symmetry_equiv_pos_site_id
 _symmetry_equiv_pos_as_xyz
  1  'x, y, z'
loop_
 _atom_site_type_symbol
 _atom_site_label
 _atom_site_symmetry_multiplicity
 _atom_site_fract_x
 _atom_site_fract_y
 _atom_site_fract_z
 _atom_site_occupancy
  Pr  Pr0  1  0.677220  0.177220  0.500000  1
  Pr  Pr1  1  0.823927  0.673696  0.500000  1
  Pr  Pr2  1  0.173696  0.323927  0.500000  1
  Th  Th3  1  0.327626  0.827626  0.500000  1
  Pd  Pd4  1  0.881277  0.381277  0.000000  1
  Pd  Pd5  1  0.613435  0.870209  0.000000  1
  Pd  Pd6  1  0.370209  0.113435  0.000000  1
  Pd  Pd7  1  0.134563  0.634563  0.000000  1
  Pb  Pb8  1  0.500816  0.497231  0.000000  1
  Pb  Pb9  1  0.997231  0.000816  0.000000  1
