# generated using pymatgen
data_La20Tc4Sn3Bi5
_symmetry_space_group_name_H-M   'P 1'
_cell_length_a   8.51164805
_cell_length_b   9.23827330
_cell_length_c   12.89918200
_cell_angle_alpha   89.71715040
_cell_angle_beta   90.04850014
_cell_angle_gamma   90.10595876
_symmetry_Int_Tables_number   1
_chemical_formula_structural   La20Tc4Sn3Bi5
_chemical_formula_sum   'La20 Tc4 Sn3 Bi5'
_cell_volume   1014.28603719
_cell_formula_units_Z   1
loop_
 _symmetry_equiv_pos_site_id
 _symmetry_equiv_pos_as_xyz
  1  'x, y, z'
loop_
 _atom_site_type_symbol
 _atom_site_label
 _atom_site_symmetry_multiplicity
 _atom_site_fract_x
 _atom_site_fract_y
 _atom_site_fract_z
 _atom_site_occupancy
  La  La0  1  0.347097  0.745612  0.707366  1
  La  La1  1  0.649565  0.252326  0.295638  1
  La  La2  1  0.847900  0.253385  0.795378  1
  La  La3  1  0.152289  0.748256  0.202825  1
  La  La4  1  0.877492  0.744843  0.802475  1
  La  La5  1  0.124882  0.252884  0.195071  1
  La  La6  1  0.378574  0.255418  0.696698  1
  La  La7  1  0.619139  0.747308  0.303290  1
  La  La8  1  0.681841  0.532149  0.566683  1
  La  La9  1  0.323330  0.467443  0.437138  1
  La  La10  1  0.179637  0.466155  0.935638  1
  La  La11  1  0.318934  0.029522  0.438730  1
  La  La12  1  0.817210  0.532850  0.060793  1
  La  La13  1  0.677151  0.970024  0.561238  1
  La  La14  1  0.820450  0.972817  0.061075  1
  La  La15  1  0.180617  0.027179  0.938758  1
  La  La16  1  0.054041  0.747303  0.498759  1
  La  La17  1  0.950580  0.253645  0.505023  1
  La  La18  1  0.549382  0.256905  0.003850  1
  La  La19  1  0.451315  0.743900  0.996314  1
  Tc  Tc20  1  0.084931  0.752943  0.978622  1
  Tc  Tc21  1  0.914464  0.246198  0.021085  1
  Tc  Tc22  1  0.586307  0.248349  0.519538  1
  Tc  Tc23  1  0.413551  0.751094  0.480167  1
  Sn  Sn24  1  0.573651  0.504886  0.826663  1
  Sn  Sn25  1  0.426887  0.495442  0.173751  1
  Sn  Sn26  1  0.072600  0.494204  0.672483  1
  Bi  Bi27  1  0.426326  0.005333  0.172777  1
  Bi  Bi28  1  0.926469  0.506369  0.325165  1
  Bi  Bi29  1  0.573213  0.995040  0.826399  1
  Bi  Bi30  1  0.926004  0.994264  0.326214  1
  Bi  Bi31  1  0.074172  0.005954  0.674394  1
