# generated using pymatgen
data_Tm3Co4Ni5As6
_symmetry_space_group_name_H-M   'P 1'
_cell_length_a   3.81680200
_cell_length_b   10.84202600
_cell_length_c   12.67672800
_cell_angle_alpha   90.00000000
_cell_angle_beta   90.00000000
_cell_angle_gamma   90.00000000
_symmetry_Int_Tables_number   1
_chemical_formula_structural   Tm3Co4Ni5As6
_chemical_formula_sum   'Tm6 Co8 Ni10 As12'
_cell_volume   524.58666602
_cell_formula_units_Z   2
loop_
 _symmetry_equiv_pos_site_id
 _symmetry_equiv_pos_as_xyz
  1  'x, y, z'
loop_
 _atom_site_type_symbol
 _atom_site_label
 _atom_site_symmetry_multiplicity
 _atom_site_fract_x
 _atom_site_fract_y
 _atom_site_fract_z
 _atom_site_occupancy
  Tm  Tm0  1  0.000000  0.500000  0.521920  1
  Tm  Tm1  1  0.500000  0.000000  0.476924  1
  Tm  Tm2  1  0.500000  0.816639  0.206344  1
  Tm  Tm3  1  0.500000  0.183361  0.206344  1
  Tm  Tm4  1  0.000000  0.683151  0.794167  1
  Tm  Tm5  1  0.000000  0.316849  0.794167  1
  Co  Co6  1  0.000000  0.500000  0.983082  1
  Co  Co7  1  0.500000  0.000000  0.017312  1
  Co  Co8  1  0.500000  0.333872  0.996842  1
  Co  Co9  1  0.500000  0.666128  0.996842  1
  Co  Co10  1  0.000000  0.165792  0.003327  1
  Co  Co11  1  0.000000  0.834208  0.003327  1
  Co  Co12  1  0.500000  0.300914  0.428751  1
  Co  Co13  1  0.500000  0.699086  0.428751  1
  Ni  Ni14  1  0.500000  0.500000  0.158594  1
  Ni  Ni15  1  0.000000  0.000000  0.842041  1
  Ni  Ni16  1  0.500000  0.500000  0.702836  1
  Ni  Ni17  1  0.000000  0.000000  0.298917  1
  Ni  Ni18  1  0.000000  0.198507  0.570698  1
  Ni  Ni19  1  0.000000  0.801493  0.570698  1
  Ni  Ni20  1  0.500000  0.876807  0.707818  1
  Ni  Ni21  1  0.500000  0.123193  0.707818  1
  Ni  Ni22  1  0.000000  0.622638  0.291577  1
  Ni  Ni23  1  0.000000  0.377362  0.291577  1
  As  As24  1  0.500000  0.500000  0.879891  1
  As  As25  1  0.000000  0.000000  0.120776  1
  As  As26  1  0.500000  0.500000  0.348624  1
  As  As27  1  0.000000  0.000000  0.652754  1
  As  As28  1  0.500000  0.317588  0.613932  1
  As  As29  1  0.500000  0.682412  0.613932  1
  As  As30  1  0.000000  0.185545  0.384698  1
  As  As31  1  0.000000  0.814455  0.384698  1
  As  As32  1  0.500000  0.845824  0.892684  1
  As  As33  1  0.500000  0.154176  0.892684  1
  As  As34  1  0.000000  0.654537  0.107325  1
  As  As35  1  0.000000  0.345463  0.107325  1
