# generated using pymatgen
data_Yb9SmIr4
_symmetry_space_group_name_H-M   'P 1'
_cell_length_a   8.47449693
_cell_length_b   8.47449689
_cell_length_c   7.46326084
_cell_angle_alpha   83.14627436
_cell_angle_beta   83.14627610
_cell_angle_gamma   44.81471134
_symmetry_Int_Tables_number   1
_chemical_formula_structural   Yb9SmIr4
_chemical_formula_sum   'Yb9 Sm1 Ir4'
_cell_volume   374.61390402
_cell_formula_units_Z   1
loop_
 _symmetry_equiv_pos_site_id
 _symmetry_equiv_pos_as_xyz
  1  'x, y, z'
loop_
 _atom_site_type_symbol
 _atom_site_label
 _atom_site_symmetry_multiplicity
 _atom_site_fract_x
 _atom_site_fract_y
 _atom_site_fract_z
 _atom_site_occupancy
  Yb  Yb0  1  0.029962  0.798198  0.417287  1
  Yb  Yb1  1  0.201802  0.970038  0.082713  1
  Yb  Yb2  1  0.972454  0.200510  0.579315  1
  Yb  Yb3  1  0.799490  0.027546  0.920685  1
  Yb  Yb4  1  0.360633  0.204002  0.321200  1
  Yb  Yb5  1  0.795998  0.639367  0.178800  1
  Yb  Yb6  1  0.643289  0.797629  0.678873  1
  Yb  Yb7  1  0.202371  0.356711  0.821127  1
  Yb  Yb8  1  0.567768  0.432232  0.250000  1
  Sm  Sm9  1  0.433725  0.566275  0.750000  1
  Ir  Ir10  1  0.176188  0.605899  0.072746  1
  Ir  Ir11  1  0.394101  0.823812  0.427254  1
  Ir  Ir12  1  0.819421  0.397201  0.919178  1
  Ir  Ir13  1  0.602799  0.180579  0.580822  1
