# generated using pymatgen
data_Lu3Ga4Co5(Ni2B)2
_symmetry_space_group_name_H-M   'P 1'
_cell_length_a   5.17411000
_cell_length_b   5.17411023
_cell_length_c   10.47937800
_cell_angle_alpha   90.00000000
_cell_angle_beta   90.00000000
_cell_angle_gamma   119.58310553
_symmetry_Int_Tables_number   1
_chemical_formula_structural   Lu3Ga4Co5(Ni2B)2
_chemical_formula_sum   'Lu3 Ga4 Co5 Ni4 B2'
_cell_volume   243.97572423
_cell_formula_units_Z   1
loop_
 _symmetry_equiv_pos_site_id
 _symmetry_equiv_pos_as_xyz
  1  'x, y, z'
loop_
 _atom_site_type_symbol
 _atom_site_label
 _atom_site_symmetry_multiplicity
 _atom_site_fract_x
 _atom_site_fract_y
 _atom_site_fract_z
 _atom_site_occupancy
  Lu  Lu0  1  0.000000  0.000000  0.999609  1
  Lu  Lu1  1  0.000000  0.000000  0.678458  1
  Lu  Lu2  1  0.000000  0.000000  0.330481  1
  Ga  Ga3  1  0.665648  0.334352  0.685672  1
  Ga  Ga4  1  0.334352  0.665648  0.685672  1
  Ga  Ga5  1  0.332079  0.667921  0.313786  1
  Ga  Ga6  1  0.667921  0.332079  0.313786  1
  Co  Co7  1  0.500000  0.500000  0.872057  1
  Co  Co8  1  0.500000  0.000000  0.870117  1
  Co  Co9  1  0.000000  0.500000  0.870117  1
  Co  Co10  1  0.500000  0.000000  0.128437  1
  Co  Co11  1  0.000000  0.500000  0.128437  1
  Ni  Ni12  1  0.500000  0.500000  0.498810  1
  Ni  Ni13  1  0.500000  0.000000  0.500135  1
  Ni  Ni14  1  0.000000  0.500000  0.500135  1
  Ni  Ni15  1  0.500000  0.500000  0.128017  1
  B  B16  1  0.670895  0.329105  0.998137  1
  B  B17  1  0.329105  0.670895  0.998137  1
