# generated using pymatgen
data_Ho2CrCo2P6Ir7
_symmetry_space_group_name_H-M   'P 1'
_cell_length_a   3.90173100
_cell_length_b   10.71264800
_cell_length_c   12.35920100
_cell_angle_alpha   90.00000000
_cell_angle_beta   90.00000000
_cell_angle_gamma   90.00000000
_symmetry_Int_Tables_number   1
_chemical_formula_structural   Ho2CrCo2P6Ir7
_chemical_formula_sum   'Ho4 Cr2 Co4 P12 Ir14'
_cell_volume   516.58828651
_cell_formula_units_Z   2
loop_
 _symmetry_equiv_pos_site_id
 _symmetry_equiv_pos_as_xyz
  1  'x, y, z'
loop_
 _atom_site_type_symbol
 _atom_site_label
 _atom_site_symmetry_multiplicity
 _atom_site_fract_x
 _atom_site_fract_y
 _atom_site_fract_z
 _atom_site_occupancy
  Ho  Ho0  1  0.250000  0.587854  0.709601  1
  Ho  Ho1  1  0.250000  0.912146  0.209601  1
  Ho  Ho2  1  0.750000  0.419436  0.292461  1
  Ho  Ho3  1  0.750000  0.080564  0.792461  1
  Cr  Cr4  1  0.250000  0.714582  0.982755  1
  Cr  Cr5  1  0.250000  0.785418  0.482755  1
  Co  Co6  1  0.250000  0.462336  0.933495  1
  Co  Co7  1  0.250000  0.037664  0.433495  1
  Co  Co8  1  0.750000  0.535741  0.064036  1
  Co  Co9  1  0.750000  0.964259  0.564036  1
  P  P10  1  0.250000  0.426299  0.106104  1
  P  P11  1  0.250000  0.073701  0.606104  1
  P  P12  1  0.750000  0.576797  0.894219  1
  P  P13  1  0.750000  0.923203  0.394219  1
  P  P14  1  0.250000  0.268602  0.872596  1
  P  P15  1  0.250000  0.231398  0.372596  1
  P  P16  1  0.750000  0.727414  0.126701  1
  P  P17  1  0.750000  0.772586  0.626701  1
  P  P18  1  0.250000  0.603283  0.388459  1
  P  P19  1  0.250000  0.896717  0.888459  1
  P  P20  1  0.750000  0.408270  0.613488  1
  P  P21  1  0.750000  0.091730  0.113488  1
  Ir  Ir22  1  0.750000  0.277832  0.016957  1
  Ir  Ir23  1  0.750000  0.222168  0.516957  1
  Ir  Ir24  1  0.250000  0.409267  0.482154  1
  Ir  Ir25  1  0.250000  0.090733  0.982154  1
  Ir  Ir26  1  0.750000  0.596997  0.519001  1
  Ir  Ir27  1  0.750000  0.903003  0.019001  1
  Ir  Ir28  1  0.250000  0.233547  0.181127  1
  Ir  Ir29  1  0.250000  0.266453  0.681127  1
  Ir  Ir30  1  0.750000  0.768926  0.820202  1
  Ir  Ir31  1  0.750000  0.731074  0.320202  1
  Ir  Ir32  1  0.250000  0.885656  0.696574  1
  Ir  Ir33  1  0.250000  0.614344  0.196574  1
  Ir  Ir34  1  0.750000  0.110905  0.300070  1
  Ir  Ir35  1  0.750000  0.389095  0.800070  1
