# generated using pymatgen
data_K3Rb9(MnN2)8
_symmetry_space_group_name_H-M   'P 1'
_cell_length_a   6.31263713
_cell_length_b   9.55402169
_cell_length_c   10.51533400
_cell_angle_alpha   89.77767145
_cell_angle_beta   90.08610748
_cell_angle_gamma   89.53746666
_symmetry_Int_Tables_number   1
_chemical_formula_structural   K3Rb9(MnN2)8
_chemical_formula_sum   'K3 Rb9 Mn8 N16'
_cell_volume   634.16488120
_cell_formula_units_Z   1
loop_
 _symmetry_equiv_pos_site_id
 _symmetry_equiv_pos_as_xyz
  1  'x, y, z'
loop_
 _atom_site_type_symbol
 _atom_site_label
 _atom_site_symmetry_multiplicity
 _atom_site_fract_x
 _atom_site_fract_y
 _atom_site_fract_z
 _atom_site_occupancy
  K  K0  1  0.141106  0.157613  0.579851  1
  K  K1  1  0.357415  0.655071  0.918810  1
  K  K2  1  0.144762  0.345707  0.916563  1
  Rb  Rb3  1  0.645927  0.154190  0.418306  1
  Rb  Rb4  1  0.852019  0.841320  0.419282  1
  Rb  Rb5  1  0.648447  0.341871  0.081346  1
  Rb  Rb6  1  0.850622  0.656732  0.081798  1
  Rb  Rb7  1  0.350872  0.847054  0.584433  1
  Rb  Rb8  1  0.749691  0.497799  0.407500  1
  Rb  Rb9  1  0.749135  0.999145  0.092902  1
  Rb  Rb10  1  0.253931  0.499515  0.593141  1
  Rb  Rb11  1  0.249718  0.001294  0.907753  1
  Mn  Mn12  1  0.754878  0.501082  0.739445  1
  Mn  Mn13  1  0.747740  0.001802  0.763718  1
  Mn  Mn14  1  0.248896  0.498497  0.258094  1
  Mn  Mn15  1  0.249289  0.998710  0.239302  1
  Mn  Mn16  1  0.704232  0.252022  0.751391  1
  Mn  Mn17  1  0.798771  0.751098  0.751037  1
  Mn  Mn18  1  0.294751  0.748324  0.247968  1
  Mn  Mn19  1  0.203466  0.248961  0.249653  1
  N  N20  1  0.868397  0.357333  0.650348  1
  N  N21  1  0.642839  0.643178  0.647789  1
  N  N22  1  0.862704  0.143809  0.853962  1
  N  N23  1  0.635400  0.856902  0.852439  1
  N  N24  1  0.135071  0.639463  0.348833  1
  N  N25  1  0.360989  0.357752  0.351287  1
  N  N26  1  0.135865  0.859222  0.147291  1
  N  N27  1  0.362463  0.139747  0.148619  1
  N  N28  1  0.565709  0.399307  0.827015  1
  N  N29  1  0.940242  0.604728  0.827954  1
  N  N30  1  0.562144  0.108742  0.675167  1
  N  N31  1  0.931534  0.899417  0.673899  1
  N  N32  1  0.429914  0.603232  0.168062  1
  N  N33  1  0.069578  0.393636  0.167401  1
  N  N34  1  0.432353  0.891496  0.327221  1
  N  N35  1  0.069131  0.104228  0.330425  1
