# generated using pymatgen
data_MgU(SO5)2
_symmetry_space_group_name_H-M   'P 1'
_cell_length_a   5.39608577
_cell_length_b   5.78117466
_cell_length_c   7.76637181
_cell_angle_alpha   108.82552441
_cell_angle_beta   108.91129198
_cell_angle_gamma   98.49345737
_symmetry_Int_Tables_number   1
_chemical_formula_structural   MgU(SO5)2
_chemical_formula_sum   'Mg1 U1 S2 O10'
_cell_volume   208.15034825
_cell_formula_units_Z   1
loop_
 _symmetry_equiv_pos_site_id
 _symmetry_equiv_pos_as_xyz
  1  'x, y, z'
loop_
 _atom_site_type_symbol
 _atom_site_label
 _atom_site_symmetry_multiplicity
 _atom_site_fract_x
 _atom_site_fract_y
 _atom_site_fract_z
 _atom_site_occupancy
  Mg  Mg0  1  0.500000  0.500000  0.000000  1
  U  U1  1  0.000000  0.000000  0.500000  1
  S  S2  1  0.084554  0.409405  0.236880  1
  S  S3  1  0.915446  0.590595  0.763120  1
  O  O4  1  0.238225  0.358950  0.111723  1
  O  O5  1  0.148825  0.268831  0.371402  1
  O  O6  1  0.761775  0.641050  0.888277  1
  O  O7  1  0.851175  0.731169  0.628598  1
  O  O8  1  0.185986  0.690373  0.373687  1
  O  O9  1  0.788650  0.335258  0.124789  1
  O  O10  1  0.814014  0.309627  0.626313  1
  O  O11  1  0.211350  0.664742  0.875211  1
  O  O12  1  0.695483  0.834176  0.269205  1
  O  O13  1  0.304517  0.165824  0.730795  1
