# generated using pymatgen
data_DyY3Ho4(B6Ru)4
_symmetry_space_group_name_H-M   'P 1'
_cell_length_a   3.65548100
_cell_length_b   9.13840701
_cell_length_c   11.51644201
_cell_angle_alpha   89.99611109
_cell_angle_beta   90.00000000
_cell_angle_gamma   90.00000000
_symmetry_Int_Tables_number   1
_chemical_formula_structural   DyY3Ho4(B6Ru)4
_chemical_formula_sum   'Dy1 Y3 Ho4 B24 Ru4'
_cell_volume   384.70989038
_cell_formula_units_Z   1
loop_
 _symmetry_equiv_pos_site_id
 _symmetry_equiv_pos_as_xyz
  1  'x, y, z'
loop_
 _atom_site_type_symbol
 _atom_site_label
 _atom_site_symmetry_multiplicity
 _atom_site_fract_x
 _atom_site_fract_y
 _atom_site_fract_z
 _atom_site_occupancy
  Dy  Dy0  1  0.000000  0.177247  0.914028  1
  Y  Y1  1  0.000000  0.322581  0.414031  1
  Y  Y2  1  0.000000  0.677426  0.585972  1
  Y  Y3  1  0.000000  0.822591  0.085957  1
  Ho  Ho4  1  0.000000  0.943792  0.372263  1
  Ho  Ho5  1  0.000000  0.056217  0.627746  1
  Ho  Ho6  1  0.000000  0.443761  0.127695  1
  Ho  Ho7  1  0.000000  0.556174  0.872283  1
  B  B8  1  0.500000  0.554273  0.432863  1
  B  B9  1  0.500000  0.445712  0.567166  1
  B  B10  1  0.500000  0.054384  0.067029  1
  B  B11  1  0.500000  0.945886  0.932827  1
  B  B12  1  0.500000  0.748207  0.419579  1
  B  B13  1  0.500000  0.251805  0.580463  1
  B  B14  1  0.500000  0.248167  0.080271  1
  B  B15  1  0.500000  0.751836  0.919573  1
  B  B16  1  0.500000  0.791247  0.266362  1
  B  B17  1  0.500000  0.208737  0.733754  1
  B  B18  1  0.500000  0.291216  0.233593  1
  B  B19  1  0.500000  0.708783  0.766392  1
  B  B20  1  0.500000  0.631787  0.185149  1
  B  B21  1  0.500000  0.368073  0.814941  1
  B  B22  1  0.500000  0.131794  0.314826  1
  B  B23  1  0.500000  0.868250  0.685186  1
  B  B24  1  0.500000  0.983757  0.213038  1
  B  B25  1  0.500000  0.016390  0.787024  1
  B  B26  1  0.500000  0.483717  0.286923  1
  B  B27  1  0.500000  0.516237  0.713085  1
  B  B28  1  0.500000  0.607874  0.029742  1
  B  B29  1  0.500000  0.392018  0.970223  1
  B  B30  1  0.500000  0.107860  0.470252  1
  B  B31  1  0.500000  0.892150  0.529753  1
  Ru  Ru32  1  0.000000  0.638047  0.320926  1
  Ru  Ru33  1  0.000000  0.361872  0.679170  1
  Ru  Ru34  1  0.000000  0.138049  0.178931  1
  Ru  Ru35  1  0.000000  0.862085  0.820981  1
