# generated using pymatgen
data_Er3Pa(CdPd2)2
_symmetry_space_group_name_H-M   'P 1'
_cell_length_a   7.71988412
_cell_length_b   7.71988412
_cell_length_c   3.67846500
_cell_angle_alpha   90.00000000
_cell_angle_beta   90.00000000
_cell_angle_gamma   91.46876387
_symmetry_Int_Tables_number   1
_chemical_formula_structural   Er3Pa(CdPd2)2
_chemical_formula_sum   'Er3 Pa1 Cd2 Pd4'
_cell_volume   219.15202058
_cell_formula_units_Z   1
loop_
 _symmetry_equiv_pos_site_id
 _symmetry_equiv_pos_as_xyz
  1  'x, y, z'
loop_
 _atom_site_type_symbol
 _atom_site_label
 _atom_site_symmetry_multiplicity
 _atom_site_fract_x
 _atom_site_fract_y
 _atom_site_fract_z
 _atom_site_occupancy
  Er  Er0  1  0.326508  0.826508  0.500000  1
  Er  Er1  1  0.172150  0.330831  0.500000  1
  Er  Er2  1  0.830831  0.672150  0.500000  1
  Pa  Pa3  1  0.669012  0.169012  0.500000  1
  Cd  Cd4  1  0.003987  0.999507  0.000000  1
  Cd  Cd5  1  0.499507  0.503987  0.000000  1
  Pd  Pd6  1  0.125250  0.625250  0.000000  1
  Pd  Pd7  1  0.862794  0.362794  0.000000  1
  Pd  Pd8  1  0.631620  0.878342  0.000000  1
  Pd  Pd9  1  0.378342  0.131620  0.000000  1
