# generated using pymatgen
data_Th3Co3SnTe3
_symmetry_space_group_name_H-M   'P 1'
_cell_length_a   8.35344474
_cell_length_b   8.33053646
_cell_length_c   8.33053500
_cell_angle_alpha   109.37166344
_cell_angle_beta   109.45578686
_cell_angle_gamma   109.45578358
_symmetry_Int_Tables_number   1
_chemical_formula_structural   Th3Co3SnTe3
_chemical_formula_sum   'Th6 Co6 Sn2 Te6'
_cell_volume   446.97830342
_cell_formula_units_Z   2
loop_
 _symmetry_equiv_pos_site_id
 _symmetry_equiv_pos_as_xyz
  1  'x, y, z'
loop_
 _atom_site_type_symbol
 _atom_site_label
 _atom_site_symmetry_multiplicity
 _atom_site_fract_x
 _atom_site_fract_y
 _atom_site_fract_z
 _atom_site_occupancy
  Th  Th0  1  0.372559  0.246091  0.622843  1
  Th  Th1  1  0.750648  0.875869  0.127581  1
  Th  Th2  1  0.250648  0.627581  0.375869  1
  Th  Th3  1  0.625107  0.373468  0.251483  1
  Th  Th4  1  0.872559  0.122843  0.746091  1
  Th  Th5  1  0.125107  0.751483  0.873468  1
  Co  Co6  1  0.123934  0.874940  0.246301  1
  Co  Co7  1  0.623934  0.746301  0.374940  1
  Co  Co8  1  0.874175  0.248380  0.124350  1
  Co  Co9  1  0.253994  0.127443  0.876315  1
  Co  Co10  1  0.753994  0.376315  0.627443  1
  Co  Co11  1  0.374175  0.624350  0.748380  1
  Sn  Sn12  1  0.499562  0.000038  0.342370  1
  Sn  Sn13  1  0.999562  0.842370  0.500038  1
  Te  Te14  1  0.999121  0.342760  0.500524  1
  Te  Te15  1  0.842149  0.500831  0.000907  1
  Te  Te16  1  0.499121  0.000524  0.842760  1
  Te  Te17  1  0.658750  0.658712  0.658796  1
  Te  Te18  1  0.158750  0.158796  0.158712  1
  Te  Te19  1  0.342149  0.500907  0.000831  1
