# generated using pymatgen
data_Ta8VSi2B4Mo
_symmetry_space_group_name_H-M   'P 1'
_cell_length_a   7.23268292
_cell_length_b   7.23268366
_cell_length_c   7.23268173
_cell_angle_alpha   129.61411694
_cell_angle_beta   129.61411494
_cell_angle_gamma   74.02442275
_symmetry_Int_Tables_number   1
_chemical_formula_structural   Ta8VSi2B4Mo
_chemical_formula_sum   'Ta8 V1 Si2 B4 Mo1'
_cell_volume   218.96703996
_cell_formula_units_Z   1
loop_
 _symmetry_equiv_pos_site_id
 _symmetry_equiv_pos_as_xyz
  1  'x, y, z'
loop_
 _atom_site_type_symbol
 _atom_site_label
 _atom_site_symmetry_multiplicity
 _atom_site_fract_x
 _atom_site_fract_y
 _atom_site_fract_z
 _atom_site_occupancy
  Ta  Ta0  1  0.804972  0.968363  0.498478  1
  Ta  Ta1  1  0.306494  0.804972  0.836608  1
  Ta  Ta2  1  0.195028  0.031637  0.501522  1
  Ta  Ta3  1  0.530115  0.693506  0.498478  1
  Ta  Ta4  1  0.031637  0.530115  0.836608  1
  Ta  Ta5  1  0.693506  0.195028  0.163392  1
  Ta  Ta6  1  0.968363  0.469885  0.163392  1
  Ta  Ta7  1  0.469885  0.306494  0.501522  1
  V  V8  1  0.500000  0.500000  0.000000  1
  Si  Si9  1  0.749132  0.749132  0.000000  1
  Si  Si10  1  0.250868  0.250868  0.000000  1
  B  B11  1  0.382365  0.877225  0.259590  1
  B  B12  1  0.877225  0.617635  0.494859  1
  B  B13  1  0.617635  0.122775  0.740410  1
  B  B14  1  0.122775  0.382365  0.505141  1
  Mo  Mo15  1  0.000000  0.000000  0.000000  1
