# generated using pymatgen
data_Pr3NdGa18Ru5Rh
_symmetry_space_group_name_H-M   'P 1'
_cell_length_a   7.57615640
_cell_length_b   7.57804943
_cell_length_c   9.87068908
_cell_angle_alpha   90.11172057
_cell_angle_beta   90.11842861
_cell_angle_gamma   119.31108036
_symmetry_Int_Tables_number   1
_chemical_formula_structural   Pr3NdGa18Ru5Rh
_chemical_formula_sum   'Pr3 Nd1 Ga18 Ru5 Rh1'
_cell_volume   494.14481937
_cell_formula_units_Z   1
loop_
 _symmetry_equiv_pos_site_id
 _symmetry_equiv_pos_as_xyz
  1  'x, y, z'
loop_
 _atom_site_type_symbol
 _atom_site_label
 _atom_site_symmetry_multiplicity
 _atom_site_fract_x
 _atom_site_fract_y
 _atom_site_fract_z
 _atom_site_occupancy
  Pr  Pr0  1  0.997056  0.669570  0.250297  1
  Pr  Pr1  1  0.003061  0.330386  0.749720  1
  Pr  Pr2  1  0.669609  0.997047  0.250278  1
  Nd  Nd3  1  0.330476  0.002696  0.749653  1
  Ga  Ga4  1  0.131541  0.131535  0.250845  1
  Ga  Ga5  1  0.869268  0.868729  0.749162  1
  Ga  Ga6  1  0.007188  0.336284  0.073778  1
  Ga  Ga7  1  0.993363  0.664337  0.925908  1
  Ga  Ga8  1  0.992182  0.664948  0.573650  1
  Ga  Ga9  1  0.335673  0.008319  0.427125  1
  Ga  Ga10  1  0.008445  0.335740  0.426645  1
  Ga  Ga11  1  0.663626  0.991557  0.573678  1
  Ga  Ga12  1  0.663061  0.992814  0.925900  1
  Ga  Ga13  1  0.336286  0.007116  0.073338  1
  Ga  Ga14  1  0.338594  0.338077  0.555470  1
  Ga  Ga15  1  0.661437  0.661448  0.444893  1
  Ga  Ga16  1  0.659827  0.659817  0.056198  1
  Ga  Ga17  1  0.340194  0.339707  0.943439  1
  Ga  Ga18  1  0.336677  0.546008  0.249580  1
  Ga  Ga19  1  0.662659  0.453129  0.750423  1
  Ga  Ga20  1  0.545991  0.336695  0.249581  1
  Ga  Ga21  1  0.453824  0.663947  0.750408  1
  Ru  Ru22  1  0.673100  0.326543  0.999765  1
  Ru  Ru23  1  0.326673  0.673427  0.999738  1
  Ru  Ru24  1  0.326715  0.673320  0.500256  1
  Ru  Ru25  1  0.673071  0.326626  0.500235  1
  Ru  Ru26  1  0.000214  0.000123  0.500276  1
  Rh  Rh27  1  0.000188  0.000058  0.999760  1
