# generated using pymatgen
data_Be3NbNiRu
_symmetry_space_group_name_H-M   'P 1'
_cell_length_a   4.47407448
_cell_length_b   4.47407349
_cell_length_c   4.47407357
_cell_angle_alpha   61.25778035
_cell_angle_beta   61.25778440
_cell_angle_gamma   61.25777957
_symmetry_Int_Tables_number   1
_chemical_formula_structural   Be3NbNiRu
_chemical_formula_sum   'Be3 Nb1 Ni1 Ru1'
_cell_volume   65.11881409
_cell_formula_units_Z   1
loop_
 _symmetry_equiv_pos_site_id
 _symmetry_equiv_pos_as_xyz
  1  'x, y, z'
loop_
 _atom_site_type_symbol
 _atom_site_label
 _atom_site_symmetry_multiplicity
 _atom_site_fract_x
 _atom_site_fract_y
 _atom_site_fract_z
 _atom_site_occupancy
  Be  Be0  1  0.619211  0.126307  0.126307  1
  Be  Be1  1  0.126307  0.619211  0.126307  1
  Be  Be2  1  0.126307  0.126307  0.619211  1
  Nb  Nb3  1  0.748536  0.748536  0.748536  1
  Ni  Ni4  1  0.122577  0.122577  0.122577  1
  Ru  Ru5  1  0.507062  0.507062  0.507062  1
