# generated using pymatgen
data_MnV2(PO5)2
_symmetry_space_group_name_H-M   'P 1'
_cell_length_a   7.54436600
_cell_length_b   7.40856296
_cell_length_c   7.47111280
_cell_angle_alpha   59.75802517
_cell_angle_beta   90.00000000
_cell_angle_gamma   90.00000000
_symmetry_Int_Tables_number   1
_chemical_formula_structural   MnV2(PO5)2
_chemical_formula_sum   'Mn2 V4 P4 O20'
_cell_volume   360.75182595
_cell_formula_units_Z   2
loop_
 _symmetry_equiv_pos_site_id
 _symmetry_equiv_pos_as_xyz
  1  'x, y, z'
loop_
 _atom_site_type_symbol
 _atom_site_label
 _atom_site_symmetry_multiplicity
 _atom_site_fract_x
 _atom_site_fract_y
 _atom_site_fract_z
 _atom_site_occupancy
  Mn  Mn0  1  0.000000  0.000000  0.000000  1
  Mn  Mn1  1  0.500000  0.000000  0.500000  1
  V  V2  1  0.777288  0.734585  0.465266  1
  V  V3  1  0.722712  0.734585  0.965266  1
  V  V4  1  0.277288  0.265415  0.034734  1
  V  V5  1  0.222712  0.265415  0.534734  1
  P  P6  1  0.116528  0.748386  0.748357  1
  P  P7  1  0.883472  0.251614  0.251643  1
  P  P8  1  0.616528  0.251614  0.751643  1
  P  P9  1  0.383472  0.748386  0.248357  1
  O  O10  1  0.664965  0.760960  0.731429  1
  O  O11  1  0.244278  0.563454  0.861179  1
  O  O12  1  0.164965  0.239040  0.768571  1
  O  O13  1  0.494473  0.726695  0.088772  1
  O  O14  1  0.762581  0.053567  0.355104  1
  O  O15  1  0.744278  0.436546  0.638821  1
  O  O16  1  0.009285  0.227647  0.098040  1
  O  O17  1  0.505527  0.273305  0.911228  1
  O  O18  1  0.755722  0.436546  0.138821  1
  O  O19  1  0.737419  0.053567  0.855104  1
  O  O20  1  0.005527  0.726695  0.588772  1
  O  O21  1  0.990715  0.772353  0.901960  1
  O  O22  1  0.255722  0.563454  0.361179  1
  O  O23  1  0.994473  0.273305  0.411228  1
  O  O24  1  0.237419  0.946433  0.644896  1
  O  O25  1  0.262581  0.946433  0.144896  1
  O  O26  1  0.490715  0.227647  0.598040  1
  O  O27  1  0.835035  0.760960  0.231429  1
  O  O28  1  0.509285  0.772353  0.401960  1
  O  O29  1  0.335035  0.239040  0.268571  1
