# generated using pymatgen
data_NaCaCrO4
_symmetry_space_group_name_H-M   'P 1'
_cell_length_a   5.31439200
_cell_length_b   6.68204000
_cell_length_c   11.66194800
_cell_angle_alpha   90.00000000
_cell_angle_beta   90.00000000
_cell_angle_gamma   90.00000000
_symmetry_Int_Tables_number   1
_chemical_formula_structural   NaCaCrO4
_chemical_formula_sum   'Na4 Ca4 Cr4 O16'
_cell_volume   414.12720125
_cell_formula_units_Z   4
loop_
 _symmetry_equiv_pos_site_id
 _symmetry_equiv_pos_as_xyz
  1  'x, y, z'
loop_
 _atom_site_type_symbol
 _atom_site_label
 _atom_site_symmetry_multiplicity
 _atom_site_fract_x
 _atom_site_fract_y
 _atom_site_fract_z
 _atom_site_occupancy
  Na  Na0  1  0.000000  0.000000  0.500000  1
  Na  Na1  1  0.500000  0.500000  0.000000  1
  Na  Na2  1  0.000000  0.500000  0.500000  1
  Na  Na3  1  0.500000  0.000000  0.000000  1
  Ca  Ca4  1  0.498317  0.750000  0.279161  1
  Ca  Ca5  1  0.001683  0.750000  0.779161  1
  Ca  Ca6  1  0.501683  0.250000  0.720839  1
  Ca  Ca7  1  0.998317  0.250000  0.220839  1
  Cr  Cr8  1  0.432822  0.750000  0.595282  1
  Cr  Cr9  1  0.067178  0.750000  0.095282  1
  Cr  Cr10  1  0.567178  0.250000  0.404718  1
  Cr  Cr11  1  0.932822  0.250000  0.904718  1
  O  O12  1  0.304842  0.750000  0.460108  1
  O  O13  1  0.195158  0.750000  0.960108  1
  O  O14  1  0.695158  0.250000  0.539892  1
  O  O15  1  0.804842  0.250000  0.039892  1
  O  O16  1  0.752994  0.750000  0.607375  1
  O  O17  1  0.747006  0.750000  0.107375  1
  O  O18  1  0.247006  0.250000  0.392625  1
  O  O19  1  0.252994  0.250000  0.892625  1
  O  O20  1  0.294031  0.548059  0.667237  1
  O  O21  1  0.205969  0.951941  0.167237  1
  O  O22  1  0.705969  0.048059  0.332763  1
  O  O23  1  0.794031  0.451941  0.832763  1
  O  O24  1  0.705969  0.451941  0.332763  1
  O  O25  1  0.794031  0.048059  0.832763  1
  O  O26  1  0.294031  0.951941  0.667237  1
  O  O27  1  0.205969  0.548059  0.167237  1
