# generated using pymatgen
data_Zr10Cd2SnBi5
_symmetry_space_group_name_H-M   'P 1'
_cell_length_a   8.91354526
_cell_length_b   8.89109340
_cell_length_c   6.03911800
_cell_angle_alpha   90.00000000
_cell_angle_beta   90.00000000
_cell_angle_gamma   119.91671973
_symmetry_Int_Tables_number   1
_chemical_formula_structural   Zr10Cd2SnBi5
_chemical_formula_sum   'Zr10 Cd2 Sn1 Bi5'
_cell_volume   414.83332447
_cell_formula_units_Z   1
loop_
 _symmetry_equiv_pos_site_id
 _symmetry_equiv_pos_as_xyz
  1  'x, y, z'
loop_
 _atom_site_type_symbol
 _atom_site_label
 _atom_site_symmetry_multiplicity
 _atom_site_fract_x
 _atom_site_fract_y
 _atom_site_fract_z
 _atom_site_occupancy
  Zr  Zr0  1  0.669460  0.333869  0.001523  1
  Zr  Zr1  1  0.330540  0.664410  0.001523  1
  Zr  Zr2  1  0.330540  0.664410  0.498477  1
  Zr  Zr3  1  0.669460  0.333869  0.498477  1
  Zr  Zr4  1  0.720124  0.720487  0.750000  1
  Zr  Zr5  1  0.279876  0.000362  0.750000  1
  Zr  Zr6  1  0.000000  0.280949  0.750000  1
  Zr  Zr7  1  0.278247  0.281741  0.250000  1
  Zr  Zr8  1  0.721753  0.003494  0.250000  1
  Zr  Zr9  1  0.000000  0.716486  0.250000  1
  Cd  Cd10  1  0.000000  0.000466  0.001262  1
  Cd  Cd11  1  0.000000  0.000466  0.498738  1
  Sn  Sn12  1  0.000000  0.379130  0.250000  1
  Bi  Bi13  1  0.380566  0.380451  0.750000  1
  Bi  Bi14  1  0.619434  0.999884  0.750000  1
  Bi  Bi15  1  0.000000  0.619158  0.750000  1
  Bi  Bi16  1  0.619702  0.620034  0.250000  1
  Bi  Bi17  1  0.380298  0.000332  0.250000  1
