# generated using pymatgen
data_Pr12Nd4Cd3AgOs3Pt
_symmetry_space_group_name_H-M   'P 1'
_cell_length_a   9.98087298
_cell_length_b   10.04009783
_cell_length_c   10.04009700
_cell_angle_alpha   59.99999943
_cell_angle_beta   59.80351489
_cell_angle_gamma   59.80352014
_symmetry_Int_Tables_number   1
_chemical_formula_structural   Pr12Nd4Cd3AgOs3Pt
_chemical_formula_sum   'Pr12 Nd4 Cd3 Ag1 Os3 Pt1'
_cell_volume   709.30528591
_cell_formula_units_Z   1
loop_
 _symmetry_equiv_pos_site_id
 _symmetry_equiv_pos_as_xyz
  1  'x, y, z'
loop_
 _atom_site_type_symbol
 _atom_site_label
 _atom_site_symmetry_multiplicity
 _atom_site_fract_x
 _atom_site_fract_y
 _atom_site_fract_z
 _atom_site_occupancy
  Pr  Pr0  1  0.814411  0.191075  0.191075  1
  Pr  Pr1  1  0.189810  0.810058  0.810058  1
  Pr  Pr2  1  0.190198  0.809636  0.190036  1
  Pr  Pr3  1  0.814179  0.191005  0.802830  1
  Pr  Pr4  1  0.190198  0.190036  0.809636  1
  Pr  Pr5  1  0.814179  0.802830  0.191005  1
  Pr  Pr6  1  0.935941  0.561561  0.561561  1
  Pr  Pr7  1  0.555861  0.939842  0.939842  1
  Pr  Pr8  1  0.556310  0.938906  0.564382  1
  Pr  Pr9  1  0.938248  0.560987  0.939173  1
  Pr  Pr10  1  0.556310  0.564382  0.938906  1
  Pr  Pr11  1  0.938248  0.939173  0.560987  1
  Nd  Nd12  1  0.343140  0.349681  0.349681  1
  Nd  Nd13  1  0.344106  0.349649  0.956513  1
  Nd  Nd14  1  0.344106  0.956513  0.349649  1
  Nd  Nd15  1  0.963507  0.344992  0.344992  1
  Cd  Cd16  1  0.579642  0.579808  0.262280  1
  Cd  Cd17  1  0.579642  0.262280  0.579808  1
  Cd  Cd18  1  0.261914  0.579832  0.579832  1
  Ag  Ag19  1  0.580194  0.580861  0.580861  1
  Os  Os20  1  0.144186  0.138206  0.138206  1
  Os  Os21  1  0.144599  0.137787  0.579802  1
  Os  Os22  1  0.144599  0.579802  0.137787  1
  Pt  Pt23  1  0.576472  0.141101  0.141101  1
