# generated using pymatgen
data_TbY(Ho2Ir)2
_symmetry_space_group_name_H-M   'P 1'
_cell_length_a   6.40372900
_cell_length_b   7.24320700
_cell_length_c   9.15341300
_cell_angle_alpha   90.00000000
_cell_angle_beta   90.00000000
_cell_angle_gamma   90.00000000
_symmetry_Int_Tables_number   1
_chemical_formula_structural   TbY(Ho2Ir)2
_chemical_formula_sum   'Tb2 Y2 Ho8 Ir4'
_cell_volume   424.56764968
_cell_formula_units_Z   2
loop_
 _symmetry_equiv_pos_site_id
 _symmetry_equiv_pos_as_xyz
  1  'x, y, z'
loop_
 _atom_site_type_symbol
 _atom_site_label
 _atom_site_symmetry_multiplicity
 _atom_site_fract_x
 _atom_site_fract_y
 _atom_site_fract_z
 _atom_site_occupancy
  Tb  Tb0  1  0.128595  0.465906  0.750000  1
  Tb  Tb1  1  0.371405  0.965906  0.750000  1
  Y  Y2  1  0.873926  0.532913  0.250000  1
  Y  Y3  1  0.626074  0.032913  0.250000  1
  Ho  Ho4  1  0.327641  0.677260  0.061988  1
  Ho  Ho5  1  0.172359  0.177260  0.438012  1
  Ho  Ho6  1  0.671477  0.322802  0.562567  1
  Ho  Ho7  1  0.828523  0.822802  0.937433  1
  Ho  Ho8  1  0.671477  0.322802  0.937433  1
  Ho  Ho9  1  0.828523  0.822802  0.562567  1
  Ho  Ho10  1  0.327641  0.677260  0.438012  1
  Ho  Ho11  1  0.172359  0.177260  0.061988  1
  Ir  Ir12  1  0.047522  0.884995  0.250000  1
  Ir  Ir13  1  0.452478  0.384995  0.250000  1
  Ir  Ir14  1  0.955213  0.116059  0.750000  1
  Ir  Ir15  1  0.544787  0.616059  0.750000  1
