# generated using pymatgen
data_Er2Os3Ru
_symmetry_space_group_name_H-M   'P 1'
_cell_length_a   5.27136500
_cell_length_b   5.27136475
_cell_length_c   8.92296100
_cell_angle_alpha   90.00000000
_cell_angle_beta   90.00000000
_cell_angle_gamma   119.99999531
_symmetry_Int_Tables_number   1
_chemical_formula_structural   Er2Os3Ru
_chemical_formula_sum   'Er4 Os6 Ru2'
_cell_volume   214.72657830
_cell_formula_units_Z   2
loop_
 _symmetry_equiv_pos_site_id
 _symmetry_equiv_pos_as_xyz
  1  'x, y, z'
loop_
 _atom_site_type_symbol
 _atom_site_label
 _atom_site_symmetry_multiplicity
 _atom_site_fract_x
 _atom_site_fract_y
 _atom_site_fract_z
 _atom_site_occupancy
  Er  Er0  1  0.333333  0.666667  0.433125  1
  Er  Er1  1  0.666667  0.333333  0.566875  1
  Er  Er2  1  0.666667  0.333333  0.933125  1
  Er  Er3  1  0.333333  0.666667  0.066875  1
  Os  Os4  1  0.171006  0.342013  0.750000  1
  Os  Os5  1  0.171006  0.828994  0.750000  1
  Os  Os6  1  0.342013  0.171006  0.250000  1
  Os  Os7  1  0.828994  0.657987  0.250000  1
  Os  Os8  1  0.657987  0.828994  0.750000  1
  Os  Os9  1  0.828994  0.171006  0.250000  1
  Ru  Ru10  1  0.000000  0.000000  0.000000  1
  Ru  Ru11  1  0.000000  0.000000  0.500000  1
