# generated using pymatgen
data_Ac2SnGePd2
_symmetry_space_group_name_H-M   'P 1'
_cell_length_a   6.28551146
_cell_length_b   6.29664832
_cell_length_c   6.29664700
_cell_angle_alpha   137.84396301
_cell_angle_beta   92.60300592
_cell_angle_gamma   102.34062056
_symmetry_Int_Tables_number   1
_chemical_formula_structural   Ac2SnGePd2
_chemical_formula_sum   'Ac2 Sn1 Ge1 Pd2'
_cell_volume   155.29264367
_cell_formula_units_Z   1
loop_
 _symmetry_equiv_pos_site_id
 _symmetry_equiv_pos_as_xyz
  1  'x, y, z'
loop_
 _atom_site_type_symbol
 _atom_site_label
 _atom_site_symmetry_multiplicity
 _atom_site_fract_x
 _atom_site_fract_y
 _atom_site_fract_z
 _atom_site_occupancy
  Ac  Ac0  1  0.158384  0.665650  0.492734  1
  Ac  Ac1  1  0.673141  0.666404  0.006738  1
  Sn  Sn2  1  0.576375  0.327198  0.249176  1
  Ge  Ge3  1  0.093852  0.343152  0.750701  1
  Pd  Pd4  1  0.768028  0.018018  0.750010  1
  Pd  Pd5  1  0.235889  0.985248  0.250641  1
