# generated using pymatgen
data_HoTh5(Sc2Ru3)2
_symmetry_space_group_name_H-M   'P 1'
_cell_length_a   6.08778500
_cell_length_b   8.21522810
_cell_length_c   8.21522810
_cell_angle_alpha   120.46658813
_cell_angle_beta   90.00000000
_cell_angle_gamma   90.00000000
_symmetry_Int_Tables_number   1
_chemical_formula_structural   HoTh5(Sc2Ru3)2
_chemical_formula_sum   'Ho1 Th5 Sc4 Ru6'
_cell_volume   354.13432901
_cell_formula_units_Z   1
loop_
 _symmetry_equiv_pos_site_id
 _symmetry_equiv_pos_as_xyz
  1  'x, y, z'
loop_
 _atom_site_type_symbol
 _atom_site_label
 _atom_site_symmetry_multiplicity
 _atom_site_fract_x
 _atom_site_fract_y
 _atom_site_fract_z
 _atom_site_occupancy
  Ho  Ho0  1  0.750000  0.741505  0.741505  1
  Th  Th1  1  0.250000  0.255445  0.255445  1
  Th  Th2  1  0.750000  0.997107  0.252506  1
  Th  Th3  1  0.250000  0.997613  0.742670  1
  Th  Th4  1  0.750000  0.252506  0.997107  1
  Th  Th5  1  0.250000  0.742670  0.997613  1
  Sc  Sc6  1  0.999197  0.667697  0.336218  1
  Sc  Sc7  1  0.999197  0.336218  0.667697  1
  Sc  Sc8  1  0.500803  0.336218  0.667697  1
  Sc  Sc9  1  0.500803  0.667697  0.336218  1
  Ru  Ru10  1  0.750000  0.387860  0.387860  1
  Ru  Ru11  1  0.250000  0.609218  0.609218  1
  Ru  Ru12  1  0.750000  0.010692  0.608674  1
  Ru  Ru13  1  0.250000  0.001343  0.387538  1
  Ru  Ru14  1  0.750000  0.608674  0.010692  1
  Ru  Ru15  1  0.250000  0.387538  0.001343  1
