# generated using pymatgen
data_RbCaAlF6
_symmetry_space_group_name_H-M   'P 1'
_cell_length_a   7.27473400
_cell_length_b   7.72015200
_cell_length_c   10.09314000
_cell_angle_alpha   90.00000000
_cell_angle_beta   90.00000000
_cell_angle_gamma   90.00000000
_symmetry_Int_Tables_number   1
_chemical_formula_structural   RbCaAlF6
_chemical_formula_sum   'Rb4 Ca4 Al4 F24'
_cell_volume   566.85145594
_cell_formula_units_Z   4
loop_
 _symmetry_equiv_pos_site_id
 _symmetry_equiv_pos_as_xyz
  1  'x, y, z'
loop_
 _atom_site_type_symbol
 _atom_site_label
 _atom_site_symmetry_multiplicity
 _atom_site_fract_x
 _atom_site_fract_y
 _atom_site_fract_z
 _atom_site_occupancy
  Rb  Rb0  1  0.250000  0.477537  0.867387  1
  Rb  Rb1  1  0.750000  0.022463  0.367387  1
  Rb  Rb2  1  0.750000  0.522463  0.132613  1
  Rb  Rb3  1  0.250000  0.977537  0.632613  1
  Ca  Ca4  1  0.750000  0.206828  0.749892  1
  Ca  Ca5  1  0.750000  0.706828  0.750108  1
  Ca  Ca6  1  0.250000  0.293172  0.249892  1
  Ca  Ca7  1  0.250000  0.793172  0.250108  1
  Al  Al8  1  0.000000  0.500000  0.500000  1
  Al  Al9  1  0.500000  0.500000  0.500000  1
  Al  Al10  1  0.500000  0.000000  0.000000  1
  Al  Al11  1  0.000000  0.000000  0.000000  1
  F  F12  1  0.539869  0.805314  0.903704  1
  F  F13  1  0.039869  0.194686  0.096296  1
  F  F14  1  0.960131  0.305314  0.596296  1
  F  F15  1  0.460131  0.694686  0.403704  1
  F  F16  1  0.460131  0.194686  0.096296  1
  F  F17  1  0.960131  0.805314  0.903704  1
  F  F18  1  0.039869  0.694686  0.403704  1
  F  F19  1  0.539869  0.305314  0.596296  1
  F  F20  1  0.030602  0.622703  0.651806  1
  F  F21  1  0.530602  0.377297  0.348194  1
  F  F22  1  0.469398  0.122703  0.848194  1
  F  F23  1  0.969398  0.877297  0.151806  1
  F  F24  1  0.750000  0.956069  0.641270  1
  F  F25  1  0.250000  0.043931  0.358730  1
  F  F26  1  0.750000  0.456069  0.858730  1
  F  F27  1  0.250000  0.543931  0.141270  1
  F  F28  1  0.750000  0.056846  0.988371  1
  F  F29  1  0.250000  0.943154  0.011629  1
  F  F30  1  0.750000  0.556846  0.511629  1
  F  F31  1  0.250000  0.443154  0.488371  1
  F  F32  1  0.030602  0.122703  0.848194  1
  F  F33  1  0.530602  0.877297  0.151806  1
  F  F34  1  0.469398  0.622703  0.651806  1
  F  F35  1  0.969398  0.377297  0.348194  1
