# generated using pymatgen
data_Er4Al4Ir3Au
_symmetry_space_group_name_H-M   'P 1'
_cell_length_a   4.32817500
_cell_length_b   6.80952307
_cell_length_c   7.87590404
_cell_angle_alpha   90.01416723
_cell_angle_beta   90.00000000
_cell_angle_gamma   90.00000000
_symmetry_Int_Tables_number   1
_chemical_formula_structural   Er4Al4Ir3Au
_chemical_formula_sum   'Er4 Al4 Ir3 Au1'
_cell_volume   232.12499673
_cell_formula_units_Z   1
loop_
 _symmetry_equiv_pos_site_id
 _symmetry_equiv_pos_as_xyz
  1  'x, y, z'
loop_
 _atom_site_type_symbol
 _atom_site_label
 _atom_site_symmetry_multiplicity
 _atom_site_fract_x
 _atom_site_fract_y
 _atom_site_fract_z
 _atom_site_occupancy
  Er  Er0  1  0.250000  0.022793  0.326105  1
  Er  Er1  1  0.250000  0.540462  0.183031  1
  Er  Er2  1  0.750000  0.971412  0.678994  1
  Er  Er3  1  0.750000  0.478825  0.812268  1
  Al  Al4  1  0.250000  0.137599  0.931173  1
  Al  Al5  1  0.250000  0.642786  0.563029  1
  Al  Al6  1  0.750000  0.845947  0.061161  1
  Al  Al7  1  0.750000  0.362518  0.444254  1
  Ir  Ir8  1  0.250000  0.267690  0.619073  1
  Ir  Ir9  1  0.250000  0.765170  0.881817  1
  Ir  Ir10  1  0.750000  0.734294  0.379360  1
  Au  Au11  1  0.750000  0.230503  0.119734  1
