# generated using pymatgen
data_Yb4MnOs6Ru
_symmetry_space_group_name_H-M   'P 1'
_cell_length_a   5.24641203
_cell_length_b   5.24641220
_cell_length_c   8.84791501
_cell_angle_alpha   90.00353134
_cell_angle_beta   89.99646750
_cell_angle_gamma   119.98535911
_symmetry_Int_Tables_number   1
_chemical_formula_structural   Yb4MnOs6Ru
_chemical_formula_sum   'Yb4 Mn1 Os6 Ru1'
_cell_volume   210.94072299
_cell_formula_units_Z   1
loop_
 _symmetry_equiv_pos_site_id
 _symmetry_equiv_pos_as_xyz
  1  'x, y, z'
loop_
 _atom_site_type_symbol
 _atom_site_label
 _atom_site_symmetry_multiplicity
 _atom_site_fract_x
 _atom_site_fract_y
 _atom_site_fract_z
 _atom_site_occupancy
  Yb  Yb0  1  0.666667  0.333333  0.566870  1
  Yb  Yb1  1  0.333333  0.666667  0.433130  1
  Yb  Yb2  1  0.333331  0.666669  0.064655  1
  Yb  Yb3  1  0.666669  0.333331  0.935345  1
  Mn  Mn4  1  0.000000  0.000000  0.500000  1
  Os  Os5  1  0.170309  0.340632  0.746536  1
  Os  Os6  1  0.170295  0.829705  0.746528  1
  Os  Os7  1  0.659368  0.829691  0.746536  1
  Os  Os8  1  0.829691  0.659368  0.253464  1
  Os  Os9  1  0.829705  0.170295  0.253472  1
  Os  Os10  1  0.340632  0.170309  0.253464  1
  Ru  Ru11  1  0.000000  0.000000  0.000000  1
