# generated using pymatgen
data_Hf3Co8As6Ru
_symmetry_space_group_name_H-M   'P 1'
_cell_length_a   12.39157310
_cell_length_b   12.37167366
_cell_length_c   3.74564700
_cell_angle_alpha   90.00000000
_cell_angle_beta   90.00000000
_cell_angle_gamma   119.94689868
_symmetry_Int_Tables_number   1
_chemical_formula_structural   Hf3Co8As6Ru
_chemical_formula_sum   'Hf6 Co16 As12 Ru2'
_cell_volume   497.55891467
_cell_formula_units_Z   2
loop_
 _symmetry_equiv_pos_site_id
 _symmetry_equiv_pos_as_xyz
  1  'x, y, z'
loop_
 _atom_site_type_symbol
 _atom_site_label
 _atom_site_symmetry_multiplicity
 _atom_site_fract_x
 _atom_site_fract_y
 _atom_site_fract_z
 _atom_site_occupancy
  Hf  Hf0  1  0.822848  0.818298  0.500000  1
  Hf  Hf1  1  0.000000  0.172593  0.500000  1
  Hf  Hf2  1  0.333896  0.666985  0.000000  1
  Hf  Hf3  1  0.666104  0.333088  0.000000  1
  Hf  Hf4  1  0.000000  0.558114  0.000000  1
  Hf  Hf5  1  0.177152  0.995451  0.500000  1
  Co  Co6  1  0.623588  0.821117  0.000000  1
  Co  Co7  1  0.376412  0.197528  0.000000  1
  Co  Co8  1  0.000000  0.718720  0.500000  1
  Co  Co9  1  0.282821  0.282161  0.500000  1
  Co  Co10  1  0.873430  0.352879  0.500000  1
  Co  Co11  1  0.717179  0.999340  0.500000  1
  Co  Co12  1  0.817978  0.627340  0.000000  1
  Co  Co13  1  0.182022  0.809361  0.000000  1
  Co  Co14  1  0.357883  0.877410  0.500000  1
  Co  Co15  1  0.126570  0.479448  0.500000  1
  Co  Co16  1  0.642117  0.519527  0.500000  1
  Co  Co17  1  0.000000  0.001275  0.000000  1
  Co  Co18  1  0.515796  0.645996  0.500000  1
  Co  Co19  1  0.484204  0.130200  0.500000  1
  Co  Co20  1  0.196801  0.371811  0.000000  1
  Co  Co21  1  0.803199  0.175010  0.000000  1
  As  As22  1  0.000000  0.345648  0.000000  1
  As  As23  1  0.823553  0.512716  0.500000  1
  As  As24  1  0.683891  0.167043  0.500000  1
  As  As25  1  0.178153  0.174758  0.000000  1
  As  As26  1  0.641737  0.645805  0.000000  1
  As  As27  1  0.821847  0.996605  0.000000  1
  As  As28  1  0.515721  0.833833  0.500000  1
  As  As29  1  0.176447  0.689162  0.500000  1
  As  As30  1  0.358263  0.004068  0.000000  1
  As  As31  1  0.484279  0.318114  0.500000  1
  As  As32  1  0.000000  0.824447  0.000000  1
  As  As33  1  0.316109  0.483152  0.500000  1
  Ru  Ru34  1  0.446998  0.448997  0.000000  1
  Ru  Ru35  1  0.553002  0.002000  0.000000  1
