# generated using pymatgen
data_Li6HoPu2N6
_symmetry_space_group_name_H-M   'P 1'
_cell_length_a   5.99349900
_cell_length_b   5.99350028
_cell_length_c   5.46044900
_cell_angle_alpha   90.00000000
_cell_angle_beta   90.00000000
_cell_angle_gamma   120.00000951
_symmetry_Int_Tables_number   1
_chemical_formula_structural   Li6HoPu2N6
_chemical_formula_sum   'Li6 Ho1 Pu2 N6'
_cell_volume   169.87126160
_cell_formula_units_Z   1
loop_
 _symmetry_equiv_pos_site_id
 _symmetry_equiv_pos_as_xyz
  1  'x, y, z'
loop_
 _atom_site_type_symbol
 _atom_site_label
 _atom_site_symmetry_multiplicity
 _atom_site_fract_x
 _atom_site_fract_y
 _atom_site_fract_z
 _atom_site_occupancy
  Li  Li0  1  0.989636  0.660676  0.608701  1
  Li  Li1  1  0.339324  0.328960  0.608701  1
  Li  Li2  1  0.671040  0.010364  0.608701  1
  Li  Li3  1  0.010364  0.339324  0.391299  1
  Li  Li4  1  0.660676  0.671040  0.391299  1
  Li  Li5  1  0.328960  0.989636  0.391299  1
  Ho  Ho6  1  0.000000  0.000000  0.000000  1
  Pu  Pu7  1  0.333333  0.666667  0.996118  1
  Pu  Pu8  1  0.666667  0.333333  0.003882  1
  N  N9  1  0.000613  0.653954  0.223669  1
  N  N10  1  0.346046  0.346659  0.223669  1
  N  N11  1  0.653341  0.999387  0.223669  1
  N  N12  1  0.999387  0.346046  0.776331  1
  N  N13  1  0.653954  0.653341  0.776331  1
  N  N14  1  0.346659  0.000613  0.776331  1
