# generated using pymatgen
data_Pr2ZnSi3
_symmetry_space_group_name_H-M   'P 1'
_cell_length_a   8.22927300
_cell_length_b   8.22928077
_cell_length_c   8.62094300
_cell_angle_alpha   90.00000000
_cell_angle_beta   90.00000000
_cell_angle_gamma   120.00000279
_symmetry_Int_Tables_number   1
_chemical_formula_structural   Pr2ZnSi3
_chemical_formula_sum   'Pr8 Zn4 Si12'
_cell_volume   505.60195320
_cell_formula_units_Z   4
loop_
 _symmetry_equiv_pos_site_id
 _symmetry_equiv_pos_as_xyz
  1  'x, y, z'
loop_
 _atom_site_type_symbol
 _atom_site_label
 _atom_site_symmetry_multiplicity
 _atom_site_fract_x
 _atom_site_fract_y
 _atom_site_fract_z
 _atom_site_occupancy
  Pr  Pr0  1  0.500278  0.499722  0.750000  1
  Pr  Pr1  1  0.499722  0.500278  0.250000  1
  Pr  Pr2  1  0.999443  0.499722  0.750000  1
  Pr  Pr3  1  0.000557  0.500278  0.250000  1
  Pr  Pr4  1  0.500278  0.000557  0.750000  1
  Pr  Pr5  1  0.499722  0.999443  0.250000  1
  Pr  Pr6  1  0.000000  0.000000  0.750000  1
  Pr  Pr7  1  0.000000  0.000000  0.250000  1
  Zn  Zn8  1  0.666667  0.333333  0.998435  1
  Zn  Zn9  1  0.333333  0.666667  0.001565  1
  Zn  Zn10  1  0.333333  0.666667  0.498435  1
  Zn  Zn11  1  0.666667  0.333333  0.501565  1
  Si  Si12  1  0.834443  0.165557  0.999807  1
  Si  Si13  1  0.165557  0.834443  0.000193  1
  Si  Si14  1  0.331115  0.165557  0.999807  1
  Si  Si15  1  0.165557  0.834443  0.499807  1
  Si  Si16  1  0.668885  0.834443  0.000193  1
  Si  Si17  1  0.834443  0.165557  0.500193  1
  Si  Si18  1  0.834443  0.668885  0.999807  1
  Si  Si19  1  0.668885  0.834443  0.499807  1
  Si  Si20  1  0.165557  0.331115  0.000193  1
  Si  Si21  1  0.331115  0.165557  0.500193  1
  Si  Si22  1  0.165557  0.331115  0.499807  1
  Si  Si23  1  0.834443  0.668885  0.500193  1
