# generated using pymatgen
data_LaScTc2P7(Ru4Rh)2
_symmetry_space_group_name_H-M   'P 1'
_cell_length_a   9.44393700
_cell_length_b   9.50937484
_cell_length_c   3.93251900
_cell_angle_alpha   90.00000000
_cell_angle_beta   90.00000000
_cell_angle_gamma   120.17056966
_symmetry_Int_Tables_number   1
_chemical_formula_structural   LaScTc2P7(Ru4Rh)2
_chemical_formula_sum   'La1 Sc1 Tc2 P7 Ru8 Rh2'
_cell_volume   305.32156993
_cell_formula_units_Z   1
loop_
 _symmetry_equiv_pos_site_id
 _symmetry_equiv_pos_as_xyz
  1  'x, y, z'
loop_
 _atom_site_type_symbol
 _atom_site_label
 _atom_site_symmetry_multiplicity
 _atom_site_fract_x
 _atom_site_fract_y
 _atom_site_fract_z
 _atom_site_occupancy
  La  La0  1  0.330204  0.665482  0.000000  1
  Sc  Sc1  1  0.665421  0.330895  0.500000  1
  Tc  Tc2  1  0.910375  0.118871  0.500000  1
  Tc  Tc3  1  0.213315  0.093342  0.500000  1
  P  P4  1  0.607190  0.715882  0.500000  1
  P  P5  1  0.001148  0.003271  0.000000  1
  P  P6  1  0.278787  0.887493  0.500000  1
  P  P7  1  0.106109  0.394207  0.500000  1
  P  P8  1  0.883806  0.573062  0.000000  1
  P  P9  1  0.426638  0.304215  0.000000  1
  P  P10  1  0.696081  0.118416  0.000000  1
  Ru  Ru11  1  0.880134  0.795240  0.500000  1
  Ru  Ru12  1  0.726464  0.888460  0.000000  1
  Ru  Ru13  1  0.108311  0.839778  0.000000  1
  Ru  Ru14  1  0.165116  0.273822  0.000000  1
  Ru  Ru15  1  0.431342  0.069423  0.000000  1
  Ru  Ru16  1  0.931446  0.358567  0.000000  1
  Ru  Ru17  1  0.643148  0.570487  0.000000  1
  Ru  Ru18  1  0.040446  0.606292  0.500000  1
  Rh  Rh19  1  0.558446  0.951541  0.500000  1
  Rh  Rh20  1  0.396073  0.441252  0.500000  1
