# generated using pymatgen
data_TbGd(BiO4)2
_symmetry_space_group_name_H-M   'P 1'
_cell_length_a   5.53656676
_cell_length_b   7.86015720
_cell_length_c   7.83115400
_cell_angle_alpha   83.23463965
_cell_angle_beta   90.29373628
_cell_angle_gamma   91.84046403
_symmetry_Int_Tables_number   1
_chemical_formula_structural   TbGd(BiO4)2
_chemical_formula_sum   'Tb2 Gd2 Bi4 O16'
_cell_volume   338.25048857
_cell_formula_units_Z   2
loop_
 _symmetry_equiv_pos_site_id
 _symmetry_equiv_pos_as_xyz
  1  'x, y, z'
loop_
 _atom_site_type_symbol
 _atom_site_label
 _atom_site_symmetry_multiplicity
 _atom_site_fract_x
 _atom_site_fract_y
 _atom_site_fract_z
 _atom_site_occupancy
  Tb  Tb0  1  0.262007  0.126889  0.615663  1
  Tb  Tb1  1  0.737993  0.873111  0.384337  1
  Gd  Gd2  1  0.222966  0.144803  0.112873  1
  Gd  Gd3  1  0.777034  0.855197  0.887127  1
  Bi  Bi4  1  0.233853  0.661376  0.182742  1
  Bi  Bi5  1  0.766147  0.338624  0.817258  1
  Bi  Bi6  1  0.725139  0.338761  0.321966  1
  Bi  Bi7  1  0.274861  0.661239  0.678034  1
  O  O8  1  0.093728  0.417907  0.674031  1
  O  O9  1  0.906272  0.582093  0.325969  1
  O  O10  1  0.583767  0.327435  0.573527  1
  O  O11  1  0.416233  0.672565  0.426473  1
  O  O12  1  0.898640  0.331084  0.074839  1
  O  O13  1  0.101360  0.668916  0.925161  1
  O  O14  1  0.397056  0.418478  0.183824  1
  O  O15  1  0.602944  0.581522  0.816176  1
  O  O16  1  0.020345  0.890096  0.168136  1
  O  O17  1  0.979655  0.109904  0.831864  1
  O  O18  1  0.500458  0.105638  0.332580  1
  O  O19  1  0.499542  0.894362  0.667420  1
  O  O20  1  0.474820  0.169595  0.883015  1
  O  O21  1  0.525180  0.830405  0.116985  1
  O  O22  1  0.993121  0.157478  0.389227  1
  O  O23  1  0.006879  0.842522  0.610773  1
