# generated using pymatgen
data_Dy8Ga3Ir
_symmetry_space_group_name_H-M   'P 1'
_cell_length_a   10.06581200
_cell_length_b   10.06581295
_cell_length_c   7.03570600
_cell_angle_alpha   90.00000000
_cell_angle_beta   90.00000000
_cell_angle_gamma   119.99999687
_symmetry_Int_Tables_number   1
_chemical_formula_structural   Dy8Ga3Ir
_chemical_formula_sum   'Dy16 Ga6 Ir2'
_cell_volume   617.35646340
_cell_formula_units_Z   2
loop_
 _symmetry_equiv_pos_site_id
 _symmetry_equiv_pos_as_xyz
  1  'x, y, z'
loop_
 _atom_site_type_symbol
 _atom_site_label
 _atom_site_symmetry_multiplicity
 _atom_site_fract_x
 _atom_site_fract_y
 _atom_site_fract_z
 _atom_site_occupancy
  Dy  Dy0  1  0.170696  0.829304  0.510793  1
  Dy  Dy1  1  0.658609  0.829304  0.510793  1
  Dy  Dy2  1  0.170696  0.341391  0.510793  1
  Dy  Dy3  1  0.829304  0.170696  0.010793  1
  Dy  Dy4  1  0.341391  0.170696  0.010793  1
  Dy  Dy5  1  0.829304  0.658609  0.010793  1
  Dy  Dy6  1  0.333333  0.666667  0.837021  1
  Dy  Dy7  1  0.666667  0.333333  0.337021  1
  Dy  Dy8  1  0.465001  0.534999  0.204997  1
  Dy  Dy9  1  0.069997  0.534999  0.204997  1
  Dy  Dy10  1  0.465001  0.930003  0.204997  1
  Dy  Dy11  1  0.534999  0.465001  0.704997  1
  Dy  Dy12  1  0.930003  0.465001  0.704997  1
  Dy  Dy13  1  0.534999  0.069997  0.704997  1
  Dy  Dy14  1  0.000000  0.000000  0.233487  1
  Dy  Dy15  1  0.000000  0.000000  0.733487  1
  Ga  Ga16  1  0.163543  0.836457  0.958266  1
  Ga  Ga17  1  0.672915  0.836457  0.958266  1
  Ga  Ga18  1  0.163543  0.327085  0.958266  1
  Ga  Ga19  1  0.836457  0.163543  0.458266  1
  Ga  Ga20  1  0.327085  0.163543  0.458266  1
  Ga  Ga21  1  0.836457  0.672915  0.458266  1
  Ir  Ir22  1  0.333333  0.666667  0.444741  1
  Ir  Ir23  1  0.666667  0.333333  0.944741  1
