# generated using pymatgen
data_Rb5UF9
_symmetry_space_group_name_H-M   'P 1'
_cell_length_a   7.88800287
_cell_length_b   7.88800337
_cell_length_c   11.19548700
_cell_angle_alpha   90.00000000
_cell_angle_beta   90.00000000
_cell_angle_gamma   116.84039249
_symmetry_Int_Tables_number   1
_chemical_formula_structural   Rb5UF9
_chemical_formula_sum   'Rb10 U2 F18'
_cell_volume   621.54464186
_cell_formula_units_Z   2
loop_
 _symmetry_equiv_pos_site_id
 _symmetry_equiv_pos_as_xyz
  1  'x, y, z'
loop_
 _atom_site_type_symbol
 _atom_site_label
 _atom_site_symmetry_multiplicity
 _atom_site_fract_x
 _atom_site_fract_y
 _atom_site_fract_z
 _atom_site_occupancy
  Rb  Rb0  1  0.141209  0.352839  0.900903  1
  Rb  Rb1  1  0.858791  0.647161  0.400903  1
  Rb  Rb2  1  0.647161  0.858791  0.900903  1
  Rb  Rb3  1  0.352839  0.141209  0.400903  1
  Rb  Rb4  1  0.117407  0.393285  0.553862  1
  Rb  Rb5  1  0.882593  0.606715  0.053862  1
  Rb  Rb6  1  0.606715  0.882593  0.553862  1
  Rb  Rb7  1  0.393285  0.117407  0.053862  1
  Rb  Rb8  1  0.577954  0.422046  0.713585  1
  Rb  Rb9  1  0.422046  0.577954  0.213585  1
  U  U10  1  0.162196  0.837804  0.749242  1
  U  U11  1  0.837804  0.162196  0.249242  1
  F  F12  1  0.477154  0.043311  0.769173  1
  F  F13  1  0.522846  0.956689  0.269173  1
  F  F14  1  0.956689  0.522846  0.769173  1
  F  F15  1  0.043311  0.477154  0.269173  1
  F  F16  1  0.210883  0.134213  0.680384  1
  F  F17  1  0.789117  0.865787  0.180384  1
  F  F18  1  0.865787  0.789117  0.680384  1
  F  F19  1  0.134213  0.210883  0.180384  1
  F  F20  1  0.518228  0.481772  0.961331  1
  F  F21  1  0.481772  0.518228  0.461331  1
  F  F22  1  0.242139  0.757861  0.942127  1
  F  F23  1  0.757861  0.242139  0.442127  1
  F  F24  1  0.951329  0.048671  0.401117  1
  F  F25  1  0.048671  0.951329  0.901117  1
  F  F26  1  0.802818  0.197182  0.051832  1
  F  F27  1  0.197182  0.802818  0.551832  1
  F  F28  1  0.657132  0.342868  0.226619  1
  F  F29  1  0.342868  0.657132  0.726619  1
