# generated using pymatgen
data_Sc8Co2Bi3Te
_symmetry_space_group_name_H-M   'P 1'
_cell_length_a   8.25068852
_cell_length_b   8.25076169
_cell_length_c   8.30347551
_cell_angle_alpha   96.25867713
_cell_angle_beta   96.25425657
_cell_angle_gamma   141.32052758
_symmetry_Int_Tables_number   1
_chemical_formula_structural   Sc8Co2Bi3Te
_chemical_formula_sum   'Sc8 Co2 Bi3 Te1'
_cell_volume   333.58794224
_cell_formula_units_Z   1
loop_
 _symmetry_equiv_pos_site_id
 _symmetry_equiv_pos_as_xyz
  1  'x, y, z'
loop_
 _atom_site_type_symbol
 _atom_site_label
 _atom_site_symmetry_multiplicity
 _atom_site_fract_x
 _atom_site_fract_y
 _atom_site_fract_z
 _atom_site_occupancy
  Sc  Sc0  1  0.692208  0.579277  0.271539  1
  Sc  Sc1  1  0.576631  0.309458  0.886167  1
  Sc  Sc2  1  0.079329  0.192218  0.271497  1
  Sc  Sc3  1  0.919595  0.807047  0.726567  1
  Sc  Sc4  1  0.190992  0.921789  0.112687  1
  Sc  Sc5  1  0.809482  0.076718  0.886128  1
  Sc  Sc6  1  0.306916  0.419513  0.726516  1
  Sc  Sc7  1  0.421707  0.690842  0.112634  1
  Co  Co8  1  0.248488  0.248489  0.996989  1
  Co  Co9  1  0.748491  0.748495  0.996978  1
  Bi  Bi10  1  0.359458  0.140109  0.499561  1
  Bi  Bi11  1  0.640100  0.859453  0.499556  1
  Bi  Bi12  1  0.857185  0.357180  0.214362  1
  Te  Te13  1  0.149418  0.649414  0.798818  1
