# generated using pymatgen
data_Dy2YThFe8
_symmetry_space_group_name_H-M   'P 1'
_cell_length_a   5.18540900
_cell_length_b   5.18540919
_cell_length_c   8.96253120
_cell_angle_alpha   73.18498967
_cell_angle_beta   90.00000000
_cell_angle_gamma   119.99999239
_symmetry_Int_Tables_number   1
_chemical_formula_structural   Dy2YThFe8
_chemical_formula_sum   'Dy2 Y1 Th1 Fe8'
_cell_volume   196.71467273
_cell_formula_units_Z   1
loop_
 _symmetry_equiv_pos_site_id
 _symmetry_equiv_pos_as_xyz
  1  'x, y, z'
loop_
 _atom_site_type_symbol
 _atom_site_label
 _atom_site_symmetry_multiplicity
 _atom_site_fract_x
 _atom_site_fract_y
 _atom_site_fract_z
 _atom_site_occupancy
  Dy  Dy0  1  0.001386  0.002772  0.995842  1
  Dy  Dy1  1  0.498820  0.997640  0.503539  1
  Y  Y2  1  0.374787  0.749574  0.875639  1
  Th  Th3  1  0.875036  0.750071  0.374893  1
  Fe  Fe4  1  0.438061  0.375803  0.186136  1
  Fe  Fe5  1  0.937515  0.373723  0.688761  1
  Fe  Fe6  1  0.438061  0.876122  0.186136  1
  Fe  Fe7  1  0.937515  0.875029  0.688761  1
  Fe  Fe8  1  0.186889  0.373777  0.439335  1
  Fe  Fe9  1  0.687979  0.375960  0.936061  1
  Fe  Fe10  1  0.937742  0.375803  0.186136  1
  Fe  Fe11  1  0.436209  0.373723  0.688761  1
