# generated using pymatgen
data_Tb12FeTc3
_symmetry_space_group_name_H-M   'P 1'
_cell_length_a   6.30145328
_cell_length_b   7.34308916
_cell_length_c   9.22797600
_cell_angle_alpha   90.00000000
_cell_angle_beta   90.00000000
_cell_angle_gamma   90.01662741
_symmetry_Int_Tables_number   1
_chemical_formula_structural   Tb12FeTc3
_chemical_formula_sum   'Tb12 Fe1 Tc3'
_cell_volume   426.99811733
_cell_formula_units_Z   1
loop_
 _symmetry_equiv_pos_site_id
 _symmetry_equiv_pos_as_xyz
  1  'x, y, z'
loop_
 _atom_site_type_symbol
 _atom_site_label
 _atom_site_symmetry_multiplicity
 _atom_site_fract_x
 _atom_site_fract_y
 _atom_site_fract_z
 _atom_site_occupancy
  Tb  Tb0  1  0.332754  0.677429  0.063823  1
  Tb  Tb1  1  0.163368  0.176325  0.437838  1
  Tb  Tb2  1  0.665356  0.327937  0.566177  1
  Tb  Tb3  1  0.832085  0.821196  0.935189  1
  Tb  Tb4  1  0.665356  0.327937  0.933823  1
  Tb  Tb5  1  0.832085  0.821196  0.564811  1
  Tb  Tb6  1  0.332754  0.677429  0.436177  1
  Tb  Tb7  1  0.163368  0.176325  0.062162  1
  Tb  Tb8  1  0.871264  0.541811  0.250000  1
  Tb  Tb9  1  0.627059  0.042338  0.250000  1
  Tb  Tb10  1  0.140101  0.456503  0.750000  1
  Tb  Tb11  1  0.374627  0.950820  0.750000  1
  Fe  Fe12  1  0.537329  0.614556  0.750000  1
  Tc  Tc13  1  0.037272  0.888384  0.250000  1
  Tc  Tc14  1  0.460267  0.388802  0.250000  1
  Tc  Tc15  1  0.964956  0.111010  0.750000  1
