# generated using pymatgen
data_YHo3Tm4(ReB6)4
_symmetry_space_group_name_H-M   'P 1'
_cell_length_a   3.65470200
_cell_length_b   9.12317600
_cell_length_c   11.50283700
_cell_angle_alpha   89.99678339
_cell_angle_beta   90.00000000
_cell_angle_gamma   90.00000000
_symmetry_Int_Tables_number   1
_chemical_formula_structural   YHo3Tm4(ReB6)4
_chemical_formula_sum   'Y1 Ho3 Tm4 Re4 B24'
_cell_volume   383.53322244
_cell_formula_units_Z   1
loop_
 _symmetry_equiv_pos_site_id
 _symmetry_equiv_pos_as_xyz
  1  'x, y, z'
loop_
 _atom_site_type_symbol
 _atom_site_label
 _atom_site_symmetry_multiplicity
 _atom_site_fract_x
 _atom_site_fract_y
 _atom_site_fract_z
 _atom_site_occupancy
  Y  Y0  1  0.000000  0.322929  0.413954  1
  Ho  Ho1  1  0.000000  0.676836  0.586068  1
  Ho  Ho2  1  0.000000  0.823204  0.086073  1
  Ho  Ho3  1  0.000000  0.176783  0.913945  1
  Tm  Tm4  1  0.000000  0.943251  0.370263  1
  Tm  Tm5  1  0.000000  0.056643  0.629798  1
  Tm  Tm6  1  0.000000  0.443309  0.129657  1
  Tm  Tm7  1  0.000000  0.556738  0.870323  1
  Re  Re8  1  0.000000  0.639500  0.320288  1
  Re  Re9  1  0.000000  0.360829  0.679857  1
  Re  Re10  1  0.000000  0.139006  0.179319  1
  Re  Re11  1  0.000000  0.860828  0.820447  1
  B  B12  1  0.500000  0.553744  0.432898  1
  B  B13  1  0.500000  0.446787  0.567363  1
  B  B14  1  0.500000  0.053362  0.067064  1
  B  B15  1  0.500000  0.946592  0.932900  1
  B  B16  1  0.500000  0.750141  0.418685  1
  B  B17  1  0.500000  0.249834  0.581711  1
  B  B18  1  0.500000  0.250073  0.081278  1
  B  B19  1  0.500000  0.749948  0.918658  1
  B  B20  1  0.500000  0.792826  0.265369  1
  B  B21  1  0.500000  0.207190  0.734673  1
  B  B22  1  0.500000  0.292664  0.234294  1
  B  B23  1  0.500000  0.707246  0.765422  1
  B  B24  1  0.500000  0.630604  0.184965  1
  B  B25  1  0.500000  0.369462  0.815020  1
  B  B26  1  0.500000  0.130268  0.314727  1
  B  B27  1  0.500000  0.869427  0.685056  1
  B  B28  1  0.500000  0.981710  0.212271  1
  B  B29  1  0.500000  0.018215  0.787711  1
  B  B30  1  0.500000  0.482091  0.287475  1
  B  B31  1  0.500000  0.518300  0.712375  1
  B  B32  1  0.500000  0.599120  0.027626  1
  B  B33  1  0.500000  0.400911  0.972353  1
  B  B34  1  0.500000  0.098726  0.472473  1
  B  B35  1  0.500000  0.900901  0.527644  1
