# generated using pymatgen
data_La5Pr3Te8
_symmetry_space_group_name_H-M   'P 1'
_cell_length_a   9.15026303
_cell_length_b   9.12188611
_cell_length_c   9.12188600
_cell_angle_alpha   59.99999313
_cell_angle_beta   60.10252758
_cell_angle_gamma   60.10252715
_symmetry_Int_Tables_number   1
_chemical_formula_structural   La5Pr3Te8
_chemical_formula_sum   'La5 Pr3 Te8'
_cell_volume   539.21148587
_cell_formula_units_Z   1
loop_
 _symmetry_equiv_pos_site_id
 _symmetry_equiv_pos_as_xyz
  1  'x, y, z'
loop_
 _atom_site_type_symbol
 _atom_site_label
 _atom_site_symmetry_multiplicity
 _atom_site_fract_x
 _atom_site_fract_y
 _atom_site_fract_z
 _atom_site_occupancy
  La  La0  1  0.125000  0.625000  0.125000  1
  La  La1  1  0.125000  0.125000  0.625000  1
  La  La2  1  0.625000  0.125000  0.125000  1
  La  La3  1  0.125000  0.125000  0.125000  1
  La  La4  1  0.125000  0.625000  0.625000  1
  Pr  Pr5  1  0.625000  0.125000  0.625000  1
  Pr  Pr6  1  0.625000  0.625000  0.625000  1
  Pr  Pr7  1  0.625000  0.625000  0.125000  1
  Te  Te8  1  0.376703  0.873163  0.375066  1
  Te  Te9  1  0.873297  0.376837  0.874934  1
  Te  Te10  1  0.873297  0.874934  0.376837  1
  Te  Te11  1  0.873297  0.874934  0.874934  1
  Te  Te12  1  0.872569  0.375810  0.375810  1
  Te  Te13  1  0.376703  0.375066  0.873163  1
  Te  Te14  1  0.376703  0.375066  0.375066  1
  Te  Te15  1  0.377431  0.874190  0.874190  1
