# generated using pymatgen
data_Li2Cu(Se3I)3
_symmetry_space_group_name_H-M   'P 1'
_cell_length_a   9.77027149
_cell_length_b   9.73329236
_cell_length_c   9.73329212
_cell_angle_alpha   94.34990741
_cell_angle_beta   95.36424952
_cell_angle_gamma   95.36425361
_symmetry_Int_Tables_number   1
_chemical_formula_structural   Li2Cu(Se3I)3
_chemical_formula_sum   'Li4 Cu2 Se18 I6'
_cell_volume   914.16969373
_cell_formula_units_Z   2
loop_
 _symmetry_equiv_pos_site_id
 _symmetry_equiv_pos_as_xyz
  1  'x, y, z'
loop_
 _atom_site_type_symbol
 _atom_site_label
 _atom_site_symmetry_multiplicity
 _atom_site_fract_x
 _atom_site_fract_y
 _atom_site_fract_z
 _atom_site_occupancy
  Li  Li0  1  0.400236  0.892990  0.892990  1
  Li  Li1  1  0.897314  0.897003  0.404004  1
  Li  Li2  1  0.897314  0.404004  0.897003  1
  Li  Li3  1  0.602991  0.110860  0.110860  1
  Cu  Cu4  1  0.111214  0.607069  0.111267  1
  Cu  Cu5  1  0.111214  0.111267  0.607069  1
  Se  Se6  1  0.865806  0.607714  0.607714  1
  Se  Se7  1  0.607593  0.605494  0.866884  1
  Se  Se8  1  0.607593  0.866884  0.605494  1
  Se  Se9  1  0.388120  0.129800  0.391786  1
  Se  Se10  1  0.123715  0.385747  0.385747  1
  Se  Se11  1  0.388120  0.391786  0.129800  1
  Se  Se12  1  0.127419  0.870627  0.870627  1
  Se  Se13  1  0.875331  0.873084  0.129863  1
  Se  Se14  1  0.875331  0.129863  0.873084  1
  Se  Se15  1  0.122166  0.857064  0.119333  1
  Se  Se16  1  0.875797  0.120691  0.120691  1
  Se  Se17  1  0.122166  0.119333  0.857064  1
  Se  Se18  1  0.454522  0.704764  0.704764  1
  Se  Se19  1  0.705040  0.706939  0.453385  1
  Se  Se20  1  0.705040  0.453385  0.706939  1
  Se  Se21  1  0.282036  0.543890  0.284873  1
  Se  Se22  1  0.539232  0.297483  0.297483  1
  Se  Se23  1  0.282036  0.284873  0.543890  1
  I  I24  1  0.155996  0.856497  0.507691  1
  I  I25  1  0.855886  0.504377  0.155703  1
  I  I26  1  0.504446  0.154212  0.848905  1
  I  I27  1  0.855886  0.155703  0.504377  1
  I  I28  1  0.155996  0.507691  0.856497  1
  I  I29  1  0.504446  0.848905  0.154212  1
