# generated using pymatgen
data_Pa5Fe18P12Pt
_symmetry_space_group_name_H-M   'P 1'
_cell_length_a   11.98117500
_cell_length_b   11.98117619
_cell_length_c   3.69433400
_cell_angle_alpha   90.00000000
_cell_angle_beta   90.00000000
_cell_angle_gamma   119.99999948
_symmetry_Int_Tables_number   1
_chemical_formula_structural   Pa5Fe18P12Pt
_chemical_formula_sum   'Pa5 Fe18 P12 Pt1'
_cell_volume   459.26744018
_cell_formula_units_Z   1
loop_
 _symmetry_equiv_pos_site_id
 _symmetry_equiv_pos_as_xyz
  1  'x, y, z'
loop_
 _atom_site_type_symbol
 _atom_site_label
 _atom_site_symmetry_multiplicity
 _atom_site_fract_x
 _atom_site_fract_y
 _atom_site_fract_z
 _atom_site_occupancy
  Pa  Pa0  1  0.666667  0.333333  0.000000  1
  Pa  Pa1  1  0.333333  0.666667  0.000000  1
  Pa  Pa2  1  0.198057  0.198057  0.500000  1
  Pa  Pa3  1  0.801943  0.000000  0.500000  1
  Pa  Pa4  1  0.000000  0.801943  0.500000  1
  Fe  Fe5  1  0.817225  0.195102  0.000000  1
  Fe  Fe6  1  0.804898  0.622122  0.000000  1
  Fe  Fe7  1  0.377878  0.182775  0.000000  1
  Fe  Fe8  1  0.195102  0.817225  0.000000  1
  Fe  Fe9  1  0.622122  0.804898  0.000000  1
  Fe  Fe10  1  0.182775  0.377878  0.000000  1
  Fe  Fe11  1  0.559502  0.559502  0.000000  1
  Fe  Fe12  1  0.440498  0.000000  0.000000  1
  Fe  Fe13  1  0.000000  0.440498  0.000000  1
  Fe  Fe14  1  0.635117  0.124526  0.500000  1
  Fe  Fe15  1  0.875474  0.510591  0.500000  1
  Fe  Fe16  1  0.489409  0.364883  0.500000  1
  Fe  Fe17  1  0.124526  0.635117  0.500000  1
  Fe  Fe18  1  0.510591  0.875474  0.500000  1
  Fe  Fe19  1  0.364883  0.489409  0.500000  1
  Fe  Fe20  1  0.714469  0.714469  0.500000  1
  Fe  Fe21  1  0.285531  0.000000  0.500000  1
  Fe  Fe22  1  0.000000  0.285531  0.500000  1
  P  P23  1  0.378383  0.378383  0.000000  1
  P  P24  1  0.621617  0.000000  0.000000  1
  P  P25  1  0.000000  0.621617  0.000000  1
  P  P26  1  0.833209  0.309543  0.500000  1
  P  P27  1  0.690457  0.523666  0.500000  1
  P  P28  1  0.476334  0.166791  0.500000  1
  P  P29  1  0.309543  0.833209  0.500000  1
  P  P30  1  0.523666  0.690457  0.500000  1
  P  P31  1  0.166791  0.476334  0.500000  1
  P  P32  1  0.807082  0.807082  0.000000  1
  P  P33  1  0.192918  0.000000  0.000000  1
  P  P34  1  0.000000  0.192918  0.000000  1
  Pt  Pt35  1  0.000000  0.000000  0.000000  1
