# generated using pymatgen
data_Li2Tb7Dy(SiB4)4
_symmetry_space_group_name_H-M   'P 1'
_cell_length_a   7.17149200
_cell_length_b   7.17149200
_cell_length_c   7.89521400
_cell_angle_alpha   90.00110282
_cell_angle_beta   89.99889718
_cell_angle_gamma   90.00325967
_symmetry_Int_Tables_number   1
_chemical_formula_structural   Li2Tb7Dy(SiB4)4
_chemical_formula_sum   'Li2 Tb7 Dy1 Si4 B16'
_cell_volume   406.05320449
_cell_formula_units_Z   1
loop_
 _symmetry_equiv_pos_site_id
 _symmetry_equiv_pos_as_xyz
  1  'x, y, z'
loop_
 _atom_site_type_symbol
 _atom_site_label
 _atom_site_symmetry_multiplicity
 _atom_site_fract_x
 _atom_site_fract_y
 _atom_site_fract_z
 _atom_site_occupancy
  Li  Li0  1  0.000029  0.000051  0.499958  1
  Li  Li1  1  0.499949  0.499971  0.499958  1
  Tb  Tb2  1  0.683424  0.183458  0.235701  1
  Tb  Tb3  1  0.316571  0.816596  0.764303  1
  Tb  Tb4  1  0.316542  0.816576  0.235701  1
  Tb  Tb5  1  0.816635  0.683365  0.235683  1
  Tb  Tb6  1  0.816597  0.683403  0.764312  1
  Tb  Tb7  1  0.683404  0.183429  0.764303  1
  Tb  Tb8  1  0.183424  0.316576  0.764328  1
  Dy  Dy9  1  0.183411  0.316589  0.235155  1
  Si  Si10  1  0.114667  0.614348  0.499784  1
  Si  Si11  1  0.885652  0.385333  0.499784  1
  Si  Si12  1  0.385240  0.114760  0.499728  1
  Si  Si13  1  0.614504  0.885496  0.499950  1
  B  B14  1  0.173712  0.040107  0.000109  1
  B  B15  1  0.826376  0.960071  0.000051  1
  B  B16  1  0.960160  0.173750  0.000138  1
  B  B17  1  0.326250  0.539840  0.000138  1
  B  B18  1  0.040003  0.826368  0.000065  1
  B  B19  1  0.673632  0.459997  0.000065  1
  B  B20  1  0.539929  0.673624  0.000051  1
  B  B21  1  0.459893  0.326288  0.000109  1
  B  B22  1  0.089114  0.588987  0.000126  1
  B  B23  1  0.911013  0.410886  0.000126  1
  B  B24  1  0.410889  0.089111  0.000021  1
  B  B25  1  0.589074  0.910926  0.000011  1
  B  B26  1  0.000117  0.000220  0.159876  1
  B  B27  1  0.000028  0.000019  0.840296  1
  B  B28  1  0.499981  0.499972  0.840296  1
  B  B29  1  0.499780  0.499883  0.159876  1
