# generated using pymatgen
data_Dy5VReO12
_symmetry_space_group_name_H-M   'P 1'
_cell_length_a   6.79445847
_cell_length_b   6.79445833
_cell_length_c   7.48262041
_cell_angle_alpha   73.87480402
_cell_angle_beta   73.87480283
_cell_angle_gamma   50.19135927
_symmetry_Int_Tables_number   1
_chemical_formula_structural   Dy5VReO12
_chemical_formula_sum   'Dy5 V1 Re1 O12'
_cell_volume   252.56933105
_cell_formula_units_Z   1
loop_
 _symmetry_equiv_pos_site_id
 _symmetry_equiv_pos_as_xyz
  1  'x, y, z'
loop_
 _atom_site_type_symbol
 _atom_site_label
 _atom_site_symmetry_multiplicity
 _atom_site_fract_x
 _atom_site_fract_y
 _atom_site_fract_z
 _atom_site_occupancy
  Dy  Dy0  1  0.709895  0.679892  0.640472  1
  Dy  Dy1  1  0.320108  0.290105  0.359528  1
  Dy  Dy2  1  0.687779  0.684804  0.175610  1
  Dy  Dy3  1  0.315196  0.312221  0.824390  1
  Dy  Dy4  1  0.008864  0.991136  0.500000  1
  V  V5  1  0.765527  0.234473  0.000000  1
  Re  Re6  1  0.216700  0.783300  0.000000  1
  O  O7  1  0.996921  0.004770  0.197132  1
  O  O8  1  0.995230  0.003079  0.802868  1
  O  O9  1  0.571144  0.091942  0.083234  1
  O  O10  1  0.409146  0.906513  0.918032  1
  O  O11  1  0.908058  0.428856  0.916766  1
  O  O12  1  0.093487  0.590854  0.081968  1
  O  O13  1  0.487138  0.512490  0.180544  1
  O  O14  1  0.487510  0.512862  0.819456  1
  O  O15  1  0.409914  0.893835  0.429360  1
  O  O16  1  0.598613  0.087397  0.579260  1
  O  O17  1  0.106165  0.590086  0.570640  1
  O  O18  1  0.912603  0.401387  0.420740  1
