# generated using pymatgen
data_CaSnGeRh3
_symmetry_space_group_name_H-M   'P 1'
_cell_length_a   7.01027964
_cell_length_b   7.00980443
_cell_length_c   7.01027763
_cell_angle_alpha   130.56110125
_cell_angle_beta   113.66372973
_cell_angle_gamma   87.04302425
_symmetry_Int_Tables_number   1
_chemical_formula_structural   CaSnGeRh3
_chemical_formula_sum   'Ca2 Sn2 Ge2 Rh6'
_cell_volume   228.59532457
_cell_formula_units_Z   2
loop_
 _symmetry_equiv_pos_site_id
 _symmetry_equiv_pos_as_xyz
  1  'x, y, z'
loop_
 _atom_site_type_symbol
 _atom_site_label
 _atom_site_symmetry_multiplicity
 _atom_site_fract_x
 _atom_site_fract_y
 _atom_site_fract_z
 _atom_site_occupancy
  Ca  Ca0  1  0.769304  0.018400  0.249096  1
  Ca  Ca1  1  0.230696  0.981600  0.750904  1
  Sn  Sn2  1  0.566997  0.316489  0.749492  1
  Sn  Sn3  1  0.433003  0.683511  0.250508  1
  Ge  Ge4  1  0.101670  0.352282  0.250613  1
  Ge  Ge5  1  0.898330  0.647718  0.749387  1
  Rh  Rh6  1  0.218484  0.500000  0.718484  1
  Rh  Rh7  1  0.782381  0.000000  0.782381  1
  Rh  Rh8  1  0.781516  0.500000  0.281516  1
  Rh  Rh9  1  0.217619  0.000000  0.217619  1
  Rh  Rh10  1  0.500000  0.500000  0.500000  1
  Rh  Rh11  1  0.000000  0.500000  0.000000  1
