# generated using pymatgen
data_Tm5Lu5(AlSb)3
_symmetry_space_group_name_H-M   'P 1'
_cell_length_a   8.68717814
_cell_length_b   8.70559096
_cell_length_c   6.32377600
_cell_angle_alpha   90.00000000
_cell_angle_beta   90.00000000
_cell_angle_gamma   119.66527961
_symmetry_Int_Tables_number   1
_chemical_formula_structural   Tm5Lu5(AlSb)3
_chemical_formula_sum   'Tm5 Lu5 Al3 Sb3'
_cell_volume   415.56508529
_cell_formula_units_Z   1
loop_
 _symmetry_equiv_pos_site_id
 _symmetry_equiv_pos_as_xyz
  1  'x, y, z'
loop_
 _atom_site_type_symbol
 _atom_site_label
 _atom_site_symmetry_multiplicity
 _atom_site_fract_x
 _atom_site_fract_y
 _atom_site_fract_z
 _atom_site_occupancy
  Tm  Tm0  1  0.759295  0.002231  0.750000  1
  Tm  Tm1  1  0.987524  0.233418  0.250000  1
  Tm  Tm2  1  0.763926  0.764656  0.250000  1
  Tm  Tm3  1  0.243327  0.232006  0.750000  1
  Tm  Tm4  1  0.012920  0.770574  0.750000  1
  Lu  Lu5  1  0.332778  0.679296  0.002724  1
  Lu  Lu6  1  0.666494  0.325598  0.497585  1
  Lu  Lu7  1  0.666494  0.325598  0.002415  1
  Lu  Lu8  1  0.332778  0.679296  0.497276  1
  Lu  Lu9  1  0.233620  0.988723  0.250000  1
  Al  Al10  1  0.599478  0.999121  0.250000  1
  Al  Al11  1  0.404347  0.003726  0.750000  1
  Al  Al12  1  0.995107  0.600320  0.250000  1
  Sb  Sb13  1  0.388006  0.391680  0.250000  1
  Sb  Sb14  1  0.608812  0.606755  0.750000  1
  Sb  Sb15  1  0.005095  0.397000  0.750000  1
