# generated using pymatgen
data_Lu10InSn3Bi2
_symmetry_space_group_name_H-M   'P 1'
_cell_length_a   8.87018100
_cell_length_b   8.83842473
_cell_length_c   6.36951200
_cell_angle_alpha   90.00000000
_cell_angle_beta   90.00000000
_cell_angle_gamma   120.17586412
_symmetry_Int_Tables_number   1
_chemical_formula_structural   Lu10InSn3Bi2
_chemical_formula_sum   'Lu10 In1 Sn3 Bi2'
_cell_volume   431.68980004
_cell_formula_units_Z   1
loop_
 _symmetry_equiv_pos_site_id
 _symmetry_equiv_pos_as_xyz
  1  'x, y, z'
loop_
 _atom_site_type_symbol
 _atom_site_label
 _atom_site_symmetry_multiplicity
 _atom_site_fract_x
 _atom_site_fract_y
 _atom_site_fract_z
 _atom_site_occupancy
  Lu  Lu0  1  0.666584  0.333773  0.001023  1
  Lu  Lu1  1  0.324824  0.660636  0.000969  1
  Lu  Lu2  1  0.324824  0.660636  0.499031  1
  Lu  Lu3  1  0.666584  0.333773  0.498977  1
  Lu  Lu4  1  0.766790  0.759451  0.750000  1
  Lu  Lu5  1  0.236345  0.002691  0.750000  1
  Lu  Lu6  1  0.010022  0.244274  0.750000  1
  Lu  Lu7  1  0.232159  0.233282  0.250000  1
  Lu  Lu8  1  0.764278  0.005411  0.250000  1
  Lu  Lu9  1  0.003946  0.762620  0.250000  1
  In  In10  1  0.399655  0.398292  0.750000  1
  Sn  Sn11  1  0.999134  0.606023  0.750000  1
  Sn  Sn12  1  0.394327  0.998058  0.250000  1
  Sn  Sn13  1  0.997376  0.396122  0.250000  1
  Bi  Bi14  1  0.608287  0.997646  0.750000  1
  Bi  Bi15  1  0.604866  0.607315  0.250000  1
