# generated using pymatgen
data_Pr4Dy12Cd4IrRu3
_symmetry_space_group_name_H-M   'P 1'
_cell_length_a   9.75959645
_cell_length_b   9.74953376
_cell_length_c   9.74953308
_cell_angle_alpha   59.53553637
_cell_angle_beta   59.55523589
_cell_angle_gamma   59.55522785
_symmetry_Int_Tables_number   1
_chemical_formula_structural   Pr4Dy12Cd4IrRu3
_chemical_formula_sum   'Pr4 Dy12 Cd4 Ir1 Ru3'
_cell_volume   649.23953651
_cell_formula_units_Z   1
loop_
 _symmetry_equiv_pos_site_id
 _symmetry_equiv_pos_as_xyz
  1  'x, y, z'
loop_
 _atom_site_type_symbol
 _atom_site_label
 _atom_site_symmetry_multiplicity
 _atom_site_fract_x
 _atom_site_fract_y
 _atom_site_fract_z
 _atom_site_occupancy
  Pr  Pr0  1  0.561911  0.935998  0.565089  1
  Pr  Pr1  1  0.938278  0.561403  0.938235  1
  Pr  Pr2  1  0.561911  0.565089  0.935998  1
  Pr  Pr3  1  0.938278  0.938235  0.561403  1
  Dy  Dy4  1  0.348574  0.345109  0.345109  1
  Dy  Dy5  1  0.343072  0.350587  0.961367  1
  Dy  Dy6  1  0.343072  0.961367  0.350587  1
  Dy  Dy7  1  0.964807  0.343813  0.343813  1
  Dy  Dy8  1  0.814062  0.186280  0.186280  1
  Dy  Dy9  1  0.185634  0.814030  0.814030  1
  Dy  Dy10  1  0.188950  0.810586  0.188193  1
  Dy  Dy11  1  0.813048  0.189773  0.809352  1
  Dy  Dy12  1  0.188950  0.188193  0.810586  1
  Dy  Dy13  1  0.813048  0.809352  0.189773  1
  Dy  Dy14  1  0.946940  0.552781  0.552781  1
  Dy  Dy15  1  0.550339  0.948415  0.948415  1
  Cd  Cd16  1  0.581248  0.578205  0.578205  1
  Cd  Cd17  1  0.577840  0.581675  0.261624  1
  Cd  Cd18  1  0.577840  0.261624  0.581675  1
  Cd  Cd19  1  0.260565  0.578545  0.578545  1
  Ir  Ir20  1  0.577982  0.137428  0.137428  1
  Ru  Ru21  1  0.147938  0.135160  0.135160  1
  Ru  Ru22  1  0.137856  0.145618  0.580731  1
  Ru  Ru23  1  0.137856  0.580731  0.145618  1
