# generated using pymatgen
data_Ba6Lu4TeIrO18
_symmetry_space_group_name_H-M   'P 1'
_cell_length_a   6.00405500
_cell_length_b   6.00405412
_cell_length_c   14.67046700
_cell_angle_alpha   90.00000000
_cell_angle_beta   90.00000000
_cell_angle_gamma   119.99998835
_symmetry_Int_Tables_number   1
_chemical_formula_structural   Ba6Lu4TeIrO18
_chemical_formula_sum   'Ba6 Lu4 Te1 Ir1 O18'
_cell_volume   457.99831622
_cell_formula_units_Z   1
loop_
 _symmetry_equiv_pos_site_id
 _symmetry_equiv_pos_as_xyz
  1  'x, y, z'
loop_
 _atom_site_type_symbol
 _atom_site_label
 _atom_site_symmetry_multiplicity
 _atom_site_fract_x
 _atom_site_fract_y
 _atom_site_fract_z
 _atom_site_occupancy
  Ba  Ba0  1  0.333333  0.666667  0.089277  1
  Ba  Ba1  1  0.666667  0.333333  0.910723  1
  Ba  Ba2  1  0.333333  0.666667  0.590710  1
  Ba  Ba3  1  0.666667  0.333333  0.409290  1
  Ba  Ba4  1  0.000000  0.000000  0.248502  1
  Ba  Ba5  1  0.000000  0.000000  0.751498  1
  Lu  Lu6  1  0.333333  0.666667  0.832278  1
  Lu  Lu7  1  0.666667  0.333333  0.167722  1
  Lu  Lu8  1  0.333333  0.666667  0.332106  1
  Lu  Lu9  1  0.666667  0.333333  0.667894  1
  Te  Te10  1  0.000000  0.000000  0.500000  1
  Ir  Ir11  1  0.000000  0.000000  0.000000  1
  O  O12  1  0.861739  0.690475  0.576461  1
  O  O13  1  0.000424  0.528884  0.249837  1
  O  O14  1  0.171931  0.310393  0.923710  1
  O  O15  1  0.861538  0.171931  0.076290  1
  O  O16  1  0.828735  0.138261  0.576461  1
  O  O17  1  0.828069  0.689607  0.076290  1
  O  O18  1  0.690475  0.828735  0.423539  1
  O  O19  1  0.471540  0.000424  0.750163  1
  O  O20  1  0.528884  0.528460  0.750163  1
  O  O21  1  0.309525  0.171265  0.576461  1
  O  O22  1  0.138261  0.309525  0.423539  1
  O  O23  1  0.171265  0.861739  0.423539  1
  O  O24  1  0.310393  0.138462  0.076290  1
  O  O25  1  0.528460  0.999576  0.249837  1
  O  O26  1  0.471116  0.471540  0.249837  1
  O  O27  1  0.999576  0.471116  0.750163  1
  O  O28  1  0.138462  0.828069  0.923710  1
  O  O29  1  0.689607  0.861538  0.923710  1
