# generated using pymatgen
data_ErTm5Pa2(ReB6)4
_symmetry_space_group_name_H-M   'P 1'
_cell_length_a   3.67802500
_cell_length_b   9.11990427
_cell_length_c   11.48714001
_cell_angle_alpha   90.30913282
_cell_angle_beta   90.00000000
_cell_angle_gamma   90.00000000
_symmetry_Int_Tables_number   1
_chemical_formula_structural   ErTm5Pa2(ReB6)4
_chemical_formula_sum   'Er1 Tm5 Pa2 Re4 B24'
_cell_volume   385.31023858
_cell_formula_units_Z   1
loop_
 _symmetry_equiv_pos_site_id
 _symmetry_equiv_pos_as_xyz
  1  'x, y, z'
loop_
 _atom_site_type_symbol
 _atom_site_label
 _atom_site_symmetry_multiplicity
 _atom_site_fract_x
 _atom_site_fract_y
 _atom_site_fract_z
 _atom_site_occupancy
  Er  Er0  1  0.000000  0.823484  0.085503  1
  Tm  Tm1  1  0.000000  0.176528  0.914525  1
  Tm  Tm2  1  0.000000  0.944758  0.372284  1
  Tm  Tm3  1  0.000000  0.055280  0.627744  1
  Tm  Tm4  1  0.000000  0.443688  0.126147  1
  Tm  Tm5  1  0.000000  0.556197  0.873799  1
  Pa  Pa6  1  0.000000  0.321014  0.413100  1
  Pa  Pa7  1  0.000000  0.678988  0.586909  1
  Re  Re8  1  0.000000  0.635881  0.323731  1
  Re  Re9  1  0.000000  0.364037  0.676354  1
  Re  Re10  1  0.000000  0.140248  0.181252  1
  Re  Re11  1  0.000000  0.859945  0.818701  1
  B  B12  1  0.500000  0.553657  0.432772  1
  B  B13  1  0.500000  0.446328  0.567241  1
  B  B14  1  0.500000  0.053306  0.066720  1
  B  B15  1  0.500000  0.946912  0.933168  1
  B  B16  1  0.500000  0.749437  0.419233  1
  B  B17  1  0.500000  0.250555  0.580812  1
  B  B18  1  0.500000  0.248501  0.079474  1
  B  B19  1  0.500000  0.751502  0.920317  1
  B  B20  1  0.500000  0.792126  0.264931  1
  B  B21  1  0.500000  0.207817  0.735200  1
  B  B22  1  0.500000  0.292234  0.233462  1
  B  B23  1  0.500000  0.707766  0.766498  1
  B  B24  1  0.500000  0.631143  0.184609  1
  B  B25  1  0.500000  0.368691  0.815471  1
  B  B26  1  0.500000  0.131261  0.314188  1
  B  B27  1  0.500000  0.868774  0.685824  1
  B  B28  1  0.500000  0.981432  0.211930  1
  B  B29  1  0.500000  0.018791  0.788136  1
  B  B30  1  0.500000  0.482535  0.286021  1
  B  B31  1  0.500000  0.517416  0.713989  1
  B  B32  1  0.500000  0.603878  0.028986  1
  B  B33  1  0.500000  0.395877  0.970956  1
  B  B34  1  0.500000  0.107377  0.470256  1
  B  B35  1  0.500000  0.892632  0.529757  1
