# generated using pymatgen
data_Pr2HgPdAu
_symmetry_space_group_name_H-M   'P 1'
_cell_length_a   8.03368800
_cell_length_b   8.09620200
_cell_length_c   3.91065600
_cell_angle_alpha   90.00000000
_cell_angle_beta   90.00000000
_cell_angle_gamma   90.00000000
_symmetry_Int_Tables_number   1
_chemical_formula_structural   Pr2HgPdAu
_chemical_formula_sum   'Pr4 Hg2 Pd2 Au2'
_cell_volume   254.35829872
_cell_formula_units_Z   2
loop_
 _symmetry_equiv_pos_site_id
 _symmetry_equiv_pos_as_xyz
  1  'x, y, z'
loop_
 _atom_site_type_symbol
 _atom_site_label
 _atom_site_symmetry_multiplicity
 _atom_site_fract_x
 _atom_site_fract_y
 _atom_site_fract_z
 _atom_site_occupancy
  Pr  Pr0  1  0.326615  0.815132  0.500000  1
  Pr  Pr1  1  0.826615  0.684868  0.500000  1
  Pr  Pr2  1  0.178613  0.335808  0.500000  1
  Pr  Pr3  1  0.678613  0.164192  0.500000  1
  Hg  Hg4  1  0.996788  0.993584  0.000000  1
  Hg  Hg5  1  0.496788  0.506416  0.000000  1
  Pd  Pd6  1  0.123101  0.626613  0.000000  1
  Pd  Pd7  1  0.623101  0.873387  0.000000  1
  Au  Au8  1  0.374882  0.119765  0.000000  1
  Au  Au9  1  0.874882  0.380235  0.000000  1
