# generated using pymatgen
data_SmThReB6
_symmetry_space_group_name_H-M   'P 1'
_cell_length_a   3.81417900
_cell_length_b   9.37466500
_cell_length_c   11.75311300
_cell_angle_alpha   90.00000000
_cell_angle_beta   90.00000000
_cell_angle_gamma   90.00000000
_symmetry_Int_Tables_number   1
_chemical_formula_structural   SmThReB6
_chemical_formula_sum   'Sm4 Th4 Re4 B24'
_cell_volume   420.25195236
_cell_formula_units_Z   4
loop_
 _symmetry_equiv_pos_site_id
 _symmetry_equiv_pos_as_xyz
  1  'x, y, z'
loop_
 _atom_site_type_symbol
 _atom_site_label
 _atom_site_symmetry_multiplicity
 _atom_site_fract_x
 _atom_site_fract_y
 _atom_site_fract_z
 _atom_site_occupancy
  Sm  Sm0  1  0.000000  0.944291  0.372864  1
  Sm  Sm1  1  0.000000  0.055709  0.627136  1
  Sm  Sm2  1  0.000000  0.444291  0.127136  1
  Sm  Sm3  1  0.000000  0.555709  0.872864  1
  Th  Th4  1  0.000000  0.323272  0.413523  1
  Th  Th5  1  0.000000  0.676728  0.586477  1
  Th  Th6  1  0.000000  0.823272  0.086477  1
  Th  Th7  1  0.000000  0.176728  0.913523  1
  Re  Re8  1  0.000000  0.637913  0.321673  1
  Re  Re9  1  0.000000  0.362087  0.678327  1
  Re  Re10  1  0.000000  0.137913  0.178327  1
  Re  Re11  1  0.000000  0.862087  0.821673  1
  B  B12  1  0.500000  0.555308  0.430631  1
  B  B13  1  0.500000  0.444692  0.569369  1
  B  B14  1  0.500000  0.055308  0.069369  1
  B  B15  1  0.500000  0.944692  0.930631  1
  B  B16  1  0.500000  0.746497  0.417798  1
  B  B17  1  0.500000  0.253503  0.582202  1
  B  B18  1  0.500000  0.246497  0.082202  1
  B  B19  1  0.500000  0.753503  0.917798  1
  B  B20  1  0.500000  0.788772  0.267612  1
  B  B21  1  0.500000  0.211228  0.732388  1
  B  B22  1  0.500000  0.288772  0.232388  1
  B  B23  1  0.500000  0.711228  0.767612  1
  B  B24  1  0.500000  0.632120  0.187400  1
  B  B25  1  0.500000  0.367880  0.812600  1
  B  B26  1  0.500000  0.132120  0.312600  1
  B  B27  1  0.500000  0.867880  0.687400  1
  B  B28  1  0.500000  0.986902  0.212887  1
  B  B29  1  0.500000  0.013098  0.787113  1
  B  B30  1  0.500000  0.486902  0.287113  1
  B  B31  1  0.500000  0.513098  0.712887  1
  B  B32  1  0.500000  0.610901  0.030784  1
  B  B33  1  0.500000  0.389099  0.969216  1
  B  B34  1  0.500000  0.110901  0.469216  1
  B  B35  1  0.500000  0.889099  0.530784  1
