# generated using pymatgen
data_Er16MgHg3Pt4
_symmetry_space_group_name_H-M   'P 1'
_cell_length_a   9.59190423
_cell_length_b   9.60246912
_cell_length_c   9.60247000
_cell_angle_alpha   60.00000385
_cell_angle_beta   59.96356190
_cell_angle_gamma   59.96355656
_symmetry_Int_Tables_number   1
_chemical_formula_structural   Er16MgHg3Pt4
_chemical_formula_sum   'Er16 Mg1 Hg3 Pt4'
_cell_volume   625.05221270
_cell_formula_units_Z   1
loop_
 _symmetry_equiv_pos_site_id
 _symmetry_equiv_pos_as_xyz
  1  'x, y, z'
loop_
 _atom_site_type_symbol
 _atom_site_label
 _atom_site_symmetry_multiplicity
 _atom_site_fract_x
 _atom_site_fract_y
 _atom_site_fract_z
 _atom_site_occupancy
  Er  Er0  1  0.354094  0.351671  0.351584  1
  Er  Er1  1  0.354188  0.351657  0.942494  1
  Er  Er2  1  0.354149  0.942550  0.351680  1
  Er  Er3  1  0.930894  0.356368  0.356368  1
  Er  Er4  1  0.808874  0.190273  0.190339  1
  Er  Er5  1  0.186117  0.812758  0.812774  1
  Er  Er6  1  0.186059  0.812736  0.188391  1
  Er  Er7  1  0.808900  0.190275  0.810657  1
  Er  Er8  1  0.186072  0.188372  0.812802  1
  Er  Er9  1  0.808897  0.810603  0.190310  1
  Er  Er10  1  0.933931  0.565425  0.565489  1
  Er  Er11  1  0.564626  0.935211  0.935135  1
  Er  Er12  1  0.564623  0.935180  0.565122  1
  Er  Er13  1  0.933963  0.565434  0.935257  1
  Er  Er14  1  0.564660  0.565111  0.935127  1
  Er  Er15  1  0.933959  0.935226  0.565461  1
  Mg  Mg16  1  0.282069  0.572505  0.572488  1
  Hg  Hg17  1  0.583626  0.589279  0.588983  1
  Hg  Hg18  1  0.583710  0.589205  0.238025  1
  Hg  Hg19  1  0.583792  0.238204  0.589042  1
  Pt  Pt20  1  0.141214  0.144985  0.145419  1
  Pt  Pt21  1  0.141025  0.145245  0.568363  1
  Pt  Pt22  1  0.141067  0.568272  0.145142  1
  Pt  Pt23  1  0.569491  0.143458  0.143553  1
