# generated using pymatgen
data_LiAl2CuI8
_symmetry_space_group_name_H-M   'P 1'
_cell_length_a   6.45818800
_cell_length_b   6.45818800
_cell_length_c   11.84943900
_cell_angle_alpha   90.00000000
_cell_angle_beta   90.00000000
_cell_angle_gamma   90.00000000
_symmetry_Int_Tables_number   1
_chemical_formula_structural   LiAl2CuI8
_chemical_formula_sum   'Li1 Al2 Cu1 I8'
_cell_volume   494.21867979
_cell_formula_units_Z   1
loop_
 _symmetry_equiv_pos_site_id
 _symmetry_equiv_pos_as_xyz
  1  'x, y, z'
loop_
 _atom_site_type_symbol
 _atom_site_label
 _atom_site_symmetry_multiplicity
 _atom_site_fract_x
 _atom_site_fract_y
 _atom_site_fract_z
 _atom_site_occupancy
  Li  Li0  1  0.500000  0.500000  0.000000  1
  Al  Al1  1  0.000000  0.500000  0.743240  1
  Al  Al2  1  0.500000  0.000000  0.256760  1
  Cu  Cu3  1  0.500000  0.500000  0.500000  1
  I  I4  1  0.219977  0.741162  0.868203  1
  I  I5  1  0.780023  0.258838  0.868203  1
  I  I6  1  0.239883  0.273224  0.620105  1
  I  I7  1  0.760117  0.726776  0.620105  1
  I  I8  1  0.741162  0.780023  0.131797  1
  I  I9  1  0.258838  0.219977  0.131797  1
  I  I10  1  0.273224  0.760117  0.379895  1
  I  I11  1  0.726776  0.239883  0.379895  1
