# generated using pymatgen
data_PrGaSiIr2Rh
_symmetry_space_group_name_H-M   'P 1'
_cell_length_a   6.80755850
_cell_length_b   6.78539224
_cell_length_c   6.79723644
_cell_angle_alpha   130.75420648
_cell_angle_beta   112.78638821
_cell_angle_gamma   87.78698092
_symmetry_Int_Tables_number   1
_chemical_formula_structural   PrGaSiIr2Rh
_chemical_formula_sum   'Pr2 Ga2 Si2 Ir4 Rh2'
_cell_volume   208.71097313
_cell_formula_units_Z   2
loop_
 _symmetry_equiv_pos_site_id
 _symmetry_equiv_pos_as_xyz
  1  'x, y, z'
loop_
 _atom_site_type_symbol
 _atom_site_label
 _atom_site_symmetry_multiplicity
 _atom_site_fract_x
 _atom_site_fract_y
 _atom_site_fract_z
 _atom_site_occupancy
  Pr  Pr0  1  0.250371  0.982409  0.732272  1
  Pr  Pr1  1  0.749014  0.017808  0.267516  1
  Ga  Ga2  1  0.073794  0.298884  0.225001  1
  Ga  Ga3  1  0.927676  0.700837  0.776178  1
  Si  Si4  1  0.407264  0.636115  0.227033  1
  Si  Si5  1  0.591968  0.363842  0.771822  1
  Ir  Ir6  1  0.499962  0.500786  0.500837  1
  Ir  Ir7  1  0.715255  0.000177  0.716077  1
  Ir  Ir8  1  0.258193  0.500723  0.757977  1
  Ir  Ir9  1  0.742089  0.499149  0.242134  1
  Rh  Rh10  1  0.000186  0.499404  0.999486  1
  Rh  Rh11  1  0.284228  0.999865  0.283668  1
