# generated using pymatgen
data_HfNb3Fe4(Co2P3)2
_symmetry_space_group_name_H-M   'P 1'
_cell_length_a   11.89583598
_cell_length_b   11.94149185
_cell_length_c   3.61893700
_cell_angle_alpha   90.00000000
_cell_angle_beta   90.00000000
_cell_angle_gamma   120.14227620
_symmetry_Int_Tables_number   1
_chemical_formula_structural   HfNb3Fe4(Co2P3)2
_chemical_formula_sum   'Hf2 Nb6 Fe8 Co8 P12'
_cell_volume   444.57064923
_cell_formula_units_Z   2
loop_
 _symmetry_equiv_pos_site_id
 _symmetry_equiv_pos_as_xyz
  1  'x, y, z'
loop_
 _atom_site_type_symbol
 _atom_site_label
 _atom_site_symmetry_multiplicity
 _atom_site_fract_x
 _atom_site_fract_y
 _atom_site_fract_z
 _atom_site_occupancy
  Hf  Hf0  1  0.333276  0.666624  0.000000  1
  Hf  Hf1  1  0.665683  0.334618  0.000000  1
  Nb  Nb2  1  0.821075  0.998597  0.500000  1
  Nb  Nb3  1  0.000262  0.821001  0.500000  1
  Nb  Nb4  1  0.179839  0.178828  0.500000  1
  Nb  Nb5  1  0.442388  0.000606  0.000000  1
  Nb  Nb6  1  0.000302  0.443183  0.000000  1
  Nb  Nb7  1  0.557570  0.557971  0.000000  1
  Fe  Fe8  1  0.275921  0.000076  0.500000  1
  Fe  Fe9  1  0.996840  0.273538  0.500000  1
  Fe  Fe10  1  0.724254  0.724315  0.500000  1
  Fe  Fe11  1  0.628546  0.807879  0.000000  1
  Fe  Fe12  1  0.192579  0.820674  0.000000  1
  Fe  Fe13  1  0.178121  0.370424  0.000000  1
  Fe  Fe14  1  0.371789  0.179806  0.000000  1
  Fe  Fe15  1  0.808077  0.628454  0.000000  1
  Co  Co16  1  0.819824  0.190423  0.000000  1
  Co  Co17  1  0.516670  0.874265  0.500000  1
  Co  Co18  1  0.127804  0.641743  0.500000  1
  Co  Co19  1  0.357550  0.485501  0.500000  1
  Co  Co20  1  0.484950  0.358041  0.500000  1
  Co  Co21  1  0.872518  0.514820  0.500000  1
  Co  Co22  1  0.644018  0.129123  0.500000  1
  Co  Co23  1  0.999720  0.999541  0.000000  1
  P  P24  1  0.175548  0.999606  0.000000  1
  P  P25  1  0.001586  0.175091  0.000000  1
  P  P26  1  0.824473  0.823732  0.000000  1
  P  P27  1  0.521445  0.693051  0.500000  1
  P  P28  1  0.307557  0.828833  0.500000  1
  P  P29  1  0.170887  0.477540  0.500000  1
  P  P30  1  0.478468  0.171898  0.500000  1
  P  P31  1  0.692769  0.522046  0.500000  1
  P  P32  1  0.828767  0.309573  0.500000  1
  P  P33  1  0.649681  0.998345  0.000000  1
  P  P34  1  0.000315  0.651071  0.000000  1
  P  P35  1  0.348926  0.349163  0.000000  1
