# generated using pymatgen
data_Ho5In2(HgIr)2
_symmetry_space_group_name_H-M   'P 1'
_cell_length_a   7.85464600
_cell_length_b   18.11303500
_cell_length_c   3.69051800
_cell_angle_alpha   90.00000000
_cell_angle_beta   90.00000000
_cell_angle_gamma   90.00000000
_symmetry_Int_Tables_number   1
_chemical_formula_structural   Ho5In2(HgIr)2
_chemical_formula_sum   'Ho10 In4 Hg4 Ir4'
_cell_volume   525.05545012
_cell_formula_units_Z   2
loop_
 _symmetry_equiv_pos_site_id
 _symmetry_equiv_pos_as_xyz
  1  'x, y, z'
loop_
 _atom_site_type_symbol
 _atom_site_label
 _atom_site_symmetry_multiplicity
 _atom_site_fract_x
 _atom_site_fract_y
 _atom_site_fract_z
 _atom_site_occupancy
  Ho  Ho0  1  0.500000  0.500000  0.000000  1
  Ho  Ho1  1  0.000000  0.000000  0.000000  1
  Ho  Ho2  1  0.756140  0.282275  0.000000  1
  Ho  Ho3  1  0.243860  0.717725  0.000000  1
  Ho  Ho4  1  0.743860  0.782275  0.000000  1
  Ho  Ho5  1  0.256140  0.217725  0.000000  1
  Ho  Ho6  1  0.611530  0.088564  0.000000  1
  Ho  Ho7  1  0.388470  0.911436  0.000000  1
  Ho  Ho8  1  0.888470  0.588564  0.000000  1
  Ho  Ho9  1  0.111530  0.411436  0.000000  1
  In  In10  1  0.573976  0.649193  0.500000  1
  In  In11  1  0.426024  0.350807  0.500000  1
  In  In12  1  0.926024  0.149193  0.500000  1
  In  In13  1  0.073976  0.850807  0.500000  1
  Hg  Hg14  1  0.710631  0.936536  0.500000  1
  Hg  Hg15  1  0.289369  0.063464  0.500000  1
  Hg  Hg16  1  0.789369  0.436536  0.500000  1
  Hg  Hg17  1  0.210631  0.563464  0.500000  1
  Ir  Ir18  1  0.544211  0.200282  0.500000  1
  Ir  Ir19  1  0.455789  0.799718  0.500000  1
  Ir  Ir20  1  0.955789  0.700282  0.500000  1
  Ir  Ir21  1  0.044211  0.299718  0.500000  1
