# generated using pymatgen
data_Eu(ZrIr)2
_symmetry_space_group_name_H-M   'P 1'
_cell_length_a   6.45039427
_cell_length_b   6.45039461
_cell_length_c   6.45039382
_cell_angle_alpha   138.77116660
_cell_angle_beta   138.77117751
_cell_angle_gamma   59.72394510
_symmetry_Int_Tables_number   1
_chemical_formula_structural   Eu(ZrIr)2
_chemical_formula_sum   'Eu1 Zr2 Ir2'
_cell_volume   115.40573067
_cell_formula_units_Z   1
loop_
 _symmetry_equiv_pos_site_id
 _symmetry_equiv_pos_as_xyz
  1  'x, y, z'
loop_
 _atom_site_type_symbol
 _atom_site_label
 _atom_site_symmetry_multiplicity
 _atom_site_fract_x
 _atom_site_fract_y
 _atom_site_fract_z
 _atom_site_occupancy
  Eu  Eu0  1  0.000000  0.000000  0.000000  1
  Zr  Zr1  1  0.749999  0.249999  0.500000  1
  Zr  Zr2  1  0.249999  0.749999  0.500000  1
  Ir  Ir3  1  0.383318  0.383318  0.000000  1
  Ir  Ir4  1  0.616682  0.616682  0.000000  1
