# generated using pymatgen
data_Dy3Co8
_symmetry_space_group_name_H-M   'P 1'
_cell_length_a   7.58219393
_cell_length_b   7.58308953
_cell_length_c   7.58408015
_cell_angle_alpha   109.46864231
_cell_angle_beta   109.45997203
_cell_angle_gamma   109.45423366
_symmetry_Int_Tables_number   1
_chemical_formula_structural   Dy3Co8
_chemical_formula_sum   'Dy6 Co16'
_cell_volume   335.80498241
_cell_formula_units_Z   2
loop_
 _symmetry_equiv_pos_site_id
 _symmetry_equiv_pos_as_xyz
  1  'x, y, z'
loop_
 _atom_site_type_symbol
 _atom_site_label
 _atom_site_symmetry_multiplicity
 _atom_site_fract_x
 _atom_site_fract_y
 _atom_site_fract_z
 _atom_site_occupancy
  Dy  Dy0  1  0.283268  0.283273  0.000101  1
  Dy  Dy1  1  0.716732  0.716727  0.999899  1
  Dy  Dy2  1  0.283270  0.000180  0.283353  1
  Dy  Dy3  1  0.716730  0.999820  0.716647  1
  Dy  Dy4  1  0.999816  0.716747  0.716669  1
  Dy  Dy5  1  0.000184  0.283253  0.283331  1
  Co  Co6  1  0.500000  0.500000  0.500000  1
  Co  Co7  1  0.000000  0.000000  0.500000  1
  Co  Co8  1  0.500000  0.000000  0.000000  1
  Co  Co9  1  0.000000  0.500000  0.000000  1
  Co  Co10  1  0.663590  0.000002  0.336452  1
  Co  Co11  1  0.336473  0.336475  0.672893  1
  Co  Co12  1  0.672862  0.336478  0.336478  1
  Co  Co13  1  0.000001  0.336399  0.663582  1
  Co  Co14  1  0.999999  0.663601  0.336418  1
  Co  Co15  1  0.336473  0.672874  0.336475  1
  Co  Co16  1  0.663527  0.663525  0.327107  1
  Co  Co17  1  0.663527  0.327126  0.663525  1
  Co  Co18  1  0.327138  0.663522  0.663522  1
  Co  Co19  1  0.663592  0.336431  0.000001  1
  Co  Co20  1  0.336410  0.999998  0.663548  1
  Co  Co21  1  0.336408  0.663569  0.999999  1
