# generated using pymatgen
data_Yb2Co12Si5P2
_symmetry_space_group_name_H-M   'P 1'
_cell_length_a   9.09840600
_cell_length_b   9.08210335
_cell_length_c   3.60067800
_cell_angle_alpha   90.00000000
_cell_angle_beta   90.00000000
_cell_angle_gamma   119.98201831
_symmetry_Int_Tables_number   1
_chemical_formula_structural   Yb2Co12Si5P2
_chemical_formula_sum   'Yb2 Co12 Si5 P2'
_cell_volume   257.71834454
_cell_formula_units_Z   1
loop_
 _symmetry_equiv_pos_site_id
 _symmetry_equiv_pos_as_xyz
  1  'x, y, z'
loop_
 _atom_site_type_symbol
 _atom_site_label
 _atom_site_symmetry_multiplicity
 _atom_site_fract_x
 _atom_site_fract_y
 _atom_site_fract_z
 _atom_site_occupancy
  Yb  Yb0  1  0.666038  0.335152  0.500000  1
  Yb  Yb1  1  0.331010  0.665574  0.000000  1
  Co  Co2  1  0.130461  0.848169  0.000000  1
  Co  Co3  1  0.374686  0.430913  0.500000  1
  Co  Co4  1  0.723924  0.875020  0.000000  1
  Co  Co5  1  0.563748  0.948090  0.500000  1
  Co  Co6  1  0.221567  0.094505  0.500000  1
  Co  Co7  1  0.883304  0.781094  0.500000  1
  Co  Co8  1  0.899573  0.125953  0.500000  1
  Co  Co9  1  0.948627  0.384514  0.000000  1
  Co  Co10  1  0.616986  0.562616  0.000000  1
  Co  Co11  1  0.435047  0.052565  0.000000  1
  Co  Co12  1  0.056916  0.619341  0.500000  1
  Co  Co13  1  0.147945  0.277324  0.000000  1
  Si  Si14  1  0.000632  0.998530  0.000000  1
  Si  Si15  1  0.599301  0.706918  0.500000  1
  Si  Si16  1  0.714751  0.114537  0.000000  1
  Si  Si17  1  0.887155  0.602553  0.000000  1
  Si  Si18  1  0.396242  0.284356  0.000000  1
  P  P19  1  0.294065  0.891485  0.500000  1
  P  P20  1  0.108017  0.400793  0.500000  1
