# generated using pymatgen
data_Er4SiPt12
_symmetry_space_group_name_H-M   'P 1'
_cell_length_a   7.27678590
_cell_length_b   7.27678526
_cell_length_c   7.27678600
_cell_angle_alpha   109.47121156
_cell_angle_beta   109.47120978
_cell_angle_gamma   109.47122540
_symmetry_Int_Tables_number   1
_chemical_formula_structural   Er4SiPt12
_chemical_formula_sum   'Er4 Si1 Pt12'
_cell_volume   296.61762271
_cell_formula_units_Z   1
loop_
 _symmetry_equiv_pos_site_id
 _symmetry_equiv_pos_as_xyz
  1  'x, y, z'
loop_
 _atom_site_type_symbol
 _atom_site_label
 _atom_site_symmetry_multiplicity
 _atom_site_fract_x
 _atom_site_fract_y
 _atom_site_fract_z
 _atom_site_occupancy
  Er  Er0  1  0.000000  0.000000  0.500000  1
  Er  Er1  1  0.000000  0.500000  0.000000  1
  Er  Er2  1  0.500000  0.000000  0.000000  1
  Er  Er3  1  0.500000  0.500000  0.500000  1
  Si  Si4  1  0.000000  0.000000  0.000000  1
  Pt  Pt5  1  0.750000  0.250000  0.500000  1
  Pt  Pt6  1  0.750000  0.500000  0.250000  1
  Pt  Pt7  1  0.500000  0.250000  0.750000  1
  Pt  Pt8  1  0.250000  0.500000  0.750000  1
  Pt  Pt9  1  0.250000  0.750000  0.500000  1
  Pt  Pt10  1  0.500000  0.750000  0.250000  1
  Pt  Pt11  1  0.722701  0.722701  0.000000  1
  Pt  Pt12  1  0.277299  0.000000  0.277299  1
  Pt  Pt13  1  0.000000  0.277299  0.277299  1
  Pt  Pt14  1  0.277299  0.277299  0.000000  1
  Pt  Pt15  1  0.722701  0.000000  0.722701  1
  Pt  Pt16  1  0.000000  0.722701  0.722701  1
