# generated using pymatgen
data_Dy9Y7Cd3AgIr4
_symmetry_space_group_name_H-M   'P 1'
_cell_length_a   9.64008638
_cell_length_b   9.64008640
_cell_length_c   9.63752338
_cell_angle_alpha   59.82563769
_cell_angle_beta   59.82563877
_cell_angle_gamma   59.88182904
_symmetry_Int_Tables_number   1
_chemical_formula_structural   Dy9Y7Cd3AgIr4
_chemical_formula_sum   'Dy9 Y7 Cd3 Ag1 Ir4'
_cell_volume   631.06686563
_cell_formula_units_Z   1
loop_
 _symmetry_equiv_pos_site_id
 _symmetry_equiv_pos_as_xyz
  1  'x, y, z'
loop_
 _atom_site_type_symbol
 _atom_site_label
 _atom_site_symmetry_multiplicity
 _atom_site_fract_x
 _atom_site_fract_y
 _atom_site_fract_z
 _atom_site_occupancy
  Dy  Dy0  1  0.349036  0.349036  0.349177  1
  Dy  Dy1  1  0.349417  0.349417  0.953604  1
  Dy  Dy2  1  0.349471  0.953683  0.349459  1
  Dy  Dy3  1  0.953683  0.349471  0.349459  1
  Dy  Dy4  1  0.810084  0.189665  0.189515  1
  Dy  Dy5  1  0.187681  0.809542  0.809698  1
  Dy  Dy6  1  0.189665  0.810084  0.189515  1
  Dy  Dy7  1  0.809542  0.187681  0.809698  1
  Dy  Dy8  1  0.189527  0.189527  0.810247  1
  Y  Y9  1  0.809554  0.809554  0.187580  1
  Y  Y10  1  0.936765  0.561239  0.561513  1
  Y  Y11  1  0.561420  0.936755  0.936692  1
  Y  Y12  1  0.561239  0.936765  0.561513  1
  Y  Y13  1  0.936755  0.561420  0.936692  1
  Y  Y14  1  0.561344  0.561344  0.936719  1
  Y  Y15  1  0.936738  0.936738  0.561551  1
  Cd  Cd16  1  0.581273  0.581273  0.258831  1
  Cd  Cd17  1  0.581241  0.258790  0.581239  1
  Cd  Cd18  1  0.258790  0.581241  0.581239  1
  Ag  Ag19  1  0.582776  0.582776  0.582742  1
  Ir  Ir20  1  0.141851  0.141851  0.141926  1
  Ir  Ir21  1  0.142829  0.142829  0.576072  1
  Ir  Ir22  1  0.143918  0.575406  0.142662  1
  Ir  Ir23  1  0.575406  0.143918  0.142662  1
