# generated using pymatgen
data_Tb4Ga18CuRu5
_symmetry_space_group_name_H-M   'P 1'
_cell_length_a   7.52863663
_cell_length_b   7.52863769
_cell_length_c   9.64814675
_cell_angle_alpha   90.38688601
_cell_angle_beta   90.38690537
_cell_angle_gamma   119.40707612
_symmetry_Int_Tables_number   1
_chemical_formula_structural   Tb4Ga18CuRu5
_chemical_formula_sum   'Tb4 Ga18 Cu1 Ru5'
_cell_volume   476.35666926
_cell_formula_units_Z   1
loop_
 _symmetry_equiv_pos_site_id
 _symmetry_equiv_pos_as_xyz
  1  'x, y, z'
loop_
 _atom_site_type_symbol
 _atom_site_label
 _atom_site_symmetry_multiplicity
 _atom_site_fract_x
 _atom_site_fract_y
 _atom_site_fract_z
 _atom_site_occupancy
  Tb  Tb0  1  0.997805  0.671069  0.250145  1
  Tb  Tb1  1  0.002195  0.328931  0.749855  1
  Tb  Tb2  1  0.671070  0.997805  0.250145  1
  Tb  Tb3  1  0.328930  0.002195  0.749855  1
  Ga  Ga4  1  0.130017  0.130017  0.250737  1
  Ga  Ga5  1  0.869983  0.869983  0.749263  1
  Ga  Ga6  1  0.004730  0.337012  0.076922  1
  Ga  Ga7  1  0.995270  0.662988  0.923078  1
  Ga  Ga8  1  0.993868  0.663928  0.575769  1
  Ga  Ga9  1  0.336072  0.006132  0.424231  1
  Ga  Ga10  1  0.006132  0.336072  0.424231  1
  Ga  Ga11  1  0.663928  0.993868  0.575769  1
  Ga  Ga12  1  0.662988  0.995270  0.923078  1
  Ga  Ga13  1  0.337012  0.004730  0.076922  1
  Ga  Ga14  1  0.336707  0.336707  0.560726  1
  Ga  Ga15  1  0.663293  0.663293  0.439274  1
  Ga  Ga16  1  0.660459  0.660459  0.061681  1
  Ga  Ga17  1  0.339541  0.339541  0.938319  1
  Ga  Ga18  1  0.336673  0.549866  0.249361  1
  Ga  Ga19  1  0.663327  0.450134  0.750639  1
  Ga  Ga20  1  0.549866  0.336673  0.249361  1
  Ga  Ga21  1  0.450134  0.663327  0.750639  1
  Cu  Cu22  1  0.000000  0.000000  0.000000  1
  Ru  Ru23  1  0.673620  0.326380  0.000000  1
  Ru  Ru24  1  0.326380  0.673620  0.000000  1
  Ru  Ru25  1  0.325832  0.674167  0.500000  1
  Ru  Ru26  1  0.674168  0.325833  0.500000  1
  Ru  Ru27  1  0.000000  0.000000  0.500000  1
