# generated using pymatgen
data_Zr2Be2AlIr5
_symmetry_space_group_name_H-M   'P 1'
_cell_length_a   9.51782300
_cell_length_b   9.51782300
_cell_length_c   3.14004300
_cell_angle_alpha   90.00000000
_cell_angle_beta   90.00000000
_cell_angle_gamma   90.00000000
_symmetry_Int_Tables_number   1
_chemical_formula_structural   Zr2Be2AlIr5
_chemical_formula_sum   'Zr4 Be4 Al2 Ir10'
_cell_volume   284.45321296
_cell_formula_units_Z   2
loop_
 _symmetry_equiv_pos_site_id
 _symmetry_equiv_pos_as_xyz
  1  'x, y, z'
loop_
 _atom_site_type_symbol
 _atom_site_label
 _atom_site_symmetry_multiplicity
 _atom_site_fract_x
 _atom_site_fract_y
 _atom_site_fract_z
 _atom_site_occupancy
  Zr  Zr0  1  0.675808  0.175808  0.000000  1
  Zr  Zr1  1  0.324192  0.824192  0.000000  1
  Zr  Zr2  1  0.175808  0.324192  0.000000  1
  Zr  Zr3  1  0.824192  0.675808  0.000000  1
  Be  Be4  1  0.123700  0.623700  0.000000  1
  Be  Be5  1  0.876300  0.376300  0.000000  1
  Be  Be6  1  0.623700  0.876300  0.000000  1
  Be  Be7  1  0.376300  0.123700  0.000000  1
  Al  Al8  1  0.000000  0.000000  0.000000  1
  Al  Al9  1  0.500000  0.500000  0.000000  1
  Ir  Ir10  1  0.210270  0.067682  0.500000  1
  Ir  Ir11  1  0.789730  0.932318  0.500000  1
  Ir  Ir12  1  0.067682  0.789730  0.500000  1
  Ir  Ir13  1  0.710270  0.432318  0.500000  1
  Ir  Ir14  1  0.932318  0.210270  0.500000  1
  Ir  Ir15  1  0.289730  0.567682  0.500000  1
  Ir  Ir16  1  0.567682  0.710270  0.500000  1
  Ir  Ir17  1  0.432318  0.289730  0.500000  1
  Ir  Ir18  1  0.500000  0.000000  0.500000  1
  Ir  Ir19  1  0.000000  0.500000  0.500000  1
