# generated using pymatgen
data_Cs2NbCuTe4
_symmetry_space_group_name_H-M   'P 1'
_cell_length_a   16.03800344
_cell_length_b   14.25754702
_cell_length_c   8.54339310
_cell_angle_alpha   85.51515013
_cell_angle_beta   62.40736737
_cell_angle_gamma   32.07748352
_symmetry_Int_Tables_number   1
_chemical_formula_structural   Cs2NbCuTe4
_chemical_formula_sum   'Cs4 Nb2 Cu2 Te8'
_cell_volume   684.46102002
_cell_formula_units_Z   2
loop_
 _symmetry_equiv_pos_site_id
 _symmetry_equiv_pos_as_xyz
  1  'x, y, z'
loop_
 _atom_site_type_symbol
 _atom_site_label
 _atom_site_symmetry_multiplicity
 _atom_site_fract_x
 _atom_site_fract_y
 _atom_site_fract_z
 _atom_site_occupancy
  Cs  Cs0  1  0.572081  0.572081  0.927919  1
  Cs  Cs1  1  0.927919  0.927919  0.572081  1
  Cs  Cs2  1  0.677919  0.677919  0.322081  1
  Cs  Cs3  1  0.322081  0.322081  0.677919  1
  Nb  Nb4  1  0.500000  0.500000  0.500000  1
  Nb  Nb5  1  0.750000  0.750000  0.750000  1
  Cu  Cu6  1  0.250000  0.250000  0.250000  1
  Cu  Cu7  1  0.000000  0.000000  0.000000  1
  Te  Te8  1  0.209290  0.899578  0.600080  1
  Te  Te9  1  0.291052  0.600080  0.899578  1
  Te  Te10  1  0.600080  0.291052  0.209290  1
  Te  Te11  1  0.899578  0.209290  0.291052  1
  Te  Te12  1  0.649920  0.958948  0.040710  1
  Te  Te13  1  0.350422  0.040710  0.958948  1
  Te  Te14  1  0.958948  0.649920  0.350422  1
  Te  Te15  1  0.040710  0.350422  0.649920  1
