# generated using pymatgen
data_LiTa4Ti3Os8
_symmetry_space_group_name_H-M   'P 1'
_cell_length_a   6.24922700
_cell_length_b   4.43169400
_cell_length_c   8.85455100
_cell_angle_alpha   90.00000000
_cell_angle_beta   89.99994661
_cell_angle_gamma   90.00000000
_symmetry_Int_Tables_number   1
_chemical_formula_structural   LiTa4Ti3Os8
_chemical_formula_sum   'Li1 Ta4 Ti3 Os8'
_cell_volume   245.22379534
_cell_formula_units_Z   1
loop_
 _symmetry_equiv_pos_site_id
 _symmetry_equiv_pos_as_xyz
  1  'x, y, z'
loop_
 _atom_site_type_symbol
 _atom_site_label
 _atom_site_symmetry_multiplicity
 _atom_site_fract_x
 _atom_site_fract_y
 _atom_site_fract_z
 _atom_site_occupancy
  Li  Li0  1  0.250000  0.250000  0.125019  1
  Ta  Ta1  1  0.749999  0.250000  0.125008  1
  Ta  Ta2  1  0.250000  0.749999  0.368013  1
  Ta  Ta3  1  0.750000  0.250000  0.625010  1
  Ta  Ta4  1  0.250001  0.749999  0.881960  1
  Ti  Ti5  1  0.750000  0.749999  0.372634  1
  Ti  Ti6  1  0.250000  0.250000  0.625007  1
  Ti  Ti7  1  0.750002  0.749999  0.877354  1
  Os  Os8  1  0.500359  0.749999  0.124989  1
  Os  Os9  1  0.999643  0.749999  0.124989  1
  Os  Os10  1  0.500108  0.250000  0.376405  1
  Os  Os11  1  0.999885  0.250000  0.376403  1
  Os  Os12  1  0.000748  0.749999  0.624994  1
  Os  Os13  1  0.499260  0.749999  0.624995  1
  Os  Os14  1  0.999887  0.250000  0.873610  1
  Os  Os15  1  0.500108  0.250000  0.873610  1
