# generated using pymatgen
data_Dy7Th(Sc3Pt4)4
_symmetry_space_group_name_H-M   'P 1'
_cell_length_a   7.40315436
_cell_length_b   7.36500554
_cell_length_c   13.87995972
_cell_angle_alpha   89.93570899
_cell_angle_beta   90.26653949
_cell_angle_gamma   90.03566834
_symmetry_Int_Tables_number   1
_chemical_formula_structural   Dy7Th(Sc3Pt4)4
_chemical_formula_sum   'Dy7 Th1 Sc12 Pt16'
_cell_volume   756.78590157
_cell_formula_units_Z   1
loop_
 _symmetry_equiv_pos_site_id
 _symmetry_equiv_pos_as_xyz
  1  'x, y, z'
loop_
 _atom_site_type_symbol
 _atom_site_label
 _atom_site_symmetry_multiplicity
 _atom_site_fract_x
 _atom_site_fract_y
 _atom_site_fract_z
 _atom_site_occupancy
  Dy  Dy0  1  0.993869  0.821567  0.902360  1
  Dy  Dy1  1  0.493414  0.675586  0.903704  1
  Dy  Dy2  1  0.991810  0.824386  0.594808  1
  Dy  Dy3  1  0.507523  0.325929  0.096281  1
  Dy  Dy4  1  0.008234  0.176273  0.404899  1
  Dy  Dy5  1  0.508142  0.323532  0.406382  1
  Dy  Dy6  1  0.491324  0.676292  0.595010  1
  Th  Th7  1  0.007361  0.176787  0.094766  1
  Sc  Sc8  1  0.166815  0.496712  0.749272  1
  Sc  Sc9  1  0.830887  0.504555  0.252184  1
  Sc  Sc10  1  0.336215  0.997065  0.251981  1
  Sc  Sc11  1  0.667457  0.001576  0.749381  1
  Sc  Sc12  1  0.332981  0.162511  0.624134  1
  Sc  Sc13  1  0.665672  0.837134  0.377233  1
  Sc  Sc14  1  0.166500  0.663004  0.376820  1
  Sc  Sc15  1  0.661658  0.832937  0.124554  1
  Sc  Sc16  1  0.834270  0.336112  0.623292  1
  Sc  Sc17  1  0.337959  0.162796  0.875677  1
  Sc  Sc18  1  0.831369  0.338944  0.873106  1
  Sc  Sc19  1  0.165938  0.664276  0.123951  1
  Pt  Pt20  1  0.032352  0.125901  0.750108  1
  Pt  Pt21  1  0.966858  0.873800  0.250292  1
  Pt  Pt22  1  0.466652  0.626320  0.251215  1
  Pt  Pt23  1  0.531590  0.374436  0.748646  1
  Pt  Pt24  1  0.295903  0.854959  0.750023  1
  Pt  Pt25  1  0.704559  0.146568  0.250812  1
  Pt  Pt26  1  0.204595  0.354828  0.250383  1
  Pt  Pt27  1  0.794834  0.645241  0.748706  1
  Pt  Pt28  1  0.173223  0.456306  0.543054  1
  Pt  Pt29  1  0.825407  0.544746  0.457396  1
  Pt  Pt30  1  0.325079  0.956460  0.457289  1
  Pt  Pt31  1  0.826740  0.543859  0.042222  1
  Pt  Pt32  1  0.672706  0.043268  0.543536  1
  Pt  Pt33  1  0.174355  0.454887  0.956638  1
  Pt  Pt34  1  0.679371  0.043518  0.957956  1
  Pt  Pt35  1  0.326378  0.956930  0.041930  1
