# generated using pymatgen
data_Zr4NbFe(B2Ru5)2
_symmetry_space_group_name_H-M   'P 1'
_cell_length_a   9.43744200
_cell_length_b   9.43744200
_cell_length_c   3.10681200
_cell_angle_alpha   90.00000000
_cell_angle_beta   90.00000000
_cell_angle_gamma   90.00000000
_symmetry_Int_Tables_number   1
_chemical_formula_structural   Zr4NbFe(B2Ru5)2
_chemical_formula_sum   'Zr4 Nb1 Fe1 B4 Ru10'
_cell_volume   276.70917856
_cell_formula_units_Z   1
loop_
 _symmetry_equiv_pos_site_id
 _symmetry_equiv_pos_as_xyz
  1  'x, y, z'
loop_
 _atom_site_type_symbol
 _atom_site_label
 _atom_site_symmetry_multiplicity
 _atom_site_fract_x
 _atom_site_fract_y
 _atom_site_fract_z
 _atom_site_occupancy
  Zr  Zr0  1  0.821722  0.673894  0.000000  1
  Zr  Zr1  1  0.178278  0.326106  0.000000  1
  Zr  Zr2  1  0.326106  0.821722  0.000000  1
  Zr  Zr3  1  0.673894  0.178278  0.000000  1
  Nb  Nb4  1  0.000000  0.000000  0.000000  1
  Fe  Fe5  1  0.500000  0.500000  0.000000  1
  B  B6  1  0.619292  0.873884  0.000000  1
  B  B7  1  0.380708  0.126116  0.000000  1
  B  B8  1  0.126116  0.619292  0.000000  1
  B  B9  1  0.873884  0.380708  0.000000  1
  Ru  Ru10  1  0.568179  0.713405  0.500000  1
  Ru  Ru11  1  0.431821  0.286595  0.500000  1
  Ru  Ru12  1  0.072483  0.780636  0.500000  1
  Ru  Ru13  1  0.927517  0.219364  0.500000  1
  Ru  Ru14  1  0.286595  0.568179  0.500000  1
  Ru  Ru15  1  0.713405  0.431821  0.500000  1
  Ru  Ru16  1  0.219364  0.072483  0.500000  1
  Ru  Ru17  1  0.780636  0.927517  0.500000  1
  Ru  Ru18  1  0.500000  0.000000  0.500000  1
  Ru  Ru19  1  0.000000  0.500000  0.500000  1
