# generated using pymatgen
data_AcNdPb2F14
_symmetry_space_group_name_H-M   'P 1'
_cell_length_a   6.00200127
_cell_length_b   6.35713309
_cell_length_c   8.81109100
_cell_angle_alpha   101.74969884
_cell_angle_beta   90.10598100
_cell_angle_gamma   89.96514252
_symmetry_Int_Tables_number   1
_chemical_formula_structural   AcNdPb2F14
_chemical_formula_sum   'Ac1 Nd1 Pb2 F14'
_cell_volume   329.14681443
_cell_formula_units_Z   1
loop_
 _symmetry_equiv_pos_site_id
 _symmetry_equiv_pos_as_xyz
  1  'x, y, z'
loop_
 _atom_site_type_symbol
 _atom_site_label
 _atom_site_symmetry_multiplicity
 _atom_site_fract_x
 _atom_site_fract_y
 _atom_site_fract_z
 _atom_site_occupancy
  Ac  Ac0  1  0.702300  0.658067  0.684884  1
  Nd  Nd1  1  0.198299  0.337191  0.310586  1
  Pb  Pb2  1  0.707031  0.808557  0.222180  1
  Pb  Pb3  1  0.208277  0.194624  0.779822  1
  F  F4  1  0.902546  0.439437  0.472222  1
  F  F5  1  0.392389  0.535041  0.512278  1
  F  F6  1  0.388706  0.910334  0.773503  1
  F  F7  1  0.947353  0.051356  0.227571  1
  F  F8  1  0.916921  0.006694  0.765873  1
  F  F9  1  0.459302  0.050989  0.245781  1
  F  F10  1  0.027183  0.480515  0.794748  1
  F  F11  1  0.470609  0.561441  0.209676  1
  F  F12  1  0.696425  0.769051  0.982340  1
  F  F13  1  0.205138  0.240197  0.022755  1
  F  F14  1  0.724699  0.865449  0.464124  1
  F  F15  1  0.220552  0.135844  0.535364  1
  F  F16  1  0.510238  0.366845  0.791514  1
  F  F17  1  0.974751  0.588369  0.204777  1
