# generated using pymatgen
data_Yb2(Al3Pt)3
_symmetry_space_group_name_H-M   'P 1'
_cell_length_a   7.62388262
_cell_length_b   7.62388246
_cell_length_c   9.48655400
_cell_angle_alpha   90.00000000
_cell_angle_beta   90.00000000
_cell_angle_gamma   119.58896990
_symmetry_Int_Tables_number   1
_chemical_formula_structural   Yb2(Al3Pt)3
_chemical_formula_sum   'Yb4 Al18 Pt6'
_cell_volume   479.48542985
_cell_formula_units_Z   2
loop_
 _symmetry_equiv_pos_site_id
 _symmetry_equiv_pos_as_xyz
  1  'x, y, z'
loop_
 _atom_site_type_symbol
 _atom_site_label
 _atom_site_symmetry_multiplicity
 _atom_site_fract_x
 _atom_site_fract_y
 _atom_site_fract_z
 _atom_site_occupancy
  Yb  Yb0  1  0.996741  0.670767  0.250000  1
  Yb  Yb1  1  0.003259  0.329233  0.750000  1
  Yb  Yb2  1  0.670767  0.996741  0.250000  1
  Yb  Yb3  1  0.329233  0.003259  0.750000  1
  Al  Al4  1  0.130784  0.130784  0.250000  1
  Al  Al5  1  0.869216  0.869216  0.750000  1
  Al  Al6  1  0.999699  0.334862  0.077092  1
  Al  Al7  1  0.000301  0.665138  0.922908  1
  Al  Al8  1  0.000301  0.665138  0.577092  1
  Al  Al9  1  0.334862  0.999699  0.422908  1
  Al  Al10  1  0.999699  0.334862  0.422908  1
  Al  Al11  1  0.665138  0.000301  0.577092  1
  Al  Al12  1  0.665138  0.000301  0.922908  1
  Al  Al13  1  0.334862  0.999699  0.077092  1
  Al  Al14  1  0.332213  0.332213  0.556483  1
  Al  Al15  1  0.667787  0.667787  0.443517  1
  Al  Al16  1  0.667787  0.667787  0.056483  1
  Al  Al17  1  0.332213  0.332213  0.943517  1
  Al  Al18  1  0.339600  0.545408  0.250000  1
  Al  Al19  1  0.660400  0.454592  0.750000  1
  Al  Al20  1  0.545408  0.339600  0.250000  1
  Al  Al21  1  0.454592  0.660400  0.750000  1
  Pt  Pt22  1  0.671221  0.328779  0.000000  1
  Pt  Pt23  1  0.328779  0.671221  0.000000  1
  Pt  Pt24  1  0.328779  0.671221  0.500000  1
  Pt  Pt25  1  0.671221  0.328779  0.500000  1
  Pt  Pt26  1  0.000000  0.000000  0.000000  1
  Pt  Pt27  1  0.000000  0.000000  0.500000  1
