# generated using pymatgen
data_Er16GaTc2Hg5
_symmetry_space_group_name_H-M   'P 1'
_cell_length_a   10.11854000
_cell_length_b   10.14257972
_cell_length_c   7.04729728
_cell_angle_alpha   89.49510305
_cell_angle_beta   90.00000000
_cell_angle_gamma   119.92163258
_symmetry_Int_Tables_number   1
_chemical_formula_structural   Er16GaTc2Hg5
_chemical_formula_sum   'Er16 Ga1 Tc2 Hg5'
_cell_volume   626.81513134
_cell_formula_units_Z   1
loop_
 _symmetry_equiv_pos_site_id
 _symmetry_equiv_pos_as_xyz
  1  'x, y, z'
loop_
 _atom_site_type_symbol
 _atom_site_label
 _atom_site_symmetry_multiplicity
 _atom_site_fract_x
 _atom_site_fract_y
 _atom_site_fract_z
 _atom_site_occupancy
  Er  Er0  1  0.996628  0.993257  0.261356  1
  Er  Er1  1  0.998082  0.996164  0.764475  1
  Er  Er2  1  0.170237  0.823748  0.987367  1
  Er  Er3  1  0.826257  0.174855  0.485536  1
  Er  Er4  1  0.174052  0.348103  0.985155  1
  Er  Er5  1  0.653513  0.823748  0.987367  1
  Er  Er6  1  0.348598  0.174855  0.485536  1
  Er  Er7  1  0.826713  0.653427  0.485838  1
  Er  Er8  1  0.332989  0.665980  0.673170  1
  Er  Er9  1  0.668378  0.336754  0.169789  1
  Er  Er10  1  0.465648  0.535638  0.297976  1
  Er  Er11  1  0.538516  0.465874  0.797530  1
  Er  Er12  1  0.465052  0.930105  0.295936  1
  Er  Er13  1  0.069988  0.535638  0.297976  1
  Er  Er14  1  0.927361  0.465874  0.797530  1
  Er  Er15  1  0.534758  0.069515  0.798590  1
  Ga  Ga16  1  0.836070  0.672140  0.040177  1
  Tc  Tc17  1  0.333985  0.667971  0.061715  1
  Tc  Tc18  1  0.667207  0.334413  0.559358  1
  Hg  Hg19  1  0.166387  0.833641  0.542508  1
  Hg  Hg20  1  0.832198  0.165614  0.042699  1
  Hg  Hg21  1  0.166714  0.333429  0.543329  1
  Hg  Hg22  1  0.667253  0.833641  0.542508  1
  Hg  Hg23  1  0.333416  0.165614  0.042699  1
