# generated using pymatgen
data_Ti3SiTc3As2
_symmetry_space_group_name_H-M   'P 1'
_cell_length_a   3.33384100
_cell_length_b   6.80409107
_cell_length_c   6.80409216
_cell_angle_alpha   60.00392440
_cell_angle_beta   90.00000000
_cell_angle_gamma   90.00000000
_symmetry_Int_Tables_number   1
_chemical_formula_structural   Ti3SiTc3As2
_chemical_formula_sum   'Ti3 Si1 Tc3 As2'
_cell_volume   133.66970598
_cell_formula_units_Z   1
loop_
 _symmetry_equiv_pos_site_id
 _symmetry_equiv_pos_as_xyz
  1  'x, y, z'
loop_
 _atom_site_type_symbol
 _atom_site_label
 _atom_site_symmetry_multiplicity
 _atom_site_fract_x
 _atom_site_fract_y
 _atom_site_fract_z
 _atom_site_occupancy
  Ti  Ti0  1  0.500000  0.600846  0.399154  1
  Ti  Ti1  1  0.500000  0.399065  0.999906  1
  Ti  Ti2  1  0.500000  0.000094  0.600935  1
  Si  Si3  1  0.500000  0.999856  0.000144  1
  Tc  Tc4  1  0.000000  0.254704  0.745296  1
  Tc  Tc5  1  0.000000  0.745193  0.999941  1
  Tc  Tc6  1  0.000000  0.000059  0.254807  1
  As  As7  1  0.000000  0.333399  0.333316  1
  As  As8  1  0.000000  0.666684  0.666601  1
