# generated using pymatgen
data_Zn3FeSi4(PbO4)4
_symmetry_space_group_name_H-M   'P 1'
_cell_length_a   8.37767750
_cell_length_b   19.36128500
_cell_length_c   5.13803285
_cell_angle_alpha   90.00000000
_cell_angle_beta   90.11969704
_cell_angle_gamma   90.00000000
_symmetry_Int_Tables_number   1
_chemical_formula_structural   Zn3FeSi4(PbO4)4
_chemical_formula_sum   'Zn6 Fe2 Si8 Pb8 O32'
_cell_volume   833.40047677
_cell_formula_units_Z   2
loop_
 _symmetry_equiv_pos_site_id
 _symmetry_equiv_pos_as_xyz
  1  'x, y, z'
loop_
 _atom_site_type_symbol
 _atom_site_label
 _atom_site_symmetry_multiplicity
 _atom_site_fract_x
 _atom_site_fract_y
 _atom_site_fract_z
 _atom_site_occupancy
  Zn  Zn0  1  0.678851  0.654374  0.219399  1
  Zn  Zn1  1  0.178850  0.845626  0.219399  1
  Zn  Zn2  1  0.500962  0.059984  0.727523  1
  Zn  Zn3  1  0.000962  0.440016  0.727523  1
  Zn  Zn4  1  0.822003  0.155583  0.722324  1
  Zn  Zn5  1  0.322002  0.344417  0.722324  1
  Fe  Fe6  1  0.003273  0.559256  0.232059  1
  Fe  Fe7  1  0.503274  0.940744  0.232059  1
  Si  Si8  1  0.298374  0.679534  0.220463  1
  Si  Si9  1  0.798374  0.820466  0.220463  1
  Si  Si10  1  0.729673  0.073416  0.213181  1
  Si  Si11  1  0.229674  0.426584  0.213181  1
  Si  Si12  1  0.203161  0.178257  0.724495  1
  Si  Si13  1  0.703160  0.321743  0.724495  1
  Si  Si14  1  0.768132  0.570970  0.713928  1
  Si  Si15  1  0.268132  0.929030  0.713928  1
  Pb  Pb16  1  0.541516  0.232992  0.253253  1
  Pb  Pb17  1  0.041516  0.267008  0.253253  1
  Pb  Pb18  1  0.146893  0.059571  0.284200  1
  Pb  Pb19  1  0.646892  0.440429  0.284200  1
  Pb  Pb20  1  0.959220  0.731981  0.749263  1
  Pb  Pb21  1  0.459219  0.768019  0.749263  1
  Pb  Pb22  1  0.352270  0.558920  0.783966  1
  Pb  Pb23  1  0.852271  0.941080  0.783966  1
  O  O24  1  0.178523  0.180221  0.039572  1
  O  O25  1  0.678522  0.319779  0.039572  1
  O  O26  1  0.793771  0.578826  0.030928  1
  O  O27  1  0.293771  0.921174  0.030928  1
  O  O28  1  0.461409  0.647759  0.073937  1
  O  O29  1  0.961409  0.852241  0.073937  1
  O  O30  1  0.568292  0.036601  0.087312  1
  O  O31  1  0.068291  0.463399  0.087312  1
  O  O32  1  0.779236  0.741627  0.096659  1
  O  O33  1  0.279235  0.758373  0.096659  1
  O  O34  1  0.748733  0.151747  0.087451  1
  O  O35  1  0.248733  0.348253  0.087451  1
  O  O36  1  0.148699  0.631856  0.124454  1
  O  O37  1  0.648699  0.868144  0.124454  1
  O  O38  1  0.887028  0.026034  0.147383  1
  O  O39  1  0.387027  0.473966  0.147383  1
  O  O40  1  0.321451  0.681126  0.535876  1
  O  O41  1  0.821450  0.818874  0.535876  1
  O  O42  1  0.704267  0.080026  0.532446  1
  O  O43  1  0.204267  0.419974  0.532446  1
  O  O44  1  0.038770  0.147763  0.575971  1
  O  O45  1  0.538770  0.352237  0.575971  1
  O  O46  1  0.925750  0.531155  0.589141  1
  O  O47  1  0.425749  0.968844  0.589141  1
  O  O48  1  0.723791  0.243026  0.599562  1
  O  O49  1  0.223791  0.256975  0.599562  1
  O  O50  1  0.757530  0.648978  0.581708  1
  O  O51  1  0.257530  0.851022  0.581708  1
  O  O52  1  0.351041  0.129888  0.629103  1
  O  O53  1  0.851040  0.370112  0.629103  1
  O  O54  1  0.607387  0.525965  0.646445  1
  O  O55  1  0.107387  0.974035  0.646445  1
