# generated using pymatgen
data_Sr3NdTi4O12
_symmetry_space_group_name_H-M   'P 1'
_cell_length_a   5.56933594
_cell_length_b   5.56933618
_cell_length_c   9.62949358
_cell_angle_alpha   73.26402301
_cell_angle_beta   73.26402166
_cell_angle_gamma   60.23468407
_symmetry_Int_Tables_number   1
_chemical_formula_structural   Sr3NdTi4O12
_chemical_formula_sum   'Sr3 Nd1 Ti4 O12'
_cell_volume   244.48752268
_cell_formula_units_Z   1
loop_
 _symmetry_equiv_pos_site_id
 _symmetry_equiv_pos_as_xyz
  1  'x, y, z'
loop_
 _atom_site_type_symbol
 _atom_site_label
 _atom_site_symmetry_multiplicity
 _atom_site_fract_x
 _atom_site_fract_y
 _atom_site_fract_z
 _atom_site_occupancy
  Sr  Sr0  1  0.122256  0.877744  0.500000  1
  Sr  Sr1  1  0.376054  0.124434  0.748415  1
  Sr  Sr2  1  0.875566  0.623946  0.251585  1
  Nd  Nd3  1  0.616361  0.383639  0.000000  1
  Ti  Ti4  1  0.247321  0.001656  0.126999  1
  Ti  Ti5  1  0.751875  0.499810  0.623095  1
  Ti  Ti6  1  0.998344  0.752679  0.873001  1
  Ti  Ti7  1  0.500190  0.248125  0.376905  1
  O  O8  1  0.915712  0.576902  0.755590  1
  O  O9  1  0.423098  0.084288  0.244410  1
  O  O10  1  0.053298  0.946702  0.000000  1
  O  O11  1  0.585721  0.414279  0.500000  1
  O  O12  1  0.632921  0.883706  0.509982  1
  O  O13  1  0.160751  0.385871  0.010993  1
  O  O14  1  0.614129  0.839249  0.989007  1
  O  O15  1  0.116294  0.367079  0.490018  1
  O  O16  1  0.392293  0.631301  0.769714  1
  O  O17  1  0.886973  0.137854  0.258295  1
  O  O18  1  0.368699  0.607707  0.230286  1
  O  O19  1  0.862146  0.113027  0.741705  1
