# generated using pymatgen
data_Tb20Sn5Bi3Pt4
_symmetry_space_group_name_H-M   'P 1'
_cell_length_a   8.01728534
_cell_length_b   9.07821756
_cell_length_c   12.40254640
_cell_angle_alpha   90.13746515
_cell_angle_beta   89.97571616
_cell_angle_gamma   89.97746694
_symmetry_Int_Tables_number   1
_chemical_formula_structural   Tb20Sn5Bi3Pt4
_chemical_formula_sum   'Tb20 Sn5 Bi3 Pt4'
_cell_volume   902.68757540
_cell_formula_units_Z   1
loop_
 _symmetry_equiv_pos_site_id
 _symmetry_equiv_pos_as_xyz
  1  'x, y, z'
loop_
 _atom_site_type_symbol
 _atom_site_label
 _atom_site_symmetry_multiplicity
 _atom_site_fract_x
 _atom_site_fract_y
 _atom_site_fract_z
 _atom_site_occupancy
  Tb  Tb0  1  0.836660  0.742706  0.788764  1
  Tb  Tb1  1  0.166172  0.253709  0.212152  1
  Tb  Tb2  1  0.337036  0.257550  0.712015  1
  Tb  Tb3  1  0.660868  0.746217  0.286782  1
  Tb  Tb4  1  0.369057  0.743051  0.700844  1
  Tb  Tb5  1  0.627656  0.253338  0.297561  1
  Tb  Tb6  1  0.868830  0.257029  0.798983  1
  Tb  Tb7  1  0.135379  0.746419  0.200298  1
  Tb  Tb8  1  0.954909  0.743458  0.500038  1
  Tb  Tb9  1  0.044260  0.256715  0.499652  1
  Tb  Tb10  1  0.454338  0.252595  0.001883  1
  Tb  Tb11  1  0.543109  0.747033  0.002463  1
  Tb  Tb12  1  0.681125  0.041485  0.566219  1
  Tb  Tb13  1  0.321399  0.959328  0.429520  1
  Tb  Tb14  1  0.182486  0.958630  0.936146  1
  Tb  Tb15  1  0.316010  0.540467  0.430728  1
  Tb  Tb16  1  0.815130  0.040480  0.067450  1
  Tb  Tb17  1  0.683641  0.459197  0.569004  1
  Tb  Tb18  1  0.816776  0.459823  0.069642  1
  Tb  Tb19  1  0.184377  0.540028  0.930987  1
  Sn  Sn20  1  0.569427  0.491487  0.828776  1
  Sn  Sn21  1  0.430458  0.508104  0.171874  1
  Sn  Sn22  1  0.069597  0.508712  0.672161  1
  Sn  Sn23  1  0.430578  0.992149  0.171642  1
  Sn  Sn24  1  0.930191  0.491761  0.327278  1
  Bi  Bi25  1  0.570748  0.008699  0.826473  1
  Bi  Bi26  1  0.929503  0.008452  0.327927  1
  Bi  Bi27  1  0.070569  0.991311  0.672522  1
  Pt  Pt28  1  0.571532  0.750023  0.511643  1
  Pt  Pt29  1  0.428217  0.249856  0.488506  1
  Pt  Pt30  1  0.071011  0.249814  0.988344  1
  Pt  Pt31  1  0.928952  0.750372  0.011722  1
