# generated using pymatgen
data_Pr2Nd2Zn10SnPb
_symmetry_space_group_name_H-M   'P 1'
_cell_length_a   8.62216318
_cell_length_b   8.62216409
_cell_length_c   9.12446500
_cell_angle_alpha   90.00000000
_cell_angle_beta   90.00000000
_cell_angle_gamma   149.66891885
_symmetry_Int_Tables_number   1
_chemical_formula_structural   Pr2Nd2Zn10SnPb
_chemical_formula_sum   'Pr2 Nd2 Zn10 Sn1 Pb1'
_cell_volume   342.55301607
_cell_formula_units_Z   1
loop_
 _symmetry_equiv_pos_site_id
 _symmetry_equiv_pos_as_xyz
  1  'x, y, z'
loop_
 _atom_site_type_symbol
 _atom_site_label
 _atom_site_symmetry_multiplicity
 _atom_site_fract_x
 _atom_site_fract_y
 _atom_site_fract_z
 _atom_site_occupancy
  Pr  Pr0  1  0.999672  0.000328  0.503171  1
  Pr  Pr1  1  0.999672  0.000328  0.996829  1
  Nd  Nd2  1  0.206291  0.793709  0.250000  1
  Nd  Nd3  1  0.794788  0.205212  0.750000  1
  Zn  Zn4  1  0.813522  0.186478  0.391181  1
  Zn  Zn5  1  0.186431  0.813569  0.609363  1
  Zn  Zn6  1  0.813522  0.186478  0.108819  1
  Zn  Zn7  1  0.186431  0.813569  0.890637  1
  Zn  Zn8  1  0.658444  0.341556  0.486747  1
  Zn  Zn9  1  0.343284  0.656716  0.516517  1
  Zn  Zn10  1  0.658444  0.341556  0.013253  1
  Zn  Zn11  1  0.343284  0.656716  0.983483  1
  Zn  Zn12  1  0.392858  0.607142  0.250000  1
  Zn  Zn13  1  0.604185  0.395815  0.750000  1
  Sn  Sn14  1  0.443588  0.556412  0.750000  1
  Pb  Pb15  1  0.555584  0.444416  0.250000  1
