# generated using pymatgen
data_Sm2YEr5(WO6)4
_symmetry_space_group_name_H-M   'P 1'
_cell_length_a   5.41229000
_cell_length_b   7.71395712
_cell_length_c   11.46851136
_cell_angle_alpha   75.53034357
_cell_angle_beta   90.00000000
_cell_angle_gamma   90.00000000
_symmetry_Int_Tables_number   1
_chemical_formula_structural   Sm2YEr5(WO6)4
_chemical_formula_sum   'Sm2 Y1 Er5 W4 O24'
_cell_volume   463.62445624
_cell_formula_units_Z   1
loop_
 _symmetry_equiv_pos_site_id
 _symmetry_equiv_pos_as_xyz
  1  'x, y, z'
loop_
 _atom_site_type_symbol
 _atom_site_label
 _atom_site_symmetry_multiplicity
 _atom_site_fract_x
 _atom_site_fract_y
 _atom_site_fract_z
 _atom_site_occupancy
  Sm  Sm0  1  0.684026  0.500000  0.750000  1
  Sm  Sm1  1  0.315115  0.500000  0.250000  1
  Y  Y2  1  0.741096  0.000000  0.750000  1
  Er  Er3  1  0.259848  0.000000  0.250000  1
  Er  Er4  1  0.186554  0.796545  0.577112  1
  Er  Er5  1  0.814065  0.796813  0.078046  1
  Er  Er6  1  0.186554  0.203455  0.922888  1
  Er  Er7  1  0.814065  0.203187  0.421954  1
  W  W8  1  0.253683  0.725094  0.885719  1
  W  W9  1  0.746048  0.726350  0.385008  1
  W  W10  1  0.253683  0.274906  0.614281  1
  W  W11  1  0.746048  0.273650  0.114992  1
  O  O12  1  0.042868  0.940950  0.896996  1
  O  O13  1  0.532409  0.846416  0.932050  1
  O  O14  1  0.959726  0.941527  0.395390  1
  O  O15  1  0.455757  0.791538  0.727151  1
  O  O16  1  0.467108  0.848293  0.430799  1
  O  O17  1  0.984757  0.715248  0.770187  1
  O  O18  1  0.542089  0.793581  0.226892  1
  O  O19  1  0.854756  0.639552  0.547146  1
  O  O20  1  0.354025  0.490148  0.888326  1
  O  O21  1  0.015431  0.716346  0.269671  1
  O  O22  1  0.354025  0.509852  0.611674  1
  O  O23  1  0.854756  0.360448  0.952854  1
  O  O24  1  0.144311  0.638127  0.047682  1
  O  O25  1  0.646372  0.491164  0.387484  1
  O  O26  1  0.984757  0.284752  0.729813  1
  O  O27  1  0.646372  0.508836  0.112516  1
  O  O28  1  0.144311  0.361873  0.452318  1
  O  O29  1  0.455757  0.208462  0.772849  1
  O  O30  1  0.015431  0.283654  0.230329  1
  O  O31  1  0.532409  0.153584  0.567950  1
  O  O32  1  0.542089  0.206419  0.273108  1
  O  O33  1  0.042868  0.059050  0.603004  1
  O  O34  1  0.467108  0.151707  0.069201  1
  O  O35  1  0.959726  0.058473  0.104610  1
