# generated using pymatgen
data_Ca2CoIrI
_symmetry_space_group_name_H-M   'P 1'
_cell_length_a   4.14139500
_cell_length_b   4.14139451
_cell_length_c   17.13181700
_cell_angle_alpha   90.00000000
_cell_angle_beta   90.00000000
_cell_angle_gamma   119.99999593
_symmetry_Int_Tables_number   1
_chemical_formula_structural   Ca2CoIrI
_chemical_formula_sum   'Ca4 Co2 Ir2 I2'
_cell_volume   254.46457700
_cell_formula_units_Z   2
loop_
 _symmetry_equiv_pos_site_id
 _symmetry_equiv_pos_as_xyz
  1  'x, y, z'
loop_
 _atom_site_type_symbol
 _atom_site_label
 _atom_site_symmetry_multiplicity
 _atom_site_fract_x
 _atom_site_fract_y
 _atom_site_fract_z
 _atom_site_occupancy
  Ca  Ca0  1  0.000000  0.000000  0.609198  1
  Ca  Ca1  1  0.000000  0.000000  0.391092  1
  Ca  Ca2  1  0.000000  0.000000  0.109198  1
  Ca  Ca3  1  0.000000  0.000000  0.891092  1
  Co  Co4  1  0.666667  0.333333  0.998702  1
  Co  Co5  1  0.333333  0.666667  0.498702  1
  Ir  Ir6  1  0.666667  0.333333  0.501051  1
  Ir  Ir7  1  0.333333  0.666667  0.001051  1
  I  I8  1  0.666667  0.333333  0.249957  1
  I  I9  1  0.333333  0.666667  0.749957  1
