# generated using pymatgen
data_Hf3Zr5(TaGa3)4
_symmetry_space_group_name_H-M   'P 1'
_cell_length_a   5.56195700
_cell_length_b   8.50345307
_cell_length_c   9.20431608
_cell_angle_alpha   89.98517289
_cell_angle_beta   90.00000000
_cell_angle_gamma   90.00000000
_symmetry_Int_Tables_number   1
_chemical_formula_structural   Hf3Zr5(TaGa3)4
_chemical_formula_sum   'Hf3 Zr5 Ta4 Ga12'
_cell_volume   435.32584898
_cell_formula_units_Z   1
loop_
 _symmetry_equiv_pos_site_id
 _symmetry_equiv_pos_as_xyz
  1  'x, y, z'
loop_
 _atom_site_type_symbol
 _atom_site_label
 _atom_site_symmetry_multiplicity
 _atom_site_fract_x
 _atom_site_fract_y
 _atom_site_fract_z
 _atom_site_occupancy
  Hf  Hf0  1  0.250000  0.634581  0.818472  1
  Hf  Hf1  1  0.750000  0.865407  0.818506  1
  Hf  Hf2  1  0.250000  0.133390  0.181453  1
  Zr  Zr3  1  0.750000  0.468861  0.621267  1
  Zr  Zr4  1  0.250000  0.531262  0.378510  1
  Zr  Zr5  1  0.750000  0.969274  0.378091  1
  Zr  Zr6  1  0.250000  0.030968  0.622012  1
  Zr  Zr7  1  0.750000  0.366457  0.183324  1
  Ta  Ta8  1  0.000087  0.750150  0.109019  1
  Ta  Ta9  1  0.499711  0.249591  0.889809  1
  Ta  Ta10  1  0.000289  0.249591  0.889809  1
  Ta  Ta11  1  0.499913  0.750150  0.109019  1
  Ga  Ga12  1  0.000049  0.750124  0.572522  1
  Ga  Ga13  1  0.498942  0.249518  0.428171  1
  Ga  Ga14  1  0.001058  0.249518  0.428171  1
  Ga  Ga15  1  0.499951  0.750124  0.572522  1
  Ga  Ga16  1  0.750000  0.044237  0.079283  1
  Ga  Ga17  1  0.250000  0.955656  0.920318  1
  Ga  Ga18  1  0.750000  0.544437  0.919856  1
  Ga  Ga19  1  0.250000  0.455413  0.079508  1
  Ga  Ga20  1  0.750000  0.131667  0.654823  1
  Ga  Ga21  1  0.250000  0.867889  0.345182  1
  Ga  Ga22  1  0.750000  0.633345  0.345543  1
  Ga  Ga23  1  0.250000  0.368393  0.654812  1
