# generated using pymatgen
data_Tb12Tc3Ni
_symmetry_space_group_name_H-M   'P 1'
_cell_length_a   6.30311732
_cell_length_b   7.34533138
_cell_length_c   9.30746700
_cell_angle_alpha   90.00000000
_cell_angle_beta   90.00000000
_cell_angle_gamma   90.17432766
_symmetry_Int_Tables_number   1
_chemical_formula_structural   Tb12Tc3Ni
_chemical_formula_sum   'Tb12 Tc3 Ni1'
_cell_volume   430.91963100
_cell_formula_units_Z   1
loop_
 _symmetry_equiv_pos_site_id
 _symmetry_equiv_pos_as_xyz
  1  'x, y, z'
loop_
 _atom_site_type_symbol
 _atom_site_label
 _atom_site_symmetry_multiplicity
 _atom_site_fract_x
 _atom_site_fract_y
 _atom_site_fract_z
 _atom_site_occupancy
  Tb  Tb0  1  0.327917  0.677029  0.067594  1
  Tb  Tb1  1  0.164405  0.177035  0.436744  1
  Tb  Tb2  1  0.668210  0.324302  0.563101  1
  Tb  Tb3  1  0.833539  0.823497  0.937612  1
  Tb  Tb4  1  0.668210  0.324302  0.936899  1
  Tb  Tb5  1  0.833539  0.823497  0.562388  1
  Tb  Tb6  1  0.327917  0.677029  0.432406  1
  Tb  Tb7  1  0.164405  0.177035  0.063256  1
  Tb  Tb8  1  0.869267  0.541921  0.250000  1
  Tb  Tb9  1  0.626680  0.041943  0.250000  1
  Tb  Tb10  1  0.141862  0.455403  0.750000  1
  Tb  Tb11  1  0.370254  0.956330  0.750000  1
  Tc  Tc12  1  0.038878  0.887552  0.250000  1
  Tc  Tc13  1  0.459196  0.389165  0.250000  1
  Tc  Tc14  1  0.956852  0.110942  0.750000  1
  Ni  Ni15  1  0.548870  0.613017  0.750000  1
