# generated using pymatgen
data_Hf4Mn2Si4PdPt
_symmetry_space_group_name_H-M   'P 1'
_cell_length_a   3.82658700
_cell_length_b   6.53207257
_cell_length_c   7.56008498
_cell_angle_alpha   90.27741058
_cell_angle_beta   90.00000000
_cell_angle_gamma   90.00000000
_symmetry_Int_Tables_number   1
_chemical_formula_structural   Hf4Mn2Si4PdPt
_chemical_formula_sum   'Hf4 Mn2 Si4 Pd1 Pt1'
_cell_volume   188.96622159
_cell_formula_units_Z   1
loop_
 _symmetry_equiv_pos_site_id
 _symmetry_equiv_pos_as_xyz
  1  'x, y, z'
loop_
 _atom_site_type_symbol
 _atom_site_label
 _atom_site_symmetry_multiplicity
 _atom_site_fract_x
 _atom_site_fract_y
 _atom_site_fract_z
 _atom_site_occupancy
  Hf  Hf0  1  0.250000  0.525387  0.675324  1
  Hf  Hf1  1  0.750000  0.473584  0.325117  1
  Hf  Hf2  1  0.250000  0.027477  0.816078  1
  Hf  Hf3  1  0.750000  0.974121  0.184031  1
  Mn  Mn4  1  0.750000  0.856861  0.561629  1
  Mn  Mn5  1  0.250000  0.143768  0.437964  1
  Si  Si6  1  0.250000  0.262339  0.133430  1
  Si  Si7  1  0.750000  0.737184  0.866345  1
  Si  Si8  1  0.250000  0.775767  0.385519  1
  Si  Si9  1  0.750000  0.223478  0.614181  1
  Pd  Pd10  1  0.250000  0.650820  0.065792  1
  Pt  Pt11  1  0.750000  0.349214  0.934590  1
