# generated using pymatgen
data_Nb2SbRu5
_symmetry_space_group_name_H-M   'P 1'
_cell_length_a   4.15067200
_cell_length_b   5.51501500
_cell_length_c   10.96134500
_cell_angle_alpha   90.00000000
_cell_angle_beta   90.00000000
_cell_angle_gamma   90.00000000
_symmetry_Int_Tables_number   1
_chemical_formula_structural   Nb2SbRu5
_chemical_formula_sum   'Nb4 Sb2 Ru10'
_cell_volume   250.91634943
_cell_formula_units_Z   2
loop_
 _symmetry_equiv_pos_site_id
 _symmetry_equiv_pos_as_xyz
  1  'x, y, z'
loop_
 _atom_site_type_symbol
 _atom_site_label
 _atom_site_symmetry_multiplicity
 _atom_site_fract_x
 _atom_site_fract_y
 _atom_site_fract_z
 _atom_site_occupancy
  Nb  Nb0  1  0.500000  0.824611  0.356240  1
  Nb  Nb1  1  0.500000  0.175389  0.643760  1
  Nb  Nb2  1  0.500000  0.324611  0.143760  1
  Nb  Nb3  1  0.500000  0.675389  0.856240  1
  Sb  Sb4  1  0.000000  0.500000  0.500000  1
  Sb  Sb5  1  0.000000  0.000000  0.000000  1
  Ru  Ru6  1  0.000000  0.500000  0.000000  1
  Ru  Ru7  1  0.000000  0.000000  0.500000  1
  Ru  Ru8  1  0.000000  0.560765  0.242108  1
  Ru  Ru9  1  0.000000  0.439235  0.757892  1
  Ru  Ru10  1  0.000000  0.060765  0.257892  1
  Ru  Ru11  1  0.000000  0.939235  0.742108  1
  Ru  Ru12  1  0.500000  0.802214  0.113374  1
  Ru  Ru13  1  0.500000  0.197786  0.886626  1
  Ru  Ru14  1  0.500000  0.302214  0.386626  1
  Ru  Ru15  1  0.500000  0.697786  0.613374  1
