# generated using pymatgen
data_La10CoTc3
_symmetry_space_group_name_H-M   'P 1'
_cell_length_a   9.10353464
_cell_length_b   9.09471519
_cell_length_c   7.37827335
_cell_angle_alpha   85.62208453
_cell_angle_beta   85.61718040
_cell_angle_gamma   43.42659231
_symmetry_Int_Tables_number   1
_chemical_formula_structural   La10CoTc3
_chemical_formula_sum   'La10 Co1 Tc3'
_cell_volume   418.51055031
_cell_formula_units_Z   1
loop_
 _symmetry_equiv_pos_site_id
 _symmetry_equiv_pos_as_xyz
  1  'x, y, z'
loop_
 _atom_site_type_symbol
 _atom_site_label
 _atom_site_symmetry_multiplicity
 _atom_site_fract_x
 _atom_site_fract_y
 _atom_site_fract_z
 _atom_site_occupancy
  La  La0  1  0.013667  0.802384  0.401502  1
  La  La1  1  0.205205  0.981629  0.095130  1
  La  La2  1  0.984850  0.206924  0.596872  1
  La  La3  1  0.794810  0.019255  0.896393  1
  La  La4  1  0.364095  0.211732  0.327576  1
  La  La5  1  0.789615  0.641777  0.179406  1
  La  La6  1  0.639185  0.783980  0.677396  1
  La  La7  1  0.211714  0.361363  0.822638  1
  La  La8  1  0.576668  0.422450  0.249462  1
  La  La9  1  0.425422  0.570499  0.747709  1
  Co  Co10  1  0.604474  0.168705  0.585349  1
  Tc  Tc11  1  0.167907  0.612675  0.074442  1
  Tc  Tc12  1  0.390395  0.830889  0.424552  1
  Tc  Tc13  1  0.831992  0.385740  0.921572  1
