# generated using pymatgen
data_Ni7Pt(W3N)4
_symmetry_space_group_name_H-M   'P 1'
_cell_length_a   6.70146119
_cell_length_b   6.70146119
_cell_length_c   6.70146119
_cell_angle_alpha   89.98052203
_cell_angle_beta   89.98052203
_cell_angle_gamma   89.98052203
_symmetry_Int_Tables_number   1
_chemical_formula_structural   Ni7Pt(W3N)4
_chemical_formula_sum   'Ni7 Pt1 W12 N4'
_cell_volume   300.95976970
_cell_formula_units_Z   1
loop_
 _symmetry_equiv_pos_site_id
 _symmetry_equiv_pos_as_xyz
  1  'x, y, z'
loop_
 _atom_site_type_symbol
 _atom_site_label
 _atom_site_symmetry_multiplicity
 _atom_site_fract_x
 _atom_site_fract_y
 _atom_site_fract_z
 _atom_site_occupancy
  Ni  Ni0  1  0.322385  0.188164  0.808804  1
  Ni  Ni1  1  0.808804  0.322385  0.188164  1
  Ni  Ni2  1  0.188164  0.808804  0.322385  1
  Ni  Ni3  1  0.435388  0.934013  0.565092  1
  Ni  Ni4  1  0.565092  0.435388  0.934013  1
  Ni  Ni5  1  0.934013  0.565092  0.435388  1
  Ni  Ni6  1  0.684008  0.684008  0.684008  1
  Pt  Pt7  1  0.064188  0.064188  0.064188  1
  W  W8  1  0.201372  0.455002  0.125802  1
  W  W9  1  0.455002  0.125802  0.201372  1
  W  W10  1  0.949824  0.376876  0.799589  1
  W  W11  1  0.870666  0.695135  0.048080  1
  W  W12  1  0.125802  0.201372  0.455002  1
  W  W13  1  0.799589  0.949824  0.376876  1
  W  W14  1  0.695135  0.048080  0.870666  1
  W  W15  1  0.048080  0.870666  0.695135  1
  W  W16  1  0.625879  0.300413  0.549036  1
  W  W17  1  0.549036  0.625879  0.300413  1
  W  W18  1  0.376876  0.799589  0.949824  1
  W  W19  1  0.300413  0.549036  0.625879  1
  N  N20  1  0.375074  0.375074  0.375074  1
  N  N21  1  0.625575  0.875630  0.124006  1
  N  N22  1  0.124006  0.625575  0.875630  1
  N  N23  1  0.875630  0.124006  0.625575  1
