# generated using pymatgen
data_Pr3Er3Pu2O14
_symmetry_space_group_name_H-M   'P 1'
_cell_length_a   6.65169738
_cell_length_b   6.66550960
_cell_length_c   7.81485700
_cell_angle_alpha   106.96651674
_cell_angle_beta   89.87678081
_cell_angle_gamma   99.13277306
_symmetry_Int_Tables_number   1
_chemical_formula_structural   Pr3Er3Pu2O14
_chemical_formula_sum   'Pr3 Er3 Pu2 O14'
_cell_volume   326.84702297
_cell_formula_units_Z   1
loop_
 _symmetry_equiv_pos_site_id
 _symmetry_equiv_pos_as_xyz
  1  'x, y, z'
loop_
 _atom_site_type_symbol
 _atom_site_label
 _atom_site_symmetry_multiplicity
 _atom_site_fract_x
 _atom_site_fract_y
 _atom_site_fract_z
 _atom_site_occupancy
  Pr  Pr0  1  0.726801  0.458888  0.114548  1
  Pr  Pr1  1  0.741435  0.482492  0.618681  1
  Pr  Pr2  1  0.255925  0.519109  0.386492  1
  Er  Er3  1  0.460941  0.005924  0.254726  1
  Er  Er4  1  0.536423  0.991856  0.744652  1
  Er  Er5  1  0.274151  0.542657  0.882302  1
  Pu  Pu6  1  0.001916  0.003276  0.502577  1
  Pu  Pu7  1  0.004821  0.999910  0.998026  1
  O  O8  1  0.438538  0.656502  0.158934  1
  O  O9  1  0.537215  0.340512  0.830841  1
  O  O10  1  0.301755  0.927066  0.950527  1
  O  O11  1  0.704944  0.067791  0.051481  1
  O  O12  1  0.298776  0.929136  0.515432  1
  O  O13  1  0.704666  0.070143  0.483077  1
  O  O14  1  0.543643  0.354852  0.342795  1
  O  O15  1  0.449341  0.645336  0.667196  1
  O  O16  1  0.938013  0.674038  0.950810  1
  O  O17  1  0.078064  0.321430  0.033288  1
  O  O18  1  0.073115  0.349250  0.627086  1
  O  O19  1  0.930773  0.655661  0.385292  1
  O  O20  1  0.866241  0.913096  0.725425  1
  O  O21  1  0.132497  0.091075  0.275811  1
