# generated using pymatgen
data_Nd16MgCd3(OsPd)2
_symmetry_space_group_name_H-M   'P 1'
_cell_length_a   10.00357396
_cell_length_b   10.00357479
_cell_length_c   10.10236201
_cell_angle_alpha   59.66951676
_cell_angle_beta   59.66951390
_cell_angle_gamma   59.52444911
_symmetry_Int_Tables_number   1
_chemical_formula_structural   Nd16MgCd3(OsPd)2
_chemical_formula_sum   'Nd16 Mg1 Cd3 Os2 Pd2'
_cell_volume   708.69803056
_cell_formula_units_Z   1
loop_
 _symmetry_equiv_pos_site_id
 _symmetry_equiv_pos_as_xyz
  1  'x, y, z'
loop_
 _atom_site_type_symbol
 _atom_site_label
 _atom_site_symmetry_multiplicity
 _atom_site_fract_x
 _atom_site_fract_y
 _atom_site_fract_z
 _atom_site_occupancy
  Nd  Nd0  1  0.348349  0.348349  0.355660  1
  Nd  Nd1  1  0.348262  0.348262  0.948057  1
  Nd  Nd2  1  0.343415  0.957601  0.348718  1
  Nd  Nd3  1  0.957601  0.343415  0.348718  1
  Nd  Nd4  1  0.815623  0.189764  0.191831  1
  Nd  Nd5  1  0.186790  0.816402  0.804714  1
  Nd  Nd6  1  0.189764  0.815623  0.191831  1
  Nd  Nd7  1  0.816402  0.186790  0.804714  1
  Nd  Nd8  1  0.189586  0.189586  0.810358  1
  Nd  Nd9  1  0.807471  0.807471  0.192532  1
  Nd  Nd10  1  0.938276  0.556338  0.567128  1
  Nd  Nd11  1  0.555728  0.938531  0.940395  1
  Nd  Nd12  1  0.556338  0.938276  0.567128  1
  Nd  Nd13  1  0.938531  0.555728  0.940395  1
  Nd  Nd14  1  0.563115  0.563115  0.938377  1
  Nd  Nd15  1  0.939672  0.939672  0.559666  1
  Mg  Mg16  1  0.575414  0.575414  0.575444  1
  Cd  Cd17  1  0.580746  0.580746  0.258098  1
  Cd  Cd18  1  0.581565  0.256818  0.580807  1
  Cd  Cd19  1  0.256818  0.581565  0.580807  1
  Os  Os20  1  0.144300  0.144300  0.137658  1
  Os  Os21  1  0.145218  0.145218  0.575335  1
  Pd  Pd22  1  0.147429  0.573586  0.140814  1
  Pd  Pd23  1  0.573586  0.147429  0.140814  1
