# generated using pymatgen
data_Cs8Na4Tb3SmSb8
_symmetry_space_group_name_H-M   'P 1'
_cell_length_a   11.70773957
_cell_length_b   11.70773784
_cell_length_c   7.62635180
_cell_angle_alpha   89.99980235
_cell_angle_beta   90.00019727
_cell_angle_gamma   99.60634872
_symmetry_Int_Tables_number   1
_chemical_formula_structural   Cs8Na4Tb3SmSb8
_chemical_formula_sum   'Cs8 Na4 Tb3 Sm1 Sb8'
_cell_volume   1030.69437292
_cell_formula_units_Z   1
loop_
 _symmetry_equiv_pos_site_id
 _symmetry_equiv_pos_as_xyz
  1  'x, y, z'
loop_
 _atom_site_type_symbol
 _atom_site_label
 _atom_site_symmetry_multiplicity
 _atom_site_fract_x
 _atom_site_fract_y
 _atom_site_fract_z
 _atom_site_occupancy
  Cs  Cs0  1  0.069792  0.430771  0.250074  1
  Cs  Cs1  1  0.430771  0.069792  0.749926  1
  Cs  Cs2  1  0.929681  0.569782  0.749784  1
  Cs  Cs3  1  0.569782  0.929681  0.250216  1
  Cs  Cs4  1  0.677718  0.322608  0.212415  1
  Cs  Cs5  1  0.821810  0.177593  0.712249  1
  Cs  Cs6  1  0.322608  0.677718  0.787585  1
  Cs  Cs7  1  0.177593  0.821810  0.287751  1
  Na  Na8  1  0.382628  0.382628  0.000000  1
  Na  Na9  1  0.117765  0.117765  0.500000  1
  Na  Na10  1  0.617682  0.617682  0.000000  1
  Na  Na11  1  0.881981  0.881981  0.500000  1
  Tb  Tb12  1  0.369271  0.369271  0.500000  1
  Tb  Tb13  1  0.867925  0.867925  0.000000  1
  Tb  Tb14  1  0.631425  0.631425  0.500000  1
  Sm  Sm15  1  0.131772  0.131772  0.000000  1
  Sb  Sb16  1  0.841414  0.658228  0.249951  1
  Sb  Sb17  1  0.658228  0.841414  0.750049  1
  Sb  Sb18  1  0.158221  0.343893  0.747929  1
  Sb  Sb19  1  0.343893  0.158221  0.252071  1
  Sb  Sb20  1  0.903177  0.094399  0.211937  1
  Sb  Sb21  1  0.595449  0.405014  0.711164  1
  Sb  Sb22  1  0.094399  0.903177  0.788063  1
  Sb  Sb23  1  0.405014  0.595449  0.288836  1
