# generated using pymatgen
data_YHo2Mg3AgPb2
_symmetry_space_group_name_H-M   'P 1'
_cell_length_a   7.56903197
_cell_length_b   7.56903293
_cell_length_c   4.54805600
_cell_angle_alpha   90.00000000
_cell_angle_beta   90.00000000
_cell_angle_gamma   120.07891306
_symmetry_Int_Tables_number   1
_chemical_formula_structural   YHo2Mg3AgPb2
_chemical_formula_sum   'Y1 Ho2 Mg3 Ag1 Pb2'
_cell_volume   225.47130439
_cell_formula_units_Z   1
loop_
 _symmetry_equiv_pos_site_id
 _symmetry_equiv_pos_as_xyz
  1  'x, y, z'
loop_
 _atom_site_type_symbol
 _atom_site_label
 _atom_site_symmetry_multiplicity
 _atom_site_fract_x
 _atom_site_fract_y
 _atom_site_fract_z
 _atom_site_occupancy
  Y  Y0  1  0.415126  0.415126  0.500000  1
  Ho  Ho1  1  0.585873  0.000087  0.500000  1
  Ho  Ho2  1  0.000087  0.585873  0.500000  1
  Mg  Mg3  1  0.766666  0.766666  0.000000  1
  Mg  Mg4  1  0.233264  0.999797  0.000000  1
  Mg  Mg5  1  0.999797  0.233264  0.000000  1
  Ag  Ag6  1  0.998739  0.998739  0.500000  1
  Pb  Pb7  1  0.667288  0.333159  0.000000  1
  Pb  Pb8  1  0.333159  0.667288  0.000000  1
