# generated using pymatgen
data_Nd5As6P6Ru9Rh10
_symmetry_space_group_name_H-M   'P 1'
_cell_length_a   12.98600200
_cell_length_b   12.98600109
_cell_length_c   3.99104400
_cell_angle_alpha   90.00000000
_cell_angle_beta   90.00000000
_cell_angle_gamma   120.00000741
_symmetry_Int_Tables_number   1
_chemical_formula_structural   Nd5As6P6Ru9Rh10
_chemical_formula_sum   'Nd5 As6 P6 Ru9 Rh10'
_cell_volume   582.86505105
_cell_formula_units_Z   1
loop_
 _symmetry_equiv_pos_site_id
 _symmetry_equiv_pos_as_xyz
  1  'x, y, z'
loop_
 _atom_site_type_symbol
 _atom_site_label
 _atom_site_symmetry_multiplicity
 _atom_site_fract_x
 _atom_site_fract_y
 _atom_site_fract_z
 _atom_site_occupancy
  Nd  Nd0  1  0.000000  0.183804  0.500000  1
  Nd  Nd1  1  0.816196  0.816196  0.500000  1
  Nd  Nd2  1  0.183804  0.000000  0.500000  1
  Nd  Nd3  1  0.666667  0.333333  0.000000  1
  Nd  Nd4  1  0.333333  0.666667  0.000000  1
  As  As5  1  0.685778  0.166189  0.500000  1
  As  As6  1  0.833811  0.519589  0.500000  1
  As  As7  1  0.480411  0.314222  0.500000  1
  As  As8  1  0.166189  0.685778  0.500000  1
  As  As9  1  0.519589  0.833811  0.500000  1
  As  As10  1  0.314222  0.480411  0.500000  1
  P  P11  1  0.000000  0.817624  0.000000  1
  P  P12  1  0.182376  0.182376  0.000000  1
  P  P13  1  0.817624  0.000000  0.000000  1
  P  P14  1  0.000000  0.371538  0.000000  1
  P  P15  1  0.628462  0.628462  0.000000  1
  P  P16  1  0.371538  0.000000  0.000000  1
  Ru  Ru17  1  0.000000  0.721967  0.500000  1
  Ru  Ru18  1  0.278033  0.278033  0.500000  1
  Ru  Ru19  1  0.721967  0.000000  0.500000  1
  Ru  Ru20  1  0.879472  0.359143  0.500000  1
  Ru  Ru21  1  0.640857  0.520329  0.500000  1
  Ru  Ru22  1  0.479671  0.120528  0.500000  1
  Ru  Ru23  1  0.359143  0.879472  0.500000  1
  Ru  Ru24  1  0.520329  0.640857  0.500000  1
  Ru  Ru25  1  0.120528  0.479671  0.500000  1
  Rh  Rh26  1  0.000000  0.549717  0.000000  1
  Rh  Rh27  1  0.450283  0.450283  0.000000  1
  Rh  Rh28  1  0.549717  0.000000  0.000000  1
  Rh  Rh29  1  0.814371  0.182556  0.000000  1
  Rh  Rh30  1  0.817444  0.631816  0.000000  1
  Rh  Rh31  1  0.368184  0.185629  0.000000  1
  Rh  Rh32  1  0.182556  0.814371  0.000000  1
  Rh  Rh33  1  0.631816  0.817444  0.000000  1
  Rh  Rh34  1  0.185629  0.368184  0.000000  1
  Rh  Rh35  1  0.000000  0.000000  0.000000  1
