# generated using pymatgen
data_Dy5LuAl24(Ir3Ru)2
_symmetry_space_group_name_H-M   'P 1'
_cell_length_a   8.82271342
_cell_length_b   8.82271354
_cell_length_c   9.48239700
_cell_angle_alpha   90.00000000
_cell_angle_beta   90.00000000
_cell_angle_gamma   120.06511425
_symmetry_Int_Tables_number   1
_chemical_formula_structural   Dy5LuAl24(Ir3Ru)2
_chemical_formula_sum   'Dy5 Lu1 Al24 Ir6 Ru2'
_cell_volume   638.80423619
_cell_formula_units_Z   1
loop_
 _symmetry_equiv_pos_site_id
 _symmetry_equiv_pos_as_xyz
  1  'x, y, z'
loop_
 _atom_site_type_symbol
 _atom_site_label
 _atom_site_symmetry_multiplicity
 _atom_site_fract_x
 _atom_site_fract_y
 _atom_site_fract_z
 _atom_site_occupancy
  Dy  Dy0  1  0.192553  0.385749  0.250000  1
  Dy  Dy1  1  0.614251  0.807447  0.250000  1
  Dy  Dy2  1  0.807709  0.192291  0.750000  1
  Dy  Dy3  1  0.807832  0.615897  0.750000  1
  Dy  Dy4  1  0.384103  0.192168  0.750000  1
  Lu  Lu5  1  0.194617  0.805383  0.250000  1
  Al  Al6  1  0.562354  0.437646  0.250000  1
  Al  Al7  1  0.561235  0.123901  0.250000  1
  Al  Al8  1  0.876099  0.438765  0.250000  1
  Al  Al9  1  0.437723  0.562277  0.750000  1
  Al  Al10  1  0.437813  0.875568  0.750000  1
  Al  Al11  1  0.124432  0.562187  0.750000  1
  Al  Al12  1  0.325824  0.162513  0.423496  1
  Al  Al13  1  0.836845  0.163155  0.423663  1
  Al  Al14  1  0.837487  0.674176  0.423496  1
  Al  Al15  1  0.673677  0.836639  0.576107  1
  Al  Al16  1  0.162987  0.837013  0.575360  1
  Al  Al17  1  0.163361  0.326323  0.576107  1
  Al  Al18  1  0.673677  0.836639  0.923893  1
  Al  Al19  1  0.162987  0.837013  0.924640  1
  Al  Al20  1  0.163361  0.326323  0.923893  1
  Al  Al21  1  0.325824  0.162513  0.076504  1
  Al  Al22  1  0.836845  0.163155  0.076337  1
  Al  Al23  1  0.837487  0.674176  0.076504  1
  Al  Al24  1  0.666430  0.333570  0.529237  1
  Al  Al25  1  0.333058  0.666942  0.470007  1
  Al  Al26  1  0.333058  0.666942  0.029993  1
  Al  Al27  1  0.666430  0.333570  0.970763  1
  Al  Al28  1  0.001070  0.998930  0.250000  1
  Al  Al29  1  0.999999  0.000001  0.750000  1
  Ir  Ir30  1  0.499770  0.500230  0.499633  1
  Ir  Ir31  1  0.499377  0.999670  0.499439  1
  Ir  Ir32  1  0.000330  0.500623  0.499439  1
  Ir  Ir33  1  0.499770  0.500230  0.000367  1
  Ir  Ir34  1  0.499377  0.999670  0.000561  1
  Ir  Ir35  1  0.000330  0.500623  0.000561  1
  Ru  Ru36  1  0.999960  0.000040  0.499579  1
  Ru  Ru37  1  0.999960  0.000040  0.000421  1
