# generated using pymatgen
data_Rb4Zr5Sc3Se16
_symmetry_space_group_name_H-M   'P 1'
_cell_length_a   6.70373500
_cell_length_b   7.73336100
_cell_length_c   17.02300600
_cell_angle_alpha   90.00000000
_cell_angle_beta   90.00134824
_cell_angle_gamma   90.00000000
_symmetry_Int_Tables_number   1
_chemical_formula_structural   Rb4Zr5Sc3Se16
_chemical_formula_sum   'Rb4 Zr5 Sc3 Se16'
_cell_volume   882.51353388
_cell_formula_units_Z   1
loop_
 _symmetry_equiv_pos_site_id
 _symmetry_equiv_pos_as_xyz
  1  'x, y, z'
loop_
 _atom_site_type_symbol
 _atom_site_label
 _atom_site_symmetry_multiplicity
 _atom_site_fract_x
 _atom_site_fract_y
 _atom_site_fract_z
 _atom_site_occupancy
  Rb  Rb0  1  0.348219  0.000000  0.002213  1
  Rb  Rb1  1  0.652584  0.500000  0.497338  1
  Rb  Rb2  1  0.021542  0.000000  0.497486  1
  Rb  Rb3  1  0.979096  0.500000  0.002983  1
  Zr  Zr4  1  0.998816  0.500000  0.748527  1
  Zr  Zr5  1  0.499983  0.249958  0.250027  1
  Zr  Zr6  1  0.499594  0.752854  0.750092  1
  Zr  Zr7  1  0.499983  0.750042  0.250027  1
  Zr  Zr8  1  0.499594  0.247146  0.750092  1
  Sc  Sc9  1  0.001367  0.000000  0.248490  1
  Sc  Sc10  1  0.001021  0.000000  0.751331  1
  Sc  Sc11  1  0.998650  0.500000  0.251560  1
  Se  Se12  1  0.831711  0.248452  0.341291  1
  Se  Se13  1  0.832631  0.750812  0.656996  1
  Se  Se14  1  0.168362  0.748538  0.158753  1
  Se  Se15  1  0.167032  0.252215  0.842981  1
  Se  Se16  1  0.168362  0.251462  0.158753  1
  Se  Se17  1  0.167032  0.747785  0.842981  1
  Se  Se18  1  0.831711  0.751548  0.341291  1
  Se  Se19  1  0.832631  0.249188  0.656996  1
  Se  Se20  1  0.668726  0.000000  0.158080  1
  Se  Se21  1  0.669544  0.000000  0.842660  1
  Se  Se22  1  0.331238  0.500000  0.341984  1
  Se  Se23  1  0.330437  0.500000  0.657244  1
  Se  Se24  1  0.335878  0.000000  0.341217  1
  Se  Se25  1  0.333652  0.000000  0.657931  1
  Se  Se26  1  0.664053  0.500000  0.158859  1
  Se  Se27  1  0.666553  0.500000  0.841819  1
