# generated using pymatgen
data_YHo3(B6Ir)2
_symmetry_space_group_name_H-M   'P 1'
_cell_length_a   3.63816100
_cell_length_b   9.18091500
_cell_length_c   11.51920200
_cell_angle_alpha   90.00173293
_cell_angle_beta   90.00000000
_cell_angle_gamma   90.00000000
_symmetry_Int_Tables_number   1
_chemical_formula_structural   YHo3(B6Ir)2
_chemical_formula_sum   'Y2 Ho6 B24 Ir4'
_cell_volume   384.76031765
_cell_formula_units_Z   2
loop_
 _symmetry_equiv_pos_site_id
 _symmetry_equiv_pos_as_xyz
  1  'x, y, z'
loop_
 _atom_site_type_symbol
 _atom_site_label
 _atom_site_symmetry_multiplicity
 _atom_site_fract_x
 _atom_site_fract_y
 _atom_site_fract_z
 _atom_site_occupancy
  Y  Y0  1  0.000000  0.322115  0.412884  1
  Y  Y1  1  0.000000  0.677885  0.587116  1
  Ho  Ho2  1  0.000000  0.822154  0.087042  1
  Ho  Ho3  1  0.000000  0.177846  0.912958  1
  Ho  Ho4  1  0.000000  0.944296  0.374396  1
  Ho  Ho5  1  0.000000  0.055704  0.625604  1
  Ho  Ho6  1  0.000000  0.444314  0.125388  1
  Ho  Ho7  1  0.000000  0.555686  0.874612  1
  B  B8  1  0.500000  0.553225  0.433466  1
  B  B9  1  0.500000  0.446775  0.566534  1
  B  B10  1  0.500000  0.053050  0.066263  1
  B  B11  1  0.500000  0.946950  0.933737  1
  B  B12  1  0.500000  0.749380  0.420466  1
  B  B13  1  0.500000  0.250620  0.579534  1
  B  B14  1  0.500000  0.249211  0.079150  1
  B  B15  1  0.500000  0.750789  0.920850  1
  B  B16  1  0.500000  0.793285  0.265547  1
  B  B17  1  0.500000  0.206715  0.734453  1
  B  B18  1  0.500000  0.293114  0.234050  1
  B  B19  1  0.500000  0.706886  0.765950  1
  B  B20  1  0.500000  0.632491  0.184407  1
  B  B21  1  0.500000  0.367509  0.815593  1
  B  B22  1  0.500000  0.132175  0.315307  1
  B  B23  1  0.500000  0.867825  0.684693  1
  B  B24  1  0.500000  0.982014  0.212918  1
  B  B25  1  0.500000  0.017986  0.787082  1
  B  B26  1  0.500000  0.482331  0.286777  1
  B  B27  1  0.500000  0.517669  0.713223  1
  B  B28  1  0.500000  0.611836  0.030648  1
  B  B29  1  0.500000  0.388164  0.969352  1
  B  B30  1  0.500000  0.111290  0.469502  1
  B  B31  1  0.500000  0.888710  0.530498  1
  Ir  Ir32  1  0.000000  0.638716  0.321072  1
  Ir  Ir33  1  0.000000  0.361284  0.678928  1
  Ir  Ir34  1  0.000000  0.138152  0.178230  1
  Ir  Ir35  1  0.000000  0.861848  0.821770  1
