# generated using pymatgen
data_Ca2Tm(BPt2)3
_symmetry_space_group_name_H-M   'P 1'
_cell_length_a   5.46055425
_cell_length_b   5.41425220
_cell_length_c   7.70325600
_cell_angle_alpha   90.00000000
_cell_angle_beta   90.00000000
_cell_angle_gamma   119.71990643
_symmetry_Int_Tables_number   1
_chemical_formula_structural   Ca2Tm(BPt2)3
_chemical_formula_sum   'Ca2 Tm1 B3 Pt6'
_cell_volume   197.78758151
_cell_formula_units_Z   1
loop_
 _symmetry_equiv_pos_site_id
 _symmetry_equiv_pos_as_xyz
  1  'x, y, z'
loop_
 _atom_site_type_symbol
 _atom_site_label
 _atom_site_symmetry_multiplicity
 _atom_site_fract_x
 _atom_site_fract_y
 _atom_site_fract_z
 _atom_site_occupancy
  Ca  Ca0  1  0.500000  0.500000  0.830828  1
  Ca  Ca1  1  0.500000  0.000000  0.502505  1
  Tm  Tm2  1  0.000000  0.500000  0.166667  1
  B  B3  1  0.500000  0.500000  0.334435  1
  B  B4  1  0.500000  0.000000  0.998898  1
  B  B5  1  0.000000  0.500000  0.666667  1
  Pt  Pt6  1  0.141125  0.845073  0.838003  1
  Pt  Pt7  1  0.141125  0.296051  0.495330  1
  Pt  Pt8  1  0.704036  0.852018  0.166667  1
  Pt  Pt9  1  0.858875  0.154927  0.838003  1
  Pt  Pt10  1  0.858875  0.703949  0.495330  1
  Pt  Pt11  1  0.295964  0.147982  0.166667  1
