# generated using pymatgen
data_Ta11(PSe4)2
_symmetry_space_group_name_H-M   'P 1'
_cell_length_a   12.06828100
_cell_length_b   19.63183100
_cell_length_c   3.43178200
_cell_angle_alpha   90.00000000
_cell_angle_beta   90.00000000
_cell_angle_gamma   90.00000000
_symmetry_Int_Tables_number   1
_chemical_formula_structural   Ta11(PSe4)2
_chemical_formula_sum   'Ta22 P4 Se16'
_cell_volume   813.06620978
_cell_formula_units_Z   2
loop_
 _symmetry_equiv_pos_site_id
 _symmetry_equiv_pos_as_xyz
  1  'x, y, z'
loop_
 _atom_site_type_symbol
 _atom_site_label
 _atom_site_symmetry_multiplicity
 _atom_site_fract_x
 _atom_site_fract_y
 _atom_site_fract_z
 _atom_site_occupancy
  Ta  Ta0  1  0.000000  0.000000  0.000000  1
  Ta  Ta1  1  0.681465  0.145692  0.000000  1
  Ta  Ta2  1  0.050140  0.239501  0.000000  1
  Ta  Ta3  1  0.349811  0.290994  0.000000  1
  Ta  Ta4  1  0.567419  0.387279  0.000000  1
  Ta  Ta5  1  0.322404  0.449776  0.000000  1
  Ta  Ta6  1  0.677596  0.550224  0.000000  1
  Ta  Ta7  1  0.432581  0.612721  0.000000  1
  Ta  Ta8  1  0.650189  0.709006  0.000000  1
  Ta  Ta9  1  0.949861  0.760499  0.000000  1
  Ta  Ta10  1  0.318535  0.854307  0.000000  1
  Ta  Ta11  1  0.822404  0.050224  0.500000  1
  Ta  Ta12  1  0.067419  0.112720  0.500000  1
  Ta  Ta13  1  0.849811  0.209006  0.500000  1
  Ta  Ta14  1  0.550140  0.260498  0.500000  1
  Ta  Ta15  1  0.181465  0.354308  0.500000  1
  Ta  Ta16  1  0.500000  0.500000  0.500000  1
  Ta  Ta17  1  0.818535  0.645692  0.500000  1
  Ta  Ta18  1  0.449861  0.739501  0.500000  1
  Ta  Ta19  1  0.150189  0.790994  0.500000  1
  Ta  Ta20  1  0.932581  0.887279  0.500000  1
  Ta  Ta21  1  0.177596  0.949775  0.500000  1
  P  P22  1  0.914014  0.125257  0.000000  1
  P  P23  1  0.085986  0.874744  0.000000  1
  P  P24  1  0.414014  0.374743  0.500000  1
  P  P25  1  0.585986  0.625257  0.500000  1
  Se  Se26  1  0.214588  0.056455  0.000000  1
  Se  Se27  1  0.464104  0.174125  0.000000  1
  Se  Se28  1  0.720403  0.284738  0.000000  1
  Se  Se29  1  0.110209  0.445258  0.000000  1
  Se  Se30  1  0.889791  0.554742  0.000000  1
  Se  Se31  1  0.279597  0.715262  0.000000  1
  Se  Se32  1  0.535896  0.825875  0.000000  1
  Se  Se33  1  0.785412  0.943545  0.000000  1
  Se  Se34  1  0.610209  0.054742  0.500000  1
  Se  Se35  1  0.220403  0.215262  0.500000  1
  Se  Se36  1  0.964104  0.325875  0.500000  1
  Se  Se37  1  0.714588  0.443545  0.500000  1
  Se  Se38  1  0.285412  0.556455  0.500000  1
  Se  Se39  1  0.035896  0.674125  0.500000  1
  Se  Se40  1  0.779597  0.784738  0.500000  1
  Se  Se41  1  0.389791  0.945258  0.500000  1
