# generated using pymatgen
data_Yb7HfSb6
_symmetry_space_group_name_H-M   'P 1'
_cell_length_a   8.10848882
_cell_length_b   8.10848844
_cell_length_c   7.95122900
_cell_angle_alpha   109.07882007
_cell_angle_beta   109.07881916
_cell_angle_gamma   109.86074937
_symmetry_Int_Tables_number   1
_chemical_formula_structural   Yb7HfSb6
_chemical_formula_sum   'Yb7 Hf1 Sb6'
_cell_volume   404.36403995
_cell_formula_units_Z   1
loop_
 _symmetry_equiv_pos_site_id
 _symmetry_equiv_pos_as_xyz
  1  'x, y, z'
loop_
 _atom_site_type_symbol
 _atom_site_label
 _atom_site_symmetry_multiplicity
 _atom_site_fract_x
 _atom_site_fract_y
 _atom_site_fract_z
 _atom_site_occupancy
  Yb  Yb0  1  0.650621  0.653396  0.653162  1
  Yb  Yb1  1  0.004576  0.359221  0.498016  1
  Yb  Yb2  1  0.354645  0.495424  0.993441  1
  Yb  Yb3  1  0.002775  0.849379  0.502541  1
  Yb  Yb4  1  0.846604  0.497225  0.999766  1
  Yb  Yb5  1  0.500000  0.000000  0.855762  1
  Yb  Yb6  1  0.140779  0.145355  0.138795  1
  Hf  Hf7  1  0.500000  0.000000  0.362895  1
  Sb  Sb8  1  0.859349  0.120693  0.729090  1
  Sb  Sb9  1  0.379307  0.238656  0.608396  1
  Sb  Sb10  1  0.138148  0.757902  0.894815  1
  Sb  Sb11  1  0.742098  0.880246  0.136913  1
  Sb  Sb12  1  0.261344  0.640651  0.369741  1
  Sb  Sb13  1  0.619754  0.361852  0.256667  1
