# generated using pymatgen
data_TbNd8ErPb8
_symmetry_space_group_name_H-M   'P 1'
_cell_length_a   8.39874400
_cell_length_b   8.49684900
_cell_length_c   16.16131100
_cell_angle_alpha   90.00000000
_cell_angle_beta   90.00000000
_cell_angle_gamma   90.00000000
_symmetry_Int_Tables_number   1
_chemical_formula_structural   TbNd8ErPb8
_chemical_formula_sum   'Tb2 Nd16 Er2 Pb16'
_cell_volume   1153.31736716
_cell_formula_units_Z   2
loop_
 _symmetry_equiv_pos_site_id
 _symmetry_equiv_pos_as_xyz
  1  'x, y, z'
loop_
 _atom_site_type_symbol
 _atom_site_label
 _atom_site_symmetry_multiplicity
 _atom_site_fract_x
 _atom_site_fract_y
 _atom_site_fract_z
 _atom_site_occupancy
  Tb  Tb0  1  0.207922  0.503967  0.750000  1
  Tb  Tb1  1  0.707922  0.996033  0.750000  1
  Nd  Nd2  1  0.376317  0.842016  0.880621  1
  Nd  Nd3  1  0.876317  0.657984  0.619379  1
  Nd  Nd4  1  0.623603  0.157945  0.380556  1
  Nd  Nd5  1  0.123603  0.342055  0.119444  1
  Nd  Nd6  1  0.623603  0.157945  0.119444  1
  Nd  Nd7  1  0.123603  0.342055  0.380556  1
  Nd  Nd8  1  0.376317  0.842016  0.619379  1
  Nd  Nd9  1  0.876317  0.657984  0.880621  1
  Nd  Nd10  1  0.533832  0.322388  0.899771  1
  Nd  Nd11  1  0.033832  0.177612  0.600229  1
  Nd  Nd12  1  0.466226  0.677673  0.399730  1
  Nd  Nd13  1  0.966226  0.822327  0.100270  1
  Nd  Nd14  1  0.466226  0.677673  0.100270  1
  Nd  Nd15  1  0.966226  0.822327  0.399730  1
  Nd  Nd16  1  0.533832  0.322388  0.600229  1
  Nd  Nd17  1  0.033832  0.177612  0.899771  1
  Er  Er18  1  0.791848  0.496002  0.250000  1
  Er  Er19  1  0.291848  0.003998  0.250000  1
  Pb  Pb20  1  0.281193  0.031044  0.045951  1
  Pb  Pb21  1  0.781193  0.468956  0.454049  1
  Pb  Pb22  1  0.718829  0.968920  0.545762  1
  Pb  Pb23  1  0.218829  0.531080  0.954238  1
  Pb  Pb24  1  0.718829  0.968920  0.954238  1
  Pb  Pb25  1  0.218829  0.531080  0.545762  1
  Pb  Pb26  1  0.281193  0.031044  0.454049  1
  Pb  Pb27  1  0.781193  0.468956  0.045951  1
  Pb  Pb28  1  0.571145  0.625545  0.750000  1
  Pb  Pb29  1  0.071145  0.874455  0.750000  1
  Pb  Pb30  1  0.429230  0.374309  0.250000  1
  Pb  Pb31  1  0.929230  0.125691  0.250000  1
  Pb  Pb32  1  0.343399  0.153018  0.750000  1
  Pb  Pb33  1  0.843399  0.346982  0.750000  1
  Pb  Pb34  1  0.656456  0.846563  0.250000  1
  Pb  Pb35  1  0.156456  0.653437  0.250000  1
