# generated using pymatgen
data_LaThCoB10
_symmetry_space_group_name_H-M   'P 1'
_cell_length_a   4.19686700
_cell_length_b   5.64007844
_cell_length_c   11.25126889
_cell_angle_alpha   90.08199425
_cell_angle_beta   90.00000000
_cell_angle_gamma   90.00000000
_symmetry_Int_Tables_number   1
_chemical_formula_structural   LaThCoB10
_chemical_formula_sum   'La2 Th2 Co2 B20'
_cell_volume   266.32467738
_cell_formula_units_Z   2
loop_
 _symmetry_equiv_pos_site_id
 _symmetry_equiv_pos_as_xyz
  1  'x, y, z'
loop_
 _atom_site_type_symbol
 _atom_site_label
 _atom_site_symmetry_multiplicity
 _atom_site_fract_x
 _atom_site_fract_y
 _atom_site_fract_z
 _atom_site_occupancy
  La  La0  1  0.500000  0.300955  0.865715  1
  La  La1  1  0.500000  0.699045  0.134285  1
  Th  Th2  1  0.500000  0.801533  0.633801  1
  Th  Th3  1  0.500000  0.198467  0.366199  1
  Co  Co4  1  0.000000  0.500000  0.500000  1
  Co  Co5  1  0.000000  0.000000  0.000000  1
  B  B6  1  0.000000  0.126808  0.539826  1
  B  B7  1  0.000000  0.873192  0.460174  1
  B  B8  1  0.000000  0.627639  0.958803  1
  B  B9  1  0.000000  0.372361  0.041197  1
  B  B10  1  0.000000  0.152615  0.696551  1
  B  B11  1  0.000000  0.847385  0.303449  1
  B  B12  1  0.298380  0.200811  0.113545  1
  B  B13  1  0.298380  0.799189  0.886455  1
  B  B14  1  0.700162  0.701471  0.387126  1
  B  B15  1  0.700162  0.298529  0.612874  1
  B  B16  1  0.701620  0.799189  0.886455  1
  B  B17  1  0.701620  0.200811  0.113545  1
  B  B18  1  0.299838  0.298529  0.612874  1
  B  B19  1  0.299838  0.701471  0.387126  1
  B  B20  1  0.000000  0.035912  0.187767  1
  B  B21  1  0.000000  0.964088  0.812233  1
  B  B22  1  0.000000  0.534941  0.313363  1
  B  B23  1  0.000000  0.465059  0.686637  1
  B  B24  1  0.000000  0.345756  0.197680  1
  B  B25  1  0.000000  0.654244  0.802320  1
