# generated using pymatgen
data_K2Pd(IO3)6
_symmetry_space_group_name_H-M   'P 1'
_cell_length_a   7.68242206
_cell_length_b   7.68242231
_cell_length_c   7.68242340
_cell_angle_alpha   96.81529581
_cell_angle_beta   96.81529320
_cell_angle_gamma   96.81528887
_symmetry_Int_Tables_number   1
_chemical_formula_structural   K2Pd(IO3)6
_chemical_formula_sum   'K2 Pd1 I6 O18'
_cell_volume   442.95768103
_cell_formula_units_Z   1
loop_
 _symmetry_equiv_pos_site_id
 _symmetry_equiv_pos_as_xyz
  1  'x, y, z'
loop_
 _atom_site_type_symbol
 _atom_site_label
 _atom_site_symmetry_multiplicity
 _atom_site_fract_x
 _atom_site_fract_y
 _atom_site_fract_z
 _atom_site_occupancy
  K  K0  1  0.320123  0.320123  0.320123  1
  K  K1  1  0.679877  0.679877  0.679877  1
  Pd  Pd2  1  0.000000  0.000000  0.000000  1
  I  I3  1  0.831958  0.640361  0.205593  1
  I  I4  1  0.640361  0.205593  0.831958  1
  I  I5  1  0.168042  0.359639  0.794407  1
  I  I6  1  0.205593  0.831958  0.640361  1
  I  I7  1  0.359639  0.794407  0.168042  1
  I  I8  1  0.794407  0.168042  0.359639  1
  O  O9  1  0.805193  0.819233  0.053038  1
  O  O10  1  0.587540  0.119298  0.208603  1
  O  O11  1  0.208603  0.587540  0.119298  1
  O  O12  1  0.180767  0.946962  0.194807  1
  O  O13  1  0.591759  0.588641  0.185915  1
  O  O14  1  0.185915  0.591759  0.588641  1
  O  O15  1  0.791397  0.412460  0.880702  1
  O  O16  1  0.412460  0.880702  0.791397  1
  O  O17  1  0.119298  0.208603  0.587540  1
  O  O18  1  0.946962  0.194807  0.180767  1
  O  O19  1  0.053038  0.805193  0.819233  1
  O  O20  1  0.194807  0.180767  0.946962  1
  O  O21  1  0.819233  0.053038  0.805193  1
  O  O22  1  0.588641  0.185915  0.591759  1
  O  O23  1  0.880702  0.791397  0.412460  1
  O  O24  1  0.408241  0.411359  0.814085  1
  O  O25  1  0.411359  0.814085  0.408241  1
  O  O26  1  0.814085  0.408241  0.411359  1
