# generated using pymatgen
data_ScMn4CoP3
_symmetry_space_group_name_H-M   'P 1'
_cell_length_a   3.51900700
_cell_length_b   10.42661100
_cell_length_c   12.08094900
_cell_angle_alpha   90.00000000
_cell_angle_beta   90.00000000
_cell_angle_gamma   90.00000000
_symmetry_Int_Tables_number   1
_chemical_formula_structural   ScMn4CoP3
_chemical_formula_sum   'Sc4 Mn16 Co4 P12'
_cell_volume   443.26593057
_cell_formula_units_Z   4
loop_
 _symmetry_equiv_pos_site_id
 _symmetry_equiv_pos_as_xyz
  1  'x, y, z'
loop_
 _atom_site_type_symbol
 _atom_site_label
 _atom_site_symmetry_multiplicity
 _atom_site_fract_x
 _atom_site_fract_y
 _atom_site_fract_z
 _atom_site_occupancy
  Sc  Sc0  1  0.250000  0.583248  0.707762  1
  Sc  Sc1  1  0.250000  0.916752  0.207762  1
  Sc  Sc2  1  0.750000  0.416752  0.292238  1
  Sc  Sc3  1  0.750000  0.083248  0.792238  1
  Mn  Mn4  1  0.250000  0.712575  0.987428  1
  Mn  Mn5  1  0.250000  0.787425  0.487428  1
  Mn  Mn6  1  0.750000  0.287425  0.012572  1
  Mn  Mn7  1  0.750000  0.212575  0.512572  1
  Mn  Mn8  1  0.250000  0.407696  0.491647  1
  Mn  Mn9  1  0.250000  0.092304  0.991647  1
  Mn  Mn10  1  0.750000  0.592304  0.508353  1
  Mn  Mn11  1  0.750000  0.907696  0.008353  1
  Mn  Mn12  1  0.250000  0.217440  0.177183  1
  Mn  Mn13  1  0.250000  0.282560  0.677183  1
  Mn  Mn14  1  0.750000  0.782560  0.822817  1
  Mn  Mn15  1  0.750000  0.717440  0.322817  1
  Mn  Mn16  1  0.250000  0.878796  0.698302  1
  Mn  Mn17  1  0.250000  0.621204  0.198302  1
  Mn  Mn18  1  0.750000  0.121204  0.301698  1
  Mn  Mn19  1  0.750000  0.378796  0.801698  1
  Co  Co20  1  0.250000  0.463888  0.933281  1
  Co  Co21  1  0.250000  0.036112  0.433281  1
  Co  Co22  1  0.750000  0.536112  0.066719  1
  Co  Co23  1  0.750000  0.963888  0.566719  1
  P  P24  1  0.250000  0.420236  0.115115  1
  P  P25  1  0.250000  0.079764  0.615115  1
  P  P26  1  0.750000  0.579764  0.884885  1
  P  P27  1  0.750000  0.920236  0.384885  1
  P  P28  1  0.250000  0.261367  0.870714  1
  P  P29  1  0.250000  0.238633  0.370714  1
  P  P30  1  0.750000  0.738633  0.129286  1
  P  P31  1  0.750000  0.761367  0.629286  1
  P  P32  1  0.250000  0.589172  0.384383  1
  P  P33  1  0.250000  0.910828  0.884383  1
  P  P34  1  0.750000  0.410828  0.615617  1
  P  P35  1  0.750000  0.089172  0.115617  1
