# generated using pymatgen
data_Gd2Mg2SnIr
_symmetry_space_group_name_H-M   'P 1'
_cell_length_a   4.33721100
_cell_length_b   7.44476455
_cell_length_c   9.09480600
_cell_angle_alpha   88.70976007
_cell_angle_beta   90.00000000
_cell_angle_gamma   90.00000000
_symmetry_Int_Tables_number   1
_chemical_formula_structural   Gd2Mg2SnIr
_chemical_formula_sum   'Gd4 Mg4 Sn2 Ir2'
_cell_volume   293.59241555
_cell_formula_units_Z   2
loop_
 _symmetry_equiv_pos_site_id
 _symmetry_equiv_pos_as_xyz
  1  'x, y, z'
loop_
 _atom_site_type_symbol
 _atom_site_label
 _atom_site_symmetry_multiplicity
 _atom_site_fract_x
 _atom_site_fract_y
 _atom_site_fract_z
 _atom_site_occupancy
  Gd  Gd0  1  0.250000  0.443512  0.208142  1
  Gd  Gd1  1  0.750000  0.556488  0.791858  1
  Gd  Gd2  1  0.750000  0.025546  0.661691  1
  Gd  Gd3  1  0.250000  0.974454  0.338309  1
  Mg  Mg4  1  0.250000  0.857994  0.918001  1
  Mg  Mg5  1  0.750000  0.142006  0.081999  1
  Mg  Mg6  1  0.750000  0.635421  0.446225  1
  Mg  Mg7  1  0.250000  0.364579  0.553775  1
  Sn  Sn8  1  0.750000  0.744690  0.116173  1
  Sn  Sn9  1  0.250000  0.255310  0.883827  1
  Ir  Ir10  1  0.250000  0.751173  0.617348  1
  Ir  Ir11  1  0.750000  0.248827  0.382652  1
