# generated using pymatgen
data_Ac8Cd3SnAu8
_symmetry_space_group_name_H-M   'P 1'
_cell_length_a   8.57369800
_cell_length_b   8.57369800
_cell_length_c   8.14644500
_cell_angle_alpha   90.00000000
_cell_angle_beta   90.00000000
_cell_angle_gamma   90.00000000
_symmetry_Int_Tables_number   1
_chemical_formula_structural   Ac8Cd3SnAu8
_chemical_formula_sum   'Ac8 Cd3 Sn1 Au8'
_cell_volume   598.83130177
_cell_formula_units_Z   1
loop_
 _symmetry_equiv_pos_site_id
 _symmetry_equiv_pos_as_xyz
  1  'x, y, z'
loop_
 _atom_site_type_symbol
 _atom_site_label
 _atom_site_symmetry_multiplicity
 _atom_site_fract_x
 _atom_site_fract_y
 _atom_site_fract_z
 _atom_site_occupancy
  Ac  Ac0  1  0.830532  0.173973  0.500190  1
  Ac  Ac1  1  0.169468  0.826027  0.500190  1
  Ac  Ac2  1  0.326027  0.330532  0.999810  1
  Ac  Ac3  1  0.673973  0.669468  0.999810  1
  Ac  Ac4  1  0.678043  0.672102  0.500783  1
  Ac  Ac5  1  0.321957  0.327898  0.500783  1
  Ac  Ac6  1  0.172102  0.821957  0.999217  1
  Ac  Ac7  1  0.827898  0.178043  0.999217  1
  Cd  Cd8  1  0.500000  0.000000  0.250000  1
  Cd  Cd9  1  0.000000  0.500000  0.750000  1
  Cd  Cd10  1  0.500000  0.000000  0.750000  1
  Sn  Sn11  1  0.000000  0.500000  0.250000  1
  Au  Au12  1  0.619899  0.369527  0.253529  1
  Au  Au13  1  0.380101  0.630473  0.253529  1
  Au  Au14  1  0.127802  0.125096  0.753359  1
  Au  Au15  1  0.872198  0.874904  0.753359  1
  Au  Au16  1  0.374904  0.627802  0.746641  1
  Au  Au17  1  0.625096  0.372198  0.746641  1
  Au  Au18  1  0.869527  0.880101  0.246471  1
  Au  Au19  1  0.130473  0.119899  0.246471  1
