# generated using pymatgen
data_La12Th2NiIr5
_symmetry_space_group_name_H-M   'P 1'
_cell_length_a   6.53323062
_cell_length_b   10.24982966
_cell_length_c   10.24982900
_cell_angle_alpha   120.32582178
_cell_angle_beta   90.09309253
_cell_angle_gamma   89.90691273
_symmetry_Int_Tables_number   1
_chemical_formula_structural   La12Th2NiIr5
_chemical_formula_sum   'La12 Th2 Ni1 Ir5'
_cell_volume   592.45568294
_cell_formula_units_Z   1
loop_
 _symmetry_equiv_pos_site_id
 _symmetry_equiv_pos_as_xyz
  1  'x, y, z'
loop_
 _atom_site_type_symbol
 _atom_site_label
 _atom_site_symmetry_multiplicity
 _atom_site_fract_x
 _atom_site_fract_y
 _atom_site_fract_z
 _atom_site_occupancy
  La  La0  1  0.246559  0.126746  0.873254  1
  La  La1  1  0.244993  0.742866  0.871149  1
  La  La2  1  0.244993  0.128851  0.257134  1
  La  La3  1  0.744540  0.872351  0.127649  1
  La  La4  1  0.744315  0.255612  0.128349  1
  La  La5  1  0.744315  0.871651  0.744388  1
  La  La6  1  0.436706  0.538308  0.461692  1
  La  La7  1  0.441320  0.924519  0.458862  1
  La  La8  1  0.441320  0.541138  0.075481  1
  La  La9  1  0.937945  0.462083  0.537917  1
  La  La10  1  0.942662  0.075538  0.540127  1
  La  La11  1  0.942662  0.459873  0.924462  1
  Th  Th12  1  0.483029  0.332889  0.667111  1
  Th  Th13  1  0.983945  0.667708  0.332292  1
  Ni  Ni14  1  0.189651  0.807812  0.192188  1
  Ir  Ir15  1  0.185791  0.384714  0.190416  1
  Ir  Ir16  1  0.185791  0.809584  0.615286  1
  Ir  Ir17  1  0.686700  0.190818  0.809182  1
  Ir  Ir18  1  0.687381  0.617590  0.810652  1
  Ir  Ir19  1  0.687381  0.189348  0.382410  1
