# generated using pymatgen
data_K2Tl4(TcH9)3
_symmetry_space_group_name_H-M   'P 1'
_cell_length_a   9.99727300
_cell_length_b   9.75779516
_cell_length_c   5.92758000
_cell_angle_alpha   90.00000000
_cell_angle_beta   90.00000000
_cell_angle_gamma   120.81522217
_symmetry_Int_Tables_number   1
_chemical_formula_structural   K2Tl4(TcH9)3
_chemical_formula_sum   'K2 Tl4 Tc3 H27'
_cell_volume   496.60919734
_cell_formula_units_Z   1
loop_
 _symmetry_equiv_pos_site_id
 _symmetry_equiv_pos_as_xyz
  1  'x, y, z'
loop_
 _atom_site_type_symbol
 _atom_site_label
 _atom_site_symmetry_multiplicity
 _atom_site_fract_x
 _atom_site_fract_y
 _atom_site_fract_z
 _atom_site_occupancy
  K  K0  1  0.997899  0.256610  0.500000  1
  K  K1  1  0.741291  0.743390  0.500000  1
  Tl  Tl2  1  0.279659  0.000000  0.500000  1
  Tl  Tl3  1  0.599207  0.000000  0.000000  1
  Tl  Tl4  1  0.978483  0.581139  0.000000  1
  Tl  Tl5  1  0.397343  0.418861  0.000000  1
  Tc  Tc6  1  0.985904  0.000000  0.000000  1
  Tc  Tc7  1  0.337846  0.662294  0.500000  1
  Tc  Tc8  1  0.675555  0.337706  0.500000  1
  H  H9  1  0.865768  0.000000  0.203758  1
  H  H10  1  0.988747  0.877726  0.200073  1
  H  H11  1  0.865768  0.000000  0.796242  1
  H  H12  1  0.988747  0.877726  0.799927  1
  H  H13  1  0.111021  0.122274  0.200073  1
  H  H14  1  0.111021  0.122274  0.799927  1
  H  H15  1  0.151820  0.000000  0.000000  1
  H  H16  1  0.991793  0.174371  0.000000  1
  H  H17  1  0.817422  0.825629  0.000000  1
  H  H18  1  0.232674  0.530215  0.293831  1
  H  H19  1  0.466669  0.687683  0.293286  1
  H  H20  1  0.232674  0.530215  0.706169  1
  H  H21  1  0.542647  0.232002  0.705170  1
  H  H22  1  0.310646  0.767998  0.294830  1
  H  H23  1  0.466669  0.687683  0.706714  1
  H  H24  1  0.702459  0.469785  0.706169  1
  H  H25  1  0.542647  0.232002  0.294830  1
  H  H26  1  0.310646  0.767998  0.705170  1
  H  H27  1  0.702459  0.469785  0.293831  1
  H  H28  1  0.778986  0.312317  0.706714  1
  H  H29  1  0.778986  0.312317  0.293286  1
  H  H30  1  0.369642  0.510555  0.500000  1
  H  H31  1  0.489193  0.849423  0.500000  1
  H  H32  1  0.535327  0.381801  0.500000  1
  H  H33  1  0.153527  0.618199  0.500000  1
  H  H34  1  0.859086  0.489445  0.500000  1
  H  H35  1  0.639770  0.150577  0.500000  1
