# generated using pymatgen
data_Sr2MnS3
_symmetry_space_group_name_H-M   'P 1'
_cell_length_a   4.15691700
_cell_length_b   8.53531700
_cell_length_c   16.52151800
_cell_angle_alpha   90.00000000
_cell_angle_beta   90.00000000
_cell_angle_gamma   90.00000000
_symmetry_Int_Tables_number   1
_chemical_formula_structural   Sr2MnS3
_chemical_formula_sum   'Sr8 Mn4 S12'
_cell_volume   586.19344322
_cell_formula_units_Z   4
loop_
 _symmetry_equiv_pos_site_id
 _symmetry_equiv_pos_as_xyz
  1  'x, y, z'
loop_
 _atom_site_type_symbol
 _atom_site_label
 _atom_site_symmetry_multiplicity
 _atom_site_fract_x
 _atom_site_fract_y
 _atom_site_fract_z
 _atom_site_occupancy
  Sr  Sr0  1  0.750000  0.241025  0.541445  1
  Sr  Sr1  1  0.250000  0.758975  0.458555  1
  Sr  Sr2  1  0.250000  0.258975  0.041445  1
  Sr  Sr3  1  0.750000  0.741025  0.958555  1
  Sr  Sr4  1  0.250000  0.419949  0.784247  1
  Sr  Sr5  1  0.750000  0.580051  0.215753  1
  Sr  Sr6  1  0.750000  0.080051  0.284247  1
  Sr  Sr7  1  0.250000  0.919949  0.715753  1
  Mn  Mn8  1  0.750000  0.124800  0.867091  1
  Mn  Mn9  1  0.250000  0.875200  0.132909  1
  Mn  Mn10  1  0.250000  0.375200  0.367091  1
  Mn  Mn11  1  0.750000  0.624800  0.632909  1
  S  S12  1  0.750000  0.181278  0.726033  1
  S  S13  1  0.250000  0.818722  0.273967  1
  S  S14  1  0.250000  0.318722  0.226033  1
  S  S15  1  0.750000  0.681278  0.773967  1
  S  S16  1  0.250000  0.489994  0.598980  1
  S  S17  1  0.750000  0.510006  0.401020  1
  S  S18  1  0.750000  0.010006  0.098980  1
  S  S19  1  0.250000  0.989994  0.901020  1
  S  S20  1  0.750000  0.375240  0.927596  1
  S  S21  1  0.250000  0.624760  0.072404  1
  S  S22  1  0.250000  0.124760  0.427596  1
  S  S23  1  0.750000  0.875240  0.572404  1
