# generated using pymatgen
data_Pr10Nd7Sm3Sn16
_symmetry_space_group_name_H-M   'P 1'
_cell_length_a   8.32750200
_cell_length_b   8.48294528
_cell_length_c   16.04952612
_cell_angle_alpha   90.01384532
_cell_angle_beta   89.99774369
_cell_angle_gamma   89.98561031
_symmetry_Int_Tables_number   1
_chemical_formula_structural   Pr10Nd7Sm3Sn16
_chemical_formula_sum   'Pr10 Nd7 Sm3 Sn16'
_cell_volume   1133.76644333
_cell_formula_units_Z   1
loop_
 _symmetry_equiv_pos_site_id
 _symmetry_equiv_pos_as_xyz
  1  'x, y, z'
loop_
 _atom_site_type_symbol
 _atom_site_label
 _atom_site_symmetry_multiplicity
 _atom_site_fract_x
 _atom_site_fract_y
 _atom_site_fract_z
 _atom_site_occupancy
  Pr  Pr0  1  0.367809  0.835404  0.620425  1
  Pr  Pr1  1  0.867484  0.664758  0.879515  1
  Pr  Pr2  1  0.518617  0.318996  0.900881  1
  Pr  Pr3  1  0.018223  0.180524  0.599140  1
  Pr  Pr4  1  0.481460  0.680672  0.400458  1
  Pr  Pr5  1  0.981587  0.819240  0.099376  1
  Pr  Pr6  1  0.481426  0.680644  0.099486  1
  Pr  Pr7  1  0.981553  0.819270  0.400681  1
  Pr  Pr8  1  0.518710  0.319078  0.599120  1
  Pr  Pr9  1  0.018310  0.180444  0.900857  1
  Nd  Nd10  1  0.367640  0.835480  0.879545  1
  Nd  Nd11  1  0.867279  0.664701  0.620514  1
  Nd  Nd12  1  0.632533  0.164379  0.379281  1
  Nd  Nd13  1  0.132574  0.335525  0.121077  1
  Nd  Nd14  1  0.632526  0.164460  0.120782  1
  Nd  Nd15  1  0.132567  0.335448  0.378861  1
  Nd  Nd16  1  0.197423  0.501516  0.750024  1
  Sm  Sm17  1  0.697978  0.998337  0.749981  1
  Sm  Sm18  1  0.801913  0.498408  0.250001  1
  Sm  Sm19  1  0.301771  0.001523  0.249998  1
  Sn  Sn20  1  0.293019  0.034774  0.043046  1
  Sn  Sn21  1  0.793045  0.465271  0.456999  1
  Sn  Sn22  1  0.707396  0.965491  0.542830  1
  Sn  Sn23  1  0.207487  0.535353  0.958265  1
  Sn  Sn24  1  0.706633  0.965794  0.957187  1
  Sn  Sn25  1  0.206730  0.535041  0.541715  1
  Sn  Sn26  1  0.292887  0.035072  0.456697  1
  Sn  Sn27  1  0.792917  0.464990  0.043255  1
  Sn  Sn28  1  0.568126  0.616939  0.749980  1
  Sn  Sn29  1  0.065630  0.884979  0.750013  1
  Sn  Sn30  1  0.433984  0.383290  0.250006  1
  Sn  Sn31  1  0.933763  0.116648  0.249999  1
  Sn  Sn32  1  0.324216  0.141954  0.750119  1
  Sn  Sn33  1  0.822019  0.355293  0.749885  1
  Sn  Sn34  1  0.676480  0.856512  0.250000  1
  Sn  Sn35  1  0.176285  0.643791  0.249999  1
