# generated using pymatgen
data_Ba4ErU3O14
_symmetry_space_group_name_H-M   'P 1'
_cell_length_a   8.10960296
_cell_length_b   8.10960322
_cell_length_c   8.16107710
_cell_angle_alpha   120.51066727
_cell_angle_beta   118.39456918
_cell_angle_gamma   90.60274113
_symmetry_Int_Tables_number   1
_chemical_formula_structural   Ba4ErU3O14
_chemical_formula_sum   'Ba4 Er1 U3 O14'
_cell_volume   383.63658682
_cell_formula_units_Z   1
loop_
 _symmetry_equiv_pos_site_id
 _symmetry_equiv_pos_as_xyz
  1  'x, y, z'
loop_
 _atom_site_type_symbol
 _atom_site_label
 _atom_site_symmetry_multiplicity
 _atom_site_fract_x
 _atom_site_fract_y
 _atom_site_fract_z
 _atom_site_occupancy
  Ba  Ba0  1  0.000000  0.000000  0.000000  1
  Ba  Ba1  1  0.500000  0.500000  0.000000  1
  Ba  Ba2  1  0.500000  0.000000  0.000000  1
  Ba  Ba3  1  0.500000  0.500000  0.500000  1
  Er  Er4  1  0.000000  0.000000  0.500000  1
  U  U5  1  0.000000  0.500000  0.500000  1
  U  U6  1  0.000000  0.500000  0.000000  1
  U  U7  1  0.500000  0.000000  0.500000  1
  O  O8  1  0.906866  0.739160  0.146025  1
  O  O9  1  0.674328  0.918394  0.368970  1
  O  O10  1  0.623678  0.905898  0.712900  1
  O  O11  1  0.686768  0.319290  0.768378  1
  O  O12  1  0.313232  0.680710  0.231622  1
  O  O13  1  0.325672  0.081606  0.631030  1
  O  O14  1  0.692999  0.410778  0.287100  1
  O  O15  1  0.049424  0.805358  0.631030  1
  O  O16  1  0.050912  0.418390  0.231622  1
  O  O17  1  0.093134  0.260840  0.853975  1
  O  O18  1  0.376322  0.094102  0.287100  1
  O  O19  1  0.950576  0.194642  0.368970  1
  O  O20  1  0.949088  0.581610  0.768378  1
  O  O21  1  0.307001  0.589222  0.712900  1
