# generated using pymatgen
data_LiLa2SbSe
_symmetry_space_group_name_H-M   'P 1'
_cell_length_a   4.42584700
_cell_length_b   4.42584767
_cell_length_c   14.98107800
_cell_angle_alpha   90.00000000
_cell_angle_beta   90.00000000
_cell_angle_gamma   119.99998750
_symmetry_Int_Tables_number   1
_chemical_formula_structural   LiLa2SbSe
_chemical_formula_sum   'Li2 La4 Sb2 Se2'
_cell_volume   254.13624601
_cell_formula_units_Z   2
loop_
 _symmetry_equiv_pos_site_id
 _symmetry_equiv_pos_as_xyz
  1  'x, y, z'
loop_
 _atom_site_type_symbol
 _atom_site_label
 _atom_site_symmetry_multiplicity
 _atom_site_fract_x
 _atom_site_fract_y
 _atom_site_fract_z
 _atom_site_occupancy
  Li  Li0  1  0.000000  0.000000  0.250000  1
  Li  Li1  1  0.000000  0.000000  0.750000  1
  La  La2  1  0.333333  0.666667  0.105504  1
  La  La3  1  0.333333  0.666667  0.394496  1
  La  La4  1  0.666667  0.333332  0.605504  1
  La  La5  1  0.666667  0.333332  0.894496  1
  Sb  Sb6  1  0.666667  0.333332  0.250000  1
  Sb  Sb7  1  0.333333  0.666667  0.750000  1
  Se  Se8  1  0.000000  0.000000  0.000000  1
  Se  Se9  1  0.000000  0.000000  0.500000  1
