# generated using pymatgen
data_HfZr5Ga6(PdRh)3
_symmetry_space_group_name_H-M   'P 1'
_cell_length_a   7.27644030
_cell_length_b   7.27973888
_cell_length_c   6.85984503
_cell_angle_alpha   90.00901391
_cell_angle_beta   89.99957733
_cell_angle_gamma   119.81199370
_symmetry_Int_Tables_number   1
_chemical_formula_structural   HfZr5Ga6(PdRh)3
_chemical_formula_sum   'Hf1 Zr5 Ga6 Pd3 Rh3'
_cell_volume   315.28212451
_cell_formula_units_Z   1
loop_
 _symmetry_equiv_pos_site_id
 _symmetry_equiv_pos_as_xyz
  1  'x, y, z'
loop_
 _atom_site_type_symbol
 _atom_site_label
 _atom_site_symmetry_multiplicity
 _atom_site_fract_x
 _atom_site_fract_y
 _atom_site_fract_z
 _atom_site_occupancy
  Hf  Hf0  1  0.595226  0.606747  0.746604  1
  Zr  Zr1  1  0.601376  0.601052  0.253112  1
  Zr  Zr2  1  0.011624  0.404327  0.746919  1
  Zr  Zr3  1  0.399773  0.000487  0.252988  1
  Zr  Zr4  1  0.999993  0.399023  0.252920  1
  Zr  Zr5  1  0.393376  0.988913  0.746837  1
  Ga  Ga6  1  0.273398  0.270355  0.501006  1
  Ga  Ga7  1  0.729167  0.002844  0.500333  1
  Ga  Ga8  1  0.996498  0.726131  0.500305  1
  Ga  Ga9  1  0.728853  0.000200  0.000449  1
  Ga  Ga10  1  0.271231  0.270696  0.999645  1
  Ga  Ga11  1  0.999099  0.728365  0.000359  1
  Pd  Pd12  1  0.998103  0.998106  0.749566  1
  Pd  Pd13  1  0.000296  0.000233  0.251216  1
  Pd  Pd14  1  0.666045  0.335056  0.987702  1
  Rh  Rh15  1  0.334934  0.666048  0.494034  1
  Rh  Rh16  1  0.334737  0.666098  0.006128  1
  Rh  Rh17  1  0.666272  0.335319  0.509877  1
