# generated using pymatgen
data_Sr2B4IrRh3
_symmetry_space_group_name_H-M   'P 1'
_cell_length_a   7.16495525
_cell_length_b   6.17352543
_cell_length_c   5.59452576
_cell_angle_alpha   74.83127392
_cell_angle_beta   56.26431370
_cell_angle_gamma   49.51783538
_symmetry_Int_Tables_number   1
_chemical_formula_structural   Sr2B4IrRh3
_chemical_formula_sum   'Sr2 B4 Ir1 Rh3'
_cell_volume   154.60259111
_cell_formula_units_Z   1
loop_
 _symmetry_equiv_pos_site_id
 _symmetry_equiv_pos_as_xyz
  1  'x, y, z'
loop_
 _atom_site_type_symbol
 _atom_site_label
 _atom_site_symmetry_multiplicity
 _atom_site_fract_x
 _atom_site_fract_y
 _atom_site_fract_z
 _atom_site_occupancy
  Sr  Sr0  1  0.999366  0.999366  0.000634  1
  Sr  Sr1  1  0.253696  0.253696  0.246304  1
  B  B2  1  0.323389  0.681830  0.335899  1
  B  B3  1  0.572224  0.923405  0.579616  1
  B  B4  1  0.681830  0.323389  0.658882  1
  B  B5  1  0.923405  0.572224  0.924755  1
  Ir  Ir6  1  0.630922  0.630922  0.369078  1
  Rh  Rh7  1  0.878809  0.878809  0.621191  1
  Rh  Rh8  1  0.617486  0.617486  0.882514  1
  Rh  Rh9  1  0.368872  0.368872  0.631128  1
