# generated using pymatgen
data_Hf2ScFeSn3Ir2
_symmetry_space_group_name_H-M   'P 1'
_cell_length_a   7.57406284
_cell_length_b   7.57406343
_cell_length_c   3.34729500
_cell_angle_alpha   90.00000000
_cell_angle_beta   90.00000000
_cell_angle_gamma   120.12949542
_symmetry_Int_Tables_number   1
_chemical_formula_structural   Hf2ScFeSn3Ir2
_chemical_formula_sum   'Hf2 Sc1 Fe1 Sn3 Ir2'
_cell_volume   166.07883083
_cell_formula_units_Z   1
loop_
 _symmetry_equiv_pos_site_id
 _symmetry_equiv_pos_as_xyz
  1  'x, y, z'
loop_
 _atom_site_type_symbol
 _atom_site_label
 _atom_site_symmetry_multiplicity
 _atom_site_fract_x
 _atom_site_fract_y
 _atom_site_fract_z
 _atom_site_occupancy
  Hf  Hf0  1  0.610551  0.000658  0.500000  1
  Hf  Hf1  1  0.000658  0.610551  0.500000  1
  Sc  Sc2  1  0.392281  0.392281  0.500000  1
  Fe  Fe3  1  0.991693  0.991693  0.500000  1
  Sn  Sn4  1  0.727843  0.727843  0.000000  1
  Sn  Sn5  1  0.266534  0.005620  0.000000  1
  Sn  Sn6  1  0.005620  0.266534  0.000000  1
  Ir  Ir7  1  0.673245  0.331575  0.000000  1
  Ir  Ir8  1  0.331575  0.673245  0.000000  1
