# generated using pymatgen
data_Th3In3NiIrRh
_symmetry_space_group_name_H-M   'P 1'
_cell_length_a   7.69393500
_cell_length_b   7.69393374
_cell_length_c   3.98567600
_cell_angle_alpha   90.00000000
_cell_angle_beta   90.00000000
_cell_angle_gamma   119.99999367
_symmetry_Int_Tables_number   1
_chemical_formula_structural   Th3In3NiIrRh
_chemical_formula_sum   'Th3 In3 Ni1 Ir1 Rh1'
_cell_volume   204.32881005
_cell_formula_units_Z   1
loop_
 _symmetry_equiv_pos_site_id
 _symmetry_equiv_pos_as_xyz
  1  'x, y, z'
loop_
 _atom_site_type_symbol
 _atom_site_label
 _atom_site_symmetry_multiplicity
 _atom_site_fract_x
 _atom_site_fract_y
 _atom_site_fract_z
 _atom_site_occupancy
  Th  Th0  1  0.417569  0.002434  0.500000  1
  Th  Th1  1  0.997566  0.415136  0.500000  1
  Th  Th2  1  0.584864  0.582431  0.500000  1
  In  In3  1  0.758181  0.997396  0.000000  1
  In  In4  1  0.002604  0.760784  0.000000  1
  In  In5  1  0.239216  0.241819  0.000000  1
  Ni  Ni6  1  0.000000  0.000000  0.500000  1
  Ir  Ir7  1  0.666667  0.333333  0.000000  1
  Rh  Rh8  1  0.333333  0.666667  0.000000  1
