# generated using pymatgen
data_HoLu2Pa(Ni2Sn)2
_symmetry_space_group_name_H-M   'P 1'
_cell_length_a   7.45164615
_cell_length_b   7.42488303
_cell_length_c   3.51630300
_cell_angle_alpha   90.00000000
_cell_angle_beta   90.00000000
_cell_angle_gamma   92.38678921
_symmetry_Int_Tables_number   1
_chemical_formula_structural   HoLu2Pa(Ni2Sn)2
_chemical_formula_sum   'Ho1 Lu2 Pa1 Ni4 Sn2'
_cell_volume   194.37983062
_cell_formula_units_Z   1
loop_
 _symmetry_equiv_pos_site_id
 _symmetry_equiv_pos_as_xyz
  1  'x, y, z'
loop_
 _atom_site_type_symbol
 _atom_site_label
 _atom_site_symmetry_multiplicity
 _atom_site_fract_x
 _atom_site_fract_y
 _atom_site_fract_z
 _atom_site_occupancy
  Ho  Ho0  1  0.828129  0.668899  0.500000  1
  Lu  Lu1  1  0.326299  0.827502  0.500000  1
  Lu  Lu2  1  0.169626  0.328640  0.500000  1
  Pa  Pa3  1  0.671246  0.171784  0.500000  1
  Ni  Ni4  1  0.869855  0.360998  0.000000  1
  Ni  Ni5  1  0.119172  0.614988  0.000000  1
  Ni  Ni6  1  0.391710  0.133137  0.000000  1
  Ni  Ni7  1  0.627386  0.893983  0.000000  1
  Sn  Sn8  1  0.487794  0.507743  0.000000  1
  Sn  Sn9  1  0.008784  0.992327  0.000000  1
