# generated using pymatgen
data_LuNb9Se16
_symmetry_space_group_name_H-M   'P 1'
_cell_length_a   7.00763200
_cell_length_b   7.00763358
_cell_length_c   13.71295400
_cell_angle_alpha   90.00000000
_cell_angle_beta   90.00000000
_cell_angle_gamma   120.00001143
_symmetry_Int_Tables_number   1
_chemical_formula_structural   LuNb9Se16
_chemical_formula_sum   'Lu1 Nb9 Se16'
_cell_volume   583.18221751
_cell_formula_units_Z   1
loop_
 _symmetry_equiv_pos_site_id
 _symmetry_equiv_pos_as_xyz
  1  'x, y, z'
loop_
 _atom_site_type_symbol
 _atom_site_label
 _atom_site_symmetry_multiplicity
 _atom_site_fract_x
 _atom_site_fract_y
 _atom_site_fract_z
 _atom_site_occupancy
  Lu  Lu0  1  0.000000  0.000000  0.000000  1
  Nb  Nb1  1  0.000000  0.000000  0.256871  1
  Nb  Nb2  1  0.000000  0.000000  0.743129  1
  Nb  Nb3  1  0.506695  0.013391  0.257132  1
  Nb  Nb4  1  0.493305  0.986609  0.742868  1
  Nb  Nb5  1  0.986609  0.493305  0.257132  1
  Nb  Nb6  1  0.013391  0.506695  0.742868  1
  Nb  Nb7  1  0.506695  0.493305  0.257132  1
  Nb  Nb8  1  0.493305  0.506695  0.742868  1
  Nb  Nb9  1  0.000000  0.000000  0.500000  1
  Se  Se10  1  0.333333  0.666667  0.617816  1
  Se  Se11  1  0.666667  0.333333  0.382184  1
  Se  Se12  1  0.666667  0.333333  0.130980  1
  Se  Se13  1  0.333333  0.666667  0.869020  1
  Se  Se14  1  0.169414  0.338827  0.135203  1
  Se  Se15  1  0.830586  0.661173  0.864797  1
  Se  Se16  1  0.661173  0.830586  0.135203  1
  Se  Se17  1  0.832008  0.664016  0.621531  1
  Se  Se18  1  0.338827  0.169414  0.864797  1
  Se  Se19  1  0.167992  0.335984  0.378469  1
  Se  Se20  1  0.169414  0.830586  0.135203  1
  Se  Se21  1  0.335984  0.167992  0.621531  1
  Se  Se22  1  0.830586  0.169414  0.864797  1
  Se  Se23  1  0.664016  0.832008  0.378469  1
  Se  Se24  1  0.832008  0.167992  0.621531  1
  Se  Se25  1  0.167992  0.832008  0.378469  1
