# generated using pymatgen
data_ThTl2(AgS2)2
_symmetry_space_group_name_H-M   'P 1'
_cell_length_a   4.12414400
_cell_length_b   7.72711431
_cell_length_c   7.78384500
_cell_angle_alpha   109.22605243
_cell_angle_beta   90.00000000
_cell_angle_gamma   105.47761347
_symmetry_Int_Tables_number   1
_chemical_formula_structural   ThTl2(AgS2)2
_chemical_formula_sum   'Th1 Tl2 Ag2 S4'
_cell_volume   224.66976615
_cell_formula_units_Z   1
loop_
 _symmetry_equiv_pos_site_id
 _symmetry_equiv_pos_as_xyz
  1  'x, y, z'
loop_
 _atom_site_type_symbol
 _atom_site_label
 _atom_site_symmetry_multiplicity
 _atom_site_fract_x
 _atom_site_fract_y
 _atom_site_fract_z
 _atom_site_occupancy
  Th  Th0  1  0.000000  0.000000  0.000000  1
  Tl  Tl1  1  0.861193  0.722386  0.433288  1
  Tl  Tl2  1  0.138808  0.277615  0.566712  1
  Ag  Ag3  1  0.319570  0.639142  0.011656  1
  Ag  Ag4  1  0.680430  0.360858  0.988344  1
  S  S5  1  0.197149  0.394296  0.201524  1
  S  S6  1  0.488506  0.977012  0.236641  1
  S  S7  1  0.511494  0.022987  0.763359  1
  S  S8  1  0.802852  0.605703  0.798476  1
