# generated using pymatgen
data_Hf3Al2GaPt3
_symmetry_space_group_name_H-M   'P 1'
_cell_length_a   7.15094554
_cell_length_b   7.15094583
_cell_length_c   7.12172800
_cell_angle_alpha   90.00000000
_cell_angle_beta   90.00000000
_cell_angle_gamma   119.60943443
_symmetry_Int_Tables_number   1
_chemical_formula_structural   Hf3Al2GaPt3
_chemical_formula_sum   'Hf6 Al4 Ga2 Pt6'
_cell_volume   316.62030499
_cell_formula_units_Z   2
loop_
 _symmetry_equiv_pos_site_id
 _symmetry_equiv_pos_as_xyz
  1  'x, y, z'
loop_
 _atom_site_type_symbol
 _atom_site_label
 _atom_site_symmetry_multiplicity
 _atom_site_fract_x
 _atom_site_fract_y
 _atom_site_fract_z
 _atom_site_occupancy
  Hf  Hf0  1  0.413082  0.390373  0.250000  1
  Hf  Hf1  1  0.592040  0.977193  0.750000  1
  Hf  Hf2  1  0.390373  0.413082  0.750000  1
  Hf  Hf3  1  0.022139  0.612829  0.750000  1
  Hf  Hf4  1  0.977193  0.592040  0.250000  1
  Hf  Hf5  1  0.612829  0.022139  0.250000  1
  Al  Al6  1  0.264322  0.001935  0.999816  1
  Al  Al7  1  0.264322  0.001935  0.500184  1
  Al  Al8  1  0.001935  0.264322  0.499816  1
  Al  Al9  1  0.001935  0.264322  0.000184  1
  Ga  Ga10  1  0.732205  0.732205  0.000000  1
  Ga  Ga11  1  0.732205  0.732205  0.500000  1
  Pt  Pt12  1  0.665591  0.327159  0.531429  1
  Pt  Pt13  1  0.005229  0.004691  0.750000  1
  Pt  Pt14  1  0.665591  0.327159  0.968571  1
  Pt  Pt15  1  0.327159  0.665591  0.031429  1
  Pt  Pt16  1  0.327159  0.665591  0.468571  1
  Pt  Pt17  1  0.004691  0.005229  0.250000  1
