# generated using pymatgen
data_LuV3Tc3P4
_symmetry_space_group_name_H-M   'P 1'
_cell_length_a   7.41238300
_cell_length_b   7.41238363
_cell_length_c   3.26842900
_cell_angle_alpha   90.00000000
_cell_angle_beta   90.00000000
_cell_angle_gamma   119.99999271
_symmetry_Int_Tables_number   1
_chemical_formula_structural   LuV3Tc3P4
_chemical_formula_sum   'Lu1 V3 Tc3 P4'
_cell_volume   155.51971747
_cell_formula_units_Z   1
loop_
 _symmetry_equiv_pos_site_id
 _symmetry_equiv_pos_as_xyz
  1  'x, y, z'
loop_
 _atom_site_type_symbol
 _atom_site_label
 _atom_site_symmetry_multiplicity
 _atom_site_fract_x
 _atom_site_fract_y
 _atom_site_fract_z
 _atom_site_occupancy
  Lu  Lu0  1  0.333333  0.666667  0.000000  1
  V  V1  1  0.243829  0.121914  0.000000  1
  V  V2  1  0.878086  0.756171  0.000000  1
  V  V3  1  0.878086  0.121914  0.000000  1
  Tc  Tc4  1  0.934071  0.467036  0.500000  1
  Tc  Tc5  1  0.532964  0.065929  0.500000  1
  Tc  Tc6  1  0.532964  0.467036  0.500000  1
  P  P7  1  0.666667  0.333333  0.000000  1
  P  P8  1  0.697647  0.848825  0.500000  1
  P  P9  1  0.151175  0.302353  0.500000  1
  P  P10  1  0.151175  0.848825  0.500000  1
