# generated using pymatgen
data_PrNd2Nb(Co4P3)2
_symmetry_space_group_name_H-M   'P 1'
_cell_length_a   3.78201200
_cell_length_b   10.80012400
_cell_length_c   12.54896100
_cell_angle_alpha   90.00000000
_cell_angle_beta   90.00000000
_cell_angle_gamma   90.00000000
_symmetry_Int_Tables_number   1
_chemical_formula_structural   PrNd2Nb(Co4P3)2
_chemical_formula_sum   'Pr2 Nd4 Nb2 Co16 P12'
_cell_volume   512.57735285
_cell_formula_units_Z   2
loop_
 _symmetry_equiv_pos_site_id
 _symmetry_equiv_pos_as_xyz
  1  'x, y, z'
loop_
 _atom_site_type_symbol
 _atom_site_label
 _atom_site_symmetry_multiplicity
 _atom_site_fract_x
 _atom_site_fract_y
 _atom_site_fract_z
 _atom_site_occupancy
  Pr  Pr0  1  0.000000  0.500000  0.525736  1
  Pr  Pr1  1  0.500000  0.000000  0.474264  1
  Nd  Nd2  1  0.500000  0.819398  0.205364  1
  Nd  Nd3  1  0.500000  0.180602  0.205364  1
  Nd  Nd4  1  0.000000  0.680602  0.794636  1
  Nd  Nd5  1  0.000000  0.319398  0.794636  1
  Nb  Nb6  1  0.500000  0.500000  0.154046  1
  Nb  Nb7  1  0.000000  0.000000  0.845954  1
  Co  Co8  1  0.500000  0.500000  0.704527  1
  Co  Co9  1  0.000000  0.000000  0.295473  1
  Co  Co10  1  0.000000  0.500000  0.987215  1
  Co  Co11  1  0.500000  0.000000  0.012785  1
  Co  Co12  1  0.500000  0.332323  0.992561  1
  Co  Co13  1  0.500000  0.667677  0.992561  1
  Co  Co14  1  0.000000  0.167677  0.007439  1
  Co  Co15  1  0.000000  0.832323  0.007439  1
  Co  Co16  1  0.500000  0.295251  0.431900  1
  Co  Co17  1  0.500000  0.704749  0.431900  1
  Co  Co18  1  0.000000  0.204749  0.568100  1
  Co  Co19  1  0.000000  0.795251  0.568100  1
  Co  Co20  1  0.500000  0.879938  0.706023  1
  Co  Co21  1  0.500000  0.120062  0.706023  1
  Co  Co22  1  0.000000  0.620062  0.293977  1
  Co  Co23  1  0.000000  0.379938  0.293977  1
  P  P24  1  0.500000  0.500000  0.886530  1
  P  P25  1  0.000000  0.000000  0.113470  1
  P  P26  1  0.500000  0.500000  0.349830  1
  P  P27  1  0.000000  0.000000  0.650170  1
  P  P28  1  0.500000  0.305384  0.614262  1
  P  P29  1  0.500000  0.694616  0.614262  1
  P  P30  1  0.000000  0.194616  0.385738  1
  P  P31  1  0.000000  0.805384  0.385738  1
  P  P32  1  0.500000  0.843536  0.896530  1
  P  P33  1  0.500000  0.156464  0.896530  1
  P  P34  1  0.000000  0.656464  0.103470  1
  P  P35  1  0.000000  0.343536  0.103470  1
