# generated using pymatgen
data_Dy3Al12FeNi3
_symmetry_space_group_name_H-M   'P 1'
_cell_length_a   8.55390800
_cell_length_b   8.55390882
_cell_length_c   9.27827900
_cell_angle_alpha   90.00000000
_cell_angle_beta   90.00000000
_cell_angle_gamma   120.00000456
_symmetry_Int_Tables_number   1
_chemical_formula_structural   Dy3Al12FeNi3
_chemical_formula_sum   'Dy6 Al24 Fe2 Ni6'
_cell_volume   587.93217927
_cell_formula_units_Z   2
loop_
 _symmetry_equiv_pos_site_id
 _symmetry_equiv_pos_as_xyz
  1  'x, y, z'
loop_
 _atom_site_type_symbol
 _atom_site_label
 _atom_site_symmetry_multiplicity
 _atom_site_fract_x
 _atom_site_fract_y
 _atom_site_fract_z
 _atom_site_occupancy
  Dy  Dy0  1  0.193346  0.386689  0.250000  1
  Dy  Dy1  1  0.806654  0.613311  0.750000  1
  Dy  Dy2  1  0.613311  0.806654  0.250000  1
  Dy  Dy3  1  0.386689  0.193346  0.750000  1
  Dy  Dy4  1  0.193346  0.806654  0.250000  1
  Dy  Dy5  1  0.806654  0.193346  0.750000  1
  Al  Al6  1  0.333333  0.666667  0.019604  1
  Al  Al7  1  0.666667  0.333333  0.980396  1
  Al  Al8  1  0.666667  0.333333  0.519604  1
  Al  Al9  1  0.333333  0.666667  0.480396  1
  Al  Al10  1  0.160748  0.321496  0.575641  1
  Al  Al11  1  0.839252  0.678504  0.424359  1
  Al  Al12  1  0.678504  0.839252  0.575641  1
  Al  Al13  1  0.839252  0.678504  0.075641  1
  Al  Al14  1  0.321496  0.160748  0.424359  1
  Al  Al15  1  0.160748  0.321496  0.924359  1
  Al  Al16  1  0.160748  0.839252  0.575641  1
  Al  Al17  1  0.321496  0.160748  0.075641  1
  Al  Al18  1  0.839252  0.160748  0.424359  1
  Al  Al19  1  0.678504  0.839252  0.924359  1
  Al  Al20  1  0.839252  0.160748  0.075641  1
  Al  Al21  1  0.160748  0.839252  0.924359  1
  Al  Al22  1  0.560897  0.121797  0.250000  1
  Al  Al23  1  0.439103  0.878203  0.750000  1
  Al  Al24  1  0.878203  0.439103  0.250000  1
  Al  Al25  1  0.121797  0.560897  0.750000  1
  Al  Al26  1  0.560897  0.439103  0.250000  1
  Al  Al27  1  0.439103  0.560897  0.750000  1
  Al  Al28  1  0.000000  0.000000  0.250000  1
  Al  Al29  1  0.000000  0.000000  0.750000  1
  Fe  Fe30  1  0.000000  0.000000  0.000000  1
  Fe  Fe31  1  0.000000  0.000000  0.500000  1
  Ni  Ni32  1  0.500000  0.000000  0.000000  1
  Ni  Ni33  1  0.000000  0.500000  0.000000  1
  Ni  Ni34  1  0.500000  0.000000  0.500000  1
  Ni  Ni35  1  0.500000  0.500000  0.000000  1
  Ni  Ni36  1  0.000000  0.500000  0.500000  1
  Ni  Ni37  1  0.500000  0.500000  0.500000  1
