# generated using pymatgen
data_Mg2Zn2As(PN2)6
_symmetry_space_group_name_H-M   'P 1'
_cell_length_a   7.26311843
_cell_length_b   7.23639146
_cell_length_c   7.26311977
_cell_angle_alpha   109.98403729
_cell_angle_beta   108.60238416
_cell_angle_gamma   109.98404565
_symmetry_Int_Tables_number   1
_chemical_formula_structural   Mg2Zn2As(PN2)6
_chemical_formula_sum   'Mg2 Zn2 As1 P6 N12'
_cell_volume   293.25156291
_cell_formula_units_Z   1
loop_
 _symmetry_equiv_pos_site_id
 _symmetry_equiv_pos_as_xyz
  1  'x, y, z'
loop_
 _atom_site_type_symbol
 _atom_site_label
 _atom_site_symmetry_multiplicity
 _atom_site_fract_x
 _atom_site_fract_y
 _atom_site_fract_z
 _atom_site_occupancy
  Mg  Mg0  1  0.990691  0.351316  0.990691  1
  Mg  Mg1  1  0.639375  0.648684  0.639375  1
  Zn  Zn2  1  0.348471  0.000000  0.002147  1
  Zn  Zn3  1  0.002147  0.000000  0.348471  1
  As  As4  1  0.023847  0.000000  0.023847  1
  P  P5  1  0.749945  0.250174  0.497762  1
  P  P6  1  0.247588  0.749826  0.499771  1
  P  P7  1  0.499771  0.749826  0.247588  1
  P  P8  1  0.497762  0.250174  0.749945  1
  P  P9  1  0.750248  0.500000  0.250248  1
  P  P10  1  0.250248  0.500000  0.750248  1
  N  N11  1  0.562634  0.273959  0.999429  1
  N  N12  1  0.440929  0.441719  0.717748  1
  N  N13  1  0.999429  0.273959  0.562634  1
  N  N14  1  0.272364  0.000000  0.562505  1
  N  N15  1  0.717748  0.441719  0.440929  1
  N  N16  1  0.999210  0.558281  0.276029  1
  N  N17  1  0.562505  0.000000  0.272364  1
  N  N18  1  0.434121  0.713326  0.434121  1
  N  N19  1  0.276029  0.558281  0.999210  1
  N  N20  1  0.720794  0.286674  0.720794  1
  N  N21  1  0.725470  0.726041  0.288675  1
  N  N22  1  0.288675  0.726041  0.725470  1
