# generated using pymatgen
data_RbReNiP2
_symmetry_space_group_name_H-M   'P 1'
_cell_length_a   7.58993258
_cell_length_b   7.58993274
_cell_length_c   7.58993334
_cell_angle_alpha   150.50605741
_cell_angle_beta   150.50606125
_cell_angle_gamma   42.19907368
_symmetry_Int_Tables_number   1
_chemical_formula_structural   RbReNiP2
_chemical_formula_sum   'Rb1 Re1 Ni1 P2'
_cell_volume   105.72657017
_cell_formula_units_Z   1
loop_
 _symmetry_equiv_pos_site_id
 _symmetry_equiv_pos_as_xyz
  1  'x, y, z'
loop_
 _atom_site_type_symbol
 _atom_site_label
 _atom_site_symmetry_multiplicity
 _atom_site_fract_x
 _atom_site_fract_y
 _atom_site_fract_z
 _atom_site_occupancy
  Rb  Rb0  1  0.000000  0.000000  0.000000  1
  Re  Re1  1  0.750000  0.250000  0.500000  1
  Ni  Ni2  1  0.250000  0.750000  0.500000  1
  P  P3  1  0.340919  0.340919  0.000000  1
  P  P4  1  0.659081  0.659081  0.000000  1
