# generated using pymatgen
data_Dy2Y14Cd3Co4Ag
_symmetry_space_group_name_H-M   'P 1'
_cell_length_a   9.53480629
_cell_length_b   9.54821941
_cell_length_c   9.51764870
_cell_angle_alpha   59.93422695
_cell_angle_beta   60.00380542
_cell_angle_gamma   59.91105843
_symmetry_Int_Tables_number   1
_chemical_formula_structural   Dy2Y14Cd3Co4Ag
_chemical_formula_sum   'Dy2 Y14 Cd3 Co4 Ag1'
_cell_volume   612.00161606
_cell_formula_units_Z   1
loop_
 _symmetry_equiv_pos_site_id
 _symmetry_equiv_pos_as_xyz
  1  'x, y, z'
loop_
 _atom_site_type_symbol
 _atom_site_label
 _atom_site_symmetry_multiplicity
 _atom_site_fract_x
 _atom_site_fract_y
 _atom_site_fract_z
 _atom_site_occupancy
  Dy  Dy0  1  0.155166  0.153926  0.154847  1
  Dy  Dy1  1  0.312159  0.311572  0.689823  1
  Y  Y2  1  0.153103  0.540213  0.152903  1
  Y  Y3  1  0.688680  0.313407  0.688455  1
  Y  Y4  1  0.690151  0.311127  0.312133  1
  Y  Y5  1  0.938240  0.559145  0.563568  1
  Y  Y6  1  0.539733  0.152052  0.152697  1
  Y  Y7  1  0.152883  0.151923  0.539923  1
  Y  Y8  1  0.937639  0.936825  0.561354  1
  Y  Y9  1  0.311301  0.690413  0.311441  1
  Y  Y10  1  0.561014  0.937243  0.937505  1
  Y  Y11  1  0.562399  0.936799  0.562670  1
  Y  Y12  1  0.688626  0.689067  0.312548  1
  Y  Y13  1  0.563557  0.559528  0.937746  1
  Y  Y14  1  0.939169  0.557347  0.938698  1
  Y  Y15  1  0.312609  0.689085  0.688502  1
  Cd  Cd16  1  0.919663  0.922551  0.919760  1
  Cd  Cd17  1  0.919439  0.921906  0.240048  1
  Cd  Cd18  1  0.240201  0.921589  0.919474  1
  Co  Co19  1  0.357014  0.357165  0.922412  1
  Co  Co20  1  0.357597  0.923207  0.357480  1
  Co  Co21  1  0.923690  0.357661  0.357411  1
  Co  Co22  1  0.358503  0.358803  0.361088  1
  Ag  Ag23  1  0.917464  0.247448  0.917511  1
