# generated using pymatgen
data_Pr20Ir2Os3Pt7
_symmetry_space_group_name_H-M   'P 1'
_cell_length_a   11.49129819
_cell_length_b   11.48266445
_cell_length_c   6.62933103
_cell_angle_alpha   90.03528198
_cell_angle_beta   90.02240569
_cell_angle_gamma   90.10262820
_symmetry_Int_Tables_number   1
_chemical_formula_structural   Pr20Ir2Os3Pt7
_chemical_formula_sum   'Pr20 Ir2 Os3 Pt7'
_cell_volume   874.74337356
_cell_formula_units_Z   1
loop_
 _symmetry_equiv_pos_site_id
 _symmetry_equiv_pos_as_xyz
  1  'x, y, z'
loop_
 _atom_site_type_symbol
 _atom_site_label
 _atom_site_symmetry_multiplicity
 _atom_site_fract_x
 _atom_site_fract_y
 _atom_site_fract_z
 _atom_site_occupancy
  Pr  Pr0  1  0.297552  0.086465  0.373172  1
  Pr  Pr1  1  0.297600  0.908374  0.874125  1
  Pr  Pr2  1  0.702310  0.087206  0.873929  1
  Pr  Pr3  1  0.701572  0.911957  0.371694  1
  Pr  Pr4  1  0.584561  0.795929  0.873508  1
  Pr  Pr5  1  0.587658  0.203562  0.373679  1
  Pr  Pr6  1  0.410207  0.794542  0.379381  1
  Pr  Pr7  1  0.411881  0.201336  0.873157  1
  Pr  Pr8  1  0.206193  0.414122  0.628486  1
  Pr  Pr9  1  0.206879  0.590876  0.117617  1
  Pr  Pr10  1  0.794858  0.411389  0.122856  1
  Pr  Pr11  1  0.796915  0.589818  0.628032  1
  Pr  Pr12  1  0.912566  0.703671  0.123989  1
  Pr  Pr13  1  0.911275  0.296214  0.627942  1
  Pr  Pr14  1  0.093603  0.703932  0.627607  1
  Pr  Pr15  1  0.089002  0.297313  0.125180  1
  Pr  Pr16  1  0.999259  0.999279  0.499631  1
  Pr  Pr17  1  0.000494  0.000702  0.998504  1
  Pr  Pr18  1  0.498086  0.500945  0.999019  1
  Pr  Pr19  1  0.499167  0.501937  0.499185  1
  Ir  Ir20  1  0.348165  0.650385  0.750063  1
  Ir  Ir21  1  0.999551  0.499671  0.383131  1
  Os  Os22  1  0.500155  0.000179  0.122013  1
  Os  Os23  1  0.500032  0.000585  0.620935  1
  Os  Os24  1  0.999142  0.499891  0.881675  1
  Pt  Pt25  1  0.848448  0.153512  0.250357  1
  Pt  Pt26  1  0.846335  0.847275  0.751166  1
  Pt  Pt27  1  0.151962  0.154399  0.749281  1
  Pt  Pt28  1  0.151464  0.846934  0.250160  1
  Pt  Pt29  1  0.652656  0.348126  0.749973  1
  Pt  Pt30  1  0.655054  0.652823  0.250216  1
  Pt  Pt31  1  0.345400  0.346648  0.250338  1
