# generated using pymatgen
data_LaCoPPd
_symmetry_space_group_name_H-M   'P 1'
_cell_length_a   9.39243800
_cell_length_b   9.39243822
_cell_length_c   3.99537000
_cell_angle_alpha   90.00000000
_cell_angle_beta   90.00000000
_cell_angle_gamma   155.96935858
_symmetry_Int_Tables_number   1
_chemical_formula_structural   LaCoPPd
_chemical_formula_sum   'La2 Co2 P2 Pd2'
_cell_volume   143.53184689
_cell_formula_units_Z   2
loop_
 _symmetry_equiv_pos_site_id
 _symmetry_equiv_pos_as_xyz
  1  'x, y, z'
loop_
 _atom_site_type_symbol
 _atom_site_label
 _atom_site_symmetry_multiplicity
 _atom_site_fract_x
 _atom_site_fract_y
 _atom_site_fract_z
 _atom_site_occupancy
  La  La0  1  0.612344  0.387656  0.250000  1
  La  La1  1  0.387609  0.612391  0.750000  1
  Co  Co2  1  0.250069  0.749931  0.250000  1
  Co  Co3  1  0.749946  0.250054  0.750000  1
  P  P4  1  0.810972  0.189028  0.250000  1
  P  P5  1  0.189045  0.810955  0.750000  1
  Pd  Pd6  1  0.948849  0.051151  0.250000  1
  Pd  Pd7  1  0.051165  0.948835  0.750000  1
