# generated using pymatgen
data_Tm4Al4NiRu3
_symmetry_space_group_name_H-M   'P 1'
_cell_length_a   4.00278600
_cell_length_b   6.86912841
_cell_length_c   8.00431477
_cell_angle_alpha   90.28799864
_cell_angle_beta   90.00000000
_cell_angle_gamma   90.00000000
_symmetry_Int_Tables_number   1
_chemical_formula_structural   Tm4Al4NiRu3
_chemical_formula_sum   'Tm4 Al4 Ni1 Ru3'
_cell_volume   220.08106544
_cell_formula_units_Z   1
loop_
 _symmetry_equiv_pos_site_id
 _symmetry_equiv_pos_as_xyz
  1  'x, y, z'
loop_
 _atom_site_type_symbol
 _atom_site_label
 _atom_site_symmetry_multiplicity
 _atom_site_fract_x
 _atom_site_fract_y
 _atom_site_fract_z
 _atom_site_occupancy
  Tm  Tm0  1  0.250000  0.966570  0.321601  1
  Tm  Tm1  1  0.750000  0.534580  0.822350  1
  Tm  Tm2  1  0.250000  0.467094  0.178276  1
  Tm  Tm3  1  0.750000  0.033218  0.677027  1
  Al  Al4  1  0.750000  0.637835  0.438896  1
  Al  Al5  1  0.750000  0.136366  0.058176  1
  Al  Al6  1  0.250000  0.363115  0.557653  1
  Al  Al7  1  0.250000  0.859616  0.945540  1
  Ni  Ni8  1  0.750000  0.771998  0.127274  1
  Ru  Ru9  1  0.750000  0.263300  0.371186  1
  Ru  Ru10  1  0.250000  0.232342  0.875885  1
  Ru  Ru11  1  0.250000  0.733964  0.626134  1
