# generated using pymatgen
data_Ba8Er4Al3CoO20
_symmetry_space_group_name_H-M   'P 1'
_cell_length_a   6.07522317
_cell_length_b   7.76746597
_cell_length_c   12.59425892
_cell_angle_alpha   91.45554371
_cell_angle_beta   89.92912932
_cell_angle_gamma   90.01044066
_symmetry_Int_Tables_number   1
_chemical_formula_structural   Ba8Er4Al3CoO20
_chemical_formula_sum   'Ba8 Er4 Al3 Co1 O20'
_cell_volume   594.11938338
_cell_formula_units_Z   1
loop_
 _symmetry_equiv_pos_site_id
 _symmetry_equiv_pos_as_xyz
  1  'x, y, z'
loop_
 _atom_site_type_symbol
 _atom_site_label
 _atom_site_symmetry_multiplicity
 _atom_site_fract_x
 _atom_site_fract_y
 _atom_site_fract_z
 _atom_site_occupancy
  Ba  Ba0  1  0.756669  0.487234  0.354805  1
  Ba  Ba1  1  0.743561  0.987915  0.855678  1
  Ba  Ba2  1  0.243155  0.510743  0.644278  1
  Ba  Ba3  1  0.257181  0.010291  0.143527  1
  Ba  Ba4  1  0.753797  0.997432  0.377118  1
  Ba  Ba5  1  0.745900  0.497029  0.877992  1
  Ba  Ba6  1  0.246960  0.004798  0.620389  1
  Ba  Ba7  1  0.253947  0.505014  0.121254  1
  Er  Er8  1  0.748897  0.261872  0.628300  1
  Er  Er9  1  0.751527  0.761746  0.129650  1
  Er  Er10  1  0.251204  0.737616  0.372274  1
  Er  Er11  1  0.248460  0.236748  0.872671  1
  Al  Al12  1  0.741508  0.746080  0.582777  1
  Al  Al13  1  0.758166  0.245220  0.083154  1
  Al  Al14  1  0.258447  0.254559  0.416955  1
  Co  Co15  1  0.242153  0.754218  0.911491  1
  O  O16  1  0.757182  0.961776  0.636598  1
  O  O17  1  0.743088  0.460808  0.137056  1
  O  O18  1  0.242899  0.038673  0.363764  1
  O  O19  1  0.257362  0.527723  0.866244  1
  O  O20  1  0.739823  0.065689  0.168187  1
  O  O21  1  0.760631  0.566566  0.667787  1
  O  O22  1  0.261992  0.945595  0.830473  1
  O  O23  1  0.240370  0.434850  0.332808  1
  O  O24  1  0.534398  0.747812  0.267541  1
  O  O25  1  0.966889  0.248867  0.765803  1
  O  O26  1  0.466642  0.253549  0.733845  1
  O  O27  1  0.035277  0.751597  0.234214  1
  O  O28  1  0.536481  0.230179  0.988158  1
  O  O29  1  0.963281  0.731461  0.487681  1
  O  O30  1  0.471343  0.768959  0.014816  1
  O  O31  1  0.036534  0.269257  0.512292  1
  O  O32  1  0.015486  0.233448  0.013175  1
  O  O33  1  0.482984  0.734852  0.513896  1
  O  O34  1  0.970475  0.764736  0.985893  1
  O  O35  1  0.515331  0.265091  0.487457  1
