# generated using pymatgen
data_Ti7Pt19Rh2
_symmetry_space_group_name_H-M   'P 1'
_cell_length_a   5.56146400
_cell_length_b   5.57683625
_cell_length_c   15.93765357
_cell_angle_alpha   90.09686293
_cell_angle_beta   90.00000000
_cell_angle_gamma   119.90885932
_symmetry_Int_Tables_number   1
_chemical_formula_structural   Ti7Pt19Rh2
_chemical_formula_sum   'Ti7 Pt19 Rh2'
_cell_volume   428.47879332
_cell_formula_units_Z   1
loop_
 _symmetry_equiv_pos_site_id
 _symmetry_equiv_pos_as_xyz
  1  'x, y, z'
loop_
 _atom_site_type_symbol
 _atom_site_label
 _atom_site_symmetry_multiplicity
 _atom_site_fract_x
 _atom_site_fract_y
 _atom_site_fract_z
 _atom_site_occupancy
  Ti  Ti0  1  0.998171  0.996342  0.718241  1
  Ti  Ti1  1  0.663178  0.326354  0.858660  1
  Ti  Ti2  1  0.337055  0.674110  0.141773  1
  Ti  Ti3  1  0.999787  0.999574  0.280382  1
  Ti  Ti4  1  0.670990  0.341980  0.432487  1
  Ti  Ti5  1  0.000263  0.000527  0.999615  1
  Ti  Ti6  1  0.332323  0.664647  0.570783  1
  Pt  Pt7  1  0.332656  0.165538  0.571281  1
  Pt  Pt8  1  0.165107  0.330214  0.856936  1
  Pt  Pt9  1  0.166806  0.333611  0.429184  1
  Pt  Pt10  1  0.166337  0.833113  0.429214  1
  Pt  Pt11  1  0.499248  0.998495  0.713142  1
  Pt  Pt12  1  0.666776  0.833113  0.429214  1
  Pt  Pt13  1  0.166903  0.831002  0.857367  1
  Pt  Pt14  1  0.664099  0.831002  0.857367  1
  Pt  Pt15  1  0.833287  0.169236  0.142328  1
  Pt  Pt16  1  0.832882  0.165538  0.571281  1
  Pt  Pt17  1  0.502136  0.500178  0.713102  1
  Pt  Pt18  1  0.335949  0.169236  0.142328  1
  Pt  Pt19  1  0.834786  0.669573  0.142923  1
  Pt  Pt20  1  0.499250  0.500536  0.286573  1
  Pt  Pt21  1  0.500648  0.001298  0.286209  1
  Pt  Pt22  1  0.001285  0.500536  0.286573  1
  Pt  Pt23  1  0.998043  0.500178  0.713102  1
  Pt  Pt24  1  0.500080  0.500073  0.999847  1
  Pt  Pt25  1  0.999993  0.500073  0.999847  1
  Rh  Rh26  1  0.831950  0.663899  0.570370  1
  Rh  Rh27  1  0.500012  0.000024  0.999868  1
