# generated using pymatgen
data_MnCrRhO4
_symmetry_space_group_name_H-M   'P 1'
_cell_length_a   6.22009522
_cell_length_b   6.07097728
_cell_length_c   6.13219165
_cell_angle_alpha   119.67033816
_cell_angle_beta   59.52931298
_cell_angle_gamma   89.99996249
_symmetry_Int_Tables_number   1
_chemical_formula_structural   MnCrRhO4
_chemical_formula_sum   'Mn2 Cr2 Rh2 O8'
_cell_volume   163.38292007
_cell_formula_units_Z   2
loop_
 _symmetry_equiv_pos_site_id
 _symmetry_equiv_pos_as_xyz
  1  'x, y, z'
loop_
 _atom_site_type_symbol
 _atom_site_label
 _atom_site_symmetry_multiplicity
 _atom_site_fract_x
 _atom_site_fract_y
 _atom_site_fract_z
 _atom_site_occupancy
  Mn  Mn0  1  0.120240  0.129733  0.259463  1
  Mn  Mn1  1  0.879745  0.870305  0.740612  1
  Cr  Cr2  1  0.499983  0.000034  0.500013  1
  Cr  Cr3  1  0.499984  0.499978  0.500014  1
  Rh  Rh4  1  0.999912  0.500035  0.000069  1
  Rh  Rh5  1  0.500009  0.500028  0.000057  1
  O  O6  1  0.272423  0.258408  0.516816  1
  O  O7  1  0.734505  0.288751  0.030983  1
  O  O8  1  0.734505  0.742231  0.030983  1
  O  O9  1  0.289264  0.741557  0.483115  1
  O  O10  1  0.265508  0.257705  0.968956  1
  O  O11  1  0.710755  0.258420  0.516838  1
  O  O12  1  0.265508  0.711251  0.968956  1
  O  O13  1  0.727659  0.741564  0.483129  1
