# generated using pymatgen
data_Y2Co5Ni5As6
_symmetry_space_group_name_H-M   'P 1'
_cell_length_a   3.82078400
_cell_length_b   10.70104800
_cell_length_c   12.26550100
_cell_angle_alpha   90.00000000
_cell_angle_beta   90.00000000
_cell_angle_gamma   90.00000000
_symmetry_Int_Tables_number   1
_chemical_formula_structural   Y2Co5Ni5As6
_chemical_formula_sum   'Y4 Co10 Ni10 As12'
_cell_volume   501.49209400
_cell_formula_units_Z   2
loop_
 _symmetry_equiv_pos_site_id
 _symmetry_equiv_pos_as_xyz
  1  'x, y, z'
loop_
 _atom_site_type_symbol
 _atom_site_label
 _atom_site_symmetry_multiplicity
 _atom_site_fract_x
 _atom_site_fract_y
 _atom_site_fract_z
 _atom_site_occupancy
  Y  Y0  1  0.250000  0.579936  0.703743  1
  Y  Y1  1  0.250000  0.920064  0.203743  1
  Y  Y2  1  0.750000  0.420094  0.297335  1
  Y  Y3  1  0.750000  0.079906  0.797335  1
  Co  Co4  1  0.750000  0.782037  0.822726  1
  Co  Co5  1  0.750000  0.717963  0.322726  1
  Co  Co6  1  0.250000  0.880039  0.696370  1
  Co  Co7  1  0.250000  0.619961  0.196370  1
  Co  Co8  1  0.750000  0.118797  0.303270  1
  Co  Co9  1  0.750000  0.381203  0.803270  1
  Co  Co10  1  0.250000  0.468488  0.932719  1
  Co  Co11  1  0.250000  0.031512  0.432719  1
  Co  Co12  1  0.750000  0.531286  0.067874  1
  Co  Co13  1  0.750000  0.968714  0.567874  1
  Ni  Ni14  1  0.250000  0.707034  0.989878  1
  Ni  Ni15  1  0.250000  0.792966  0.489878  1
  Ni  Ni16  1  0.750000  0.289898  0.007601  1
  Ni  Ni17  1  0.750000  0.210102  0.507601  1
  Ni  Ni18  1  0.250000  0.409538  0.486822  1
  Ni  Ni19  1  0.250000  0.090462  0.986822  1
  Ni  Ni20  1  0.750000  0.591522  0.513479  1
  Ni  Ni21  1  0.750000  0.908478  0.013479  1
  Ni  Ni22  1  0.250000  0.217778  0.177694  1
  Ni  Ni23  1  0.250000  0.282222  0.677694  1
  As  As24  1  0.250000  0.420068  0.114645  1
  As  As25  1  0.250000  0.079932  0.614645  1
  As  As26  1  0.750000  0.582182  0.885541  1
  As  As27  1  0.750000  0.917818  0.385541  1
  As  As28  1  0.250000  0.269669  0.869528  1
  As  As29  1  0.250000  0.230331  0.369528  1
  As  As30  1  0.750000  0.730809  0.132396  1
  As  As31  1  0.750000  0.769191  0.632396  1
  As  As32  1  0.250000  0.606292  0.388050  1
  As  As33  1  0.250000  0.893708  0.888050  1
  As  As34  1  0.750000  0.397416  0.610332  1
  As  As35  1  0.750000  0.102584  0.110332  1
