# generated using pymatgen
data_Li14CrGeN8
_symmetry_space_group_name_H-M   'P 1'
_cell_length_a   6.68168800
_cell_length_b   6.68168800
_cell_length_c   4.81891000
_cell_angle_alpha   90.00000000
_cell_angle_beta   90.00000000
_cell_angle_gamma   90.00000000
_symmetry_Int_Tables_number   1
_chemical_formula_structural   Li14CrGeN8
_chemical_formula_sum   'Li14 Cr1 Ge1 N8'
_cell_volume   215.14001783
_cell_formula_units_Z   1
loop_
 _symmetry_equiv_pos_site_id
 _symmetry_equiv_pos_as_xyz
  1  'x, y, z'
loop_
 _atom_site_type_symbol
 _atom_site_label
 _atom_site_symmetry_multiplicity
 _atom_site_fract_x
 _atom_site_fract_y
 _atom_site_fract_z
 _atom_site_occupancy
  Li  Li0  1  0.500000  0.000000  0.574715  1
  Li  Li1  1  0.235509  0.764491  0.000000  1
  Li  Li2  1  0.000000  0.500000  0.900109  1
  Li  Li3  1  0.764491  0.235509  0.000000  1
  Li  Li4  1  0.259972  0.740028  0.500000  1
  Li  Li5  1  0.000000  0.000000  0.000000  1
  Li  Li6  1  0.500000  0.000000  0.099891  1
  Li  Li7  1  0.740028  0.740028  0.500000  1
  Li  Li8  1  0.259972  0.259972  0.500000  1
  Li  Li9  1  0.235509  0.235509  0.000000  1
  Li  Li10  1  0.764491  0.764491  0.000000  1
  Li  Li11  1  0.740028  0.259972  0.500000  1
  Li  Li12  1  0.000000  0.500000  0.425285  1
  Li  Li13  1  0.500000  0.500000  0.500000  1
  Cr  Cr14  1  0.500000  0.500000  0.000000  1
  Ge  Ge15  1  0.000000  0.000000  0.500000  1
  N  N16  1  0.000000  0.239073  0.716944  1
  N  N17  1  0.283137  0.500000  0.209301  1
  N  N18  1  0.500000  0.283137  0.790699  1
  N  N19  1  0.000000  0.760927  0.716944  1
  N  N20  1  0.500000  0.716863  0.790699  1
  N  N21  1  0.760927  0.000000  0.283056  1
  N  N22  1  0.716863  0.500000  0.209301  1
  N  N23  1  0.239073  0.000000  0.283056  1
