# generated using pymatgen
data_CeYErP4Pd7
_symmetry_space_group_name_H-M   'P 1'
_cell_length_a   7.96276541
_cell_length_b   7.96276696
_cell_length_c   9.49866927
_cell_angle_alpha   55.58175137
_cell_angle_beta   55.58174600
_cell_angle_gamma   29.19138193
_symmetry_Int_Tables_number   1
_chemical_formula_structural   CeYErP4Pd7
_chemical_formula_sum   'Ce1 Y1 Er1 P4 Pd7'
_cell_volume   238.43087165
_cell_formula_units_Z   1
loop_
 _symmetry_equiv_pos_site_id
 _symmetry_equiv_pos_as_xyz
  1  'x, y, z'
loop_
 _atom_site_type_symbol
 _atom_site_label
 _atom_site_symmetry_multiplicity
 _atom_site_fract_x
 _atom_site_fract_y
 _atom_site_fract_z
 _atom_site_occupancy
  Ce  Ce0  1  0.499880  0.499880  0.500073  1
  Y  Y1  1  0.819982  0.819982  0.177293  1
  Er  Er2  1  0.179559  0.179559  0.823768  1
  P  P3  1  0.394406  0.394406  0.319760  1
  P  P4  1  0.606074  0.606074  0.680810  1
  P  P5  1  0.840330  0.840330  0.753083  1
  P  P6  1  0.158792  0.158792  0.247564  1
  Pd  Pd7  1  0.668652  0.668652  0.072838  1
  Pd  Pd8  1  0.010244  0.010244  0.211776  1
  Pd  Pd9  1  0.990487  0.990487  0.787271  1
  Pd  Pd10  1  0.501226  0.501226  0.998696  1
  Pd  Pd11  1  0.194087  0.194087  0.471941  1
  Pd  Pd12  1  0.805289  0.805289  0.529971  1
  Pd  Pd13  1  0.330994  0.330994  0.925155  1
