# generated using pymatgen
data_Y4Fe3Co17As12
_symmetry_space_group_name_H-M   'P 1'
_cell_length_a   3.80312300
_cell_length_b   10.67168350
_cell_length_c   12.21887769
_cell_angle_alpha   89.92344637
_cell_angle_beta   90.00000000
_cell_angle_gamma   90.00000000
_symmetry_Int_Tables_number   1
_chemical_formula_structural   Y4Fe3Co17As12
_chemical_formula_sum   'Y4 Fe3 Co17 As12'
_cell_volume   495.91156682
_cell_formula_units_Z   1
loop_
 _symmetry_equiv_pos_site_id
 _symmetry_equiv_pos_as_xyz
  1  'x, y, z'
loop_
 _atom_site_type_symbol
 _atom_site_label
 _atom_site_symmetry_multiplicity
 _atom_site_fract_x
 _atom_site_fract_y
 _atom_site_fract_z
 _atom_site_occupancy
  Y  Y0  1  0.250000  0.919012  0.202363  1
  Y  Y1  1  0.750000  0.081256  0.797550  1
  Y  Y2  1  0.750000  0.419121  0.298610  1
  Y  Y3  1  0.250000  0.579909  0.701403  1
  Fe  Fe4  1  0.250000  0.793254  0.488789  1
  Fe  Fe5  1  0.750000  0.206272  0.511269  1
  Fe  Fe6  1  0.750000  0.293136  0.011892  1
  Co  Co7  1  0.250000  0.707646  0.989518  1
  Co  Co8  1  0.250000  0.093997  0.987442  1
  Co  Co9  1  0.750000  0.905962  0.011852  1
  Co  Co10  1  0.750000  0.593924  0.512066  1
  Co  Co11  1  0.250000  0.406384  0.486800  1
  Co  Co12  1  0.250000  0.284099  0.677055  1
  Co  Co13  1  0.750000  0.715904  0.322159  1
  Co  Co14  1  0.750000  0.784370  0.823602  1
  Co  Co15  1  0.250000  0.216188  0.177230  1
  Co  Co16  1  0.250000  0.616264  0.196211  1
  Co  Co17  1  0.750000  0.383739  0.803284  1
  Co  Co18  1  0.750000  0.116075  0.303408  1
  Co  Co19  1  0.250000  0.882964  0.697366  1
  Co  Co20  1  0.250000  0.030524  0.433212  1
  Co  Co21  1  0.750000  0.968692  0.567619  1
  Co  Co22  1  0.750000  0.531125  0.066750  1
  Co  Co23  1  0.250000  0.470145  0.932842  1
  As  As24  1  0.250000  0.083837  0.615104  1
  As  As25  1  0.750000  0.915587  0.385480  1
  As  As26  1  0.750000  0.584074  0.884956  1
  As  As27  1  0.250000  0.415959  0.114889  1
  As  As28  1  0.250000  0.230963  0.368774  1
  As  As29  1  0.750000  0.768214  0.631585  1
  As  As30  1  0.750000  0.731359  0.131166  1
  As  As31  1  0.250000  0.269462  0.868348  1
  As  As32  1  0.250000  0.899545  0.891616  1
  As  As33  1  0.750000  0.100766  0.108837  1
  As  As34  1  0.750000  0.398655  0.607737  1
  As  As35  1  0.250000  0.601616  0.391215  1
