# generated using pymatgen
data_Nd4TcOsC4
_symmetry_space_group_name_H-M   'P 1'
_cell_length_a   5.35687400
_cell_length_b   6.66142300
_cell_length_c   10.18781100
_cell_angle_alpha   90.00000000
_cell_angle_beta   90.00000000
_cell_angle_gamma   90.00000000
_symmetry_Int_Tables_number   1
_chemical_formula_structural   Nd4TcOsC4
_chemical_formula_sum   'Nd8 Tc2 Os2 C8'
_cell_volume   363.54596026
_cell_formula_units_Z   2
loop_
 _symmetry_equiv_pos_site_id
 _symmetry_equiv_pos_as_xyz
  1  'x, y, z'
loop_
 _atom_site_type_symbol
 _atom_site_label
 _atom_site_symmetry_multiplicity
 _atom_site_fract_x
 _atom_site_fract_y
 _atom_site_fract_z
 _atom_site_occupancy
  Nd  Nd0  1  0.250000  0.474547  0.786673  1
  Nd  Nd1  1  0.750000  0.025453  0.286673  1
  Nd  Nd2  1  0.250000  0.973427  0.712967  1
  Nd  Nd3  1  0.750000  0.526573  0.212967  1
  Nd  Nd4  1  0.250000  0.812680  0.050845  1
  Nd  Nd5  1  0.750000  0.687320  0.550845  1
  Nd  Nd6  1  0.250000  0.312766  0.448767  1
  Nd  Nd7  1  0.750000  0.187234  0.948767  1
  Tc  Tc8  1  0.250000  0.270672  0.142331  1
  Tc  Tc9  1  0.750000  0.229328  0.642331  1
  Os  Os10  1  0.250000  0.770992  0.357895  1
  Os  Os11  1  0.750000  0.729008  0.857895  1
  C  C12  1  0.250000  0.686485  0.537815  1
  C  C13  1  0.750000  0.813515  0.037815  1
  C  C14  1  0.250000  0.186834  0.961983  1
  C  C15  1  0.750000  0.313166  0.461983  1
  C  C16  1  0.250000  0.033023  0.257824  1
  C  C17  1  0.750000  0.466977  0.757824  1
  C  C18  1  0.250000  0.536298  0.242899  1
  C  C19  1  0.750000  0.963702  0.742899  1
