# generated using pymatgen
data_Tb5Er11(HgIr)4
_symmetry_space_group_name_H-M   'P 1'
_cell_length_a   9.56872668
_cell_length_b   9.56878504
_cell_length_c   9.56878508
_cell_angle_alpha   60.01445828
_cell_angle_beta   60.00019331
_cell_angle_gamma   60.00020171
_symmetry_Int_Tables_number   1
_chemical_formula_structural   Tb5Er11(HgIr)4
_chemical_formula_sum   'Tb5 Er11 Hg4 Ir4'
_cell_volume   619.58583371
_cell_formula_units_Z   1
loop_
 _symmetry_equiv_pos_site_id
 _symmetry_equiv_pos_as_xyz
  1  'x, y, z'
loop_
 _atom_site_type_symbol
 _atom_site_label
 _atom_site_symmetry_multiplicity
 _atom_site_fract_x
 _atom_site_fract_y
 _atom_site_fract_z
 _atom_site_occupancy
  Tb  Tb0  1  0.810669  0.189331  0.189331  1
  Tb  Tb1  1  0.811444  0.188937  0.810631  1
  Tb  Tb2  1  0.188988  0.810631  0.188937  1
  Tb  Tb3  1  0.811444  0.810631  0.188937  1
  Tb  Tb4  1  0.188988  0.188937  0.810631  1
  Er  Er5  1  0.599697  0.600659  0.600659  1
  Er  Er6  1  0.600252  0.601254  0.198244  1
  Er  Er7  1  0.600252  0.198244  0.601254  1
  Er  Er8  1  0.198987  0.600659  0.600659  1
  Er  Er9  1  0.060447  0.439553  0.439553  1
  Er  Er10  1  0.439404  0.060596  0.060596  1
  Er  Er11  1  0.439750  0.059788  0.439463  1
  Er  Er12  1  0.060999  0.439463  0.059788  1
  Er  Er13  1  0.439750  0.439463  0.059788  1
  Er  Er14  1  0.060999  0.059788  0.439463  1
  Er  Er15  1  0.189405  0.810595  0.810595  1
  Hg  Hg16  1  0.835056  0.834260  0.834260  1
  Hg  Hg17  1  0.834433  0.834524  0.496612  1
  Hg  Hg18  1  0.834433  0.496612  0.834524  1
  Hg  Hg19  1  0.496425  0.834260  0.834260  1
  Ir  Ir20  1  0.391271  0.392215  0.392215  1
  Ir  Ir21  1  0.391306  0.393188  0.824199  1
  Ir  Ir22  1  0.391306  0.824199  0.393188  1
  Ir  Ir23  1  0.824298  0.392215  0.392215  1
