# generated using pymatgen
data_Ac(BrO3)3
_symmetry_space_group_name_H-M   'P 1'
_cell_length_a   7.85213745
_cell_length_b   7.63463872
_cell_length_c   8.68293313
_cell_angle_alpha   70.08305213
_cell_angle_beta   68.23674274
_cell_angle_gamma   73.91974991
_symmetry_Int_Tables_number   1
_chemical_formula_structural   Ac(BrO3)3
_chemical_formula_sum   'Ac2 Br6 O18'
_cell_volume   447.69212007
_cell_formula_units_Z   2
loop_
 _symmetry_equiv_pos_site_id
 _symmetry_equiv_pos_as_xyz
  1  'x, y, z'
loop_
 _atom_site_type_symbol
 _atom_site_label
 _atom_site_symmetry_multiplicity
 _atom_site_fract_x
 _atom_site_fract_y
 _atom_site_fract_z
 _atom_site_occupancy
  Ac  Ac0  1  0.266377  0.279542  0.243631  1
  Ac  Ac1  1  0.733623  0.720458  0.756369  1
  Br  Br2  1  0.084738  0.804553  0.286379  1
  Br  Br3  1  0.915262  0.195447  0.713621  1
  Br  Br4  1  0.768231  0.281717  0.188077  1
  Br  Br5  1  0.231769  0.718283  0.811923  1
  Br  Br6  1  0.664033  0.810534  0.189575  1
  Br  Br7  1  0.335967  0.189466  0.810425  1
  O  O8  1  0.182594  0.582818  0.366173  1
  O  O9  1  0.817406  0.417182  0.633827  1
  O  O10  1  0.177788  0.945097  0.334830  1
  O  O11  1  0.822212  0.054903  0.665170  1
  O  O12  1  0.905718  0.386568  0.227395  1
  O  O13  1  0.094282  0.613432  0.772605  1
  O  O14  1  0.551053  0.345331  0.312262  1
  O  O15  1  0.448947  0.654669  0.687738  1
  O  O16  1  0.562201  0.777327  0.063636  1
  O  O17  1  0.437799  0.222673  0.936364  1
  O  O18  1  0.862420  0.822018  0.423281  1
  O  O19  1  0.137580  0.177982  0.576719  1
  O  O20  1  0.547959  0.015585  0.243819  1
  O  O21  1  0.452041  0.984415  0.756181  1
  O  O22  1  0.752345  0.400608  0.987409  1
  O  O23  1  0.247655  0.599392  0.012591  1
  O  O24  1  0.868263  0.865745  0.051257  1
  O  O25  1  0.131737  0.134255  0.948743  1
