# generated using pymatgen
data_AsS27
_symmetry_space_group_name_H-M   'P 1'
_cell_length_a   15.04856668
_cell_length_b   15.04856712
_cell_length_c   15.04856605
_cell_angle_alpha   118.69931839
_cell_angle_beta   118.69932165
_cell_angle_gamma   118.69931810
_symmetry_Int_Tables_number   1
_chemical_formula_structural   AsS27
_chemical_formula_sum   'As1 S27'
_cell_volume   1003.49165162
_cell_formula_units_Z   1
loop_
 _symmetry_equiv_pos_site_id
 _symmetry_equiv_pos_as_xyz
  1  'x, y, z'
loop_
 _atom_site_type_symbol
 _atom_site_label
 _atom_site_symmetry_multiplicity
 _atom_site_fract_x
 _atom_site_fract_y
 _atom_site_fract_z
 _atom_site_occupancy
  As  As0  1  0.938116  0.938116  0.938116  1
  S  S1  1  0.801690  0.520049  0.520049  1
  S  S2  1  0.520049  0.520049  0.801690  1
  S  S3  1  0.520049  0.801690  0.520049  1
  S  S4  1  0.246157  0.375893  0.635253  1
  S  S5  1  0.350585  0.950887  0.350585  1
  S  S6  1  0.350585  0.350585  0.950887  1
  S  S7  1  0.950887  0.350585  0.350585  1
  S  S8  1  0.127025  0.740190  0.256641  1
  S  S9  1  0.256641  0.127025  0.740190  1
  S  S10  1  0.740190  0.256641  0.127025  1
  S  S11  1  0.740190  0.127025  0.256641  1
  S  S12  1  0.256641  0.740190  0.127025  1
  S  S13  1  0.127025  0.256641  0.740190  1
  S  S14  1  0.346501  0.878983  0.529546  1
  S  S15  1  0.529546  0.346501  0.878983  1
  S  S16  1  0.878983  0.529546  0.346501  1
  S  S17  1  0.878983  0.346501  0.529546  1
  S  S18  1  0.529546  0.878983  0.346501  1
  S  S19  1  0.346501  0.529546  0.878983  1
  S  S20  1  0.246157  0.635253  0.375893  1
  S  S21  1  0.375893  0.246157  0.635253  1
  S  S22  1  0.635253  0.375893  0.246157  1
  S  S23  1  0.635253  0.246157  0.375893  1
  S  S24  1  0.375893  0.635253  0.246157  1
  S  S25  1  0.847435  0.986762  0.986762  1
  S  S26  1  0.986762  0.986762  0.847435  1
  S  S27  1  0.986762  0.847435  0.986762  1
