# generated using pymatgen
data_Nd2Re3Tc14C3
_symmetry_space_group_name_H-M   'P 1'
_cell_length_a   7.02548952
_cell_length_b   7.02549005
_cell_length_c   7.02548928
_cell_angle_alpha   82.90089656
_cell_angle_beta   82.90089607
_cell_angle_gamma   82.90090094
_symmetry_Int_Tables_number   1
_chemical_formula_structural   Nd2Re3Tc14C3
_chemical_formula_sum   'Nd2 Re3 Tc14 C3'
_cell_volume   339.39253178
_cell_formula_units_Z   1
loop_
 _symmetry_equiv_pos_site_id
 _symmetry_equiv_pos_as_xyz
  1  'x, y, z'
loop_
 _atom_site_type_symbol
 _atom_site_label
 _atom_site_symmetry_multiplicity
 _atom_site_fract_x
 _atom_site_fract_y
 _atom_site_fract_z
 _atom_site_occupancy
  Nd  Nd0  1  0.650283  0.650283  0.650283  1
  Nd  Nd1  1  0.349717  0.349717  0.349717  1
  Re  Re2  1  0.000000  0.000000  0.500000  1
  Re  Re3  1  0.500000  0.000000  0.000000  1
  Re  Re4  1  0.000000  0.500000  0.000000  1
  Tc  Tc5  1  0.722086  0.277914  0.000000  1
  Tc  Tc6  1  0.000000  0.722086  0.277914  1
  Tc  Tc7  1  0.277914  0.000000  0.722086  1
  Tc  Tc8  1  0.000000  0.277914  0.722086  1
  Tc  Tc9  1  0.722086  0.000000  0.277914  1
  Tc  Tc10  1  0.277914  0.722086  0.000000  1
  Tc  Tc11  1  0.348248  0.865864  0.348248  1
  Tc  Tc12  1  0.348248  0.348248  0.865864  1
  Tc  Tc13  1  0.865864  0.348248  0.348248  1
  Tc  Tc14  1  0.651752  0.134136  0.651752  1
  Tc  Tc15  1  0.651752  0.651752  0.134136  1
  Tc  Tc16  1  0.134136  0.651752  0.651752  1
  Tc  Tc17  1  0.902434  0.902434  0.902434  1
  Tc  Tc18  1  0.097566  0.097566  0.097566  1
  C  C19  1  0.500000  0.500000  0.000000  1
  C  C20  1  0.000000  0.500000  0.500000  1
  C  C21  1  0.500000  0.000000  0.500000  1
