# generated using pymatgen
data_NdHo2BiO7
_symmetry_space_group_name_H-M   'P 1'
_cell_length_a   6.59997015
_cell_length_b   6.59997179
_cell_length_c   7.77775000
_cell_angle_alpha   90.00000000
_cell_angle_beta   90.00000000
_cell_angle_gamma   109.26252022
_symmetry_Int_Tables_number   1
_chemical_formula_structural   NdHo2BiO7
_chemical_formula_sum   'Nd2 Ho4 Bi2 O14'
_cell_volume   319.82898845
_cell_formula_units_Z   2
loop_
 _symmetry_equiv_pos_site_id
 _symmetry_equiv_pos_as_xyz
  1  'x, y, z'
loop_
 _atom_site_type_symbol
 _atom_site_label
 _atom_site_symmetry_multiplicity
 _atom_site_fract_x
 _atom_site_fract_y
 _atom_site_fract_z
 _atom_site_occupancy
  Nd  Nd0  1  0.500000  0.500000  0.500000  1
  Nd  Nd1  1  0.500000  0.500000  0.000000  1
  Ho  Ho2  1  0.531179  0.002362  0.750000  1
  Ho  Ho3  1  0.002362  0.531179  0.250000  1
  Ho  Ho4  1  0.468821  0.997638  0.250000  1
  Ho  Ho5  1  0.997638  0.468821  0.750000  1
  Bi  Bi6  1  0.000000  0.000000  0.500000  1
  Bi  Bi7  1  0.000000  0.000000  0.000000  1
  O  O8  1  0.663784  0.922868  0.470511  1
  O  O9  1  0.922868  0.663784  0.529489  1
  O  O10  1  0.663784  0.922868  0.029489  1
  O  O11  1  0.922868  0.663784  0.970511  1
  O  O12  1  0.336216  0.077132  0.529489  1
  O  O13  1  0.077132  0.336216  0.470511  1
  O  O14  1  0.336216  0.077132  0.970511  1
  O  O15  1  0.077132  0.336216  0.029489  1
  O  O16  1  0.915413  0.084587  0.750000  1
  O  O17  1  0.084587  0.915413  0.250000  1
  O  O18  1  0.362800  0.637200  0.750000  1
  O  O19  1  0.637200  0.362800  0.250000  1
  O  O20  1  0.642576  0.357424  0.750000  1
  O  O21  1  0.357424  0.642576  0.250000  1
