# generated using pymatgen
data_Y3Tm5B24Ru3W
_symmetry_space_group_name_H-M   'P 1'
_cell_length_a   3.62124200
_cell_length_b   9.12716842
_cell_length_c   11.52534200
_cell_angle_alpha   89.85433987
_cell_angle_beta   90.00000000
_cell_angle_gamma   90.00000000
_symmetry_Int_Tables_number   1
_chemical_formula_structural   Y3Tm5B24Ru3W
_chemical_formula_sum   'Y3 Tm5 B24 Ru3 W1'
_cell_volume   380.93074959
_cell_formula_units_Z   1
loop_
 _symmetry_equiv_pos_site_id
 _symmetry_equiv_pos_as_xyz
  1  'x, y, z'
loop_
 _atom_site_type_symbol
 _atom_site_label
 _atom_site_symmetry_multiplicity
 _atom_site_fract_x
 _atom_site_fract_y
 _atom_site_fract_z
 _atom_site_occupancy
  Y  Y0  1  0.000000  0.320883  0.413702  1
  Y  Y1  1  0.000000  0.678232  0.585632  1
  Y  Y2  1  0.000000  0.820326  0.086596  1
  Tm  Tm3  1  0.000000  0.177221  0.914800  1
  Tm  Tm4  1  0.000000  0.946444  0.373037  1
  Tm  Tm5  1  0.000000  0.057832  0.629247  1
  Tm  Tm6  1  0.000000  0.442142  0.125540  1
  Tm  Tm7  1  0.000000  0.556542  0.870965  1
  B  B8  1  0.500000  0.550118  0.436421  1
  B  B9  1  0.500000  0.445370  0.569077  1
  B  B10  1  0.500000  0.054496  0.066259  1
  B  B11  1  0.500000  0.946749  0.932925  1
  B  B12  1  0.500000  0.753039  0.422110  1
  B  B13  1  0.500000  0.251037  0.582082  1
  B  B14  1  0.500000  0.248503  0.079249  1
  B  B15  1  0.500000  0.751023  0.918566  1
  B  B16  1  0.500000  0.796132  0.264012  1
  B  B17  1  0.500000  0.208145  0.735233  1
  B  B18  1  0.500000  0.290394  0.231898  1
  B  B19  1  0.500000  0.709490  0.766003  1
  B  B20  1  0.500000  0.631184  0.181583  1
  B  B21  1  0.500000  0.367784  0.815768  1
  B  B22  1  0.500000  0.131323  0.314102  1
  B  B23  1  0.500000  0.870289  0.685632  1
  B  B24  1  0.500000  0.984138  0.212641  1
  B  B25  1  0.500000  0.017990  0.788395  1
  B  B26  1  0.500000  0.476677  0.285601  1
  B  B27  1  0.500000  0.516107  0.713698  1
  B  B28  1  0.500000  0.604603  0.026901  1
  B  B29  1  0.500000  0.392842  0.969527  1
  B  B30  1  0.500000  0.105980  0.471893  1
  B  B31  1  0.500000  0.898182  0.530333  1
  Ru  Ru32  1  0.000000  0.360518  0.681312  1
  Ru  Ru33  1  0.000000  0.137851  0.177843  1
  Ru  Ru34  1  0.000000  0.862581  0.820537  1
  W  W35  1  0.000000  0.637834  0.320879  1
