# generated using pymatgen
data_Lu5Bi2PbS
_symmetry_space_group_name_H-M   'P 1'
_cell_length_a   9.01040128
_cell_length_b   9.01040034
_cell_length_c   6.47783500
_cell_angle_alpha   90.00000000
_cell_angle_beta   90.00000000
_cell_angle_gamma   120.11171083
_symmetry_Int_Tables_number   1
_chemical_formula_structural   Lu5Bi2PbS
_chemical_formula_sum   'Lu10 Bi4 Pb2 S2'
_cell_volume   454.94485619
_cell_formula_units_Z   2
loop_
 _symmetry_equiv_pos_site_id
 _symmetry_equiv_pos_as_xyz
  1  'x, y, z'
loop_
 _atom_site_type_symbol
 _atom_site_label
 _atom_site_symmetry_multiplicity
 _atom_site_fract_x
 _atom_site_fract_y
 _atom_site_fract_z
 _atom_site_occupancy
  Lu  Lu0  1  0.754926  0.754926  0.750000  1
  Lu  Lu1  1  0.244549  0.000142  0.750000  1
  Lu  Lu2  1  0.000142  0.244549  0.750000  1
  Lu  Lu3  1  0.243381  0.243381  0.250000  1
  Lu  Lu4  1  0.755579  0.003278  0.250000  1
  Lu  Lu5  1  0.003278  0.755579  0.250000  1
  Lu  Lu6  1  0.667806  0.332524  0.001859  1
  Lu  Lu7  1  0.332524  0.667806  0.001859  1
  Lu  Lu8  1  0.332524  0.667806  0.498141  1
  Lu  Lu9  1  0.667806  0.332524  0.498141  1
  Bi  Bi10  1  0.396636  0.396636  0.750000  1
  Bi  Bi11  1  0.602436  0.000043  0.750000  1
  Bi  Bi12  1  0.000043  0.602436  0.750000  1
  Bi  Bi13  1  0.604282  0.604282  0.250000  1
  Pb  Pb14  1  0.396497  0.000694  0.250000  1
  Pb  Pb15  1  0.000694  0.396497  0.250000  1
  S  S16  1  0.998447  0.998447  0.999530  1
  S  S17  1  0.998447  0.998447  0.500470  1
