# generated using pymatgen
data_CaEr6CoBr12
_symmetry_space_group_name_H-M   'P 1'
_cell_length_a   9.06169669
_cell_length_b   9.06169642
_cell_length_c   9.06169700
_cell_angle_alpha   107.22816156
_cell_angle_beta   107.22815441
_cell_angle_gamma   107.22815372
_symmetry_Int_Tables_number   1
_chemical_formula_structural   CaEr6CoBr12
_chemical_formula_sum   'Ca1 Er6 Co1 Br12'
_cell_volume   615.79212837
_cell_formula_units_Z   1
loop_
 _symmetry_equiv_pos_site_id
 _symmetry_equiv_pos_as_xyz
  1  'x, y, z'
loop_
 _atom_site_type_symbol
 _atom_site_label
 _atom_site_symmetry_multiplicity
 _atom_site_fract_x
 _atom_site_fract_y
 _atom_site_fract_z
 _atom_site_occupancy
  Ca  Ca0  1  0.500000  0.500000  0.500000  1
  Er  Er1  1  0.975072  0.900810  0.693736  1
  Er  Er2  1  0.024928  0.099190  0.306264  1
  Er  Er3  1  0.099190  0.306264  0.024928  1
  Er  Er4  1  0.306264  0.024928  0.099190  1
  Er  Er5  1  0.900810  0.693736  0.975072  1
  Er  Er6  1  0.693736  0.975072  0.900810  1
  Co  Co7  1  0.000000  0.000000  0.000000  1
  Br  Br8  1  0.540663  0.619754  0.846713  1
  Br  Br9  1  0.459337  0.380246  0.153287  1
  Br  Br10  1  0.319989  0.926684  0.775566  1
  Br  Br11  1  0.380246  0.153287  0.459337  1
  Br  Br12  1  0.926684  0.775566  0.319989  1
  Br  Br13  1  0.680011  0.073316  0.224434  1
  Br  Br14  1  0.073316  0.224434  0.680011  1
  Br  Br15  1  0.775566  0.319989  0.926684  1
  Br  Br16  1  0.224434  0.680011  0.073316  1
  Br  Br17  1  0.846713  0.540663  0.619754  1
  Br  Br18  1  0.153287  0.459337  0.380246  1
  Br  Br19  1  0.619754  0.846713  0.540663  1
