# generated using pymatgen
data_SmScB6Ru
_symmetry_space_group_name_H-M   'P 1'
_cell_length_a   3.59760900
_cell_length_b   9.02431200
_cell_length_c   11.43458300
_cell_angle_alpha   90.00000000
_cell_angle_beta   90.00000000
_cell_angle_gamma   90.00000000
_symmetry_Int_Tables_number   1
_chemical_formula_structural   SmScB6Ru
_chemical_formula_sum   'Sm4 Sc4 B24 Ru4'
_cell_volume   371.23455501
_cell_formula_units_Z   4
loop_
 _symmetry_equiv_pos_site_id
 _symmetry_equiv_pos_as_xyz
  1  'x, y, z'
loop_
 _atom_site_type_symbol
 _atom_site_label
 _atom_site_symmetry_multiplicity
 _atom_site_fract_x
 _atom_site_fract_y
 _atom_site_fract_z
 _atom_site_occupancy
  Sm  Sm0  1  0.000000  0.821038  0.085222  1
  Sm  Sm1  1  0.000000  0.178962  0.914778  1
  Sm  Sm2  1  0.000000  0.321038  0.414778  1
  Sm  Sm3  1  0.000000  0.678962  0.585222  1
  Sc  Sc4  1  0.000000  0.445286  0.126554  1
  Sc  Sc5  1  0.000000  0.554714  0.873446  1
  Sc  Sc6  1  0.000000  0.945286  0.373446  1
  Sc  Sc7  1  0.000000  0.054714  0.626554  1
  B  B8  1  0.500000  0.056464  0.068934  1
  B  B9  1  0.500000  0.943536  0.931066  1
  B  B10  1  0.500000  0.556464  0.431066  1
  B  B11  1  0.500000  0.443536  0.568934  1
  B  B12  1  0.500000  0.253809  0.082966  1
  B  B13  1  0.500000  0.746191  0.917034  1
  B  B14  1  0.500000  0.753809  0.417034  1
  B  B15  1  0.500000  0.246191  0.582966  1
  B  B16  1  0.500000  0.293821  0.234572  1
  B  B17  1  0.500000  0.706179  0.765428  1
  B  B18  1  0.500000  0.793821  0.265428  1
  B  B19  1  0.500000  0.206179  0.734572  1
  B  B20  1  0.500000  0.128878  0.317405  1
  B  B21  1  0.500000  0.871122  0.682595  1
  B  B22  1  0.500000  0.628878  0.182595  1
  B  B23  1  0.500000  0.371122  0.817405  1
  B  B24  1  0.500000  0.483543  0.284654  1
  B  B25  1  0.500000  0.516457  0.715346  1
  B  B26  1  0.500000  0.983543  0.215346  1
  B  B27  1  0.500000  0.016457  0.784654  1
  B  B28  1  0.500000  0.098061  0.473834  1
  B  B29  1  0.500000  0.901939  0.526166  1
  B  B30  1  0.500000  0.598061  0.026166  1
  B  B31  1  0.500000  0.401939  0.973834  1
  Ru  Ru32  1  0.000000  0.140978  0.182457  1
  Ru  Ru33  1  0.000000  0.859022  0.817543  1
  Ru  Ru34  1  0.000000  0.640978  0.317543  1
  Ru  Ru35  1  0.000000  0.359022  0.682457  1
