# generated using pymatgen
data_Zr24SiAs5Se2
_symmetry_space_group_name_H-M   'P 1'
_cell_length_a   11.03230736
_cell_length_b   11.05881178
_cell_length_c   5.47310502
_cell_angle_alpha   89.91918233
_cell_angle_beta   90.08868706
_cell_angle_gamma   90.00134724
_symmetry_Int_Tables_number   1
_chemical_formula_structural   Zr24SiAs5Se2
_chemical_formula_sum   'Zr24 Si1 As5 Se2'
_cell_volume   667.74039267
_cell_formula_units_Z   1
loop_
 _symmetry_equiv_pos_site_id
 _symmetry_equiv_pos_as_xyz
  1  'x, y, z'
loop_
 _atom_site_type_symbol
 _atom_site_label
 _atom_site_symmetry_multiplicity
 _atom_site_fract_x
 _atom_site_fract_y
 _atom_site_fract_z
 _atom_site_occupancy
  Zr  Zr0  1  0.917407  0.606515  0.541738  1
  Zr  Zr1  1  0.083711  0.394924  0.537646  1
  Zr  Zr2  1  0.894397  0.416656  0.036387  1
  Zr  Zr3  1  0.104736  0.584760  0.032519  1
  Zr  Zr4  1  0.582787  0.895055  0.960003  1
  Zr  Zr5  1  0.417153  0.105065  0.960281  1
  Zr  Zr6  1  0.604174  0.083850  0.465830  1
  Zr  Zr7  1  0.395765  0.915982  0.466149  1
  Zr  Zr8  1  0.862655  0.972411  0.718386  1
  Zr  Zr9  1  0.137946  0.025050  0.717150  1
  Zr  Zr10  1  0.527129  0.360750  0.217252  1
  Zr  Zr11  1  0.472614  0.639023  0.217678  1
  Zr  Zr12  1  0.639530  0.526111  0.783197  1
  Zr  Zr13  1  0.360549  0.473158  0.782308  1
  Zr  Zr14  1  0.973580  0.139357  0.283973  1
  Zr  Zr15  1  0.027014  0.859973  0.281308  1
  Zr  Zr16  1  0.819879  0.714702  0.008063  1
  Zr  Zr17  1  0.181059  0.285700  0.010733  1
  Zr  Zr18  1  0.784903  0.318800  0.511229  1
  Zr  Zr19  1  0.213564  0.681300  0.512803  1
  Zr  Zr20  1  0.681493  0.784508  0.489524  1
  Zr  Zr21  1  0.318435  0.215088  0.489442  1
  Zr  Zr22  1  0.714768  0.180878  0.988352  1
  Zr  Zr23  1  0.284170  0.819213  0.986851  1
  Si  Si24  1  0.040446  0.794833  0.787479  1
  As  As25  1  0.540038  0.294351  0.712058  1
  As  As26  1  0.459951  0.705528  0.712344  1
  As  As27  1  0.706239  0.540661  0.288379  1
  As  As28  1  0.293840  0.459983  0.287405  1
  As  As29  1  0.960029  0.206182  0.788572  1
  Se  Se30  1  0.792685  0.959894  0.212562  1
  Se  Se31  1  0.207355  0.039740  0.212397  1
