# generated using pymatgen
data_Cr4(FeRe2)3
_symmetry_space_group_name_H-M   'P 1'
_cell_length_a   4.67012448
_cell_length_b   4.67012301
_cell_length_c   9.16159508
_cell_angle_alpha   75.51905491
_cell_angle_beta   75.51904285
_cell_angle_gamma   60.43197821
_symmetry_Int_Tables_number   1
_chemical_formula_structural   Cr4(FeRe2)3
_chemical_formula_sum   'Cr4 Fe3 Re6'
_cell_volume   166.35755105
_cell_formula_units_Z   1
loop_
 _symmetry_equiv_pos_site_id
 _symmetry_equiv_pos_as_xyz
  1  'x, y, z'
loop_
 _atom_site_type_symbol
 _atom_site_label
 _atom_site_symmetry_multiplicity
 _atom_site_fract_x
 _atom_site_fract_y
 _atom_site_fract_z
 _atom_site_occupancy
  Cr  Cr0  1  0.907508  0.907508  0.775504  1
  Cr  Cr1  1  0.091993  0.587753  0.224727  1
  Cr  Cr2  1  0.587753  0.091993  0.224727  1
  Cr  Cr3  1  0.091611  0.091611  0.225983  1
  Fe  Fe4  1  0.003948  0.003948  0.995338  1
  Fe  Fe5  1  0.909814  0.412491  0.773262  1
  Fe  Fe6  1  0.412491  0.909814  0.773262  1
  Re  Re7  1  0.830653  0.830653  0.501397  1
  Re  Re8  1  0.166353  0.166353  0.507935  1
  Re  Re9  1  0.650588  0.650588  0.041234  1
  Re  Re10  1  0.348646  0.348646  0.952941  1
  Re  Re11  1  0.545822  0.545822  0.359393  1
  Re  Re12  1  0.452820  0.452820  0.644298  1
