# generated using pymatgen
data_Th3IrAu3
_symmetry_space_group_name_H-M   'P 1'
_cell_length_a   8.31196155
_cell_length_b   8.31196168
_cell_length_c   8.31196199
_cell_angle_alpha   114.30978549
_cell_angle_beta   114.30978528
_cell_angle_gamma   114.30976504
_symmetry_Int_Tables_number   1
_chemical_formula_structural   Th3IrAu3
_chemical_formula_sum   'Th6 Ir2 Au6'
_cell_volume   340.73215345
_cell_formula_units_Z   2
loop_
 _symmetry_equiv_pos_site_id
 _symmetry_equiv_pos_as_xyz
  1  'x, y, z'
loop_
 _atom_site_type_symbol
 _atom_site_label
 _atom_site_symmetry_multiplicity
 _atom_site_fract_x
 _atom_site_fract_y
 _atom_site_fract_z
 _atom_site_occupancy
  Th  Th0  1  0.043190  0.395426  0.284378  1
  Th  Th1  1  0.395426  0.284378  0.043190  1
  Th  Th2  1  0.715622  0.956810  0.604574  1
  Th  Th3  1  0.284378  0.043190  0.395426  1
  Th  Th4  1  0.604574  0.715622  0.956810  1
  Th  Th5  1  0.956810  0.604574  0.715622  1
  Ir  Ir6  1  0.000000  0.000000  0.000000  1
  Ir  Ir7  1  0.500000  0.500000  0.500000  1
  Au  Au8  1  0.431489  0.939089  0.772590  1
  Au  Au9  1  0.939089  0.772590  0.431489  1
  Au  Au10  1  0.227410  0.568511  0.060911  1
  Au  Au11  1  0.772590  0.431489  0.939089  1
  Au  Au12  1  0.060911  0.227410  0.568511  1
  Au  Au13  1  0.568511  0.060911  0.227410  1
