# generated using pymatgen
data_Lu3ZnIn3Ni2
_symmetry_space_group_name_H-M   'P 1'
_cell_length_a   7.60613300
_cell_length_b   7.60613427
_cell_length_c   3.59878500
_cell_angle_alpha   90.00000000
_cell_angle_beta   90.00000000
_cell_angle_gamma   119.99999247
_symmetry_Int_Tables_number   1
_chemical_formula_structural   Lu3ZnIn3Ni2
_chemical_formula_sum   'Lu3 Zn1 In3 Ni2'
_cell_volume   180.30778113
_cell_formula_units_Z   1
loop_
 _symmetry_equiv_pos_site_id
 _symmetry_equiv_pos_as_xyz
  1  'x, y, z'
loop_
 _atom_site_type_symbol
 _atom_site_label
 _atom_site_symmetry_multiplicity
 _atom_site_fract_x
 _atom_site_fract_y
 _atom_site_fract_z
 _atom_site_occupancy
  Lu  Lu0  1  0.611271  0.027228  0.000000  1
  Lu  Lu1  1  0.972772  0.584042  0.000000  1
  Lu  Lu2  1  0.415958  0.388729  0.000000  1
  Zn  Zn3  1  0.333333  0.666667  0.500000  1
  In  In4  1  0.254870  0.992731  0.500000  1
  In  In5  1  0.007269  0.262139  0.500000  1
  In  In6  1  0.737861  0.745130  0.500000  1
  Ni  Ni7  1  0.666667  0.333333  0.500000  1
  Ni  Ni8  1  0.000000  0.000000  0.000000  1
