# generated using pymatgen
data_Tb4Al18NiPtRh4
_symmetry_space_group_name_H-M   'P 1'
_cell_length_a   7.57475486
_cell_length_b   7.57475493
_cell_length_c   9.46414493
_cell_angle_alpha   90.12986666
_cell_angle_beta   90.12985911
_cell_angle_gamma   119.68400470
_symmetry_Int_Tables_number   1
_chemical_formula_structural   Tb4Al18NiPtRh4
_chemical_formula_sum   'Tb4 Al18 Ni1 Pt1 Rh4'
_cell_volume   471.75753580
_cell_formula_units_Z   1
loop_
 _symmetry_equiv_pos_site_id
 _symmetry_equiv_pos_as_xyz
  1  'x, y, z'
loop_
 _atom_site_type_symbol
 _atom_site_label
 _atom_site_symmetry_multiplicity
 _atom_site_fract_x
 _atom_site_fract_y
 _atom_site_fract_z
 _atom_site_occupancy
  Tb  Tb0  1  0.994954  0.670596  0.249169  1
  Tb  Tb1  1  0.005046  0.329404  0.750831  1
  Tb  Tb2  1  0.670596  0.994954  0.249169  1
  Tb  Tb3  1  0.329404  0.005046  0.750831  1
  Al  Al4  1  0.127911  0.127911  0.244579  1
  Al  Al5  1  0.872089  0.872089  0.755421  1
  Al  Al6  1  0.000028  0.333197  0.074292  1
  Al  Al7  1  0.999972  0.666803  0.925708  1
  Al  Al8  1  0.999500  0.662179  0.575951  1
  Al  Al9  1  0.337821  0.000500  0.424049  1
  Al  Al10  1  0.000500  0.337821  0.424049  1
  Al  Al11  1  0.662179  0.999500  0.575951  1
  Al  Al12  1  0.666803  0.999972  0.925708  1
  Al  Al13  1  0.333197  0.000028  0.074292  1
  Al  Al14  1  0.336638  0.336638  0.551275  1
  Al  Al15  1  0.663362  0.663362  0.448725  1
  Al  Al16  1  0.668663  0.668663  0.049466  1
  Al  Al17  1  0.331337  0.331337  0.950534  1
  Al  Al18  1  0.339247  0.548848  0.249507  1
  Al  Al19  1  0.660753  0.451152  0.750493  1
  Al  Al20  1  0.548848  0.339247  0.249507  1
  Al  Al21  1  0.451152  0.660753  0.750493  1
  Ni  Ni22  1  0.000000  0.000000  0.000000  1
  Pt  Pt23  1  0.000000  0.000000  0.500000  1
  Rh  Rh24  1  0.671944  0.328056  0.000000  1
  Rh  Rh25  1  0.328056  0.671944  0.000000  1
  Rh  Rh26  1  0.328124  0.671876  0.500000  1
  Rh  Rh27  1  0.671876  0.328124  0.500000  1
