# generated using pymatgen
data_ErTmCdCo2
_symmetry_space_group_name_H-M   'P 1'
_cell_length_a   7.20608302
_cell_length_b   7.20608425
_cell_length_c   3.83022600
_cell_angle_alpha   90.00000000
_cell_angle_beta   90.00000000
_cell_angle_gamma   149.70851502
_symmetry_Int_Tables_number   1
_chemical_formula_structural   ErTmCdCo2
_chemical_formula_sum   'Er1 Tm1 Cd1 Co2'
_cell_volume   100.32229910
_cell_formula_units_Z   1
loop_
 _symmetry_equiv_pos_site_id
 _symmetry_equiv_pos_as_xyz
  1  'x, y, z'
loop_
 _atom_site_type_symbol
 _atom_site_label
 _atom_site_symmetry_multiplicity
 _atom_site_fract_x
 _atom_site_fract_y
 _atom_site_fract_z
 _atom_site_occupancy
  Er  Er0  1  0.360094  0.639906  0.500000  1
  Tm  Tm1  1  0.640284  0.359716  0.500000  1
  Cd  Cd2  1  0.000393  0.999607  0.000000  1
  Co  Co3  1  0.793405  0.206595  0.000000  1
  Co  Co4  1  0.205826  0.794174  0.000000  1
