# generated using pymatgen
data_Y2Al9PdRh2
_symmetry_space_group_name_H-M   'P 1'
_cell_length_a   7.58494064
_cell_length_b   7.58494155
_cell_length_c   9.48329262
_cell_angle_alpha   89.95713901
_cell_angle_beta   89.95714279
_cell_angle_gamma   119.55025979
_symmetry_Int_Tables_number   1
_chemical_formula_structural   Y2Al9PdRh2
_chemical_formula_sum   'Y4 Al18 Pd2 Rh4'
_cell_volume   474.61790038
_cell_formula_units_Z   2
loop_
 _symmetry_equiv_pos_site_id
 _symmetry_equiv_pos_as_xyz
  1  'x, y, z'
loop_
 _atom_site_type_symbol
 _atom_site_label
 _atom_site_symmetry_multiplicity
 _atom_site_fract_x
 _atom_site_fract_y
 _atom_site_fract_z
 _atom_site_occupancy
  Y  Y0  1  0.995121  0.669804  0.250606  1
  Y  Y1  1  0.004879  0.330196  0.749394  1
  Y  Y2  1  0.669804  0.995121  0.250606  1
  Y  Y3  1  0.330196  0.004879  0.749394  1
  Al  Al4  1  0.126574  0.126574  0.251441  1
  Al  Al5  1  0.873426  0.873426  0.748559  1
  Al  Al6  1  0.001432  0.331231  0.077833  1
  Al  Al7  1  0.998568  0.668769  0.922167  1
  Al  Al8  1  0.000655  0.665371  0.574158  1
  Al  Al9  1  0.334629  0.999345  0.425842  1
  Al  Al10  1  0.999345  0.334629  0.425842  1
  Al  Al11  1  0.665371  0.000655  0.574158  1
  Al  Al12  1  0.668769  0.998568  0.922167  1
  Al  Al13  1  0.331231  0.001432  0.077833  1
  Al  Al14  1  0.331920  0.331920  0.548866  1
  Al  Al15  1  0.668080  0.668080  0.451134  1
  Al  Al16  1  0.668926  0.668926  0.056172  1
  Al  Al17  1  0.331074  0.331074  0.943828  1
  Al  Al18  1  0.340508  0.547649  0.254108  1
  Al  Al19  1  0.659492  0.452351  0.745892  1
  Al  Al20  1  0.547649  0.340508  0.254108  1
  Al  Al21  1  0.452351  0.659492  0.745892  1
  Pd  Pd22  1  0.672395  0.327605  0.000000  1
  Pd  Pd23  1  0.327605  0.672395  0.000000  1
  Rh  Rh24  1  0.328001  0.671999  0.500000  1
  Rh  Rh25  1  0.671999  0.328001  0.500000  1
  Rh  Rh26  1  0.000000  0.000000  0.000000  1
  Rh  Rh27  1  0.000000  0.000000  0.500000  1
