# generated using pymatgen
data_Tb7Dy5Co4
_symmetry_space_group_name_H-M   'P 1'
_cell_length_a   6.93710904
_cell_length_b   9.53660518
_cell_length_c   6.21972213
_cell_angle_alpha   90.02117015
_cell_angle_beta   89.99002600
_cell_angle_gamma   90.00812589
_symmetry_Int_Tables_number   1
_chemical_formula_structural   Tb7Dy5Co4
_chemical_formula_sum   'Tb7 Dy5 Co4'
_cell_volume   411.47482257
_cell_formula_units_Z   1
loop_
 _symmetry_equiv_pos_site_id
 _symmetry_equiv_pos_as_xyz
  1  'x, y, z'
loop_
 _atom_site_type_symbol
 _atom_site_label
 _atom_site_symmetry_multiplicity
 _atom_site_fract_x
 _atom_site_fract_y
 _atom_site_fract_z
 _atom_site_occupancy
  Tb  Tb0  1  0.455874  0.749687  0.143183  1
  Tb  Tb1  1  0.956100  0.749832  0.356996  1
  Tb  Tb2  1  0.044448  0.250214  0.642153  1
  Tb  Tb3  1  0.325586  0.931502  0.675893  1
  Tb  Tb4  1  0.825539  0.568165  0.824014  1
  Tb  Tb5  1  0.825538  0.931889  0.824202  1
  Tb  Tb6  1  0.544154  0.250202  0.857791  1
  Dy  Dy7  1  0.174540  0.069102  0.175753  1
  Dy  Dy8  1  0.174557  0.431204  0.175871  1
  Dy  Dy9  1  0.674368  0.069031  0.324434  1
  Dy  Dy10  1  0.674229  0.431070  0.324500  1
  Dy  Dy11  1  0.325675  0.568413  0.675616  1
  Co  Co12  1  0.887175  0.249976  0.050734  1
  Co  Co13  1  0.387121  0.250373  0.449387  1
  Co  Co14  1  0.612363  0.749668  0.549538  1
  Co  Co15  1  0.112734  0.749670  0.949935  1
