# generated using pymatgen
data_TaTlS5
_symmetry_space_group_name_H-M   'P 1'
_cell_length_a   15.26427220
_cell_length_b   6.47118800
_cell_length_c   15.36534000
_cell_angle_alpha   90.00000000
_cell_angle_beta   118.11346176
_cell_angle_gamma   90.00000000
_symmetry_Int_Tables_number   1
_chemical_formula_structural   TaTlS5
_chemical_formula_sum   'Ta8 Tl8 S40'
_cell_volume   1338.68637720
_cell_formula_units_Z   8
loop_
 _symmetry_equiv_pos_site_id
 _symmetry_equiv_pos_as_xyz
  1  'x, y, z'
loop_
 _atom_site_type_symbol
 _atom_site_label
 _atom_site_symmetry_multiplicity
 _atom_site_fract_x
 _atom_site_fract_y
 _atom_site_fract_z
 _atom_site_occupancy
  Ta  Ta0  1  0.244891  0.581878  0.209804  1
  Ta  Ta1  1  0.709300  0.051884  0.244380  1
  Ta  Ta2  1  0.790701  0.551884  0.255620  1
  Ta  Ta3  1  0.255109  0.081877  0.290196  1
  Ta  Ta4  1  0.744891  0.918123  0.709804  1
  Ta  Ta5  1  0.209300  0.448115  0.744380  1
  Ta  Ta6  1  0.290700  0.948114  0.755619  1
  Ta  Ta7  1  0.755109  0.418122  0.790196  1
  Tl  Tl8  1  0.915202  0.146099  0.060154  1
  Tl  Tl9  1  0.444042  0.353458  0.088828  1
  Tl  Tl10  1  0.055958  0.853459  0.411172  1
  Tl  Tl11  1  0.584798  0.646099  0.439846  1
  Tl  Tl12  1  0.415203  0.353902  0.560155  1
  Tl  Tl13  1  0.944042  0.146542  0.588829  1
  Tl  Tl14  1  0.555958  0.646543  0.911171  1
  Tl  Tl15  1  0.084797  0.853901  0.939846  1
  S  S16  1  0.109695  0.418144  0.056149  1
  S  S17  1  0.310088  0.738146  0.104969  1
  S  S18  1  0.555046  0.892550  0.108486  1
  S  S19  1  0.664337  0.335586  0.121523  1
  S  S20  1  0.238913  0.246711  0.126207  1
  S  S21  1  0.753243  0.824927  0.126761  1
  S  S22  1  0.121385  0.866035  0.162520  1
  S  S23  1  0.896212  0.700942  0.190445  1
  S  S24  1  0.624467  0.716916  0.235881  1
  S  S25  1  0.374392  0.856153  0.247938  1
  S  S26  1  0.125607  0.356154  0.252061  1
  S  S27  1  0.875533  0.216915  0.264119  1
  S  S28  1  0.603787  0.200941  0.309555  1
  S  S29  1  0.378615  0.366036  0.337480  1
  S  S30  1  0.746757  0.324926  0.373239  1
  S  S31  1  0.261087  0.746709  0.373793  1
  S  S32  1  0.835663  0.835585  0.378477  1
  S  S33  1  0.944954  0.392549  0.391514  1
  S  S34  1  0.189912  0.238147  0.395031  1
  S  S35  1  0.390306  0.918143  0.443851  1
  S  S36  1  0.609694  0.081857  0.556149  1
  S  S37  1  0.810088  0.761853  0.604969  1
  S  S38  1  0.055046  0.607450  0.608486  1
  S  S39  1  0.164338  0.164415  0.621524  1
  S  S40  1  0.738913  0.253290  0.626207  1
  S  S41  1  0.253243  0.675075  0.626760  1
  S  S42  1  0.621385  0.633964  0.662520  1
  S  S43  1  0.396213  0.799060  0.690445  1
  S  S44  1  0.124467  0.783085  0.735881  1
  S  S45  1  0.874392  0.643846  0.747938  1
  S  S46  1  0.625608  0.143847  0.752062  1
  S  S47  1  0.375533  0.283084  0.764119  1
  S  S48  1  0.103787  0.299059  0.809555  1
  S  S49  1  0.878615  0.133965  0.837481  1
  S  S50  1  0.246757  0.175074  0.873240  1
  S  S51  1  0.761086  0.753289  0.873793  1
  S  S52  1  0.335663  0.664415  0.878477  1
  S  S53  1  0.444953  0.107451  0.891514  1
  S  S54  1  0.689911  0.261854  0.895031  1
  S  S55  1  0.890305  0.581856  0.943850  1
