# generated using pymatgen
data_NdTh2Sn2Rh3Pb
_symmetry_space_group_name_H-M   'P 1'
_cell_length_a   7.62410930
_cell_length_b   7.66626010
_cell_length_c   4.08786100
_cell_angle_alpha   90.00000000
_cell_angle_beta   90.00000000
_cell_angle_gamma   119.44064036
_symmetry_Int_Tables_number   1
_chemical_formula_structural   NdTh2Sn2Rh3Pb
_chemical_formula_sum   'Nd1 Th2 Sn2 Rh3 Pb1'
_cell_volume   208.07495768
_cell_formula_units_Z   1
loop_
 _symmetry_equiv_pos_site_id
 _symmetry_equiv_pos_as_xyz
  1  'x, y, z'
loop_
 _atom_site_type_symbol
 _atom_site_label
 _atom_site_symmetry_multiplicity
 _atom_site_fract_x
 _atom_site_fract_y
 _atom_site_fract_z
 _atom_site_occupancy
  Nd  Nd0  1  0.590671  0.003887  0.000000  1
  Th  Th1  1  0.001888  0.587214  0.000000  1
  Th  Th2  1  0.409800  0.409381  0.000000  1
  Sn  Sn3  1  0.993602  0.245165  0.500000  1
  Sn  Sn4  1  0.260140  0.000270  0.500000  1
  Rh  Rh5  1  0.021328  0.011015  0.000000  1
  Rh  Rh6  1  0.666107  0.341360  0.500000  1
  Rh  Rh7  1  0.310235  0.646979  0.500000  1
  Pb  Pb8  1  0.746229  0.754729  0.500000  1
