# generated using pymatgen
data_AcHoNi4(BIr2)2
_symmetry_space_group_name_H-M   'P 1'
_cell_length_a   5.50640900
_cell_length_b   5.23158114
_cell_length_c   7.16544800
_cell_angle_alpha   90.00000000
_cell_angle_beta   90.00000000
_cell_angle_gamma   121.75353103
_symmetry_Int_Tables_number   1
_chemical_formula_structural   AcHoNi4(BIr2)2
_chemical_formula_sum   'Ac1 Ho1 Ni4 B2 Ir4'
_cell_volume   175.52018565
_cell_formula_units_Z   1
loop_
 _symmetry_equiv_pos_site_id
 _symmetry_equiv_pos_as_xyz
  1  'x, y, z'
loop_
 _atom_site_type_symbol
 _atom_site_label
 _atom_site_symmetry_multiplicity
 _atom_site_fract_x
 _atom_site_fract_y
 _atom_site_fract_z
 _atom_site_occupancy
  Ac  Ac0  1  0.000000  0.000000  0.500000  1
  Ho  Ho1  1  0.000000  0.000000  0.000000  1
  Ni  Ni2  1  0.500000  0.000000  0.797479  1
  Ni  Ni3  1  0.337979  0.675959  0.500000  1
  Ni  Ni4  1  0.662021  0.324041  0.500000  1
  Ni  Ni5  1  0.500000  0.000000  0.202521  1
  B  B6  1  0.335206  0.670413  0.000000  1
  B  B7  1  0.664794  0.329587  0.000000  1
  Ir  Ir8  1  0.000000  0.500000  0.208781  1
  Ir  Ir9  1  0.500000  0.500000  0.791219  1
  Ir  Ir10  1  0.000000  0.500000  0.791219  1
  Ir  Ir11  1  0.500000  0.500000  0.208781  1
