# generated using pymatgen
data_CuBr35
_symmetry_space_group_name_H-M   'P 1'
_cell_length_a   15.98197694
_cell_length_b   11.40028128
_cell_length_c   10.79188300
_cell_angle_alpha   88.81408278
_cell_angle_beta   66.02770512
_cell_angle_gamma   92.31545406
_symmetry_Int_Tables_number   1
_chemical_formula_structural   CuBr35
_chemical_formula_sum   'Cu1 Br35'
_cell_volume   1793.71352310
_cell_formula_units_Z   1
loop_
 _symmetry_equiv_pos_site_id
 _symmetry_equiv_pos_as_xyz
  1  'x, y, z'
loop_
 _atom_site_type_symbol
 _atom_site_label
 _atom_site_symmetry_multiplicity
 _atom_site_fract_x
 _atom_site_fract_y
 _atom_site_fract_z
 _atom_site_occupancy
  Cu  Cu0  1  0.218254  0.490093  0.350605  1
  Br  Br1  1  0.528702  0.265236  0.531570  1
  Br  Br2  1  0.736317  0.578070  0.594472  1
  Br  Br3  1  0.461436  0.675311  0.751224  1
  Br  Br4  1  0.066141  0.893352  0.847519  1
  Br  Br5  1  0.898382  0.162565  0.051602  1
  Br  Br6  1  0.649946  0.336291  0.294054  1
  Br  Br7  1  0.612175  0.311817  0.858526  1
  Br  Br8  1  0.330079  0.761324  0.705150  1
  Br  Br9  1  0.354981  0.597836  0.221858  1
  Br  Br10  1  0.673567  0.124056  0.798388  1
  Br  Br11  1  0.887093  0.554654  0.396956  1
  Br  Br12  1  0.092926  0.963244  0.609557  1
  Br  Br13  1  0.909632  0.121691  0.286069  1
  Br  Br14  1  0.885625  0.203645  0.834592  1
  Br  Br15  1  0.653935  0.067576  0.205955  1
  Br  Br16  1  0.026926  0.824620  0.095167  1
  Br  Br17  1  0.371719  0.976794  0.728149  1
  Br  Br18  1  0.895055  0.333871  0.349418  1
  Br  Br19  1  0.909674  0.932317  0.659510  1
  Br  Br20  1  0.922794  0.651727  0.749218  1
  Br  Br21  1  0.317551  0.041637  0.267502  1
  Br  Br22  1  0.281653  0.322997  0.240481  1
  Br  Br23  1  0.588749  0.601926  0.811347  1
  Br  Br24  1  0.080072  0.390970  0.477914  1
  Br  Br25  1  0.745063  0.900622  0.726541  1
  Br  Br26  1  0.904836  0.443594  0.791241  1
  Br  Br27  1  0.495092  0.060046  0.236710  1
  Br  Br28  1  0.187043  0.209282  0.663758  1
  Br  Br29  1  0.678009  0.786633  0.263068  1
  Br  Br30  1  0.853282  0.807075  0.178488  1
  Br  Br31  1  0.414405  0.187573  0.761693  1
  Br  Br32  1  0.253200  0.394974  0.664181  1
  Br  Br33  1  0.654822  0.559035  0.273648  1
  Br  Br34  1  0.137030  0.645284  0.469145  1
  Br  Br35  1  0.323834  0.822265  0.254727  1
