# generated using pymatgen
data_Ce2Mn2Al20CoRu
_symmetry_space_group_name_H-M   'P 1'
_cell_length_a   6.81846706
_cell_length_b   6.81048098
_cell_length_c   9.04955124
_cell_angle_alpha   90.14202882
_cell_angle_beta   90.08988493
_cell_angle_gamma   97.50817237
_symmetry_Int_Tables_number   1
_chemical_formula_structural   Ce2Mn2Al20CoRu
_chemical_formula_sum   'Ce2 Mn2 Al20 Co1 Ru1'
_cell_volume   416.62934442
_cell_formula_units_Z   1
loop_
 _symmetry_equiv_pos_site_id
 _symmetry_equiv_pos_as_xyz
  1  'x, y, z'
loop_
 _atom_site_type_symbol
 _atom_site_label
 _atom_site_symmetry_multiplicity
 _atom_site_fract_x
 _atom_site_fract_y
 _atom_site_fract_z
 _atom_site_occupancy
  Ce  Ce0  1  0.875410  0.124430  0.754144  1
  Ce  Ce1  1  0.124590  0.875570  0.245856  1
  Mn  Mn2  1  0.500000  0.000000  0.000000  1
  Mn  Mn3  1  0.000000  0.500000  0.000000  1
  Al  Al4  1  0.589557  0.864607  0.246489  1
  Al  Al5  1  0.779143  0.520315  0.248333  1
  Al  Al6  1  0.160473  0.838912  0.901485  1
  Al  Al7  1  0.410443  0.135393  0.753511  1
  Al  Al8  1  0.625088  0.375701  0.951261  1
  Al  Al9  1  0.843754  0.161852  0.399967  1
  Al  Al10  1  0.771934  0.771444  0.998660  1
  Al  Al11  1  0.865767  0.587636  0.750424  1
  Al  Al12  1  0.839527  0.161088  0.098515  1
  Al  Al13  1  0.220857  0.479685  0.751667  1
  Al  Al14  1  0.156246  0.838148  0.600033  1
  Al  Al15  1  0.774863  0.769949  0.499024  1
  Al  Al16  1  0.478340  0.220794  0.247727  1
  Al  Al17  1  0.625222  0.378391  0.550795  1
  Al  Al18  1  0.225137  0.230051  0.500976  1
  Al  Al19  1  0.374778  0.621609  0.449205  1
  Al  Al20  1  0.134233  0.412364  0.249576  1
  Al  Al21  1  0.521660  0.779206  0.752273  1
  Al  Al22  1  0.374912  0.624299  0.048739  1
  Al  Al23  1  0.228066  0.228556  0.001340  1
  Co  Co24  1  0.000000  0.500000  0.500000  1
  Ru  Ru25  1  0.500000  0.000000  0.500000  1
