# generated using pymatgen
data_CeY6Th(CdIr)2
_symmetry_space_group_name_H-M   'P 1'
_cell_length_a   9.73572695
_cell_length_b   9.73572650
_cell_length_c   9.78033800
_cell_angle_alpha   59.84830437
_cell_angle_beta   59.84830592
_cell_angle_gamma   59.71454071
_symmetry_Int_Tables_number   1
_chemical_formula_structural   CeY6Th(CdIr)2
_chemical_formula_sum   'Ce2 Y12 Th2 Cd4 Ir4'
_cell_volume   652.58129971
_cell_formula_units_Z   2
loop_
 _symmetry_equiv_pos_site_id
 _symmetry_equiv_pos_as_xyz
  1  'x, y, z'
loop_
 _atom_site_type_symbol
 _atom_site_label
 _atom_site_symmetry_multiplicity
 _atom_site_fract_x
 _atom_site_fract_y
 _atom_site_fract_z
 _atom_site_occupancy
  Ce  Ce0  1  0.349178  0.349178  0.348300  1
  Ce  Ce1  1  0.349178  0.349178  0.953344  1
  Y  Y2  1  0.810479  0.188336  0.189086  1
  Y  Y3  1  0.188336  0.810479  0.812099  1
  Y  Y4  1  0.188336  0.810479  0.189086  1
  Y  Y5  1  0.810479  0.188336  0.812099  1
  Y  Y6  1  0.189737  0.189737  0.810263  1
  Y  Y7  1  0.812515  0.812515  0.187485  1
  Y  Y8  1  0.938559  0.562612  0.563160  1
  Y  Y9  1  0.562612  0.938559  0.935668  1
  Y  Y10  1  0.562612  0.938559  0.563160  1
  Y  Y11  1  0.938559  0.562612  0.935668  1
  Y  Y12  1  0.562313  0.562313  0.937687  1
  Y  Y13  1  0.936284  0.936284  0.563716  1
  Th  Th14  1  0.350431  0.950822  0.349374  1
  Th  Th15  1  0.950822  0.350431  0.349374  1
  Cd  Cd16  1  0.581027  0.581027  0.584683  1
  Cd  Cd17  1  0.581027  0.581027  0.253263  1
  Cd  Cd18  1  0.579999  0.253628  0.583187  1
  Cd  Cd19  1  0.253628  0.579999  0.583187  1
  Ir  Ir20  1  0.144849  0.144849  0.141836  1
  Ir  Ir21  1  0.144849  0.144849  0.568464  1
  Ir  Ir22  1  0.145973  0.568217  0.142905  1
  Ir  Ir23  1  0.568217  0.145973  0.142905  1
