# generated using pymatgen
data_CaTbTiSbO7
_symmetry_space_group_name_H-M   'P 1'
_cell_length_a   7.29428700
_cell_length_b   7.29428700
_cell_length_c   10.29255300
_cell_angle_alpha   90.00000000
_cell_angle_beta   90.00000000
_cell_angle_gamma   90.00000000
_symmetry_Int_Tables_number   1
_chemical_formula_structural   CaTbTiSbO7
_chemical_formula_sum   'Ca4 Tb4 Ti4 Sb4 O28'
_cell_volume   547.63198551
_cell_formula_units_Z   4
loop_
 _symmetry_equiv_pos_site_id
 _symmetry_equiv_pos_as_xyz
  1  'x, y, z'
loop_
 _atom_site_type_symbol
 _atom_site_label
 _atom_site_symmetry_multiplicity
 _atom_site_fract_x
 _atom_site_fract_y
 _atom_site_fract_z
 _atom_site_occupancy
  Ca  Ca0  1  0.000000  0.754550  0.000000  1
  Ca  Ca1  1  0.754550  0.000000  0.750000  1
  Ca  Ca2  1  0.000000  0.245450  0.500000  1
  Ca  Ca3  1  0.245450  0.000000  0.250000  1
  Tb  Tb4  1  0.500000  0.235340  0.500000  1
  Tb  Tb5  1  0.500000  0.764660  0.000000  1
  Tb  Tb6  1  0.764660  0.500000  0.750000  1
  Tb  Tb7  1  0.235340  0.500000  0.250000  1
  Ti  Ti8  1  0.758772  0.000000  0.250000  1
  Ti  Ti9  1  0.000000  0.758772  0.500000  1
  Ti  Ti10  1  0.000000  0.241228  0.000000  1
  Ti  Ti11  1  0.241228  0.000000  0.750000  1
  Sb  Sb12  1  0.246435  0.500000  0.750000  1
  Sb  Sb13  1  0.500000  0.753565  0.500000  1
  Sb  Sb14  1  0.500000  0.246435  0.000000  1
  Sb  Sb15  1  0.753565  0.500000  0.250000  1
  O  O16  1  0.253774  0.746226  0.125000  1
  O  O17  1  0.550229  0.955701  0.376873  1
  O  O18  1  0.751102  0.740103  0.575691  1
  O  O19  1  0.746226  0.253774  0.625000  1
  O  O20  1  0.740103  0.751102  0.174309  1
  O  O21  1  0.940694  0.940694  0.375000  1
  O  O22  1  0.059306  0.059306  0.875000  1
  O  O23  1  0.059306  0.940694  0.625000  1
  O  O24  1  0.044299  0.449771  0.873127  1
  O  O25  1  0.248898  0.259897  0.075691  1
  O  O26  1  0.248898  0.740103  0.424309  1
  O  O27  1  0.259897  0.751102  0.825691  1
  O  O28  1  0.259897  0.248898  0.674309  1
  O  O29  1  0.449771  0.044299  0.876873  1
  O  O30  1  0.449771  0.955701  0.623127  1
  O  O31  1  0.456153  0.456153  0.875000  1
  O  O32  1  0.543847  0.543847  0.375000  1
  O  O33  1  0.550229  0.044299  0.123127  1
  O  O34  1  0.543847  0.456153  0.125000  1
  O  O35  1  0.740103  0.248898  0.325691  1
  O  O36  1  0.751102  0.259897  0.924309  1
  O  O37  1  0.940694  0.059306  0.125000  1
  O  O38  1  0.955701  0.550229  0.373127  1
  O  O39  1  0.955701  0.449771  0.126873  1
  O  O40  1  0.044299  0.550229  0.626873  1
  O  O41  1  0.253774  0.253774  0.375000  1
  O  O42  1  0.456153  0.543847  0.625000  1
  O  O43  1  0.746226  0.746226  0.875000  1
