# generated using pymatgen
data_ThTaSbO7
_symmetry_space_group_name_H-M   'P 1'
_cell_length_a   8.04017369
_cell_length_b   8.04017389
_cell_length_c   8.46729771
_cell_angle_alpha   85.11427333
_cell_angle_beta   85.11427258
_cell_angle_gamma   28.28260746
_symmetry_Int_Tables_number   1
_chemical_formula_structural   ThTaSbO7
_chemical_formula_sum   'Th2 Ta2 Sb2 O14'
_cell_volume   258.34991479
_cell_formula_units_Z   2
loop_
 _symmetry_equiv_pos_site_id
 _symmetry_equiv_pos_as_xyz
  1  'x, y, z'
loop_
 _atom_site_type_symbol
 _atom_site_label
 _atom_site_symmetry_multiplicity
 _atom_site_fract_x
 _atom_site_fract_y
 _atom_site_fract_z
 _atom_site_occupancy
  Th  Th0  1  0.313117  0.313117  0.667677  1
  Th  Th1  1  0.686883  0.686883  0.332323  1
  Ta  Ta2  1  0.072962  0.072962  0.628987  1
  Ta  Ta3  1  0.927038  0.927038  0.371013  1
  Sb  Sb4  1  0.106071  0.106071  0.014572  1
  Sb  Sb5  1  0.893929  0.893929  0.985428  1
  O  O6  1  0.013916  0.013916  0.856958  1
  O  O7  1  0.986084  0.986084  0.143042  1
  O  O8  1  0.055405  0.055405  0.390498  1
  O  O9  1  0.944595  0.944595  0.609502  1
  O  O10  1  0.391004  0.391004  0.932774  1
  O  O11  1  0.608996  0.608996  0.067226  1
  O  O12  1  0.585612  0.585612  0.607513  1
  O  O13  1  0.414388  0.414388  0.392487  1
  O  O14  1  0.804744  0.804744  0.499118  1
  O  O15  1  0.195256  0.195256  0.500882  1
  O  O16  1  0.805906  0.805906  0.832538  1
  O  O17  1  0.194094  0.194094  0.167462  1
  O  O18  1  0.831336  0.831336  0.200181  1
  O  O19  1  0.168664  0.168664  0.799819  1
