# generated using pymatgen
data_EuYReC2
_symmetry_space_group_name_H-M   'P 1'
_cell_length_a   5.27968200
_cell_length_b   6.66459900
_cell_length_c   10.18962100
_cell_angle_alpha   90.00000000
_cell_angle_beta   90.00000000
_cell_angle_gamma   90.00000000
_symmetry_Int_Tables_number   1
_chemical_formula_structural   EuYReC2
_chemical_formula_sum   'Eu4 Y4 Re4 C8'
_cell_volume   358.54182096
_cell_formula_units_Z   4
loop_
 _symmetry_equiv_pos_site_id
 _symmetry_equiv_pos_as_xyz
  1  'x, y, z'
loop_
 _atom_site_type_symbol
 _atom_site_label
 _atom_site_symmetry_multiplicity
 _atom_site_fract_x
 _atom_site_fract_y
 _atom_site_fract_z
 _atom_site_occupancy
  Eu  Eu0  1  0.750000  0.464897  0.781007  1
  Eu  Eu1  1  0.250000  0.035103  0.281007  1
  Eu  Eu2  1  0.750000  0.964897  0.718993  1
  Eu  Eu3  1  0.250000  0.535103  0.218993  1
  Y  Y4  1  0.750000  0.818703  0.053389  1
  Y  Y5  1  0.250000  0.181297  0.946611  1
  Y  Y6  1  0.750000  0.318703  0.446611  1
  Y  Y7  1  0.250000  0.681297  0.553389  1
  Re  Re8  1  0.750000  0.770868  0.357359  1
  Re  Re9  1  0.250000  0.729132  0.857359  1
  Re  Re10  1  0.250000  0.229132  0.642641  1
  Re  Re11  1  0.750000  0.270868  0.142641  1
  C  C12  1  0.250000  0.961349  0.738919  1
  C  C13  1  0.750000  0.538651  0.238919  1
  C  C14  1  0.250000  0.461349  0.761081  1
  C  C15  1  0.750000  0.038651  0.261081  1
  C  C16  1  0.250000  0.318291  0.464423  1
  C  C17  1  0.750000  0.181709  0.964423  1
  C  C18  1  0.250000  0.818291  0.035577  1
  C  C19  1  0.750000  0.681709  0.535577  1
