# generated using pymatgen
data_SrLa8Mn(Si3O13)2
_symmetry_space_group_name_H-M   'P 1'
_cell_length_a   9.74177800
_cell_length_b   9.74177817
_cell_length_c   7.17100400
_cell_angle_alpha   90.00000000
_cell_angle_beta   90.00000000
_cell_angle_gamma   119.99999851
_symmetry_Int_Tables_number   1
_chemical_formula_structural   SrLa8Mn(Si3O13)2
_chemical_formula_sum   'Sr1 La8 Mn1 Si6 O26'
_cell_volume   589.36869959
_cell_formula_units_Z   1
loop_
 _symmetry_equiv_pos_site_id
 _symmetry_equiv_pos_as_xyz
  1  'x, y, z'
loop_
 _atom_site_type_symbol
 _atom_site_label
 _atom_site_symmetry_multiplicity
 _atom_site_fract_x
 _atom_site_fract_y
 _atom_site_fract_z
 _atom_site_occupancy
  Sr  Sr0  1  0.333333  0.666667  0.568657  1
  La  La1  1  0.242740  0.232677  0.815844  1
  La  La2  1  0.989937  0.757260  0.815844  1
  La  La3  1  0.767323  0.010063  0.815844  1
  La  La4  1  0.757009  0.768677  0.313883  1
  La  La5  1  0.011668  0.242991  0.313883  1
  La  La6  1  0.231323  0.988332  0.313883  1
  La  La7  1  0.666667  0.333333  0.557734  1
  La  La8  1  0.333333  0.666667  0.068534  1
  Mn  Mn9  1  0.666667  0.333333  0.054981  1
  Si  Si10  1  0.023020  0.399504  0.822731  1
  Si  Si11  1  0.376484  0.976980  0.822731  1
  Si  Si12  1  0.600496  0.623516  0.822731  1
  Si  Si13  1  0.965622  0.595877  0.307411  1
  Si  Si14  1  0.630255  0.034378  0.307411  1
  Si  Si15  1  0.404123  0.369745  0.307411  1
  O  O16  1  0.897795  0.632771  0.502544  1
  O  O17  1  0.734975  0.102205  0.502544  1
  O  O18  1  0.367229  0.265025  0.502544  1
  O  O19  1  0.092107  0.346102  0.001643  1
  O  O20  1  0.253995  0.907893  0.001643  1
  O  O21  1  0.653898  0.746005  0.001643  1
  O  O22  1  0.120037  0.594565  0.824146  1
  O  O23  1  0.474528  0.879963  0.824146  1
  O  O24  1  0.405435  0.525472  0.824146  1
  O  O25  1  0.864744  0.402372  0.280185  1
  O  O26  1  0.537628  0.135256  0.280185  1
  O  O27  1  0.597628  0.462372  0.280185  1
  O  O28  1  0.829900  0.321161  0.829757  1
  O  O29  1  0.491261  0.170100  0.829757  1
  O  O30  1  0.678839  0.508739  0.829757  1
  O  O31  1  0.157330  0.667502  0.313981  1
  O  O32  1  0.510173  0.842670  0.313981  1
  O  O33  1  0.332498  0.489827  0.313981  1
  O  O34  1  0.076236  0.334731  0.638327  1
  O  O35  1  0.258495  0.923764  0.638327  1
  O  O36  1  0.665269  0.741505  0.638327  1
  O  O37  1  0.928736  0.691746  0.143743  1
  O  O38  1  0.763011  0.071264  0.143743  1
  O  O39  1  0.308254  0.236989  0.143743  1
  O  O40  1  0.000000  0.000000  0.825987  1
  O  O41  1  0.000000  0.000000  0.347565  1
