# generated using pymatgen
data_Tb13Sm6YSn16
_symmetry_space_group_name_H-M   'P 1'
_cell_length_a   8.10596700
_cell_length_b   8.26203422
_cell_length_c   15.60994100
_cell_angle_alpha   90.02987513
_cell_angle_beta   89.99985961
_cell_angle_gamma   90.00331145
_symmetry_Int_Tables_number   1
_chemical_formula_structural   Tb13Sm6YSn16
_chemical_formula_sum   'Tb13 Sm6 Y1 Sn16'
_cell_volume   1045.42534014
_cell_formula_units_Z   1
loop_
 _symmetry_equiv_pos_site_id
 _symmetry_equiv_pos_as_xyz
  1  'x, y, z'
loop_
 _atom_site_type_symbol
 _atom_site_label
 _atom_site_symmetry_multiplicity
 _atom_site_fract_x
 _atom_site_fract_y
 _atom_site_fract_z
 _atom_site_occupancy
  Tb  Tb0  1  0.365588  0.835952  0.877644  1
  Tb  Tb1  1  0.865577  0.664030  0.622362  1
  Tb  Tb2  1  0.633881  0.164004  0.378328  1
  Tb  Tb3  1  0.133869  0.336011  0.121682  1
  Tb  Tb4  1  0.634034  0.164249  0.121765  1
  Tb  Tb5  1  0.134022  0.335773  0.378224  1
  Tb  Tb6  1  0.365786  0.836438  0.622382  1
  Tb  Tb7  1  0.865773  0.663543  0.877612  1
  Tb  Tb8  1  0.520173  0.321111  0.901305  1
  Tb  Tb9  1  0.020156  0.178898  0.598691  1
  Tb  Tb10  1  0.198217  0.501878  0.750177  1
  Tb  Tb11  1  0.698208  0.998134  0.749822  1
  Tb  Tb12  1  0.801647  0.497713  0.249962  1
  Sm  Sm13  1  0.481348  0.679255  0.402634  1
  Sm  Sm14  1  0.981341  0.820741  0.097371  1
  Sm  Sm15  1  0.481268  0.678815  0.097256  1
  Sm  Sm16  1  0.981262  0.821180  0.402740  1
  Sm  Sm17  1  0.518026  0.320364  0.597394  1
  Sm  Sm18  1  0.018010  0.179645  0.902611  1
  Y  Y19  1  0.301585  0.002277  0.250038  1
  Sn  Sn20  1  0.296581  0.037268  0.041588  1
  Sn  Sn21  1  0.796584  0.462736  0.458428  1
  Sn  Sn22  1  0.705829  0.964401  0.542439  1
  Sn  Sn23  1  0.205838  0.535590  0.957563  1
  Sn  Sn24  1  0.702585  0.963310  0.957830  1
  Sn  Sn25  1  0.202592  0.536681  0.542170  1
  Sn  Sn26  1  0.294635  0.038483  0.459360  1
  Sn  Sn27  1  0.794634  0.461522  0.040621  1
  Sn  Sn28  1  0.564377  0.619954  0.749938  1
  Sn  Sn29  1  0.064402  0.880056  0.750067  1
  Sn  Sn30  1  0.435150  0.379494  0.250015  1
  Sn  Sn31  1  0.935236  0.120466  0.249978  1
  Sn  Sn32  1  0.327875  0.145478  0.750620  1
  Sn  Sn33  1  0.827903  0.354489  0.749384  1
  Sn  Sn34  1  0.673027  0.855835  0.249932  1
  Sn  Sn35  1  0.172984  0.644226  0.250065  1
