# generated using pymatgen
data_Tb11In9Ir3Pd
_symmetry_space_group_name_H-M   'P 1'
_cell_length_a   13.23511404
_cell_length_b   13.25262986
_cell_length_c   3.68725900
_cell_angle_alpha   90.00000000
_cell_angle_beta   90.00000000
_cell_angle_gamma   112.49075940
_symmetry_Int_Tables_number   1
_chemical_formula_structural   Tb11In9Ir3Pd
_chemical_formula_sum   'Tb11 In9 Ir3 Pd1'
_cell_volume   597.55481801
_cell_formula_units_Z   1
loop_
 _symmetry_equiv_pos_site_id
 _symmetry_equiv_pos_as_xyz
  1  'x, y, z'
loop_
 _atom_site_type_symbol
 _atom_site_label
 _atom_site_symmetry_multiplicity
 _atom_site_fract_x
 _atom_site_fract_y
 _atom_site_fract_z
 _atom_site_occupancy
  Tb  Tb0  1  0.416275  0.077320  0.000000  1
  Tb  Tb1  1  0.583180  0.922429  0.000000  1
  Tb  Tb2  1  0.077877  0.416439  0.000000  1
  Tb  Tb3  1  0.927367  0.584756  0.000000  1
  Tb  Tb4  1  0.160456  0.839998  0.000000  1
  Tb  Tb5  1  0.839481  0.159848  0.000000  1
  Tb  Tb6  1  0.372854  0.625835  0.000000  1
  Tb  Tb7  1  0.621419  0.367314  0.000000  1
  Tb  Tb8  1  0.310693  0.311444  0.000000  1
  Tb  Tb9  1  0.686286  0.693658  0.000000  1
  Tb  Tb10  1  0.000341  0.000302  0.000000  1
  In  In11  1  0.366300  0.842115  0.500000  1
  In  In12  1  0.633977  0.157882  0.500000  1
  In  In13  1  0.842928  0.366942  0.500000  1
  In  In14  1  0.157986  0.633349  0.500000  1
  In  In15  1  0.217549  0.074848  0.500000  1
  In  In16  1  0.782926  0.925683  0.500000  1
  In  In17  1  0.074599  0.217556  0.500000  1
  In  In18  1  0.926354  0.782810  0.500000  1
  In  In19  1  0.500075  0.500172  0.500000  1
  Ir  Ir20  1  0.449370  0.245576  0.500000  1
  Ir  Ir21  1  0.551714  0.754481  0.500000  1
  Ir  Ir22  1  0.245776  0.448940  0.500000  1
  Pd  Pd23  1  0.754222  0.550302  0.500000  1
