# generated using pymatgen
data_Nd8Sc12Si15Au
_symmetry_space_group_name_H-M   'P 1'
_cell_length_a   7.26411288
_cell_length_b   7.51329098
_cell_length_c   14.29548097
_cell_angle_alpha   89.97805483
_cell_angle_beta   89.68927065
_cell_angle_gamma   90.21630499
_symmetry_Int_Tables_number   1
_chemical_formula_structural   Nd8Sc12Si15Au
_chemical_formula_sum   'Nd8 Sc12 Si15 Au1'
_cell_volume   780.19299710
_cell_formula_units_Z   1
loop_
 _symmetry_equiv_pos_site_id
 _symmetry_equiv_pos_as_xyz
  1  'x, y, z'
loop_
 _atom_site_type_symbol
 _atom_site_label
 _atom_site_symmetry_multiplicity
 _atom_site_fract_x
 _atom_site_fract_y
 _atom_site_fract_z
 _atom_site_occupancy
  Nd  Nd0  1  0.012473  0.173585  0.097829  1
  Nd  Nd1  1  0.987259  0.827206  0.903120  1
  Nd  Nd2  1  0.486725  0.674096  0.902946  1
  Nd  Nd3  1  0.988523  0.830404  0.597605  1
  Nd  Nd4  1  0.512421  0.326291  0.096799  1
  Nd  Nd5  1  0.010027  0.172875  0.399666  1
  Nd  Nd6  1  0.511438  0.326194  0.400149  1
  Nd  Nd7  1  0.491233  0.674834  0.599969  1
  Sc  Sc8  1  0.161379  0.497615  0.751501  1
  Sc  Sc9  1  0.838625  0.501465  0.250624  1
  Sc  Sc10  1  0.339081  0.997359  0.248724  1
  Sc  Sc11  1  0.663713  0.999625  0.751475  1
  Sc  Sc12  1  0.339500  0.175194  0.626663  1
  Sc  Sc13  1  0.667025  0.824063  0.373403  1
  Sc  Sc14  1  0.168142  0.673433  0.372925  1
  Sc  Sc15  1  0.670980  0.824661  0.124936  1
  Sc  Sc16  1  0.826759  0.326018  0.625535  1
  Sc  Sc17  1  0.328482  0.174455  0.875579  1
  Sc  Sc18  1  0.830277  0.322876  0.875785  1
  Sc  Sc19  1  0.169173  0.676159  0.125059  1
  Si  Si20  1  0.035986  0.125599  0.750471  1
  Si  Si21  1  0.965524  0.877105  0.249568  1
  Si  Si22  1  0.465323  0.622500  0.248358  1
  Si  Si23  1  0.536477  0.378455  0.752409  1
  Si  Si24  1  0.286101  0.881628  0.750688  1
  Si  Si25  1  0.711137  0.120017  0.248706  1
  Si  Si26  1  0.213234  0.379465  0.248439  1
  Si  Si27  1  0.788944  0.619552  0.752113  1
  Si  Si28  1  0.839302  0.540826  0.458544  1
  Si  Si29  1  0.345682  0.960870  0.460401  1
  Si  Si30  1  0.848279  0.536869  0.039272  1
  Si  Si31  1  0.653109  0.037780  0.538143  1
  Si  Si32  1  0.151130  0.463051  0.961088  1
  Si  Si33  1  0.651941  0.036401  0.960318  1
  Si  Si34  1  0.347255  0.962885  0.039646  1
  Au  Au35  1  0.157338  0.458593  0.541545  1
