# generated using pymatgen
data_Ac2Ge2Pt
_symmetry_space_group_name_H-M   'P 1'
_cell_length_a   6.21940038
_cell_length_b   6.21940024
_cell_length_c   12.08053629
_cell_angle_alpha   119.06673452
_cell_angle_beta   119.06673568
_cell_angle_gamma   42.92986618
_symmetry_Int_Tables_number   1
_chemical_formula_structural   Ac2Ge2Pt
_chemical_formula_sum   'Ac4 Ge4 Pt2'
_cell_volume   271.46009896
_cell_formula_units_Z   2
loop_
 _symmetry_equiv_pos_site_id
 _symmetry_equiv_pos_as_xyz
  1  'x, y, z'
loop_
 _atom_site_type_symbol
 _atom_site_label
 _atom_site_symmetry_multiplicity
 _atom_site_fract_x
 _atom_site_fract_y
 _atom_site_fract_z
 _atom_site_occupancy
  Ac  Ac0  1  0.934550  0.934550  0.142169  1
  Ac  Ac1  1  0.796946  0.796946  0.393025  1
  Ac  Ac2  1  0.203054  0.203054  0.606975  1
  Ac  Ac3  1  0.065450  0.065450  0.857831  1
  Ge  Ge4  1  0.626935  0.626935  0.082948  1
  Ge  Ge5  1  0.502382  0.502382  0.388151  1
  Ge  Ge6  1  0.497618  0.497618  0.611849  1
  Ge  Ge7  1  0.373065  0.373065  0.917052  1
  Pt  Pt8  1  0.245412  0.245412  0.188531  1
  Pt  Pt9  1  0.754588  0.754588  0.811469  1
