# generated using pymatgen
data_Y8BeCuPd23
_symmetry_space_group_name_H-M   'P 1'
_cell_length_a   8.29765900
_cell_length_b   8.35156900
_cell_length_c   8.38218000
_cell_angle_alpha   90.00000000
_cell_angle_beta   90.00000000
_cell_angle_gamma   90.00000000
_symmetry_Int_Tables_number   1
_chemical_formula_structural   Y8BeCuPd23
_chemical_formula_sum   'Y8 Be1 Cu1 Pd23'
_cell_volume   580.87226332
_cell_formula_units_Z   1
loop_
 _symmetry_equiv_pos_site_id
 _symmetry_equiv_pos_as_xyz
  1  'x, y, z'
loop_
 _atom_site_type_symbol
 _atom_site_label
 _atom_site_symmetry_multiplicity
 _atom_site_fract_x
 _atom_site_fract_y
 _atom_site_fract_z
 _atom_site_occupancy
  Y  Y0  1  0.250784  0.248830  0.254317  1
  Y  Y1  1  0.749036  0.748196  0.749654  1
  Y  Y2  1  0.749036  0.748196  0.250346  1
  Y  Y3  1  0.749036  0.251804  0.749654  1
  Y  Y4  1  0.250784  0.248830  0.745683  1
  Y  Y5  1  0.250784  0.751170  0.254317  1
  Y  Y6  1  0.250784  0.751170  0.745683  1
  Y  Y7  1  0.749036  0.251804  0.250346  1
  Be  Be8  1  0.999035  0.000000  0.000000  1
  Cu  Cu9  1  0.259933  0.500000  0.000000  1
  Pd  Pd10  1  0.746197  0.500000  0.000000  1
  Pd  Pd11  1  0.998926  0.255211  0.500000  1
  Pd  Pd12  1  0.494070  0.259302  0.000000  1
  Pd  Pd13  1  0.998926  0.744789  0.500000  1
  Pd  Pd14  1  0.494070  0.740698  0.000000  1
  Pd  Pd15  1  0.500303  0.000000  0.255226  1
  Pd  Pd16  1  0.254584  0.000000  0.500000  1
  Pd  Pd17  1  0.500303  0.000000  0.744774  1
  Pd  Pd18  1  0.744942  0.000000  0.500000  1
  Pd  Pd19  1  0.003193  0.500000  0.254428  1
  Pd  Pd20  1  0.003193  0.500000  0.745572  1
  Pd  Pd21  1  0.251931  0.500000  0.500000  1
  Pd  Pd22  1  0.747789  0.500000  0.500000  1
  Pd  Pd23  1  0.500695  0.252758  0.500000  1
  Pd  Pd24  1  0.500695  0.747242  0.500000  1
  Pd  Pd25  1  0.495699  0.500000  0.249437  1
  Pd  Pd26  1  0.495699  0.500000  0.750563  1
  Pd  Pd27  1  0.269291  0.000000  0.000000  1
  Pd  Pd28  1  0.727948  0.000000  0.000000  1
  Pd  Pd29  1  0.007789  0.272949  0.000000  1
  Pd  Pd30  1  0.007789  0.727051  0.000000  1
  Pd  Pd31  1  0.998861  0.000000  0.269607  1
  Pd  Pd32  1  0.998861  0.000000  0.730393  1
