# generated using pymatgen
data_V6Ga2CuAuN2
_symmetry_space_group_name_H-M   'P 1'
_cell_length_a   6.63310519
_cell_length_b   6.62244026
_cell_length_c   6.62060800
_cell_angle_alpha   90.00000000
_cell_angle_beta   90.00000000
_cell_angle_gamma   89.68383299
_symmetry_Int_Tables_number   1
_chemical_formula_structural   V6Ga2CuAuN2
_chemical_formula_sum   'V12 Ga4 Cu2 Au2 N4'
_cell_volume   290.82128991
_cell_formula_units_Z   2
loop_
 _symmetry_equiv_pos_site_id
 _symmetry_equiv_pos_as_xyz
  1  'x, y, z'
loop_
 _atom_site_type_symbol
 _atom_site_label
 _atom_site_symmetry_multiplicity
 _atom_site_fract_x
 _atom_site_fract_y
 _atom_site_fract_z
 _atom_site_occupancy
  V  V0  1  0.784718  0.959337  0.376353  1
  V  V1  1  0.715282  0.040663  0.876353  1
  V  V2  1  0.216236  0.463782  0.124175  1
  V  V3  1  0.283764  0.536218  0.624175  1
  V  V4  1  0.964309  0.372683  0.783644  1
  V  V5  1  0.040962  0.880584  0.715818  1
  V  V6  1  0.459038  0.119416  0.215818  1
  V  V7  1  0.535691  0.627317  0.283644  1
  V  V8  1  0.372867  0.786262  0.963302  1
  V  V9  1  0.881433  0.719346  0.041305  1
  V  V10  1  0.127133  0.213738  0.463302  1
  V  V11  1  0.618567  0.280654  0.541305  1
  Ga  Ga12  1  0.558311  0.418228  0.925740  1
  Ga  Ga13  1  0.415626  0.933602  0.571467  1
  Ga  Ga14  1  0.941689  0.581772  0.425740  1
  Ga  Ga15  1  0.084374  0.066398  0.071467  1
  Cu  Cu16  1  0.180545  0.823618  0.321217  1
  Cu  Cu17  1  0.319455  0.176382  0.821217  1
  Au  Au18  1  0.821913  0.322123  0.179193  1
  Au  Au19  1  0.678087  0.677877  0.679193  1
  N  N20  1  0.875098  0.124701  0.622600  1
  N  N21  1  0.624902  0.875299  0.122600  1
  N  N22  1  0.123341  0.623517  0.875187  1
  N  N23  1  0.376659  0.376483  0.375187  1
