# generated using pymatgen
data_Y10Si6H
_symmetry_space_group_name_H-M   'P 1'
_cell_length_a   8.48169800
_cell_length_b   8.48169892
_cell_length_c   6.32823900
_cell_angle_alpha   90.00000000
_cell_angle_beta   90.00000000
_cell_angle_gamma   119.99999640
_symmetry_Int_Tables_number   1
_chemical_formula_structural   Y10Si6H
_chemical_formula_sum   'Y10 Si6 H1'
_cell_volume   394.25678609
_cell_formula_units_Z   1
loop_
 _symmetry_equiv_pos_site_id
 _symmetry_equiv_pos_as_xyz
  1  'x, y, z'
loop_
 _atom_site_type_symbol
 _atom_site_label
 _atom_site_symmetry_multiplicity
 _atom_site_fract_x
 _atom_site_fract_y
 _atom_site_fract_z
 _atom_site_occupancy
  Y  Y0  1  0.333333  0.666667  0.500000  1
  Y  Y1  1  0.666667  0.333333  0.500000  1
  Y  Y2  1  0.666667  0.333333  0.000000  1
  Y  Y3  1  0.333333  0.666667  0.000000  1
  Y  Y4  1  0.000000  0.752700  0.248064  1
  Y  Y5  1  0.247300  0.247300  0.248064  1
  Y  Y6  1  0.752700  0.000000  0.248064  1
  Y  Y7  1  0.000000  0.247300  0.751936  1
  Y  Y8  1  0.752700  0.752700  0.751936  1
  Y  Y9  1  0.247300  0.000000  0.751936  1
  Si  Si10  1  0.000000  0.391313  0.250663  1
  Si  Si11  1  0.608687  0.608687  0.250663  1
  Si  Si12  1  0.391313  0.000000  0.250663  1
  Si  Si13  1  0.000000  0.608687  0.749337  1
  Si  Si14  1  0.391313  0.391313  0.749337  1
  Si  Si15  1  0.608687  0.000000  0.749337  1
  H  H16  1  0.000000  0.000000  0.500000  1
