# generated using pymatgen
data_Lu5In4OsPt
_symmetry_space_group_name_H-M   'P 1'
_cell_length_a   3.54046800
_cell_length_b   7.98601584
_cell_length_c   18.09115068
_cell_angle_alpha   89.77649505
_cell_angle_beta   90.00000000
_cell_angle_gamma   90.00000000
_symmetry_Int_Tables_number   1
_chemical_formula_structural   Lu5In4OsPt
_chemical_formula_sum   'Lu10 In8 Os2 Pt2'
_cell_volume   511.50952704
_cell_formula_units_Z   2
loop_
 _symmetry_equiv_pos_site_id
 _symmetry_equiv_pos_as_xyz
  1  'x, y, z'
loop_
 _atom_site_type_symbol
 _atom_site_label
 _atom_site_symmetry_multiplicity
 _atom_site_fract_x
 _atom_site_fract_y
 _atom_site_fract_z
 _atom_site_occupancy
  Lu  Lu0  1  0.000000  0.116119  0.412746  1
  Lu  Lu1  1  0.000000  0.883881  0.587254  1
  Lu  Lu2  1  0.000000  0.381738  0.913793  1
  Lu  Lu3  1  0.000000  0.618262  0.086207  1
  Lu  Lu4  1  0.000000  0.235895  0.223002  1
  Lu  Lu5  1  0.000000  0.764105  0.776998  1
  Lu  Lu6  1  0.000000  0.247492  0.719926  1
  Lu  Lu7  1  0.000000  0.752508  0.280074  1
  Lu  Lu8  1  0.000000  0.000000  0.000000  1
  Lu  Lu9  1  0.000000  0.500000  0.500000  1
  In  In10  1  0.500000  0.424359  0.352490  1
  In  In11  1  0.500000  0.575641  0.647510  1
  In  In12  1  0.500000  0.070179  0.850726  1
  In  In13  1  0.500000  0.929821  0.149274  1
  In  In14  1  0.500000  0.291828  0.065780  1
  In  In15  1  0.500000  0.708172  0.934220  1
  In  In16  1  0.500000  0.206338  0.566835  1
  In  In17  1  0.500000  0.793662  0.433165  1
  Os  Os18  1  0.500000  0.021898  0.303094  1
  Os  Os19  1  0.500000  0.978102  0.696906  1
  Pt  Pt20  1  0.500000  0.475771  0.803233  1
  Pt  Pt21  1  0.500000  0.524229  0.196767  1
