# generated using pymatgen
data_Mg4NbZn3Rh8
_symmetry_space_group_name_H-M   'P 1'
_cell_length_a   6.18822800
_cell_length_b   6.19191900
_cell_length_c   6.16624700
_cell_angle_alpha   89.99972182
_cell_angle_beta   89.99961973
_cell_angle_gamma   89.99958345
_symmetry_Int_Tables_number   1
_chemical_formula_structural   Mg4NbZn3Rh8
_chemical_formula_sum   'Mg4 Nb1 Zn3 Rh8'
_cell_volume   236.27212655
_cell_formula_units_Z   1
loop_
 _symmetry_equiv_pos_site_id
 _symmetry_equiv_pos_as_xyz
  1  'x, y, z'
loop_
 _atom_site_type_symbol
 _atom_site_label
 _atom_site_symmetry_multiplicity
 _atom_site_fract_x
 _atom_site_fract_y
 _atom_site_fract_z
 _atom_site_occupancy
  Mg  Mg0  1  0.750005  0.249999  0.000007  1
  Mg  Mg1  1  0.249995  0.749961  0.000010  1
  Mg  Mg2  1  0.750002  0.250007  0.499989  1
  Mg  Mg3  1  0.250005  0.749941  0.499987  1
  Nb  Nb4  1  0.249995  0.249987  0.500022  1
  Zn  Zn5  1  0.250002  0.249964  0.000003  1
  Zn  Zn6  1  0.749996  0.750017  0.000004  1
  Zn  Zn7  1  0.749995  0.750011  0.500000  1
  Rh  Rh8  1  0.500688  0.999073  0.250536  1
  Rh  Rh9  1  0.500747  0.500956  0.250481  1
  Rh  Rh10  1  0.999311  0.999070  0.250540  1
  Rh  Rh11  1  0.999250  0.500969  0.250478  1
  Rh  Rh12  1  0.999334  0.999035  0.749451  1
  Rh  Rh13  1  0.999260  0.500991  0.749519  1
  Rh  Rh14  1  0.500676  0.999041  0.749457  1
  Rh  Rh15  1  0.500739  0.500978  0.749518  1
