# generated using pymatgen
data_YbMnV4O12
_symmetry_space_group_name_H-M   'P 1'
_cell_length_a   7.10280820
_cell_length_b   7.10280750
_cell_length_c   5.99949626
_cell_angle_alpha   74.50760321
_cell_angle_beta   74.50760720
_cell_angle_gamma   84.15941175
_symmetry_Int_Tables_number   1
_chemical_formula_structural   YbMnV4O12
_chemical_formula_sum   'Yb1 Mn1 V4 O12'
_cell_volume   280.92791303
_cell_formula_units_Z   1
loop_
 _symmetry_equiv_pos_site_id
 _symmetry_equiv_pos_as_xyz
  1  'x, y, z'
loop_
 _atom_site_type_symbol
 _atom_site_label
 _atom_site_symmetry_multiplicity
 _atom_site_fract_x
 _atom_site_fract_y
 _atom_site_fract_z
 _atom_site_occupancy
  Yb  Yb0  1  0.909056  0.090944  0.000000  1
  Mn  Mn1  1  0.097358  0.902642  0.500000  1
  V  V2  1  0.787661  0.619056  0.005200  1
  V  V3  1  0.614442  0.787018  0.513547  1
  V  V4  1  0.380944  0.212339  0.994800  1
  V  V5  1  0.212982  0.385558  0.486453  1
  O  O6  1  0.952642  0.802187  0.874914  1
  O  O7  1  0.904054  0.401328  0.033686  1
  O  O8  1  0.799787  0.949006  0.410073  1
  O  O9  1  0.635489  0.639089  0.802164  1
  O  O10  1  0.598672  0.095946  0.966314  1
  O  O11  1  0.649054  0.645482  0.295465  1
  O  O12  1  0.360911  0.364511  0.197836  1
  O  O13  1  0.391820  0.898194  0.538249  1
  O  O14  1  0.354518  0.350946  0.704535  1
  O  O15  1  0.197813  0.047358  0.125086  1
  O  O16  1  0.101806  0.608180  0.461751  1
  O  O17  1  0.050994  0.200213  0.589927  1
