# generated using pymatgen
data_Ca2Yb3Sn2BiH
_symmetry_space_group_name_H-M   'P 1'
_cell_length_a   9.43439733
_cell_length_b   9.43439687
_cell_length_c   9.43027378
_cell_angle_alpha   128.55372294
_cell_angle_beta   128.55372377
_cell_angle_gamma   75.76191856
_symmetry_Int_Tables_number   1
_chemical_formula_structural   Ca2Yb3Sn2BiH
_chemical_formula_sum   'Ca4 Yb6 Sn4 Bi2 H2'
_cell_volume   499.19862932
_cell_formula_units_Z   2
loop_
 _symmetry_equiv_pos_site_id
 _symmetry_equiv_pos_as_xyz
  1  'x, y, z'
loop_
 _atom_site_type_symbol
 _atom_site_label
 _atom_site_symmetry_multiplicity
 _atom_site_fract_x
 _atom_site_fract_y
 _atom_site_fract_z
 _atom_site_occupancy
  Ca  Ca0  1  0.499927  0.499927  0.000000  1
  Ca  Ca1  1  0.999927  0.999927  0.000000  1
  Ca  Ca2  1  0.987983  0.807058  0.500000  1
  Ca  Ca3  1  0.307058  0.487983  0.500000  1
  Yb  Yb4  1  0.512429  0.012429  0.819141  1
  Yb  Yb5  1  0.193287  0.693287  0.180859  1
  Yb  Yb6  1  0.012218  0.193468  0.500000  1
  Yb  Yb7  1  0.693468  0.512218  0.500000  1
  Yb  Yb8  1  0.487774  0.987774  0.181023  1
  Yb  Yb9  1  0.806751  0.306751  0.818977  1
  Sn  Sn10  1  0.869655  0.369655  0.240097  1
  Sn  Sn11  1  0.129559  0.629559  0.759903  1
  Sn  Sn12  1  0.370223  0.129323  0.500000  1
  Sn  Sn13  1  0.629323  0.870223  0.500000  1
  Bi  Bi14  1  0.250210  0.250210  0.000000  1
  Bi  Bi15  1  0.750210  0.750210  0.000000  1
  H  H16  1  0.250004  0.750004  0.500000  1
  H  H17  1  0.749994  0.249994  0.500000  1
