# generated using pymatgen
data_NiAg7(SO4)6
_symmetry_space_group_name_H-M   'P 1'
_cell_length_a   8.50393103
_cell_length_b   8.50393181
_cell_length_c   8.50393275
_cell_angle_alpha   107.98581620
_cell_angle_beta   107.98581262
_cell_angle_gamma   107.98581182
_symmetry_Int_Tables_number   1
_chemical_formula_structural   NiAg7(SO4)6
_chemical_formula_sum   'Ni1 Ag7 S6 O24'
_cell_volume   497.74443397
_cell_formula_units_Z   1
loop_
 _symmetry_equiv_pos_site_id
 _symmetry_equiv_pos_as_xyz
  1  'x, y, z'
loop_
 _atom_site_type_symbol
 _atom_site_label
 _atom_site_symmetry_multiplicity
 _atom_site_fract_x
 _atom_site_fract_y
 _atom_site_fract_z
 _atom_site_occupancy
  Ni  Ni0  1  0.000000  0.000000  0.000000  1
  Ag  Ag1  1  0.500000  0.500000  0.500000  1
  Ag  Ag2  1  0.661905  0.168957  0.326457  1
  Ag  Ag3  1  0.326457  0.661905  0.168957  1
  Ag  Ag4  1  0.168957  0.326457  0.661905  1
  Ag  Ag5  1  0.338095  0.831043  0.673543  1
  Ag  Ag6  1  0.673543  0.338095  0.831043  1
  Ag  Ag7  1  0.831043  0.673543  0.338095  1
  S  S8  1  0.240268  0.030235  0.400602  1
  S  S9  1  0.400602  0.240268  0.030235  1
  S  S10  1  0.030235  0.400602  0.240268  1
  S  S11  1  0.759732  0.969765  0.599398  1
  S  S12  1  0.599398  0.759732  0.969765  1
  S  S13  1  0.969765  0.599398  0.759732  1
  O  O14  1  0.087828  0.515591  0.834637  1
  O  O15  1  0.834637  0.087828  0.515591  1
  O  O16  1  0.515591  0.834637  0.087828  1
  O  O17  1  0.912172  0.484409  0.165363  1
  O  O18  1  0.165363  0.912172  0.484409  1
  O  O19  1  0.484409  0.165363  0.912172  1
  O  O20  1  0.023906  0.668121  0.635625  1
  O  O21  1  0.635625  0.023906  0.668121  1
  O  O22  1  0.668121  0.635625  0.023906  1
  O  O23  1  0.976094  0.331879  0.364375  1
  O  O24  1  0.364375  0.976094  0.331879  1
  O  O25  1  0.331879  0.364375  0.976094  1
  O  O26  1  0.020291  0.259164  0.080620  1
  O  O27  1  0.080620  0.020291  0.259164  1
  O  O28  1  0.551836  0.353182  0.229661  1
  O  O29  1  0.353182  0.229661  0.551836  1
  O  O30  1  0.229661  0.551836  0.353182  1
  O  O31  1  0.448164  0.646818  0.770339  1
  O  O32  1  0.646818  0.770339  0.448164  1
  O  O33  1  0.770339  0.448164  0.646818  1
  O  O34  1  0.740836  0.919380  0.979709  1
  O  O35  1  0.919380  0.979709  0.740836  1
  O  O36  1  0.979709  0.740836  0.919380  1
  O  O37  1  0.259164  0.080620  0.020291  1
