# generated using pymatgen
data_Ho3In4CoAg
_symmetry_space_group_name_H-M   'P 1'
_cell_length_a   8.01683600
_cell_length_b   8.01683608
_cell_length_c   3.69073300
_cell_angle_alpha   90.00000000
_cell_angle_beta   90.00000000
_cell_angle_gamma   119.99999582
_symmetry_Int_Tables_number   1
_chemical_formula_structural   Ho3In4CoAg
_chemical_formula_sum   'Ho3 In4 Co1 Ag1'
_cell_volume   205.42310119
_cell_formula_units_Z   1
loop_
 _symmetry_equiv_pos_site_id
 _symmetry_equiv_pos_as_xyz
  1  'x, y, z'
loop_
 _atom_site_type_symbol
 _atom_site_label
 _atom_site_symmetry_multiplicity
 _atom_site_fract_x
 _atom_site_fract_y
 _atom_site_fract_z
 _atom_site_occupancy
  Ho  Ho0  1  0.286886  0.241486  0.500000  1
  Ho  Ho1  1  0.758514  0.045399  0.500000  1
  Ho  Ho2  1  0.954601  0.713114  0.500000  1
  In  In3  1  0.062049  0.392665  0.000000  1
  In  In4  1  0.607335  0.669384  0.000000  1
  In  In5  1  0.330616  0.937951  0.000000  1
  In  In6  1  0.666667  0.333333  0.000000  1
  Co  Co7  1  0.000000  0.000000  0.000000  1
  Ag  Ag8  1  0.333333  0.666667  0.500000  1
