# generated using pymatgen
data_Th2NiSnPd
_symmetry_space_group_name_H-M   'P 1'
_cell_length_a   7.76709211
_cell_length_b   7.76709179
_cell_length_c   3.80922000
_cell_angle_alpha   90.00000000
_cell_angle_beta   90.00000000
_cell_angle_gamma   91.01871292
_symmetry_Int_Tables_number   1
_chemical_formula_structural   Th2NiSnPd
_chemical_formula_sum   'Th4 Ni2 Sn2 Pd2'
_cell_volume   229.76522541
_cell_formula_units_Z   2
loop_
 _symmetry_equiv_pos_site_id
 _symmetry_equiv_pos_as_xyz
  1  'x, y, z'
loop_
 _atom_site_type_symbol
 _atom_site_label
 _atom_site_symmetry_multiplicity
 _atom_site_fract_x
 _atom_site_fract_y
 _atom_site_fract_z
 _atom_site_occupancy
  Th  Th0  1  0.684957  0.184957  0.500000  1
  Th  Th1  1  0.315043  0.815043  0.500000  1
  Th  Th2  1  0.166813  0.333187  0.500000  1
  Th  Th3  1  0.833187  0.666813  0.500000  1
  Ni  Ni4  1  0.122493  0.622493  0.000000  1
  Ni  Ni5  1  0.877507  0.377507  0.000000  1
  Sn  Sn6  1  0.000000  0.000000  0.000000  1
  Sn  Sn7  1  0.500000  0.500000  0.000000  1
  Pd  Pd8  1  0.627917  0.872083  0.000000  1
  Pd  Pd9  1  0.372083  0.127917  0.000000  1
