# generated using pymatgen
data_Ta6Tc5B6Ru
_symmetry_space_group_name_H-M   'P 1'
_cell_length_a   3.16219100
_cell_length_b   9.05791872
_cell_length_c   15.70155900
_cell_angle_alpha   89.83174767
_cell_angle_beta   90.00000000
_cell_angle_gamma   90.00000000
_symmetry_Int_Tables_number   1
_chemical_formula_structural   Ta6Tc5B6Ru
_chemical_formula_sum   'Ta12 Tc10 B12 Ru2'
_cell_volume   449.73575930
_cell_formula_units_Z   2
loop_
 _symmetry_equiv_pos_site_id
 _symmetry_equiv_pos_as_xyz
  1  'x, y, z'
loop_
 _atom_site_type_symbol
 _atom_site_label
 _atom_site_symmetry_multiplicity
 _atom_site_fract_x
 _atom_site_fract_y
 _atom_site_fract_z
 _atom_site_occupancy
  Ta  Ta0  1  0.000000  0.805952  0.493761  1
  Ta  Ta1  1  0.000000  0.194048  0.506239  1
  Ta  Ta2  1  0.000000  0.305896  0.007012  1
  Ta  Ta3  1  0.000000  0.694104  0.992988  1
  Ta  Ta4  1  0.000000  0.515474  0.595398  1
  Ta  Ta5  1  0.000000  0.484526  0.404602  1
  Ta  Ta6  1  0.000000  0.015850  0.904172  1
  Ta  Ta7  1  0.000000  0.984150  0.095828  1
  Ta  Ta8  1  0.000000  0.679581  0.206880  1
  Ta  Ta9  1  0.000000  0.320419  0.793120  1
  Ta  Ta10  1  0.000000  0.183630  0.293593  1
  Ta  Ta11  1  0.000000  0.816370  0.706407  1
  Tc  Tc12  1  0.500000  0.719140  0.357802  1
  Tc  Tc13  1  0.500000  0.280860  0.642198  1
  Tc  Tc14  1  0.500000  0.216676  0.141936  1
  Tc  Tc15  1  0.500000  0.783324  0.858064  1
  Tc  Tc16  1  0.500000  0.519117  0.095084  1
  Tc  Tc17  1  0.500000  0.480883  0.904916  1
  Tc  Tc18  1  0.500000  0.018916  0.404130  1
  Tc  Tc19  1  0.500000  0.981084  0.595870  1
  Tc  Tc20  1  0.500000  0.567037  0.732267  1
  Tc  Tc21  1  0.500000  0.432963  0.267733  1
  B  B22  1  0.500000  0.604861  0.494006  1
  B  B23  1  0.500000  0.395139  0.505994  1
  B  B24  1  0.500000  0.104256  0.005127  1
  B  B25  1  0.500000  0.895744  0.994873  1
  B  B26  1  0.000000  0.609484  0.832500  1
  B  B27  1  0.000000  0.390516  0.167500  1
  B  B28  1  0.000000  0.109472  0.666091  1
  B  B29  1  0.000000  0.890528  0.333909  1
  B  B30  1  0.500000  0.716454  0.602582  1
  B  B31  1  0.500000  0.283546  0.397418  1
  B  B32  1  0.500000  0.217740  0.898748  1
  B  B33  1  0.500000  0.782260  0.101252  1
  Ru  Ru34  1  0.500000  0.068862  0.767829  1
  Ru  Ru35  1  0.500000  0.931138  0.232171  1
