# generated using pymatgen
data_Y10InSn5Cl2
_symmetry_space_group_name_H-M   'P 1'
_cell_length_a   9.13142400
_cell_length_b   9.11190420
_cell_length_c   6.61154800
_cell_angle_alpha   90.00000000
_cell_angle_beta   90.00000000
_cell_angle_gamma   120.07089702
_symmetry_Int_Tables_number   1
_chemical_formula_structural   Y10InSn5Cl2
_chemical_formula_sum   'Y10 In1 Sn5 Cl2'
_cell_volume   476.06991245
_cell_formula_units_Z   1
loop_
 _symmetry_equiv_pos_site_id
 _symmetry_equiv_pos_as_xyz
  1  'x, y, z'
loop_
 _atom_site_type_symbol
 _atom_site_label
 _atom_site_symmetry_multiplicity
 _atom_site_fract_x
 _atom_site_fract_y
 _atom_site_fract_z
 _atom_site_occupancy
  Y  Y0  1  0.260437  0.260475  0.750000  1
  Y  Y1  1  0.999961  0.739525  0.750000  1
  Y  Y2  1  0.739117  0.000000  0.750000  1
  Y  Y3  1  0.998559  0.260563  0.250000  1
  Y  Y4  1  0.334030  0.667563  0.500896  1
  Y  Y5  1  0.737996  0.739437  0.250000  1
  Y  Y6  1  0.666467  0.332437  0.500896  1
  Y  Y7  1  0.261553  0.000000  0.250000  1
  Y  Y8  1  0.334030  0.667563  0.999104  1
  Y  Y9  1  0.666467  0.332437  0.999104  1
  In  In10  1  0.608311  0.000000  0.250000  1
  Sn  Sn11  1  0.000221  0.390881  0.750000  1
  Sn  Sn12  1  0.392029  0.000000  0.750000  1
  Sn  Sn13  1  0.609341  0.609119  0.750000  1
  Sn  Sn14  1  0.000005  0.609734  0.250000  1
  Sn  Sn15  1  0.390270  0.390266  0.250000  1
  Cl  Cl16  1  0.000603  0.000000  0.999516  1
  Cl  Cl17  1  0.000603  0.000000  0.500484  1
