# generated using pymatgen
data_HoHf(TaS2)8
_symmetry_space_group_name_H-M   'P 1'
_cell_length_a   6.67256100
_cell_length_b   6.67256009
_cell_length_c   13.37245400
_cell_angle_alpha   90.00000000
_cell_angle_beta   90.00000000
_cell_angle_gamma   120.00000945
_symmetry_Int_Tables_number   1
_chemical_formula_structural   HoHf(TaS2)8
_chemical_formula_sum   'Ho1 Hf1 Ta8 S16'
_cell_volume   515.61643235
_cell_formula_units_Z   1
loop_
 _symmetry_equiv_pos_site_id
 _symmetry_equiv_pos_as_xyz
  1  'x, y, z'
loop_
 _atom_site_type_symbol
 _atom_site_label
 _atom_site_symmetry_multiplicity
 _atom_site_fract_x
 _atom_site_fract_y
 _atom_site_fract_z
 _atom_site_occupancy
  Ho  Ho0  1  0.000000  0.000000  0.000000  1
  Hf  Hf1  1  0.000000  0.000000  0.500000  1
  Ta  Ta2  1  0.505146  0.494854  0.741640  1
  Ta  Ta3  1  0.010291  0.505146  0.258360  1
  Ta  Ta4  1  0.494854  0.989709  0.258360  1
  Ta  Ta5  1  0.505146  0.010291  0.741640  1
  Ta  Ta6  1  0.989709  0.494854  0.741640  1
  Ta  Ta7  1  0.494854  0.505146  0.258360  1
  Ta  Ta8  1  0.000000  0.000000  0.742245  1
  Ta  Ta9  1  0.000000  0.000000  0.257755  1
  S  S10  1  0.832068  0.167932  0.376642  1
  S  S11  1  0.832068  0.664136  0.376642  1
  S  S12  1  0.335864  0.167932  0.376642  1
  S  S13  1  0.662179  0.831089  0.859405  1
  S  S14  1  0.167932  0.335864  0.623358  1
  S  S15  1  0.168911  0.831089  0.859405  1
  S  S16  1  0.168911  0.337821  0.859405  1
  S  S17  1  0.831089  0.168911  0.140595  1
  S  S18  1  0.337821  0.168911  0.140595  1
  S  S19  1  0.664136  0.832068  0.623358  1
  S  S20  1  0.333333  0.666667  0.137746  1
  S  S21  1  0.666667  0.333333  0.621982  1
  S  S22  1  0.666667  0.333333  0.862254  1
  S  S23  1  0.333333  0.666667  0.378018  1
  S  S24  1  0.831089  0.662179  0.140595  1
  S  S25  1  0.167932  0.832068  0.623358  1
