# generated using pymatgen
data_K3ErV2O8
_symmetry_space_group_name_H-M   'P 1'
_cell_length_a   5.98957600
_cell_length_b   5.98957602
_cell_length_c   7.72234500
_cell_angle_alpha   90.00000000
_cell_angle_beta   90.00000000
_cell_angle_gamma   119.99999988
_symmetry_Int_Tables_number   1
_chemical_formula_structural   K3ErV2O8
_chemical_formula_sum   'K3 Er1 V2 O8'
_cell_volume   239.92306109
_cell_formula_units_Z   1
loop_
 _symmetry_equiv_pos_site_id
 _symmetry_equiv_pos_as_xyz
  1  'x, y, z'
loop_
 _atom_site_type_symbol
 _atom_site_label
 _atom_site_symmetry_multiplicity
 _atom_site_fract_x
 _atom_site_fract_y
 _atom_site_fract_z
 _atom_site_occupancy
  K  K0  1  0.333333  0.666667  0.697053  1
  K  K1  1  0.666667  0.333333  0.302947  1
  K  K2  1  0.000000  0.000000  0.000000  1
  Er  Er3  1  0.000000  0.000000  0.500000  1
  V  V4  1  0.333333  0.666667  0.248873  1
  V  V5  1  0.666667  0.333333  0.751127  1
  O  O6  1  0.333333  0.666667  0.031046  1
  O  O7  1  0.666667  0.333333  0.968954  1
  O  O8  1  0.173401  0.826599  0.327409  1
  O  O9  1  0.826599  0.173401  0.672591  1
  O  O10  1  0.173401  0.346802  0.327409  1
  O  O11  1  0.826599  0.653198  0.672591  1
  O  O12  1  0.653198  0.826599  0.327409  1
  O  O13  1  0.346802  0.173401  0.672591  1
