# generated using pymatgen
data_YAgGePt3
_symmetry_space_group_name_H-M   'P 1'
_cell_length_a   5.18033597
_cell_length_b   5.18033690
_cell_length_c   5.18033700
_cell_angle_alpha   64.06636072
_cell_angle_beta   64.06635571
_cell_angle_gamma   64.06635285
_symmetry_Int_Tables_number   1
_chemical_formula_structural   YAgGePt3
_chemical_formula_sum   'Y1 Ag1 Ge1 Pt3'
_cell_volume   107.09988422
_cell_formula_units_Z   1
loop_
 _symmetry_equiv_pos_site_id
 _symmetry_equiv_pos_as_xyz
  1  'x, y, z'
loop_
 _atom_site_type_symbol
 _atom_site_label
 _atom_site_symmetry_multiplicity
 _atom_site_fract_x
 _atom_site_fract_y
 _atom_site_fract_z
 _atom_site_occupancy
  Y  Y0  1  0.003833  0.003833  0.003833  1
  Ag  Ag1  1  0.252089  0.252089  0.252089  1
  Ge  Ge2  1  0.622618  0.622618  0.622618  1
  Pt  Pt3  1  0.623047  0.623047  0.125364  1
  Pt  Pt4  1  0.623047  0.125364  0.623047  1
  Pt  Pt5  1  0.125364  0.623047  0.623047  1
