# generated using pymatgen
data_Y2Ho4ReB14Os
_symmetry_space_group_name_H-M   'P 1'
_cell_length_a   8.04741636
_cell_length_b   8.04741711
_cell_length_c   9.33311900
_cell_angle_alpha   90.00000000
_cell_angle_beta   90.00000000
_cell_angle_gamma   154.66707232
_symmetry_Int_Tables_number   1
_chemical_formula_structural   Y2Ho4ReB14Os
_chemical_formula_sum   'Y2 Ho4 Re1 B14 Os1'
_cell_volume   258.61820932
_cell_formula_units_Z   1
loop_
 _symmetry_equiv_pos_site_id
 _symmetry_equiv_pos_as_xyz
  1  'x, y, z'
loop_
 _atom_site_type_symbol
 _atom_site_label
 _atom_site_symmetry_multiplicity
 _atom_site_fract_x
 _atom_site_fract_y
 _atom_site_fract_z
 _atom_site_occupancy
  Y  Y0  1  0.244368  0.755632  0.250000  1
  Y  Y1  1  0.756085  0.243915  0.750000  1
  Ho  Ho2  1  0.894401  0.105599  0.059322  1
  Ho  Ho3  1  0.105693  0.894307  0.560361  1
  Ho  Ho4  1  0.105693  0.894307  0.939639  1
  Ho  Ho5  1  0.894401  0.105599  0.440678  1
  Re  Re6  1  0.947547  0.052452  0.750000  1
  B  B7  1  0.456199  0.543801  0.250000  1
  B  B8  1  0.544283  0.455717  0.750000  1
  B  B9  1  0.726899  0.273101  0.034628  1
  B  B10  1  0.272452  0.727548  0.533367  1
  B  B11  1  0.272452  0.727548  0.966633  1
  B  B12  1  0.726899  0.273101  0.465372  1
  B  B13  1  0.631509  0.368491  0.349150  1
  B  B14  1  0.367969  0.632031  0.849349  1
  B  B15  1  0.367969  0.632031  0.650651  1
  B  B16  1  0.631509  0.368491  0.150850  1
  B  B17  1  0.520517  0.479483  0.403911  1
  B  B18  1  0.479503  0.520497  0.904751  1
  B  B19  1  0.479503  0.520497  0.595249  1
  B  B20  1  0.520517  0.479483  0.096089  1
  Os  Os21  1  0.053633  0.946367  0.250000  1
