# generated using pymatgen
data_Tb3Nd6Ho7(CdPt)4
_symmetry_space_group_name_H-M   'P 1'
_cell_length_a   9.79719511
_cell_length_b   9.78657690
_cell_length_c   9.78657600
_cell_angle_alpha   60.00000305
_cell_angle_beta   60.03584841
_cell_angle_gamma   60.03585198
_symmetry_Int_Tables_number   1
_chemical_formula_structural   Tb3Nd6Ho7(CdPt)4
_chemical_formula_sum   'Tb3 Nd6 Ho7 Cd4 Pt4'
_cell_volume   663.87066182
_cell_formula_units_Z   1
loop_
 _symmetry_equiv_pos_site_id
 _symmetry_equiv_pos_as_xyz
  1  'x, y, z'
loop_
 _atom_site_type_symbol
 _atom_site_label
 _atom_site_symmetry_multiplicity
 _atom_site_fract_x
 _atom_site_fract_y
 _atom_site_fract_z
 _atom_site_occupancy
  Tb  Tb0  1  0.350883  0.351067  0.351067  1
  Tb  Tb1  1  0.350883  0.351067  0.946981  1
  Tb  Tb2  1  0.350883  0.946981  0.351067  1
  Nd  Nd3  1  0.937408  0.562511  0.562511  1
  Nd  Nd4  1  0.562361  0.937621  0.937621  1
  Nd  Nd5  1  0.562361  0.937621  0.562398  1
  Nd  Nd6  1  0.937408  0.562511  0.937570  1
  Nd  Nd7  1  0.562361  0.562398  0.937621  1
  Nd  Nd8  1  0.937408  0.937570  0.562511  1
  Ho  Ho9  1  0.948329  0.350557  0.350557  1
  Ho  Ho10  1  0.812764  0.187352  0.187352  1
  Ho  Ho11  1  0.187120  0.812932  0.812932  1
  Ho  Ho12  1  0.187120  0.812932  0.187016  1
  Ho  Ho13  1  0.812764  0.187352  0.812532  1
  Ho  Ho14  1  0.187120  0.187016  0.812932  1
  Ho  Ho15  1  0.812764  0.812532  0.187352  1
  Cd  Cd16  1  0.580454  0.579715  0.579715  1
  Cd  Cd17  1  0.580454  0.579715  0.260117  1
  Cd  Cd18  1  0.580454  0.260117  0.579715  1
  Cd  Cd19  1  0.260484  0.579839  0.579839  1
  Pt  Pt20  1  0.141318  0.142713  0.142713  1
  Pt  Pt21  1  0.141318  0.142713  0.573258  1
  Pt  Pt22  1  0.141318  0.573258  0.142713  1
  Pt  Pt23  1  0.574265  0.141912  0.141912  1
