# generated using pymatgen
data_Yb4Sb6O13
_symmetry_space_group_name_H-M   'P 1'
_cell_length_a   7.15543600
_cell_length_b   5.81537456
_cell_length_c   9.10820626
_cell_angle_alpha   71.46773158
_cell_angle_beta   90.00000000
_cell_angle_gamma   90.00000000
_symmetry_Int_Tables_number   1
_chemical_formula_structural   Yb4Sb6O13
_chemical_formula_sum   'Yb4 Sb6 O13'
_cell_volume   359.35303668
_cell_formula_units_Z   1
loop_
 _symmetry_equiv_pos_site_id
 _symmetry_equiv_pos_as_xyz
  1  'x, y, z'
loop_
 _atom_site_type_symbol
 _atom_site_label
 _atom_site_symmetry_multiplicity
 _atom_site_fract_x
 _atom_site_fract_y
 _atom_site_fract_z
 _atom_site_occupancy
  Yb  Yb0  1  0.747201  0.653175  0.571149  1
  Yb  Yb1  1  0.252911  0.223054  0.430525  1
  Yb  Yb2  1  0.252799  0.653175  0.571149  1
  Yb  Yb3  1  0.747089  0.223054  0.430525  1
  Sb  Sb4  1  0.000000  0.903130  0.223527  1
  Sb  Sb5  1  0.000000  0.126867  0.778288  1
  Sb  Sb6  1  0.500000  0.088671  0.771729  1
  Sb  Sb7  1  0.500000  0.858087  0.229956  1
  Sb  Sb8  1  0.772907  0.500675  0.001707  1
  Sb  Sb9  1  0.227093  0.500675  0.001707  1
  O  O10  1  0.500000  0.374850  0.578527  1
  O  O11  1  0.500000  0.951981  0.423259  1
  O  O12  1  0.000000  0.918761  0.438110  1
  O  O13  1  0.000000  0.356530  0.563924  1
  O  O14  1  0.726354  0.952745  0.687929  1
  O  O15  1  0.273744  0.638819  0.313831  1
  O  O16  1  0.273646  0.952745  0.687929  1
  O  O17  1  0.726256  0.638819  0.313831  1
  O  O18  1  0.793523  0.370381  0.823386  1
  O  O19  1  0.205127  0.191651  0.178698  1
  O  O20  1  0.206477  0.370381  0.823386  1
  O  O21  1  0.794873  0.191651  0.178698  1
  O  O22  1  0.500000  0.510317  0.006229  1
