# generated using pymatgen
data_TmU3PaGa15
_symmetry_space_group_name_H-M   'P 1'
_cell_length_a   12.48662601
_cell_length_b   12.48662551
_cell_length_c   12.48662400
_cell_angle_alpha   28.34239255
_cell_angle_beta   28.34238719
_cell_angle_gamma   28.34239071
_symmetry_Int_Tables_number   1
_chemical_formula_structural   TmU3PaGa15
_chemical_formula_sum   'Tm1 U3 Pa1 Ga15'
_cell_volume   387.73351595
_cell_formula_units_Z   1
loop_
 _symmetry_equiv_pos_site_id
 _symmetry_equiv_pos_as_xyz
  1  'x, y, z'
loop_
 _atom_site_type_symbol
 _atom_site_label
 _atom_site_symmetry_multiplicity
 _atom_site_fract_x
 _atom_site_fract_y
 _atom_site_fract_z
 _atom_site_occupancy
  Tm  Tm0  1  0.599978  0.599978  0.599978  1
  U  U1  1  0.131171  0.131171  0.131171  1
  U  U2  1  0.869674  0.869674  0.869674  1
  U  U3  1  0.400057  0.400057  0.400057  1
  Pa  Pa4  1  0.999063  0.999063  0.999063  1
  Ga  Ga5  1  0.428432  0.885024  0.885024  1
  Ga  Ga6  1  0.885024  0.885024  0.428432  1
  Ga  Ga7  1  0.885024  0.428432  0.885024  1
  Ga  Ga8  1  0.115108  0.569755  0.115108  1
  Ga  Ga9  1  0.115108  0.115108  0.569755  1
  Ga  Ga10  1  0.569755  0.115108  0.115108  1
  Ga  Ga11  1  0.130229  0.636120  0.636120  1
  Ga  Ga12  1  0.636120  0.636120  0.130229  1
  Ga  Ga13  1  0.636120  0.130229  0.636120  1
  Ga  Ga14  1  0.363737  0.873469  0.363737  1
  Ga  Ga15  1  0.363737  0.363737  0.873469  1
  Ga  Ga16  1  0.873469  0.363737  0.363737  1
  Ga  Ga17  1  0.498576  0.498576  0.001043  1
  Ga  Ga18  1  0.498576  0.001043  0.498576  1
  Ga  Ga19  1  0.001043  0.498576  0.498576  1
