# generated using pymatgen
data_K2CrFeS4
_symmetry_space_group_name_H-M   'P 1'
_cell_length_a   6.84247221
_cell_length_b   6.84247170
_cell_length_c   5.30014931
_cell_angle_alpha   78.85674478
_cell_angle_beta   78.85674507
_cell_angle_gamma   117.07135004
_symmetry_Int_Tables_number   1
_chemical_formula_structural   K2CrFeS4
_chemical_formula_sum   'K2 Cr1 Fe1 S4'
_cell_volume   205.25868017
_cell_formula_units_Z   1
loop_
 _symmetry_equiv_pos_site_id
 _symmetry_equiv_pos_as_xyz
  1  'x, y, z'
loop_
 _atom_site_type_symbol
 _atom_site_label
 _atom_site_symmetry_multiplicity
 _atom_site_fract_x
 _atom_site_fract_y
 _atom_site_fract_z
 _atom_site_occupancy
  K  K0  1  0.144844  0.855156  0.000000  1
  K  K1  1  0.855281  0.144719  0.500000  1
  Cr  Cr2  1  0.501671  0.498329  0.000000  1
  Fe  Fe3  1  0.498158  0.501842  0.500000  1
  S  S4  1  0.203809  0.414355  0.857554  1
  S  S5  1  0.585645  0.796191  0.142446  1
  S  S6  1  0.795579  0.584986  0.658475  1
  S  S7  1  0.415014  0.204421  0.341525  1
