# generated using pymatgen
data_Ac2CdB10O19
_symmetry_space_group_name_H-M   'P 1'
_cell_length_a   6.50128596
_cell_length_b   6.50128667
_cell_length_c   9.16895100
_cell_angle_alpha   88.63978981
_cell_angle_beta   91.36021034
_cell_angle_gamma   118.62008432
_symmetry_Int_Tables_number   1
_chemical_formula_structural   Ac2CdB10O19
_chemical_formula_sum   'Ac2 Cd1 B10 O19'
_cell_volume   340.06017113
_cell_formula_units_Z   1
loop_
 _symmetry_equiv_pos_site_id
 _symmetry_equiv_pos_as_xyz
  1  'x, y, z'
loop_
 _atom_site_type_symbol
 _atom_site_label
 _atom_site_symmetry_multiplicity
 _atom_site_fract_x
 _atom_site_fract_y
 _atom_site_fract_z
 _atom_site_occupancy
  Ac  Ac0  1  0.166939  0.840261  0.137292  1
  Ac  Ac1  1  0.840262  0.166938  0.862708  1
  Cd  Cd2  1  0.814163  0.814163  0.500000  1
  B  B3  1  0.285319  0.363757  0.166738  1
  B  B4  1  0.363757  0.285319  0.833262  1
  B  B5  1  0.837010  0.182760  0.212175  1
  B  B6  1  0.182760  0.837010  0.787826  1
  B  B7  1  0.674274  0.444927  0.272687  1
  B  B8  1  0.444927  0.674274  0.727313  1
  B  B9  1  0.255681  0.784593  0.525812  1
  B  B10  1  0.784593  0.255681  0.474188  1
  B  B11  1  0.626951  0.756287  0.127636  1
  B  B12  1  0.756288  0.626950  0.872364  1
  O  O13  1  0.141403  0.846798  0.631143  1
  O  O14  1  0.846798  0.141403  0.368858  1
  O  O15  1  0.370474  0.586755  0.112818  1
  O  O16  1  0.586754  0.370475  0.887183  1
  O  O17  1  0.410413  0.704674  0.571552  1
  O  O18  1  0.704674  0.410413  0.428449  1
  O  O19  1  0.200892  0.800598  0.386700  1
  O  O20  1  0.800599  0.200891  0.613300  1
  O  O21  1  0.727469  0.691852  0.254724  1
  O  O22  1  0.691851  0.727470  0.745276  1
  O  O23  1  0.424721  0.282940  0.229003  1
  O  O24  1  0.282940  0.424721  0.770997  1
  O  O25  1  0.833270  0.401343  0.182085  1
  O  O26  1  0.401343  0.833271  0.817914  1
  O  O27  1  0.053290  0.198305  0.140483  1
  O  O28  1  0.198304  0.053290  0.859517  1
  O  O29  1  0.637006  0.986109  0.138850  1
  O  O30  1  0.986110  0.637005  0.861149  1
  O  O31  1  0.763667  0.763667  0.000000  1
