# generated using pymatgen
data_Y8In3Fe
_symmetry_space_group_name_H-M   'P 1'
_cell_length_a   10.39594600
_cell_length_b   10.39594202
_cell_length_c   7.07074100
_cell_angle_alpha   90.00000000
_cell_angle_beta   90.00000000
_cell_angle_gamma   120.00004279
_symmetry_Int_Tables_number   1
_chemical_formula_structural   Y8In3Fe
_chemical_formula_sum   'Y16 In6 Fe2'
_cell_volume   661.79462770
_cell_formula_units_Z   2
loop_
 _symmetry_equiv_pos_site_id
 _symmetry_equiv_pos_as_xyz
  1  'x, y, z'
loop_
 _atom_site_type_symbol
 _atom_site_label
 _atom_site_symmetry_multiplicity
 _atom_site_fract_x
 _atom_site_fract_y
 _atom_site_fract_z
 _atom_site_occupancy
  Y  Y0  1  0.464251  0.535749  0.481988  1
  Y  Y1  1  0.071497  0.535749  0.481988  1
  Y  Y2  1  0.464252  0.928503  0.481988  1
  Y  Y3  1  0.535749  0.464251  0.981988  1
  Y  Y4  1  0.928503  0.464251  0.981988  1
  Y  Y5  1  0.535748  0.071497  0.981988  1
  Y  Y6  1  0.822310  0.177690  0.275853  1
  Y  Y7  1  0.355381  0.177690  0.275853  1
  Y  Y8  1  0.822310  0.644620  0.275853  1
  Y  Y9  1  0.177690  0.822310  0.775853  1
  Y  Y10  1  0.644619  0.822310  0.775853  1
  Y  Y11  1  0.177690  0.355380  0.775853  1
  Y  Y12  1  0.333333  0.666667  0.091849  1
  Y  Y13  1  0.666667  0.333333  0.591849  1
  Y  Y14  1  0.000000  0.000000  0.496806  1
  Y  Y15  1  0.000000  0.000000  0.996806  1
  In  In16  1  0.163392  0.836608  0.234113  1
  In  In17  1  0.673215  0.836608  0.234113  1
  In  In18  1  0.163393  0.326785  0.234113  1
  In  In19  1  0.836608  0.163392  0.734113  1
  In  In20  1  0.326785  0.163392  0.734113  1
  In  In21  1  0.836607  0.673215  0.734113  1
  Fe  Fe22  1  0.333333  0.666665  0.707760  1
  Fe  Fe23  1  0.666667  0.333335  0.207760  1
