# generated using pymatgen
data_Cs5Tc3SeS6
_symmetry_space_group_name_H-M   'P 1'
_cell_length_a   11.15915086
_cell_length_b   11.15088019
_cell_length_c   11.30627610
_cell_angle_alpha   59.57612807
_cell_angle_beta   60.69221038
_cell_angle_gamma   60.17187060
_symmetry_Int_Tables_number   1
_chemical_formula_structural   Cs5Tc3SeS6
_chemical_formula_sum   'Cs10 Tc6 Se2 S12'
_cell_volume   997.93875895
_cell_formula_units_Z   2
loop_
 _symmetry_equiv_pos_site_id
 _symmetry_equiv_pos_as_xyz
  1  'x, y, z'
loop_
 _atom_site_type_symbol
 _atom_site_label
 _atom_site_symmetry_multiplicity
 _atom_site_fract_x
 _atom_site_fract_y
 _atom_site_fract_z
 _atom_site_occupancy
  Cs  Cs0  1  0.003449  0.008982  0.995676  1
  Cs  Cs1  1  0.421249  0.979889  0.016759  1
  Cs  Cs2  1  0.423133  0.000365  0.570536  1
  Cs  Cs3  1  0.838416  0.857455  0.862042  1
  Cs  Cs4  1  0.842510  0.838507  0.430304  1
  Cs  Cs5  1  0.990245  0.413728  0.577352  1
  Cs  Cs6  1  0.035772  0.030813  0.447989  1
  Cs  Cs7  1  0.979938  0.425936  0.013333  1
  Cs  Cs8  1  0.196573  0.569879  0.123674  1
  Cs  Cs9  1  0.575342  0.201985  0.106813  1
  Tc  Tc10  1  0.384952  0.616619  0.612162  1
  Tc  Tc11  1  0.383502  0.379170  0.617361  1
  Tc  Tc12  1  0.378857  0.617199  0.382256  1
  Tc  Tc13  1  0.620923  0.378150  0.616462  1
  Tc  Tc14  1  0.618637  0.617631  0.378385  1
  Tc  Tc15  1  0.616914  0.376931  0.385061  1
  Se  Se16  1  0.217051  0.216876  0.785934  1
  Se  Se17  1  0.207233  0.784685  0.768809  1
  S  S18  1  0.396719  0.390191  0.818797  1
  S  S19  1  0.178185  0.604756  0.605874  1
  S  S20  1  0.611076  0.607745  0.602595  1
  S  S21  1  0.204156  0.780361  0.243934  1
  S  S22  1  0.388820  0.388412  0.395122  1
  S  S23  1  0.396555  0.824343  0.386376  1
  S  S24  1  0.607316  0.170314  0.611647  1
  S  S25  1  0.778810  0.211754  0.770282  1
  S  S26  1  0.823145  0.393391  0.391028  1
  S  S27  1  0.602561  0.604772  0.178391  1
  S  S28  1  0.776321  0.777722  0.213568  1
  S  S29  1  0.776440  0.206240  0.246282  1
