# generated using pymatgen
data_Tb2Y(AgGe)3
_symmetry_space_group_name_H-M   'P 1'
_cell_length_a   7.22632300
_cell_length_b   7.22632286
_cell_length_c   4.19694700
_cell_angle_alpha   90.00000000
_cell_angle_beta   90.00000000
_cell_angle_gamma   119.99998690
_symmetry_Int_Tables_number   1
_chemical_formula_structural   Tb2Y(AgGe)3
_chemical_formula_sum   'Tb2 Y1 Ag3 Ge3'
_cell_volume   189.80117856
_cell_formula_units_Z   1
loop_
 _symmetry_equiv_pos_site_id
 _symmetry_equiv_pos_as_xyz
  1  'x, y, z'
loop_
 _atom_site_type_symbol
 _atom_site_label
 _atom_site_symmetry_multiplicity
 _atom_site_fract_x
 _atom_site_fract_y
 _atom_site_fract_z
 _atom_site_occupancy
  Tb  Tb0  1  0.586123  0.000000  0.000000  1
  Tb  Tb1  1  0.000000  0.586123  0.000000  1
  Y  Y2  1  0.413877  0.413877  0.000000  1
  Ag  Ag3  1  0.252705  0.000000  0.500000  1
  Ag  Ag4  1  0.000000  0.252705  0.500000  1
  Ag  Ag5  1  0.747295  0.747295  0.500000  1
  Ge  Ge6  1  0.333333  0.666667  0.500000  1
  Ge  Ge7  1  0.666667  0.333333  0.500000  1
  Ge  Ge8  1  0.000000  0.000000  0.000000  1
