# generated using pymatgen
data_Y2Zr3Pb4
_symmetry_space_group_name_H-M   'P 1'
_cell_length_a   7.91842100
_cell_length_b   7.90909600
_cell_length_c   14.81815400
_cell_angle_alpha   90.00000000
_cell_angle_beta   90.00000000
_cell_angle_gamma   90.00000000
_symmetry_Int_Tables_number   1
_chemical_formula_structural   Y2Zr3Pb4
_chemical_formula_sum   'Y8 Zr12 Pb16'
_cell_volume   928.02470807
_cell_formula_units_Z   4
loop_
 _symmetry_equiv_pos_site_id
 _symmetry_equiv_pos_as_xyz
  1  'x, y, z'
loop_
 _atom_site_type_symbol
 _atom_site_label
 _atom_site_symmetry_multiplicity
 _atom_site_fract_x
 _atom_site_fract_y
 _atom_site_fract_z
 _atom_site_occupancy
  Y  Y0  1  0.014896  0.177596  0.091696  1
  Y  Y1  1  0.514896  0.322404  0.408304  1
  Y  Y2  1  0.485104  0.677596  0.908304  1
  Y  Y3  1  0.985104  0.822404  0.591696  1
  Y  Y4  1  0.985104  0.822404  0.908304  1
  Y  Y5  1  0.485104  0.677596  0.591696  1
  Y  Y6  1  0.514896  0.322404  0.091696  1
  Y  Y7  1  0.014896  0.177596  0.408304  1
  Zr  Zr8  1  0.847914  0.657844  0.128839  1
  Zr  Zr9  1  0.347914  0.842156  0.371161  1
  Zr  Zr10  1  0.652086  0.157844  0.871161  1
  Zr  Zr11  1  0.152086  0.342156  0.628839  1
  Zr  Zr12  1  0.152086  0.342156  0.871161  1
  Zr  Zr13  1  0.652086  0.157844  0.628839  1
  Zr  Zr14  1  0.347914  0.842156  0.128839  1
  Zr  Zr15  1  0.847914  0.657844  0.371161  1
  Zr  Zr16  1  0.668628  0.988374  0.250000  1
  Zr  Zr17  1  0.168628  0.511626  0.250000  1
  Zr  Zr18  1  0.831372  0.488374  0.750000  1
  Zr  Zr19  1  0.331372  0.011626  0.750000  1
  Pb  Pb20  1  0.040144  0.882611  0.250000  1
  Pb  Pb21  1  0.540144  0.617389  0.250000  1
  Pb  Pb22  1  0.459856  0.382611  0.750000  1
  Pb  Pb23  1  0.959856  0.117389  0.750000  1
  Pb  Pb24  1  0.820520  0.338073  0.250000  1
  Pb  Pb25  1  0.320520  0.161927  0.250000  1
  Pb  Pb26  1  0.679480  0.838073  0.750000  1
  Pb  Pb27  1  0.179480  0.661927  0.750000  1
  Pb  Pb28  1  0.807283  0.458351  0.956808  1
  Pb  Pb29  1  0.307283  0.041649  0.543192  1
  Pb  Pb30  1  0.692717  0.958351  0.043192  1
  Pb  Pb31  1  0.192717  0.541649  0.456808  1
  Pb  Pb32  1  0.192717  0.541649  0.043192  1
  Pb  Pb33  1  0.692717  0.958351  0.456808  1
  Pb  Pb34  1  0.307283  0.041649  0.956808  1
  Pb  Pb35  1  0.807283  0.458351  0.543192  1
