# generated using pymatgen
data_K4Al5Ge3Au20
_symmetry_space_group_name_H-M   'P 1'
_cell_length_a   7.23000000
_cell_length_b   9.26736079
_cell_length_c   10.05606619
_cell_angle_alpha   90.93418747
_cell_angle_beta   90.00000000
_cell_angle_gamma   90.00000000
_symmetry_Int_Tables_number   1
_chemical_formula_structural   K4Al5Ge3Au20
_chemical_formula_sum   'K4 Al5 Ge3 Au20'
_cell_volume   673.69723083
_cell_formula_units_Z   1
loop_
 _symmetry_equiv_pos_site_id
 _symmetry_equiv_pos_as_xyz
  1  'x, y, z'
loop_
 _atom_site_type_symbol
 _atom_site_label
 _atom_site_symmetry_multiplicity
 _atom_site_fract_x
 _atom_site_fract_y
 _atom_site_fract_z
 _atom_site_occupancy
  K  K0  1  0.250000  0.243429  0.116853  1
  K  K1  1  0.250000  0.748174  0.381375  1
  K  K2  1  0.750000  0.755858  0.881414  1
  K  K3  1  0.750000  0.256791  0.618505  1
  Al  Al4  1  0.250000  0.055319  0.614332  1
  Al  Al5  1  0.250000  0.558776  0.881617  1
  Al  Al6  1  0.750000  0.946626  0.383184  1
  Al  Al7  1  0.750000  0.440774  0.117530  1
  Al  Al8  1  0.250000  0.354077  0.479644  1
  Ge  Ge9  1  0.250000  0.845047  0.032142  1
  Ge  Ge10  1  0.750000  0.655246  0.537555  1
  Ge  Ge11  1  0.750000  0.152268  0.966909  1
  Au  Au12  1  0.052155  0.111573  0.398486  1
  Au  Au13  1  0.448925  0.601379  0.106111  1
  Au  Au14  1  0.552049  0.900506  0.601919  1
  Au  Au15  1  0.947777  0.402494  0.895775  1
  Au  Au16  1  0.947951  0.900506  0.601919  1
  Au  Au17  1  0.552223  0.402494  0.895775  1
  Au  Au18  1  0.447845  0.111573  0.398486  1
  Au  Au19  1  0.051075  0.601379  0.106111  1
  Au  Au20  1  0.041570  0.071152  0.849734  1
  Au  Au21  1  0.449651  0.559845  0.633366  1
  Au  Au22  1  0.542974  0.925101  0.152800  1
  Au  Au23  1  0.963696  0.427276  0.352180  1
  Au  Au24  1  0.957026  0.925101  0.152800  1
  Au  Au25  1  0.536304  0.427276  0.352180  1
  Au  Au26  1  0.458430  0.071152  0.849734  1
  Au  Au27  1  0.050349  0.559845  0.633366  1
  Au  Au28  1  0.250000  0.306354  0.729894  1
  Au  Au29  1  0.250000  0.809083  0.774233  1
  Au  Au30  1  0.750000  0.686481  0.282127  1
  Au  Au31  1  0.750000  0.187044  0.221942  1
