# generated using pymatgen
data_Tb10Pr6Cd4Ir3Pt
_symmetry_space_group_name_H-M   'P 1'
_cell_length_a   9.80516007
_cell_length_b   9.80515949
_cell_length_c   9.80516009
_cell_angle_alpha   60.12015061
_cell_angle_beta   60.12014963
_cell_angle_gamma   60.12014750
_symmetry_Int_Tables_number   1
_chemical_formula_structural   Tb10Pr6Cd4Ir3Pt
_chemical_formula_sum   'Tb10 Pr6 Cd4 Ir3 Pt1'
_cell_volume   668.38945626
_cell_formula_units_Z   1
loop_
 _symmetry_equiv_pos_site_id
 _symmetry_equiv_pos_as_xyz
  1  'x, y, z'
loop_
 _atom_site_type_symbol
 _atom_site_label
 _atom_site_symmetry_multiplicity
 _atom_site_fract_x
 _atom_site_fract_y
 _atom_site_fract_z
 _atom_site_occupancy
  Tb  Tb0  1  0.346979  0.346979  0.346979  1
  Tb  Tb1  1  0.350535  0.350535  0.954024  1
  Tb  Tb2  1  0.350535  0.954024  0.350535  1
  Tb  Tb3  1  0.954024  0.350535  0.350535  1
  Tb  Tb4  1  0.807749  0.188554  0.188554  1
  Tb  Tb5  1  0.185527  0.812152  0.812152  1
  Tb  Tb6  1  0.188554  0.807749  0.188554  1
  Tb  Tb7  1  0.812152  0.185527  0.812152  1
  Tb  Tb8  1  0.188554  0.188554  0.807749  1
  Tb  Tb9  1  0.812152  0.812152  0.185527  1
  Pr  Pr10  1  0.941373  0.559434  0.559434  1
  Pr  Pr11  1  0.559597  0.941128  0.941128  1
  Pr  Pr12  1  0.559434  0.941373  0.559434  1
  Pr  Pr13  1  0.941128  0.559597  0.941128  1
  Pr  Pr14  1  0.559434  0.559434  0.941373  1
  Pr  Pr15  1  0.941128  0.941128  0.559597  1
  Cd  Cd16  1  0.579249  0.579249  0.579249  1
  Cd  Cd17  1  0.579501  0.579501  0.261736  1
  Cd  Cd18  1  0.579501  0.261736  0.579501  1
  Cd  Cd19  1  0.261736  0.579501  0.579501  1
  Ir  Ir20  1  0.141897  0.141897  0.575141  1
  Ir  Ir21  1  0.141897  0.575141  0.141897  1
  Ir  Ir22  1  0.575141  0.141897  0.141897  1
  Pt  Pt23  1  0.142221  0.142221  0.142221  1
