# generated using pymatgen
data_CaTb5PrCoI12
_symmetry_space_group_name_H-M   'P 1'
_cell_length_a   9.85732128
_cell_length_b   9.86194036
_cell_length_c   9.76630410
_cell_angle_alpha   107.10166303
_cell_angle_beta   106.58944530
_cell_angle_gamma   106.66776167
_symmetry_Int_Tables_number   1
_chemical_formula_structural   CaTb5PrCoI12
_chemical_formula_sum   'Ca1 Tb5 Pr1 Co1 I12'
_cell_volume   795.22368539
_cell_formula_units_Z   1
loop_
 _symmetry_equiv_pos_site_id
 _symmetry_equiv_pos_as_xyz
  1  'x, y, z'
loop_
 _atom_site_type_symbol
 _atom_site_label
 _atom_site_symmetry_multiplicity
 _atom_site_fract_x
 _atom_site_fract_y
 _atom_site_fract_z
 _atom_site_occupancy
  Ca  Ca0  1  0.500023  0.499906  0.499726  1
  Tb  Tb1  1  0.096253  0.295843  0.023684  1
  Tb  Tb2  1  0.295881  0.023762  0.094572  1
  Tb  Tb3  1  0.976767  0.907587  0.717917  1
  Tb  Tb4  1  0.903755  0.703553  0.975122  1
  Tb  Tb5  1  0.703497  0.975197  0.901876  1
  Pr  Pr6  1  0.023037  0.094357  0.290199  1
  Co  Co7  1  0.999386  0.999826  0.999932  1
  I  I8  1  0.155253  0.465035  0.378758  1
  I  I9  1  0.454639  0.376501  0.148651  1
  I  I10  1  0.385748  0.152481  0.458073  1
  I  I11  1  0.849828  0.545526  0.621647  1
  I  I12  1  0.545118  0.623565  0.850899  1
  I  I13  1  0.624110  0.848894  0.543301  1
  I  I14  1  0.670877  0.070827  0.219402  1
  I  I15  1  0.072111  0.221914  0.683056  1
  I  I16  1  0.222274  0.679906  0.071719  1
  I  I17  1  0.318580  0.926998  0.774419  1
  I  I18  1  0.925332  0.768385  0.319120  1
  I  I19  1  0.777532  0.319938  0.927926  1
