# generated using pymatgen
data_DyTm15In4OsRh3
_symmetry_space_group_name_H-M   'P 1'
_cell_length_a   9.52444522
_cell_length_b   9.52444577
_cell_length_c   9.55084593
_cell_angle_alpha   60.14331850
_cell_angle_beta   60.14331586
_cell_angle_gamma   60.02914223
_symmetry_Int_Tables_number   1
_chemical_formula_structural   DyTm15In4OsRh3
_chemical_formula_sum   'Dy1 Tm15 In4 Os1 Rh3'
_cell_volume   614.10072560
_cell_formula_units_Z   1
loop_
 _symmetry_equiv_pos_site_id
 _symmetry_equiv_pos_as_xyz
  1  'x, y, z'
loop_
 _atom_site_type_symbol
 _atom_site_label
 _atom_site_symmetry_multiplicity
 _atom_site_fract_x
 _atom_site_fract_y
 _atom_site_fract_z
 _atom_site_occupancy
  Dy  Dy0  1  0.058535  0.058535  0.437556  1
  Tm  Tm1  1  0.447014  0.058616  0.436353  1
  Tm  Tm2  1  0.061998  0.439459  0.059787  1
  Tm  Tm3  1  0.047302  0.649176  0.650283  1
  Tm  Tm4  1  0.437768  0.437768  0.061298  1
  Tm  Tm5  1  0.649176  0.047302  0.650283  1
  Tm  Tm6  1  0.189796  0.809201  0.192997  1
  Tm  Tm7  1  0.191548  0.191548  0.809631  1
  Tm  Tm8  1  0.808687  0.808687  0.193644  1
  Tm  Tm9  1  0.439459  0.061998  0.059787  1
  Tm  Tm10  1  0.809201  0.189796  0.192997  1
  Tm  Tm11  1  0.058616  0.447014  0.436353  1
  Tm  Tm12  1  0.808310  0.192486  0.809724  1
  Tm  Tm13  1  0.192486  0.808310  0.809724  1
  Tm  Tm14  1  0.649773  0.649773  0.047521  1
  Tm  Tm15  1  0.651560  0.651560  0.651148  1
  In  In16  1  0.416482  0.416482  0.416037  1
  In  In17  1  0.749335  0.418236  0.415213  1
  In  In18  1  0.418236  0.749335  0.415213  1
  In  In19  1  0.417282  0.417282  0.748221  1
  Os  Os20  1  0.857455  0.857455  0.425320  1
  Rh  Rh21  1  0.858845  0.858845  0.861470  1
  Rh  Rh22  1  0.422156  0.858984  0.859722  1
  Rh  Rh23  1  0.858984  0.422156  0.859722  1
