# generated using pymatgen
data_Ca12UGa7Ir8
_symmetry_space_group_name_H-M   'P 1'
_cell_length_a   5.86781000
_cell_length_b   7.95850471
_cell_length_c   13.82980378
_cell_angle_alpha   89.88792570
_cell_angle_beta   90.00000000
_cell_angle_gamma   90.00000000
_symmetry_Int_Tables_number   1
_chemical_formula_structural   Ca12UGa7Ir8
_chemical_formula_sum   'Ca12 U1 Ga7 Ir8'
_cell_volume   645.83668177
_cell_formula_units_Z   1
loop_
 _symmetry_equiv_pos_site_id
 _symmetry_equiv_pos_as_xyz
  1  'x, y, z'
loop_
 _atom_site_type_symbol
 _atom_site_label
 _atom_site_symmetry_multiplicity
 _atom_site_fract_x
 _atom_site_fract_y
 _atom_site_fract_z
 _atom_site_occupancy
  Ca  Ca0  1  0.134306  0.616421  0.101375  1
  Ca  Ca1  1  0.134306  0.883579  0.898625  1
  Ca  Ca2  1  0.856380  0.104273  0.405779  1
  Ca  Ca3  1  0.856380  0.395727  0.594221  1
  Ca  Ca4  1  0.864807  0.401938  0.896034  1
  Ca  Ca5  1  0.864807  0.098062  0.103966  1
  Ca  Ca6  1  0.142173  0.893878  0.596469  1
  Ca  Ca7  1  0.142173  0.606122  0.403531  1
  Ca  Ca8  1  0.374868  0.258759  0.259779  1
  Ca  Ca9  1  0.374868  0.241241  0.740221  1
  Ca  Ca10  1  0.627005  0.756373  0.257531  1
  Ca  Ca11  1  0.627005  0.743627  0.742469  1
  U  U12  1  0.387216  0.250000  0.000000  1
  Ga  Ga13  1  0.596249  0.750000  0.500000  1
  Ga  Ga14  1  0.615977  0.750000  0.000000  1
  Ga  Ga15  1  0.399209  0.250000  0.500000  1
  Ga  Ga16  1  0.843781  0.407770  0.249544  1
  Ga  Ga17  1  0.843781  0.092230  0.750456  1
  Ga  Ga18  1  0.155404  0.915126  0.253558  1
  Ga  Ga19  1  0.155404  0.584874  0.746442  1
  Ir  Ir20  1  0.631246  0.467583  0.092059  1
  Ir  Ir21  1  0.631246  0.032417  0.907941  1
  Ir  Ir22  1  0.361397  0.974217  0.408496  1
  Ir  Ir23  1  0.361397  0.525783  0.591504  1
  Ir  Ir24  1  0.367483  0.522000  0.908202  1
  Ir  Ir25  1  0.367483  0.978000  0.091798  1
  Ir  Ir26  1  0.641825  0.027185  0.593367  1
  Ir  Ir27  1  0.641825  0.472815  0.406633  1
