# generated using pymatgen
data_Rb2HfAs2
_symmetry_space_group_name_H-M   'P 1'
_cell_length_a   8.74147441
_cell_length_b   8.74147524
_cell_length_c   8.74147501
_cell_angle_alpha   133.80825734
_cell_angle_beta   127.45004935
_cell_angle_gamma   72.52337368
_symmetry_Int_Tables_number   1
_chemical_formula_structural   Rb2HfAs2
_chemical_formula_sum   'Rb4 Hf2 As4'
_cell_volume   374.10992729
_cell_formula_units_Z   2
loop_
 _symmetry_equiv_pos_site_id
 _symmetry_equiv_pos_as_xyz
  1  'x, y, z'
loop_
 _atom_site_type_symbol
 _atom_site_label
 _atom_site_symmetry_multiplicity
 _atom_site_fract_x
 _atom_site_fract_y
 _atom_site_fract_z
 _atom_site_occupancy
  Rb  Rb0  1  0.008071  0.653676  0.354395  1
  Rb  Rb1  1  0.991929  0.346324  0.645605  1
  Rb  Rb2  1  0.700719  0.846324  0.854395  1
  Rb  Rb3  1  0.299281  0.153676  0.145605  1
  Hf  Hf4  1  0.500000  0.750000  0.250000  1
  Hf  Hf5  1  0.500000  0.250000  0.750000  1
  As  As6  1  0.584891  0.401897  0.182994  1
  As  As7  1  0.415109  0.598103  0.817006  1
  As  As8  1  0.218903  0.901897  0.317006  1
  As  As9  1  0.781097  0.098103  0.682994  1
