# generated using pymatgen
data_Na4ScP12Ir6Rh13
_symmetry_space_group_name_H-M   'P 1'
_cell_length_a   12.61918603
_cell_length_b   12.62258393
_cell_length_c   3.91430000
_cell_angle_alpha   90.00000000
_cell_angle_beta   90.00000000
_cell_angle_gamma   119.98382681
_symmetry_Int_Tables_number   1
_chemical_formula_structural   Na4ScP12Ir6Rh13
_chemical_formula_sum   'Na4 Sc1 P12 Ir6 Rh13'
_cell_volume   540.05140952
_cell_formula_units_Z   1
loop_
 _symmetry_equiv_pos_site_id
 _symmetry_equiv_pos_as_xyz
  1  'x, y, z'
loop_
 _atom_site_type_symbol
 _atom_site_label
 _atom_site_symmetry_multiplicity
 _atom_site_fract_x
 _atom_site_fract_y
 _atom_site_fract_z
 _atom_site_occupancy
  Na  Na0  1  0.333332  0.666636  0.000000  1
  Na  Na1  1  0.819990  0.999802  0.500000  1
  Na  Na2  1  0.000004  0.819675  0.500000  1
  Na  Na3  1  0.179878  0.180013  0.500000  1
  Sc  Sc4  1  0.665989  0.332701  0.000000  1
  P  P5  1  0.178984  0.999939  0.000000  1
  P  P6  1  0.999864  0.178883  0.000000  1
  P  P7  1  0.821100  0.820573  0.000000  1
  P  P8  1  0.166940  0.482406  0.500000  1
  P  P9  1  0.517454  0.685085  0.500000  1
  P  P10  1  0.314797  0.832314  0.500000  1
  P  P11  1  0.690377  0.518108  0.500000  1
  P  P12  1  0.828805  0.311329  0.500000  1
  P  P13  1  0.481980  0.171788  0.500000  1
  P  P14  1  0.635026  0.997327  0.000000  1
  P  P15  1  0.002810  0.637322  0.000000  1
  P  P16  1  0.362473  0.365231  0.000000  1
  Ir  Ir17  1  0.638374  0.134181  0.500000  1
  Ir  Ir18  1  0.495808  0.362040  0.500000  1
  Ir  Ir19  1  0.285402  0.001604  0.500000  1
  Ir  Ir20  1  0.998285  0.283659  0.500000  1
  Ir  Ir21  1  0.716048  0.714733  0.500000  1
  Ir  Ir22  1  0.999940  0.999911  0.000000  1
  Rh  Rh23  1  0.455823  0.999698  0.000000  1
  Rh  Rh24  1  0.000560  0.455616  0.000000  1
  Rh  Rh25  1  0.543814  0.544585  0.000000  1
  Rh  Rh26  1  0.358056  0.486048  0.500000  1
  Rh  Rh27  1  0.513904  0.872294  0.500000  1
  Rh  Rh28  1  0.127545  0.641944  0.500000  1
  Rh  Rh29  1  0.867105  0.505156  0.500000  1
  Rh  Rh30  1  0.180879  0.377904  0.000000  1
  Rh  Rh31  1  0.622096  0.803150  0.000000  1
  Rh  Rh32  1  0.197227  0.819132  0.000000  1
  Rh  Rh33  1  0.805295  0.620372  0.000000  1
  Rh  Rh34  1  0.815129  0.194060  0.000000  1
  Rh  Rh35  1  0.378905  0.184778  0.000000  1
