# generated using pymatgen
data_Pa2Mn3Re14C3
_symmetry_space_group_name_H-M   'P 1'
_cell_length_a   6.94127883
_cell_length_b   6.94127929
_cell_length_c   6.94128070
_cell_angle_alpha   82.63242861
_cell_angle_beta   82.63242000
_cell_angle_gamma   82.63241937
_symmetry_Int_Tables_number   1
_chemical_formula_structural   Pa2Mn3Re14C3
_chemical_formula_sum   'Pa2 Mn3 Re14 C3'
_cell_volume   326.80914262
_cell_formula_units_Z   1
loop_
 _symmetry_equiv_pos_site_id
 _symmetry_equiv_pos_as_xyz
  1  'x, y, z'
loop_
 _atom_site_type_symbol
 _atom_site_label
 _atom_site_symmetry_multiplicity
 _atom_site_fract_x
 _atom_site_fract_y
 _atom_site_fract_z
 _atom_site_occupancy
  Pa  Pa0  1  0.652984  0.652984  0.652984  1
  Pa  Pa1  1  0.347016  0.347016  0.347016  1
  Mn  Mn2  1  0.000000  0.000000  0.500000  1
  Mn  Mn3  1  0.500000  0.000000  0.000000  1
  Mn  Mn4  1  0.000000  0.500000  0.000000  1
  Re  Re5  1  0.722929  0.277071  0.000000  1
  Re  Re6  1  0.000000  0.722929  0.277071  1
  Re  Re7  1  0.277071  0.000000  0.722929  1
  Re  Re8  1  0.000000  0.277071  0.722929  1
  Re  Re9  1  0.722929  0.000000  0.277071  1
  Re  Re10  1  0.277071  0.722929  0.000000  1
  Re  Re11  1  0.348548  0.348548  0.855685  1
  Re  Re12  1  0.855685  0.348548  0.348548  1
  Re  Re13  1  0.348548  0.855685  0.348548  1
  Re  Re14  1  0.651452  0.651452  0.144315  1
  Re  Re15  1  0.144315  0.651452  0.651452  1
  Re  Re16  1  0.651452  0.144315  0.651452  1
  Re  Re17  1  0.897090  0.897090  0.897090  1
  Re  Re18  1  0.102910  0.102910  0.102910  1
  C  C19  1  0.500000  0.500000  0.000000  1
  C  C20  1  0.000000  0.500000  0.500000  1
  C  C21  1  0.500000  0.000000  0.500000  1
