# generated using pymatgen
data_SmPa2(AlIr)3
_symmetry_space_group_name_H-M   'P 1'
_cell_length_a   7.06371800
_cell_length_b   7.06371771
_cell_length_c   4.08897700
_cell_angle_alpha   90.00000000
_cell_angle_beta   90.00000000
_cell_angle_gamma   121.16973033
_symmetry_Int_Tables_number   1
_chemical_formula_structural   SmPa2(AlIr)3
_chemical_formula_sum   'Sm1 Pa2 Al3 Ir3'
_cell_volume   174.57068922
_cell_formula_units_Z   1
loop_
 _symmetry_equiv_pos_site_id
 _symmetry_equiv_pos_as_xyz
  1  'x, y, z'
loop_
 _atom_site_type_symbol
 _atom_site_label
 _atom_site_symmetry_multiplicity
 _atom_site_fract_x
 _atom_site_fract_y
 _atom_site_fract_z
 _atom_site_occupancy
  Sm  Sm0  1  0.418398  0.418398  0.500000  1
  Pa  Pa1  1  0.580452  0.001223  0.500000  1
  Pa  Pa2  1  0.001223  0.580452  0.500000  1
  Al  Al3  1  0.753722  0.753722  0.000000  1
  Al  Al4  1  0.232115  0.008516  0.000000  1
  Al  Al5  1  0.008516  0.232115  0.000000  1
  Ir  Ir6  1  0.696961  0.329584  0.000000  1
  Ir  Ir7  1  0.329584  0.696961  0.000000  1
  Ir  Ir8  1  0.979029  0.979029  0.500000  1
