# generated using pymatgen
data_LiDy9Se10
_symmetry_space_group_name_H-M   'P 1'
_cell_length_a   7.00765571
_cell_length_b   8.13145355
_cell_length_c   9.13343017
_cell_angle_alpha   103.47288364
_cell_angle_beta   97.01643963
_cell_angle_gamma   106.63805687
_symmetry_Int_Tables_number   1
_chemical_formula_structural   LiDy9Se10
_chemical_formula_sum   'Li1 Dy9 Se10'
_cell_volume   474.86628412
_cell_formula_units_Z   1
loop_
 _symmetry_equiv_pos_site_id
 _symmetry_equiv_pos_as_xyz
  1  'x, y, z'
loop_
 _atom_site_type_symbol
 _atom_site_label
 _atom_site_symmetry_multiplicity
 _atom_site_fract_x
 _atom_site_fract_y
 _atom_site_fract_z
 _atom_site_occupancy
  Li  Li0  1  0.000000  0.500000  0.000000  1
  Dy  Dy1  1  0.799830  0.600386  0.598191  1
  Dy  Dy2  1  0.598745  0.199665  0.203846  1
  Dy  Dy3  1  0.401255  0.800335  0.796154  1
  Dy  Dy4  1  0.600381  0.703749  0.204901  1
  Dy  Dy5  1  0.200170  0.399614  0.401809  1
  Dy  Dy6  1  0.399619  0.296251  0.795099  1
  Dy  Dy7  1  0.000000  0.000000  0.000000  1
  Dy  Dy8  1  0.202002  0.901811  0.404222  1
  Dy  Dy9  1  0.797998  0.098189  0.595778  1
  Se  Se10  1  0.705708  0.645950  0.903824  1
  Se  Se11  1  0.500952  0.251312  0.499789  1
  Se  Se12  1  0.706940  0.159056  0.904285  1
  Se  Se13  1  0.293060  0.840944  0.095715  1
  Se  Se14  1  0.499048  0.748688  0.500211  1
  Se  Se15  1  0.095970  0.451331  0.708657  1
  Se  Se16  1  0.294292  0.354050  0.096176  1
  Se  Se17  1  0.903041  0.050321  0.298743  1
  Se  Se18  1  0.096959  0.949679  0.701257  1
  Se  Se19  1  0.904030  0.548669  0.291343  1
