# generated using pymatgen
data_Y6Si4Ir3Pt
_symmetry_space_group_name_H-M   'P 1'
_cell_length_a   5.61460731
_cell_length_b   5.61460709
_cell_length_c   13.30300300
_cell_angle_alpha   90.00000000
_cell_angle_beta   90.00000000
_cell_angle_gamma   137.23425778
_symmetry_Int_Tables_number   1
_chemical_formula_structural   Y6Si4Ir3Pt
_chemical_formula_sum   'Y6 Si4 Ir3 Pt1'
_cell_volume   284.74742417
_cell_formula_units_Z   1
loop_
 _symmetry_equiv_pos_site_id
 _symmetry_equiv_pos_as_xyz
  1  'x, y, z'
loop_
 _atom_site_type_symbol
 _atom_site_label
 _atom_site_symmetry_multiplicity
 _atom_site_fract_x
 _atom_site_fract_y
 _atom_site_fract_z
 _atom_site_occupancy
  Y  Y0  1  0.775810  0.224190  0.604953  1
  Y  Y1  1  0.517123  0.482877  0.250000  1
  Y  Y2  1  0.223727  0.776273  0.398762  1
  Y  Y3  1  0.775810  0.224190  0.895047  1
  Y  Y4  1  0.483411  0.516589  0.750000  1
  Y  Y5  1  0.223727  0.776273  0.101238  1
  Si  Si6  1  0.062655  0.937345  0.590519  1
  Si  Si7  1  0.062655  0.937345  0.909481  1
  Si  Si8  1  0.938409  0.061591  0.412193  1
  Si  Si9  1  0.938409  0.061591  0.087807  1
  Ir  Ir10  1  0.188387  0.811613  0.750000  1
  Ir  Ir11  1  0.501439  0.498561  0.999904  1
  Ir  Ir12  1  0.501439  0.498561  0.500096  1
  Pt  Pt13  1  0.807001  0.192999  0.250000  1
