# generated using pymatgen
data_Dy19LuSn15Pb
_symmetry_space_group_name_H-M   'P 1'
_cell_length_a   8.03747224
_cell_length_b   8.17433960
_cell_length_c   15.47222346
_cell_angle_alpha   90.01072476
_cell_angle_beta   90.02585470
_cell_angle_gamma   89.95189359
_symmetry_Int_Tables_number   1
_chemical_formula_structural   Dy19LuSn15Pb
_chemical_formula_sum   'Dy19 Lu1 Sn15 Pb1'
_cell_volume   1016.54050121
_cell_formula_units_Z   1
loop_
 _symmetry_equiv_pos_site_id
 _symmetry_equiv_pos_as_xyz
  1  'x, y, z'
loop_
 _atom_site_type_symbol
 _atom_site_label
 _atom_site_symmetry_multiplicity
 _atom_site_fract_x
 _atom_site_fract_y
 _atom_site_fract_z
 _atom_site_occupancy
  Dy  Dy0  1  0.368001  0.835883  0.876448  1
  Dy  Dy1  1  0.868152  0.662399  0.622264  1
  Dy  Dy2  1  0.632418  0.162712  0.377719  1
  Dy  Dy3  1  0.131254  0.339847  0.122257  1
  Dy  Dy4  1  0.634094  0.162885  0.122683  1
  Dy  Dy5  1  0.132401  0.337558  0.378390  1
  Dy  Dy6  1  0.367508  0.837065  0.622602  1
  Dy  Dy7  1  0.868510  0.662385  0.877585  1
  Dy  Dy8  1  0.521735  0.322344  0.901844  1
  Dy  Dy9  1  0.020879  0.179418  0.597621  1
  Dy  Dy10  1  0.479655  0.679104  0.403110  1
  Dy  Dy11  1  0.976842  0.818772  0.097915  1
  Dy  Dy12  1  0.480392  0.676936  0.097333  1
  Dy  Dy13  1  0.979370  0.820695  0.402723  1
  Dy  Dy14  1  0.520418  0.321086  0.597471  1
  Dy  Dy15  1  0.019257  0.180686  0.901348  1
  Dy  Dy16  1  0.698767  0.997351  0.749875  1
  Dy  Dy17  1  0.800847  0.496967  0.250137  1
  Dy  Dy18  1  0.301241  0.003004  0.251465  1
  Lu  Lu19  1  0.199174  0.503611  0.750114  1
  Sn  Sn20  1  0.792665  0.462529  0.458630  1
  Sn  Sn21  1  0.707249  0.963037  0.541756  1
  Sn  Sn22  1  0.207684  0.536460  0.957191  1
  Sn  Sn23  1  0.707613  0.963241  0.958050  1
  Sn  Sn24  1  0.207357  0.536445  0.542761  1
  Sn  Sn25  1  0.292805  0.036751  0.458787  1
  Sn  Sn26  1  0.792464  0.462632  0.041253  1
  Sn  Sn27  1  0.564101  0.617109  0.749734  1
  Sn  Sn28  1  0.065157  0.881029  0.749974  1
  Sn  Sn29  1  0.434247  0.381469  0.250004  1
  Sn  Sn30  1  0.935642  0.118702  0.249812  1
  Sn  Sn31  1  0.330015  0.150550  0.750123  1
  Sn  Sn32  1  0.830520  0.352551  0.749772  1
  Sn  Sn33  1  0.669486  0.851654  0.250072  1
  Sn  Sn34  1  0.170255  0.648036  0.250124  1
  Pb  Pb35  1  0.291825  0.037101  0.041051  1
