# generated using pymatgen
data_DyScTeO6
_symmetry_space_group_name_H-M   'P 1'
_cell_length_a   8.96097400
_cell_length_b   8.96097526
_cell_length_c   5.10190400
_cell_angle_alpha   90.00000000
_cell_angle_beta   90.00000000
_cell_angle_gamma   120.00000275
_symmetry_Int_Tables_number   1
_chemical_formula_structural   DyScTeO6
_chemical_formula_sum   'Dy3 Sc3 Te3 O18'
_cell_volume   354.79165596
_cell_formula_units_Z   3
loop_
 _symmetry_equiv_pos_site_id
 _symmetry_equiv_pos_as_xyz
  1  'x, y, z'
loop_
 _atom_site_type_symbol
 _atom_site_label
 _atom_site_symmetry_multiplicity
 _atom_site_fract_x
 _atom_site_fract_y
 _atom_site_fract_z
 _atom_site_occupancy
  Dy  Dy0  1  0.621143  0.000000  0.000000  1
  Dy  Dy1  1  0.000000  0.621143  0.000000  1
  Dy  Dy2  1  0.378857  0.378857  0.000000  1
  Sc  Sc3  1  0.288365  0.000000  0.500000  1
  Sc  Sc4  1  0.000000  0.288365  0.500000  1
  Sc  Sc5  1  0.711635  0.711635  0.500000  1
  Te  Te6  1  0.000000  0.000000  0.000000  1
  Te  Te7  1  0.333333  0.666667  0.500046  1
  Te  Te8  1  0.666667  0.333333  0.499954  1
  O  O9  1  0.093022  0.886803  0.783977  1
  O  O10  1  0.113197  0.206219  0.783977  1
  O  O11  1  0.793781  0.906978  0.783977  1
  O  O12  1  0.206219  0.113197  0.216023  1
  O  O13  1  0.906978  0.793781  0.216023  1
  O  O14  1  0.886803  0.093022  0.216023  1
  O  O15  1  0.464589  0.594047  0.714136  1
  O  O16  1  0.405953  0.870541  0.714136  1
  O  O17  1  0.129459  0.535411  0.714136  1
  O  O18  1  0.870541  0.405953  0.285864  1
  O  O19  1  0.535411  0.129459  0.285864  1
  O  O20  1  0.594047  0.464589  0.285864  1
  O  O21  1  0.228700  0.771187  0.286402  1
  O  O22  1  0.228813  0.457512  0.286402  1
  O  O23  1  0.542488  0.771300  0.286402  1
  O  O24  1  0.457512  0.228813  0.713598  1
  O  O25  1  0.771300  0.542488  0.713598  1
  O  O26  1  0.771187  0.228700  0.713598  1
