# generated using pymatgen
data_Dy3Tl2Ag3Ir
_symmetry_space_group_name_H-M   'P 1'
_cell_length_a   8.03685626
_cell_length_b   8.03171560
_cell_length_c   3.73108300
_cell_angle_alpha   90.00000000
_cell_angle_beta   90.00000000
_cell_angle_gamma   120.01383494
_symmetry_Int_Tables_number   1
_chemical_formula_structural   Dy3Tl2Ag3Ir
_chemical_formula_sum   'Dy3 Tl2 Ag3 Ir1'
_cell_volume   208.54486608
_cell_formula_units_Z   1
loop_
 _symmetry_equiv_pos_site_id
 _symmetry_equiv_pos_as_xyz
  1  'x, y, z'
loop_
 _atom_site_type_symbol
 _atom_site_label
 _atom_site_symmetry_multiplicity
 _atom_site_fract_x
 _atom_site_fract_y
 _atom_site_fract_z
 _atom_site_occupancy
  Dy  Dy0  1  0.583306  0.627900  0.000000  1
  Dy  Dy1  1  0.392270  0.962930  0.000000  1
  Dy  Dy2  1  0.036722  0.417993  0.000000  1
  Tl  Tl3  1  0.987889  0.723527  0.500000  1
  Tl  Tl4  1  0.282827  0.265261  0.500000  1
  Ag  Ag5  1  0.724977  0.007540  0.500000  1
  Ag  Ag6  1  0.992073  0.003835  0.000000  1
  Ag  Ag7  1  0.668601  0.327449  0.500000  1
  Ir  Ir8  1  0.331334  0.663566  0.500000  1
