# generated using pymatgen
data_Ho4FeTc3B8
_symmetry_space_group_name_H-M   'P 1'
_cell_length_a   5.25380600
_cell_length_b   5.90243555
_cell_length_c   6.36164308
_cell_angle_alpha   90.63164110
_cell_angle_beta   90.00000000
_cell_angle_gamma   90.00000000
_symmetry_Int_Tables_number   1
_chemical_formula_structural   Ho4FeTc3B8
_chemical_formula_sum   'Ho4 Fe1 Tc3 B8'
_cell_volume   197.26416298
_cell_formula_units_Z   1
loop_
 _symmetry_equiv_pos_site_id
 _symmetry_equiv_pos_as_xyz
  1  'x, y, z'
loop_
 _atom_site_type_symbol
 _atom_site_label
 _atom_site_symmetry_multiplicity
 _atom_site_fract_x
 _atom_site_fract_y
 _atom_site_fract_z
 _atom_site_occupancy
  Ho  Ho0  1  0.250000  0.012431  0.340386  1
  Ho  Ho1  1  0.250000  0.511854  0.162311  1
  Ho  Ho2  1  0.750000  0.988440  0.658419  1
  Ho  Ho3  1  0.750000  0.489825  0.840565  1
  Fe  Fe4  1  0.750000  0.321544  0.315300  1
  Tc  Tc5  1  0.250000  0.183035  0.816716  1
  Tc  Tc6  1  0.250000  0.680521  0.684252  1
  Tc  Tc7  1  0.750000  0.819206  0.187467  1
  B  B8  1  0.077163  0.367372  0.533109  1
  B  B9  1  0.423657  0.872443  0.963435  1
  B  B10  1  0.580860  0.621895  0.459120  1
  B  B11  1  0.918933  0.134862  0.041628  1
  B  B12  1  0.919140  0.621895  0.459120  1
  B  B13  1  0.581067  0.134862  0.041628  1
  B  B14  1  0.422837  0.367372  0.533109  1
  B  B15  1  0.076343  0.872443  0.963435  1
