# generated using pymatgen
data_ZrSc7Ta5Nb5(Si8W)2
_symmetry_space_group_name_H-M   'P 1'
_cell_length_a   6.65165626
_cell_length_b   6.84982539
_cell_length_c   13.10829900
_cell_angle_alpha   89.96660031
_cell_angle_beta   90.09028948
_cell_angle_gamma   89.98518883
_symmetry_Int_Tables_number   1
_chemical_formula_structural   ZrSc7Ta5Nb5(Si8W)2
_chemical_formula_sum   'Zr1 Sc7 Ta5 Nb5 Si16 W2'
_cell_volume   597.24842141
_cell_formula_units_Z   1
loop_
 _symmetry_equiv_pos_site_id
 _symmetry_equiv_pos_as_xyz
  1  'x, y, z'
loop_
 _atom_site_type_symbol
 _atom_site_label
 _atom_site_symmetry_multiplicity
 _atom_site_fract_x
 _atom_site_fract_y
 _atom_site_fract_z
 _atom_site_occupancy
  Zr  Zr0  1  0.500267  0.673724  0.595163  1
  Sc  Sc1  1  0.999769  0.826500  0.906646  1
  Sc  Sc2  1  0.501809  0.325897  0.093541  1
  Sc  Sc3  1  0.002631  0.173568  0.406137  1
  Sc  Sc4  1  0.502213  0.325833  0.406276  1
  Sc  Sc5  1  0.001311  0.174239  0.093408  1
  Sc  Sc6  1  0.499796  0.673713  0.906475  1
  Sc  Sc7  1  0.998716  0.825865  0.593756  1
  Ta  Ta8  1  0.834903  0.669691  0.126467  1
  Ta  Ta9  1  0.664857  0.171938  0.875443  1
  Ta  Ta10  1  0.165735  0.329861  0.624073  1
  Ta  Ta11  1  0.838034  0.493602  0.749825  1
  Ta  Ta12  1  0.339330  0.005318  0.748874  1
  Nb  Nb13  1  0.663469  0.171887  0.623373  1
  Nb  Nb14  1  0.164278  0.327983  0.876172  1
  Nb  Nb15  1  0.334856  0.830225  0.126031  1
  Nb  Nb16  1  0.835187  0.669597  0.373875  1
  Nb  Nb17  1  0.335533  0.830063  0.373984  1
  Si  Si18  1  0.669993  0.966135  0.458577  1
  Si  Si19  1  0.168504  0.534009  0.041384  1
  Si  Si20  1  0.331081  0.033568  0.960640  1
  Si  Si21  1  0.831940  0.464792  0.538612  1
  Si  Si22  1  0.328633  0.035453  0.538542  1
  Si  Si23  1  0.830306  0.466779  0.961089  1
  Si  Si24  1  0.668929  0.965993  0.041036  1
  Si  Si25  1  0.170458  0.534303  0.458941  1
  Si  Si26  1  0.460876  0.386995  0.750661  1
  Si  Si27  1  0.961992  0.112717  0.749652  1
  Si  Si28  1  0.534525  0.609125  0.249733  1
  Si  Si29  1  0.035126  0.890331  0.249990  1
  Si  Si30  1  0.706925  0.860689  0.751421  1
  Si  Si31  1  0.203453  0.640541  0.751131  1
  Si  Si32  1  0.297697  0.144902  0.249644  1
  Si  Si33  1  0.797550  0.354818  0.249799  1
  W  W34  1  0.159117  0.506170  0.249895  1
  W  W35  1  0.660204  0.993173  0.249732  1
