# generated using pymatgen
data_Nd4AgPt2Rh
_symmetry_space_group_name_H-M   'P 1'
_cell_length_a   4.66459500
_cell_length_b   5.78189860
_cell_length_c   7.36801303
_cell_angle_alpha   90.45162686
_cell_angle_beta   90.00000000
_cell_angle_gamma   90.00000000
_symmetry_Int_Tables_number   1
_chemical_formula_structural   Nd4AgPt2Rh
_chemical_formula_sum   'Nd4 Ag1 Pt2 Rh1'
_cell_volume   198.71072438
_cell_formula_units_Z   1
loop_
 _symmetry_equiv_pos_site_id
 _symmetry_equiv_pos_as_xyz
  1  'x, y, z'
loop_
 _atom_site_type_symbol
 _atom_site_label
 _atom_site_symmetry_multiplicity
 _atom_site_fract_x
 _atom_site_fract_y
 _atom_site_fract_z
 _atom_site_occupancy
  Nd  Nd0  1  0.000000  0.642555  0.310151  1
  Nd  Nd1  1  0.000000  0.856743  0.824554  1
  Nd  Nd2  1  0.500000  0.370151  0.695740  1
  Nd  Nd3  1  0.500000  0.140528  0.166302  1
  Ag  Ag4  1  0.000000  0.145060  0.462380  1
  Pt  Pt5  1  0.500000  0.859494  0.539731  1
  Pt  Pt6  1  0.500000  0.651872  0.047713  1
  Rh  Rh7  1  0.000000  0.333600  0.953429  1
