# generated using pymatgen
data_Ba4ScReIrO12
_symmetry_space_group_name_H-M   'P 1'
_cell_length_a   10.02875743
_cell_length_b   10.02875732
_cell_length_c   10.02875701
_cell_angle_alpha   33.72096329
_cell_angle_beta   33.72096447
_cell_angle_gamma   33.72095709
_symmetry_Int_Tables_number   1
_chemical_formula_structural   Ba4ScReIrO12
_chemical_formula_sum   'Ba4 Sc1 Re1 Ir1 O12'
_cell_volume   276.96199349
_cell_formula_units_Z   1
loop_
 _symmetry_equiv_pos_site_id
 _symmetry_equiv_pos_as_xyz
  1  'x, y, z'
loop_
 _atom_site_type_symbol
 _atom_site_label
 _atom_site_symmetry_multiplicity
 _atom_site_fract_x
 _atom_site_fract_y
 _atom_site_fract_z
 _atom_site_occupancy
  Ba  Ba0  1  0.707822  0.707822  0.707822  1
  Ba  Ba1  1  0.288377  0.288377  0.288377  1
  Ba  Ba2  1  0.871267  0.871267  0.871267  1
  Ba  Ba3  1  0.134894  0.134894  0.134894  1
  Sc  Sc4  1  0.998717  0.998717  0.998717  1
  Re  Re5  1  0.419255  0.419255  0.419255  1
  Ir  Ir6  1  0.581381  0.581381  0.581381  1
  O  O7  1  0.385905  0.385905  0.864937  1
  O  O8  1  0.864937  0.385905  0.385905  1
  O  O9  1  0.385905  0.864937  0.385905  1
  O  O10  1  0.608622  0.608622  0.141927  1
  O  O11  1  0.141927  0.608622  0.608622  1
  O  O12  1  0.608622  0.141927  0.608622  1
  O  O13  1  0.218967  0.218967  0.691845  1
  O  O14  1  0.691845  0.218967  0.218967  1
  O  O15  1  0.218967  0.691845  0.218967  1
  O  O16  1  0.786272  0.786272  0.300045  1
  O  O17  1  0.300045  0.786272  0.786272  1
  O  O18  1  0.786272  0.300045  0.786272  1
