# generated using pymatgen
data_Er12Mn2Tl2Zn
_symmetry_space_group_name_H-M   'P 1'
_cell_length_a   8.34953842
_cell_length_b   8.34953727
_cell_length_c   8.34953800
_cell_angle_alpha   109.56801539
_cell_angle_beta   109.56801986
_cell_angle_gamma   109.27779543
_symmetry_Int_Tables_number   1
_chemical_formula_structural   Er12Mn2Tl2Zn
_chemical_formula_sum   'Er12 Mn2 Tl2 Zn1'
_cell_volume   448.08637839
_cell_formula_units_Z   1
loop_
 _symmetry_equiv_pos_site_id
 _symmetry_equiv_pos_as_xyz
  1  'x, y, z'
loop_
 _atom_site_type_symbol
 _atom_site_label
 _atom_site_symmetry_multiplicity
 _atom_site_fract_x
 _atom_site_fract_y
 _atom_site_fract_z
 _atom_site_occupancy
  Er  Er0  1  0.305532  0.305532  0.611061  1
  Er  Er1  1  0.694468  0.694468  0.388939  1
  Er  Er2  1  0.305532  0.694468  0.000000  1
  Er  Er3  1  0.694468  0.305532  0.000000  1
  Er  Er4  1  0.444560  0.202255  0.242305  1
  Er  Er5  1  0.555440  0.797745  0.757695  1
  Er  Er6  1  0.959950  0.202255  0.757695  1
  Er  Er7  1  0.202255  0.959950  0.757695  1
  Er  Er8  1  0.040050  0.797745  0.242305  1
  Er  Er9  1  0.797745  0.040050  0.242305  1
  Er  Er10  1  0.202255  0.444560  0.242305  1
  Er  Er11  1  0.797745  0.555440  0.757695  1
  Mn  Mn12  1  0.390539  0.390539  0.000000  1
  Mn  Mn13  1  0.609461  0.609461  0.000000  1
  Tl  Tl14  1  0.500000  0.000000  0.500000  1
  Tl  Tl15  1  0.000000  0.500000  0.500000  1
  Zn  Zn16  1  0.000000  0.000000  0.000000  1
