# generated using pymatgen
data_Ca2DyYHg4
_symmetry_space_group_name_H-M   'P 1'
_cell_length_a   7.52726700
_cell_length_b   7.52555200
_cell_length_c   7.45309900
_cell_angle_alpha   90.00000000
_cell_angle_beta   90.00146119
_cell_angle_gamma   90.00000000
_symmetry_Int_Tables_number   1
_chemical_formula_structural   Ca2DyYHg4
_chemical_formula_sum   'Ca4 Dy2 Y2 Hg8'
_cell_volume   422.19450072
_cell_formula_units_Z   2
loop_
 _symmetry_equiv_pos_site_id
 _symmetry_equiv_pos_as_xyz
  1  'x, y, z'
loop_
 _atom_site_type_symbol
 _atom_site_label
 _atom_site_symmetry_multiplicity
 _atom_site_fract_x
 _atom_site_fract_y
 _atom_site_fract_z
 _atom_site_occupancy
  Ca  Ca0  1  0.749510  0.250000  0.000117  1
  Ca  Ca1  1  0.249524  0.750000  0.499885  1
  Ca  Ca2  1  0.750474  0.250000  0.500115  1
  Ca  Ca3  1  0.250491  0.750000  0.999884  1
  Dy  Dy4  1  0.250656  0.250000  0.999997  1
  Dy  Dy5  1  0.749343  0.750000  0.000003  1
  Y  Y6  1  0.750703  0.750000  0.499987  1
  Y  Y7  1  0.249296  0.250000  0.500013  1
  Hg  Hg8  1  0.000207  0.500123  0.248173  1
  Hg  Hg9  1  0.000207  0.999879  0.248173  1
  Hg  Hg10  1  0.500192  0.000124  0.250878  1
  Hg  Hg11  1  0.500192  0.499876  0.250878  1
  Hg  Hg12  1  0.499807  0.500126  0.749121  1
  Hg  Hg13  1  0.499807  0.999876  0.749121  1
  Hg  Hg14  1  0.999795  0.000121  0.751828  1
  Hg  Hg15  1  0.999795  0.499879  0.751828  1
