# generated using pymatgen
data_YHoB5
_symmetry_space_group_name_H-M   'P 1'
_cell_length_a   7.09089000
_cell_length_b   7.08644219
_cell_length_c   7.11784532
_cell_angle_alpha   76.69494448
_cell_angle_beta   90.00000000
_cell_angle_gamma   90.00000000
_symmetry_Int_Tables_number   1
_chemical_formula_structural   YHoB5
_chemical_formula_sum   'Y4 Ho4 B20'
_cell_volume   348.06564104
_cell_formula_units_Z   4
loop_
 _symmetry_equiv_pos_site_id
 _symmetry_equiv_pos_as_xyz
  1  'x, y, z'
loop_
 _atom_site_type_symbol
 _atom_site_label
 _atom_site_symmetry_multiplicity
 _atom_site_fract_x
 _atom_site_fract_y
 _atom_site_fract_z
 _atom_site_occupancy
  Y  Y0  1  0.692208  0.769663  0.626566  1
  Y  Y1  1  0.192208  0.230337  0.873434  1
  Y  Y2  1  0.307792  0.230337  0.373434  1
  Y  Y3  1  0.807792  0.769663  0.126566  1
  Ho  Ho4  1  0.315022  0.756002  0.253068  1
  Ho  Ho5  1  0.815022  0.243998  0.246932  1
  Ho  Ho6  1  0.684978  0.243998  0.746932  1
  Ho  Ho7  1  0.184978  0.756002  0.753068  1
  B  B8  1  0.502642  0.313754  0.041023  1
  B  B9  1  0.002642  0.686246  0.458977  1
  B  B10  1  0.497358  0.686246  0.958977  1
  B  B11  1  0.997358  0.313754  0.541023  1
  B  B12  1  0.489034  0.926337  0.924626  1
  B  B13  1  0.989034  0.073663  0.575374  1
  B  B14  1  0.510966  0.073663  0.075374  1
  B  B15  1  0.010966  0.926337  0.424626  1
  B  B16  1  0.326029  0.496546  0.039727  1
  B  B17  1  0.826029  0.503454  0.460273  1
  B  B18  1  0.673971  0.503454  0.960273  1
  B  B19  1  0.173971  0.496546  0.539727  1
  B  B20  1  0.910985  0.498424  0.911057  1
  B  B21  1  0.410985  0.501576  0.588943  1
  B  B22  1  0.089015  0.501576  0.088943  1
  B  B23  1  0.589015  0.498424  0.411057  1
  B  B24  1  0.961752  0.496463  0.674480  1
  B  B25  1  0.461752  0.503537  0.825520  1
  B  B26  1  0.038248  0.503537  0.325520  1
  B  B27  1  0.538248  0.496463  0.174480  1
