# generated using pymatgen
data_Nd7Er(Si4Mo3)4
_symmetry_space_group_name_H-M   'P 1'
_cell_length_a   6.90847439
_cell_length_b   7.07035148
_cell_length_c   13.09155517
_cell_angle_alpha   89.87470884
_cell_angle_beta   89.97819350
_cell_angle_gamma   89.88871763
_symmetry_Int_Tables_number   1
_chemical_formula_structural   Nd7Er(Si4Mo3)4
_chemical_formula_sum   'Nd7 Er1 Si16 Mo12'
_cell_volume   639.45871106
_cell_formula_units_Z   1
loop_
 _symmetry_equiv_pos_site_id
 _symmetry_equiv_pos_as_xyz
  1  'x, y, z'
loop_
 _atom_site_type_symbol
 _atom_site_label
 _atom_site_symmetry_multiplicity
 _atom_site_fract_x
 _atom_site_fract_y
 _atom_site_fract_z
 _atom_site_occupancy
  Nd  Nd0  1  0.497273  0.335519  0.094010  1
  Nd  Nd1  1  0.997499  0.164191  0.406110  1
  Nd  Nd2  1  0.502892  0.664256  0.594116  1
  Nd  Nd3  1  0.001693  0.834820  0.906792  1
  Nd  Nd4  1  0.502338  0.664978  0.906899  1
  Nd  Nd5  1  0.002369  0.835689  0.594133  1
  Nd  Nd6  1  0.497081  0.335420  0.404774  1
  Er  Er7  1  0.996350  0.166511  0.095447  1
  Si  Si8  1  0.654154  0.047121  0.549473  1
  Si  Si9  1  0.154002  0.451427  0.952207  1
  Si  Si10  1  0.340584  0.956509  0.049854  1
  Si  Si11  1  0.845278  0.546554  0.450257  1
  Si  Si12  1  0.346173  0.952793  0.449707  1
  Si  Si13  1  0.846959  0.541652  0.049824  1
  Si  Si14  1  0.656347  0.046661  0.952368  1
  Si  Si15  1  0.154630  0.453897  0.549417  1
  Si  Si16  1  0.536423  0.358250  0.750785  1
  Si  Si17  1  0.036849  0.140959  0.750338  1
  Si  Si18  1  0.464199  0.642931  0.249210  1
  Si  Si19  1  0.964287  0.862128  0.248106  1
  Si  Si20  1  0.806701  0.618216  0.750698  1
  Si  Si21  1  0.306192  0.879885  0.750435  1
  Si  Si22  1  0.191033  0.377484  0.248186  1
  Si  Si23  1  0.696988  0.121061  0.248235  1
  Mo  Mo24  1  0.832292  0.334201  0.627203  1
  Mo  Mo25  1  0.330414  0.164203  0.874387  1
  Mo  Mo26  1  0.167556  0.665718  0.126394  1
  Mo  Mo27  1  0.669805  0.835809  0.372253  1
  Mo  Mo28  1  0.167279  0.665501  0.371915  1
  Mo  Mo29  1  0.670390  0.837084  0.125556  1
  Mo  Mo30  1  0.833249  0.332659  0.874734  1
  Mo  Mo31  1  0.331524  0.164755  0.626865  1
  Mo  Mo32  1  0.664181  0.004874  0.750738  1
  Mo  Mo33  1  0.164549  0.494631  0.750553  1
  Mo  Mo34  1  0.334525  0.997526  0.248785  1
  Mo  Mo35  1  0.835944  0.504126  0.249238  1
