# generated using pymatgen
data_Ca5Si11AsIr19
_symmetry_space_group_name_H-M   'P 1'
_cell_length_a   12.89060300
_cell_length_b   12.86560306
_cell_length_c   4.00982100
_cell_angle_alpha   90.00000000
_cell_angle_beta   90.00000000
_cell_angle_gamma   120.06430782
_symmetry_Int_Tables_number   1
_chemical_formula_structural   Ca5Si11AsIr19
_chemical_formula_sum   'Ca5 Si11 As1 Ir19'
_cell_volume   575.54224673
_cell_formula_units_Z   1
loop_
 _symmetry_equiv_pos_site_id
 _symmetry_equiv_pos_as_xyz
  1  'x, y, z'
loop_
 _atom_site_type_symbol
 _atom_site_label
 _atom_site_symmetry_multiplicity
 _atom_site_fract_x
 _atom_site_fract_y
 _atom_site_fract_z
 _atom_site_occupancy
  Ca  Ca0  1  0.002518  0.184717  0.500000  1
  Ca  Ca1  1  0.817801  0.815283  0.500000  1
  Ca  Ca2  1  0.182985  0.000000  0.500000  1
  Ca  Ca3  1  0.666158  0.334317  0.000000  1
  Ca  Ca4  1  0.331840  0.665683  0.000000  1
  Si  Si5  1  0.479317  0.312817  0.500000  1
  Si  Si6  1  0.184827  0.183543  0.000000  1
  Si  Si7  1  0.001284  0.816457  0.000000  1
  Si  Si8  1  0.369176  0.000000  0.000000  1
  Si  Si9  1  0.686649  0.168753  0.500000  1
  Si  Si10  1  0.832662  0.520949  0.500000  1
  Si  Si11  1  0.517897  0.831247  0.500000  1
  Si  Si12  1  0.166500  0.687183  0.500000  1
  Si  Si13  1  0.311714  0.479051  0.500000  1
  Si  Si14  1  0.000283  0.369676  0.000000  1
  Si  Si15  1  0.630608  0.630324  0.000000  1
  As  As16  1  0.821022  0.000000  0.000000  1
  Ir  Ir17  1  0.804625  0.185569  0.000000  1
  Ir  Ir18  1  0.379482  0.195051  0.000000  1
  Ir  Ir19  1  0.639017  0.512941  0.500000  1
  Ir  Ir20  1  0.873194  0.361628  0.500000  1
  Ir  Ir21  1  0.360479  0.873618  0.500000  1
  Ir  Ir22  1  0.511566  0.638372  0.500000  1
  Ir  Ir23  1  0.126076  0.487059  0.500000  1
  Ir  Ir24  1  0.816221  0.621787  0.000000  1
  Ir  Ir25  1  0.619058  0.814431  0.000000  1
  Ir  Ir26  1  0.184432  0.804949  0.000000  1
  Ir  Ir27  1  0.194434  0.378213  0.000000  1
  Ir  Ir28  1  0.000171  0.716464  0.500000  1
  Ir  Ir29  1  0.283706  0.283536  0.500000  1
  Ir  Ir30  1  0.712758  0.000000  0.500000  1
  Ir  Ir31  1  0.999670  0.552375  0.000000  1
  Ir  Ir32  1  0.447294  0.447625  0.000000  1
  Ir  Ir33  1  0.552193  0.000000  0.000000  1
  Ir  Ir34  1  0.005522  0.000000  0.000000  1
  Ir  Ir35  1  0.486861  0.126382  0.500000  1
