# generated using pymatgen
data_TmPa3(GaTc)4
_symmetry_space_group_name_H-M   'P 1'
_cell_length_a   3.87903800
_cell_length_b   7.01903270
_cell_length_c   8.41069239
_cell_angle_alpha   91.57129648
_cell_angle_beta   90.00000000
_cell_angle_gamma   90.00000000
_symmetry_Int_Tables_number   1
_chemical_formula_structural   TmPa3(GaTc)4
_chemical_formula_sum   'Tm1 Pa3 Ga4 Tc4'
_cell_volume   228.91260818
_cell_formula_units_Z   1
loop_
 _symmetry_equiv_pos_site_id
 _symmetry_equiv_pos_as_xyz
  1  'x, y, z'
loop_
 _atom_site_type_symbol
 _atom_site_label
 _atom_site_symmetry_multiplicity
 _atom_site_fract_x
 _atom_site_fract_y
 _atom_site_fract_z
 _atom_site_occupancy
  Tm  Tm0  1  0.750000  0.540607  0.814634  1
  Pa  Pa1  1  0.250000  0.969124  0.311314  1
  Pa  Pa2  1  0.250000  0.463440  0.184290  1
  Pa  Pa3  1  0.750000  0.035312  0.690647  1
  Ga  Ga4  1  0.250000  0.371493  0.563961  1
  Ga  Ga5  1  0.250000  0.846812  0.942966  1
  Ga  Ga6  1  0.750000  0.635846  0.447248  1
  Ga  Ga7  1  0.750000  0.129812  0.053938  1
  Tc  Tc8  1  0.250000  0.232030  0.859352  1
  Tc  Tc9  1  0.250000  0.783491  0.626259  1
  Tc  Tc10  1  0.750000  0.742584  0.148184  1
  Tc  Tc11  1  0.750000  0.249449  0.357208  1
