# generated using pymatgen
data_NdDy3(Tm4Bi3)4
_symmetry_space_group_name_H-M   'P 1'
_cell_length_a   8.20865241
_cell_length_b   9.45026800
_cell_length_c   11.94905860
_cell_angle_alpha   90.00000000
_cell_angle_beta   90.03619529
_cell_angle_gamma   90.00000000
_symmetry_Int_Tables_number   1
_chemical_formula_structural   NdDy3(Tm4Bi3)4
_chemical_formula_sum   'Nd1 Dy3 Tm16 Bi12'
_cell_volume   926.93567061
_cell_formula_units_Z   1
loop_
 _symmetry_equiv_pos_site_id
 _symmetry_equiv_pos_as_xyz
  1  'x, y, z'
loop_
 _atom_site_type_symbol
 _atom_site_label
 _atom_site_symmetry_multiplicity
 _atom_site_fract_x
 _atom_site_fract_y
 _atom_site_fract_z
 _atom_site_occupancy
  Nd  Nd0  1  0.313938  0.250000  0.219247  1
  Dy  Dy1  1  0.812964  0.250000  0.281741  1
  Dy  Dy2  1  0.687402  0.750000  0.782068  1
  Dy  Dy3  1  0.187530  0.750000  0.718036  1
  Tm  Tm4  1  0.352637  0.750000  0.217281  1
  Tm  Tm5  1  0.852438  0.750000  0.282970  1
  Tm  Tm6  1  0.647436  0.250000  0.782324  1
  Tm  Tm7  1  0.147125  0.250000  0.717390  1
  Tm  Tm8  1  0.692087  0.566062  0.059654  1
  Tm  Tm9  1  0.192540  0.933861  0.440587  1
  Tm  Tm10  1  0.307766  0.065994  0.939956  1
  Tm  Tm11  1  0.807161  0.434051  0.559821  1
  Tm  Tm12  1  0.307766  0.434006  0.939956  1
  Tm  Tm13  1  0.807161  0.065949  0.559821  1
  Tm  Tm14  1  0.692087  0.933938  0.059654  1
  Tm  Tm15  1  0.192540  0.566139  0.440587  1
  Tm  Tm16  1  0.476217  0.250000  0.489116  1
  Tm  Tm17  1  0.976167  0.250000  0.010582  1
  Tm  Tm18  1  0.523968  0.750000  0.511322  1
  Tm  Tm19  1  0.023520  0.750000  0.988471  1
  Bi  Bi20  1  0.404696  0.750000  0.958605  1
  Bi  Bi21  1  0.904969  0.750000  0.541573  1
  Bi  Bi22  1  0.598097  0.250000  0.039168  1
  Bi  Bi23  1  0.093404  0.250000  0.459997  1
  Bi  Bi24  1  0.567448  0.993089  0.326860  1
  Bi  Bi25  1  0.062524  0.507414  0.173553  1
  Bi  Bi26  1  0.434478  0.494726  0.673912  1
  Bi  Bi27  1  0.934741  0.005066  0.825711  1
  Bi  Bi28  1  0.434478  0.005274  0.673912  1
  Bi  Bi29  1  0.934741  0.494934  0.825711  1
  Bi  Bi30  1  0.567448  0.506911  0.326860  1
  Bi  Bi31  1  0.062524  0.992586  0.173553  1
