# generated using pymatgen
data_Y8Be(Si4Ni)3
_symmetry_space_group_name_H-M   'P 1'
_cell_length_a   7.92616300
_cell_length_b   7.92616231
_cell_length_c   8.14549600
_cell_angle_alpha   90.00000000
_cell_angle_beta   90.00000000
_cell_angle_gamma   119.99999872
_symmetry_Int_Tables_number   1
_chemical_formula_structural   Y8Be(Si4Ni)3
_chemical_formula_sum   'Y8 Be1 Si12 Ni3'
_cell_volume   443.17385627
_cell_formula_units_Z   1
loop_
 _symmetry_equiv_pos_site_id
 _symmetry_equiv_pos_as_xyz
  1  'x, y, z'
loop_
 _atom_site_type_symbol
 _atom_site_label
 _atom_site_symmetry_multiplicity
 _atom_site_fract_x
 _atom_site_fract_y
 _atom_site_fract_z
 _atom_site_occupancy
  Y  Y0  1  0.000000  0.000000  0.249423  1
  Y  Y1  1  0.000000  0.000000  0.750801  1
  Y  Y2  1  0.999780  0.499890  0.249273  1
  Y  Y3  1  0.500110  0.499890  0.249273  1
  Y  Y4  1  0.500361  0.000723  0.750742  1
  Y  Y5  1  0.500110  0.000220  0.249273  1
  Y  Y6  1  0.500361  0.499639  0.750742  1
  Y  Y7  1  0.999277  0.499639  0.750742  1
  Be  Be8  1  0.666667  0.333333  0.499992  1
  Si  Si9  1  0.171328  0.342656  0.000146  1
  Si  Si10  1  0.657344  0.828672  0.000146  1
  Si  Si11  1  0.172440  0.344879  0.499886  1
  Si  Si12  1  0.342374  0.171187  0.000142  1
  Si  Si13  1  0.171328  0.828672  0.000146  1
  Si  Si14  1  0.655121  0.827560  0.499886  1
  Si  Si15  1  0.828813  0.657626  0.000142  1
  Si  Si16  1  0.342409  0.171204  0.500017  1
  Si  Si17  1  0.172440  0.827560  0.499886  1
  Si  Si18  1  0.828796  0.657591  0.500017  1
  Si  Si19  1  0.828813  0.171187  0.000142  1
  Si  Si20  1  0.828796  0.171204  0.500017  1
  Ni  Ni21  1  0.333333  0.666667  0.997420  1
  Ni  Ni22  1  0.333333  0.666667  0.502591  1
  Ni  Ni23  1  0.666667  0.333333  0.999156  1
