# generated using pymatgen
data_Er2Ta2MnFe7P6
_symmetry_space_group_name_H-M   'P 1'
_cell_length_a   3.66932400
_cell_length_b   10.47862200
_cell_length_c   12.28563300
_cell_angle_alpha   90.00000000
_cell_angle_beta   90.00000000
_cell_angle_gamma   90.00000000
_symmetry_Int_Tables_number   1
_chemical_formula_structural   Er2Ta2MnFe7P6
_chemical_formula_sum   'Er4 Ta4 Mn2 Fe14 P12'
_cell_volume   472.37594468
_cell_formula_units_Z   2
loop_
 _symmetry_equiv_pos_site_id
 _symmetry_equiv_pos_as_xyz
  1  'x, y, z'
loop_
 _atom_site_type_symbol
 _atom_site_label
 _atom_site_symmetry_multiplicity
 _atom_site_fract_x
 _atom_site_fract_y
 _atom_site_fract_z
 _atom_site_occupancy
  Er  Er0  1  0.250000  0.583926  0.713151  1
  Er  Er1  1  0.250000  0.916074  0.213151  1
  Er  Er2  1  0.750000  0.416722  0.286813  1
  Er  Er3  1  0.750000  0.083278  0.786813  1
  Ta  Ta4  1  0.250000  0.704049  0.991723  1
  Ta  Ta5  1  0.250000  0.795951  0.491723  1
  Ta  Ta6  1  0.750000  0.296584  0.008141  1
  Ta  Ta7  1  0.750000  0.203416  0.508141  1
  Mn  Mn8  1  0.250000  0.411855  0.491347  1
  Mn  Mn9  1  0.250000  0.088146  0.991347  1
  Fe  Fe10  1  0.750000  0.587462  0.510024  1
  Fe  Fe11  1  0.750000  0.912538  0.010024  1
  Fe  Fe12  1  0.250000  0.215708  0.172210  1
  Fe  Fe13  1  0.250000  0.284292  0.672210  1
  Fe  Fe14  1  0.750000  0.782332  0.826929  1
  Fe  Fe15  1  0.750000  0.717668  0.326929  1
  Fe  Fe16  1  0.250000  0.878665  0.699254  1
  Fe  Fe17  1  0.250000  0.621335  0.199254  1
  Fe  Fe18  1  0.750000  0.120305  0.300406  1
  Fe  Fe19  1  0.750000  0.379695  0.800406  1
  Fe  Fe20  1  0.250000  0.463957  0.933221  1
  Fe  Fe21  1  0.250000  0.036043  0.433221  1
  Fe  Fe22  1  0.750000  0.536972  0.066671  1
  Fe  Fe23  1  0.750000  0.963028  0.566671  1
  P  P24  1  0.250000  0.426908  0.113432  1
  P  P25  1  0.250000  0.073092  0.613432  1
  P  P26  1  0.750000  0.573739  0.886454  1
  P  P27  1  0.750000  0.926261  0.386454  1
  P  P28  1  0.250000  0.271069  0.857214  1
  P  P29  1  0.250000  0.228931  0.357214  1
  P  P30  1  0.750000  0.729254  0.142793  1
  P  P31  1  0.750000  0.770746  0.642793  1
  P  P32  1  0.250000  0.593898  0.379205  1
  P  P33  1  0.250000  0.906102  0.879205  1
  P  P34  1  0.750000  0.407549  0.621012  1
  P  P35  1  0.750000  0.092451  0.121012  1
