# generated using pymatgen
data_Cs3Rb5Dy2(PaTe6)2
_symmetry_space_group_name_H-M   'P 1'
_cell_length_a   15.12044559
_cell_length_b   7.57304871
_cell_length_c   10.00459033
_cell_angle_alpha   70.51189532
_cell_angle_beta   89.49853099
_cell_angle_gamma   89.13751359
_symmetry_Int_Tables_number   1
_chemical_formula_structural   Cs3Rb5Dy2(PaTe6)2
_chemical_formula_sum   'Cs3 Rb5 Dy2 Pa2 Te12'
_cell_volume   1079.84273654
_cell_formula_units_Z   1
loop_
 _symmetry_equiv_pos_site_id
 _symmetry_equiv_pos_as_xyz
  1  'x, y, z'
loop_
 _atom_site_type_symbol
 _atom_site_label
 _atom_site_symmetry_multiplicity
 _atom_site_fract_x
 _atom_site_fract_y
 _atom_site_fract_z
 _atom_site_occupancy
  Cs  Cs0  1  0.952315  0.668811  0.669761  1
  Cs  Cs1  1  0.451089  0.832748  0.329496  1
  Cs  Cs2  1  0.047133  0.334088  0.332867  1
  Rb  Rb3  1  0.540553  0.169545  0.654944  1
  Rb  Rb4  1  0.868516  0.081526  0.899202  1
  Rb  Rb5  1  0.371105  0.416026  0.100968  1
  Rb  Rb6  1  0.132693  0.927836  0.102773  1
  Rb  Rb7  1  0.629852  0.573847  0.898625  1
  Dy  Dy8  1  0.251610  0.347801  0.711226  1
  Dy  Dy9  1  0.749408  0.151395  0.290680  1
  Pa  Pa10  1  0.748679  0.651648  0.291970  1
  Pa  Pa11  1  0.252055  0.847856  0.709859  1
  Te  Te12  1  0.909515  0.896165  0.276288  1
  Te  Te13  1  0.411891  0.592722  0.723392  1
  Te  Te14  1  0.091792  0.088968  0.726331  1
  Te  Te15  1  0.588996  0.416635  0.278144  1
  Te  Te16  1  0.816711  0.305786  0.520348  1
  Te  Te17  1  0.319361  0.191307  0.480548  1
  Te  Te18  1  0.183712  0.708196  0.481920  1
  Te  Te19  1  0.679789  0.797105  0.519748  1
  Te  Te20  1  0.839822  0.503366  0.075642  1
  Te  Te21  1  0.344155  0.992274  0.923333  1
  Te  Te22  1  0.160779  0.512008  0.926073  1
  Te  Te23  1  0.658470  0.992337  0.075865  1
