# generated using pymatgen
data_Lu20Zn3Cd3Ru2
_symmetry_space_group_name_H-M   'P 1'
_cell_length_a   9.30505800
_cell_length_b   9.30505884
_cell_length_c   9.50402300
_cell_angle_alpha   90.00000000
_cell_angle_beta   90.00000000
_cell_angle_gamma   120.00000414
_symmetry_Int_Tables_number   1
_chemical_formula_structural   Lu20Zn3Cd3Ru2
_chemical_formula_sum   'Lu20 Zn3 Cd3 Ru2'
_cell_volume   712.65001773
_cell_formula_units_Z   1
loop_
 _symmetry_equiv_pos_site_id
 _symmetry_equiv_pos_as_xyz
  1  'x, y, z'
loop_
 _atom_site_type_symbol
 _atom_site_label
 _atom_site_symmetry_multiplicity
 _atom_site_fract_x
 _atom_site_fract_y
 _atom_site_fract_z
 _atom_site_occupancy
  Lu  Lu0  1  0.000000  0.000000  0.474835  1
  Lu  Lu1  1  0.000000  0.000000  0.025165  1
  Lu  Lu2  1  0.208112  0.791888  0.439195  1
  Lu  Lu3  1  0.208112  0.416223  0.439195  1
  Lu  Lu4  1  0.583777  0.791888  0.439195  1
  Lu  Lu5  1  0.791083  0.208917  0.556423  1
  Lu  Lu6  1  0.791083  0.582166  0.556423  1
  Lu  Lu7  1  0.417834  0.208917  0.556423  1
  Lu  Lu8  1  0.791083  0.208917  0.943577  1
  Lu  Lu9  1  0.791083  0.582166  0.943577  1
  Lu  Lu10  1  0.417834  0.208917  0.943577  1
  Lu  Lu11  1  0.208112  0.791888  0.060805  1
  Lu  Lu12  1  0.208112  0.416223  0.060805  1
  Lu  Lu13  1  0.583777  0.791888  0.060805  1
  Lu  Lu14  1  0.541594  0.458406  0.250000  1
  Lu  Lu15  1  0.541594  0.083187  0.250000  1
  Lu  Lu16  1  0.916813  0.458406  0.250000  1
  Lu  Lu17  1  0.458770  0.541230  0.750000  1
  Lu  Lu18  1  0.458770  0.917539  0.750000  1
  Lu  Lu19  1  0.082461  0.541230  0.750000  1
  Zn  Zn20  1  0.878738  0.121262  0.250000  1
  Zn  Zn21  1  0.878738  0.757478  0.250000  1
  Zn  Zn22  1  0.242522  0.121262  0.250000  1
  Cd  Cd23  1  0.110351  0.889649  0.750000  1
  Cd  Cd24  1  0.110351  0.220702  0.750000  1
  Cd  Cd25  1  0.779298  0.889649  0.750000  1
  Ru  Ru26  1  0.333333  0.666667  0.250000  1
  Ru  Ru27  1  0.666667  0.333333  0.750000  1
