# generated using pymatgen
data_Yb5(GaAs3)2
_symmetry_space_group_name_H-M   'P 1'
_cell_length_a   4.15658700
_cell_length_b   11.36694900
_cell_length_c   13.15017900
_cell_angle_alpha   90.00000000
_cell_angle_beta   90.00000000
_cell_angle_gamma   90.00000000
_symmetry_Int_Tables_number   1
_chemical_formula_structural   Yb5(GaAs3)2
_chemical_formula_sum   'Yb10 Ga4 As12'
_cell_volume   621.31587597
_cell_formula_units_Z   2
loop_
 _symmetry_equiv_pos_site_id
 _symmetry_equiv_pos_as_xyz
  1  'x, y, z'
loop_
 _atom_site_type_symbol
 _atom_site_label
 _atom_site_symmetry_multiplicity
 _atom_site_fract_x
 _atom_site_fract_y
 _atom_site_fract_z
 _atom_site_occupancy
  Yb  Yb0  1  0.500000  0.089137  0.750581  1
  Yb  Yb1  1  0.500000  0.589137  0.749419  1
  Yb  Yb2  1  0.500000  0.326610  0.517071  1
  Yb  Yb3  1  0.500000  0.673390  0.482929  1
  Yb  Yb4  1  0.500000  0.826610  0.982929  1
  Yb  Yb5  1  0.500000  0.910863  0.249419  1
  Yb  Yb6  1  0.500000  0.173390  0.017071  1
  Yb  Yb7  1  0.500000  0.500000  0.000000  1
  Yb  Yb8  1  0.500000  0.000000  0.500000  1
  Yb  Yb9  1  0.500000  0.410863  0.250581  1
  Ga  Ga10  1  0.000000  0.828248  0.787696  1
  Ga  Ga11  1  0.000000  0.171752  0.212304  1
  Ga  Ga12  1  0.000000  0.671752  0.287696  1
  Ga  Ga13  1  0.000000  0.328248  0.712304  1
  As  As14  1  0.500000  0.838189  0.678781  1
  As  As15  1  0.000000  0.479418  0.405567  1
  As  As16  1  0.500000  0.161811  0.321219  1
  As  As17  1  0.000000  0.020582  0.905567  1
  As  As18  1  0.000000  0.845719  0.404053  1
  As  As19  1  0.000000  0.979418  0.094433  1
  As  As20  1  0.000000  0.345719  0.095947  1
  As  As21  1  0.000000  0.520582  0.594433  1
  As  As22  1  0.000000  0.154281  0.595947  1
  As  As23  1  0.000000  0.654281  0.904053  1
  As  As24  1  0.500000  0.661811  0.178781  1
  As  As25  1  0.500000  0.338189  0.821219  1
