# generated using pymatgen
data_Ho5Tm15Pt16
_symmetry_space_group_name_H-M   'P 1'
_cell_length_a   7.40687941
_cell_length_b   7.49015559
_cell_length_c   14.60109636
_cell_angle_alpha   90.02507137
_cell_angle_beta   90.00351024
_cell_angle_gamma   89.96194642
_symmetry_Int_Tables_number   1
_chemical_formula_structural   Ho5Tm15Pt16
_chemical_formula_sum   'Ho5 Tm15 Pt16'
_cell_volume   810.04928370
_cell_formula_units_Z   1
loop_
 _symmetry_equiv_pos_site_id
 _symmetry_equiv_pos_as_xyz
  1  'x, y, z'
loop_
 _atom_site_type_symbol
 _atom_site_label
 _atom_site_symmetry_multiplicity
 _atom_site_fract_x
 _atom_site_fract_y
 _atom_site_fract_z
 _atom_site_occupancy
  Ho  Ho0  1  0.998857  0.179349  0.407048  1
  Ho  Ho1  1  0.499068  0.321428  0.407501  1
  Ho  Ho2  1  0.998854  0.178809  0.092453  1
  Ho  Ho3  1  0.500955  0.678984  0.907558  1
  Ho  Ho4  1  0.001237  0.820459  0.592684  1
  Tm  Tm5  1  0.656016  0.167470  0.622643  1
  Tm  Tm6  1  0.156102  0.332706  0.877465  1
  Tm  Tm7  1  0.343830  0.832705  0.122485  1
  Tm  Tm8  1  0.843789  0.667262  0.377389  1
  Tm  Tm9  1  0.344607  0.832037  0.377669  1
  Tm  Tm10  1  0.843961  0.667538  0.122060  1
  Tm  Tm11  1  0.655980  0.167540  0.877780  1
  Tm  Tm12  1  0.156427  0.332727  0.622425  1
  Tm  Tm13  1  0.501589  0.680057  0.593042  1
  Tm  Tm14  1  0.001674  0.819947  0.906960  1
  Tm  Tm15  1  0.498280  0.319950  0.092928  1
  Tm  Tm16  1  0.819139  0.510347  0.750024  1
  Tm  Tm17  1  0.319100  0.989599  0.750120  1
  Tm  Tm18  1  0.180841  0.489743  0.249705  1
  Tm  Tm19  1  0.680744  0.010357  0.249797  1
  Pt  Pt20  1  0.683276  0.966134  0.458605  1
  Pt  Pt21  1  0.184615  0.533163  0.041575  1
  Pt  Pt22  1  0.315407  0.033119  0.958419  1
  Pt  Pt23  1  0.815410  0.467437  0.541804  1
  Pt  Pt24  1  0.316823  0.032551  0.542003  1
  Pt  Pt25  1  0.816686  0.467049  0.958348  1
  Pt  Pt26  1  0.683298  0.967152  0.041646  1
  Pt  Pt27  1  0.183575  0.533935  0.458750  1
  Pt  Pt28  1  0.453933  0.386854  0.749886  1
  Pt  Pt29  1  0.953826  0.113228  0.750255  1
  Pt  Pt30  1  0.545996  0.613382  0.249653  1
  Pt  Pt31  1  0.046360  0.886442  0.249986  1
  Pt  Pt32  1  0.681919  0.856141  0.749844  1
  Pt  Pt33  1  0.181983  0.643976  0.750345  1
  Pt  Pt34  1  0.318412  0.143926  0.249479  1
  Pt  Pt35  1  0.817430  0.356500  0.249665  1
