# generated using pymatgen
data_Ca9LaRh4
_symmetry_space_group_name_H-M   'P 1'
_cell_length_a   8.77656314
_cell_length_b   8.77656414
_cell_length_c   7.59387242
_cell_angle_alpha   83.11165948
_cell_angle_beta   83.11165849
_cell_angle_gamma   44.30462720
_symmetry_Int_Tables_number   1
_chemical_formula_structural   Ca9LaRh4
_chemical_formula_sum   'Ca9 La1 Rh4'
_cell_volume   405.12576601
_cell_formula_units_Z   1
loop_
 _symmetry_equiv_pos_site_id
 _symmetry_equiv_pos_as_xyz
  1  'x, y, z'
loop_
 _atom_site_type_symbol
 _atom_site_label
 _atom_site_symmetry_multiplicity
 _atom_site_fract_x
 _atom_site_fract_y
 _atom_site_fract_z
 _atom_site_occupancy
  Ca  Ca0  1  0.018857  0.803031  0.913019  1
  Ca  Ca1  1  0.196969  0.981143  0.586981  1
  Ca  Ca2  1  0.984260  0.195247  0.080561  1
  Ca  Ca3  1  0.804753  0.015740  0.419439  1
  Ca  Ca4  1  0.363252  0.204750  0.821741  1
  Ca  Ca5  1  0.795250  0.636748  0.678259  1
  Ca  Ca6  1  0.639840  0.800481  0.178266  1
  Ca  Ca7  1  0.199519  0.360160  0.321734  1
  Ca  Ca8  1  0.572253  0.427747  0.750000  1
  La  La9  1  0.435703  0.564297  0.250000  1
  Rh  Rh10  1  0.182918  0.600210  0.569643  1
  Rh  Rh11  1  0.399790  0.817082  0.930357  1
  Rh  Rh12  1  0.810539  0.403901  0.413092  1
  Rh  Rh13  1  0.596099  0.189461  0.086908  1
