# generated using pymatgen
data_HoErAg2(Pt2O7)2
_symmetry_space_group_name_H-M   'P 1'
_cell_length_a   7.37286206
_cell_length_b   7.22090765
_cell_length_c   7.22090739
_cell_angle_alpha   59.30803044
_cell_angle_beta   59.30431194
_cell_angle_gamma   59.30432051
_symmetry_Int_Tables_number   1
_chemical_formula_structural   HoErAg2(Pt2O7)2
_chemical_formula_sum   'Ho1 Er1 Ag2 Pt4 O14'
_cell_volume   267.53629754
_cell_formula_units_Z   1
loop_
 _symmetry_equiv_pos_site_id
 _symmetry_equiv_pos_as_xyz
  1  'x, y, z'
loop_
 _atom_site_type_symbol
 _atom_site_label
 _atom_site_symmetry_multiplicity
 _atom_site_fract_x
 _atom_site_fract_y
 _atom_site_fract_z
 _atom_site_occupancy
  Ho  Ho0  1  0.125000  0.625000  0.625000  1
  Er  Er1  1  0.625000  0.625000  0.625000  1
  Ag  Ag2  1  0.625000  0.625000  0.125000  1
  Ag  Ag3  1  0.625000  0.125000  0.625000  1
  Pt  Pt4  1  0.625000  0.125000  0.125000  1
  Pt  Pt5  1  0.125000  0.125000  0.125000  1
  Pt  Pt6  1  0.125000  0.625000  0.125000  1
  Pt  Pt7  1  0.125000  0.125000  0.625000  1
  O  O8  1  0.030224  0.469432  0.469432  1
  O  O9  1  0.793276  0.787955  0.223245  1
  O  O10  1  0.794878  0.205158  0.205158  1
  O  O11  1  0.739085  0.760347  0.760347  1
  O  O12  1  0.054373  0.461755  0.027376  1
  O  O13  1  0.456724  0.026755  0.462045  1
  O  O14  1  0.054373  0.027376  0.461755  1
  O  O15  1  0.510915  0.489653  0.489653  1
  O  O16  1  0.195627  0.222624  0.788245  1
  O  O17  1  0.195627  0.788245  0.222624  1
  O  O18  1  0.793276  0.223245  0.787955  1
  O  O19  1  0.455122  0.044842  0.044842  1
  O  O20  1  0.456724  0.462045  0.026755  1
  O  O21  1  0.219776  0.780568  0.780568  1
