# generated using pymatgen
data_NdY2Th(Al3Rh)6
_symmetry_space_group_name_H-M   'P 1'
_cell_length_a   7.60842594
_cell_length_b   7.61447070
_cell_length_c   9.52541600
_cell_angle_alpha   90.00000000
_cell_angle_beta   90.00000000
_cell_angle_gamma   119.35082109
_symmetry_Int_Tables_number   1
_chemical_formula_structural   NdY2Th(Al3Rh)6
_chemical_formula_sum   'Nd1 Y2 Th1 Al18 Rh6'
_cell_volume   481.00885902
_cell_formula_units_Z   1
loop_
 _symmetry_equiv_pos_site_id
 _symmetry_equiv_pos_as_xyz
  1  'x, y, z'
loop_
 _atom_site_type_symbol
 _atom_site_label
 _atom_site_symmetry_multiplicity
 _atom_site_fract_x
 _atom_site_fract_y
 _atom_site_fract_z
 _atom_site_occupancy
  Nd  Nd0  1  0.671430  0.994098  0.250000  1
  Y  Y1  1  0.004733  0.328021  0.750000  1
  Y  Y2  1  0.327750  0.004977  0.750000  1
  Th  Th3  1  0.995175  0.671690  0.250000  1
  Al  Al4  1  0.133045  0.133203  0.250000  1
  Al  Al5  1  0.872418  0.873613  0.750000  1
  Al  Al6  1  0.002996  0.332860  0.070993  1
  Al  Al7  1  0.999272  0.664051  0.918640  1
  Al  Al8  1  0.999272  0.664051  0.581360  1
  Al  Al9  1  0.338339  0.005369  0.428994  1
  Al  Al10  1  0.002996  0.332860  0.429007  1
  Al  Al11  1  0.664302  0.000242  0.578300  1
  Al  Al12  1  0.664302  0.000242  0.921700  1
  Al  Al13  1  0.338339  0.005369  0.071006  1
  Al  Al14  1  0.332263  0.332337  0.553863  1
  Al  Al15  1  0.663646  0.665488  0.458785  1
  Al  Al16  1  0.663646  0.665488  0.041215  1
  Al  Al17  1  0.332263  0.332337  0.946137  1
  Al  Al18  1  0.341552  0.546901  0.250000  1
  Al  Al19  1  0.658214  0.448119  0.750000  1
  Al  Al20  1  0.545425  0.339190  0.250000  1
  Al  Al21  1  0.448324  0.660051  0.750000  1
  Rh  Rh22  1  0.672797  0.329765  0.999600  1
  Rh  Rh23  1  0.326420  0.671141  0.999442  1
  Rh  Rh24  1  0.326420  0.671141  0.500558  1
  Rh  Rh25  1  0.672797  0.329765  0.500400  1
  Rh  Rh26  1  0.000930  0.998815  0.999529  1
  Rh  Rh27  1  0.000930  0.998815  0.500471  1
