# generated using pymatgen
data_HoTh2P4Pd7
_symmetry_space_group_name_H-M   'P 1'
_cell_length_a   8.05786516
_cell_length_b   8.05786687
_cell_length_c   9.54121087
_cell_angle_alpha   55.51653374
_cell_angle_beta   55.51652529
_cell_angle_gamma   29.29258370
_symmetry_Int_Tables_number   1
_chemical_formula_structural   HoTh2P4Pd7
_chemical_formula_sum   'Ho1 Th2 P4 Pd7'
_cell_volume   245.78728524
_cell_formula_units_Z   1
loop_
 _symmetry_equiv_pos_site_id
 _symmetry_equiv_pos_as_xyz
  1  'x, y, z'
loop_
 _atom_site_type_symbol
 _atom_site_label
 _atom_site_symmetry_multiplicity
 _atom_site_fract_x
 _atom_site_fract_y
 _atom_site_fract_z
 _atom_site_occupancy
  Ho  Ho0  1  0.318199  0.318199  0.679326  1
  Th  Th1  1  0.679602  0.679602  0.325470  1
  Th  Th2  1  0.001839  0.001839  0.996814  1
  P  P3  1  0.343639  0.343639  0.250204  1
  P  P4  1  0.661468  0.661468  0.745056  1
  P  P5  1  0.891498  0.891498  0.819271  1
  P  P6  1  0.105696  0.105696  0.176715  1
  Pd  Pd7  1  0.308372  0.308372  0.024611  1
  Pd  Pd8  1  0.692077  0.692077  0.973829  1
  Pd  Pd9  1  0.509977  0.509977  0.712624  1
  Pd  Pd10  1  0.832840  0.832840  0.427865  1
  Pd  Pd11  1  0.489848  0.489848  0.288262  1
  Pd  Pd12  1  0.167150  0.167150  0.576528  1
  Pd  Pd13  1  0.997794  0.997794  0.503424  1
