# generated using pymatgen
data_Tb4Al17Si(TcPd2)2
_symmetry_space_group_name_H-M   'P 1'
_cell_length_a   7.61868606
_cell_length_b   7.61868542
_cell_length_c   9.48050800
_cell_angle_alpha   90.00000000
_cell_angle_beta   90.00000000
_cell_angle_gamma   119.03911125
_symmetry_Int_Tables_number   1
_chemical_formula_structural   Tb4Al17Si(TcPd2)2
_chemical_formula_sum   'Tb4 Al17 Si1 Tc2 Pd4'
_cell_volume   481.11237262
_cell_formula_units_Z   1
loop_
 _symmetry_equiv_pos_site_id
 _symmetry_equiv_pos_as_xyz
  1  'x, y, z'
loop_
 _atom_site_type_symbol
 _atom_site_label
 _atom_site_symmetry_multiplicity
 _atom_site_fract_x
 _atom_site_fract_y
 _atom_site_fract_z
 _atom_site_occupancy
  Tb  Tb0  1  0.992074  0.678267  0.250000  1
  Tb  Tb1  1  0.005255  0.326272  0.750000  1
  Tb  Tb2  1  0.678267  0.992074  0.250000  1
  Tb  Tb3  1  0.326272  0.005255  0.750000  1
  Al  Al4  1  0.873144  0.873144  0.750000  1
  Al  Al5  1  0.001791  0.334620  0.079673  1
  Al  Al6  1  0.999098  0.669322  0.923475  1
  Al  Al7  1  0.999098  0.669322  0.576525  1
  Al  Al8  1  0.334620  0.001791  0.420327  1
  Al  Al9  1  0.001791  0.334620  0.420327  1
  Al  Al10  1  0.669322  0.999098  0.576525  1
  Al  Al11  1  0.669322  0.999098  0.923475  1
  Al  Al12  1  0.334620  0.001791  0.079673  1
  Al  Al13  1  0.328687  0.328687  0.554275  1
  Al  Al14  1  0.669125  0.669125  0.449640  1
  Al  Al15  1  0.669125  0.669125  0.050360  1
  Al  Al16  1  0.328687  0.328687  0.945725  1
  Al  Al17  1  0.340801  0.548708  0.250000  1
  Al  Al18  1  0.656148  0.449574  0.750000  1
  Al  Al19  1  0.548708  0.340801  0.250000  1
  Al  Al20  1  0.449574  0.656148  0.750000  1
  Si  Si21  1  0.126372  0.126372  0.250000  1
  Tc  Tc22  1  0.001319  0.001319  0.006840  1
  Tc  Tc23  1  0.001319  0.001319  0.493160  1
  Pd  Pd24  1  0.670855  0.326875  0.000379  1
  Pd  Pd25  1  0.326875  0.670855  0.000379  1
  Pd  Pd26  1  0.326875  0.670855  0.499621  1
  Pd  Pd27  1  0.670855  0.326875  0.499621  1
