# generated using pymatgen
data_La2Tb2Mg3Au10
_symmetry_space_group_name_H-M   'P 1'
_cell_length_a   8.64411617
_cell_length_b   8.64411527
_cell_length_c   10.32327300
_cell_angle_alpha   90.00000000
_cell_angle_beta   90.00000000
_cell_angle_gamma   107.95649998
_symmetry_Int_Tables_number   1
_chemical_formula_structural   La2Tb2Mg3Au10
_chemical_formula_sum   'La4 Tb4 Mg6 Au20'
_cell_volume   733.79015066
_cell_formula_units_Z   2
loop_
 _symmetry_equiv_pos_site_id
 _symmetry_equiv_pos_as_xyz
  1  'x, y, z'
loop_
 _atom_site_type_symbol
 _atom_site_label
 _atom_site_symmetry_multiplicity
 _atom_site_fract_x
 _atom_site_fract_y
 _atom_site_fract_z
 _atom_site_occupancy
  La  La0  1  0.303472  0.303472  0.202402  1
  La  La1  1  0.696528  0.696528  0.797598  1
  La  La2  1  0.196528  0.196528  0.702402  1
  La  La3  1  0.803472  0.803472  0.297598  1
  Tb  Tb4  1  0.698231  0.301769  0.000000  1
  Tb  Tb5  1  0.301769  0.698231  0.000000  1
  Tb  Tb6  1  0.801769  0.198231  0.500000  1
  Tb  Tb7  1  0.198231  0.801769  0.500000  1
  Mg  Mg8  1  0.013846  0.513846  0.250000  1
  Mg  Mg9  1  0.986154  0.486154  0.750000  1
  Mg  Mg10  1  0.486154  0.986154  0.750000  1
  Mg  Mg11  1  0.513846  0.013846  0.250000  1
  Mg  Mg12  1  0.000000  0.000000  0.000000  1
  Mg  Mg13  1  0.500000  0.500000  0.500000  1
  Au  Au14  1  0.097829  0.097829  0.403929  1
  Au  Au15  1  0.902171  0.902171  0.596071  1
  Au  Au16  1  0.402171  0.402171  0.903929  1
  Au  Au17  1  0.597829  0.597829  0.096071  1
  Au  Au18  1  0.878161  0.169603  0.206396  1
  Au  Au19  1  0.121839  0.830397  0.793604  1
  Au  Au20  1  0.621839  0.330397  0.706396  1
  Au  Au21  1  0.669603  0.378161  0.293604  1
  Au  Au22  1  0.378161  0.669603  0.293604  1
  Au  Au23  1  0.330397  0.621839  0.706396  1
  Au  Au24  1  0.830397  0.121839  0.793604  1
  Au  Au25  1  0.169603  0.878161  0.206396  1
  Au  Au26  1  0.937944  0.649834  0.019246  1
  Au  Au27  1  0.062056  0.350166  0.980754  1
  Au  Au28  1  0.562056  0.850166  0.519246  1
  Au  Au29  1  0.149834  0.437944  0.480754  1
  Au  Au30  1  0.437944  0.149834  0.480754  1
  Au  Au31  1  0.850166  0.562056  0.519246  1
  Au  Au32  1  0.350166  0.062056  0.980754  1
  Au  Au33  1  0.649834  0.937944  0.019246  1
