# generated using pymatgen
data_Dy18MgInIr12
_symmetry_space_group_name_H-M   'P 1'
_cell_length_a   10.81880200
_cell_length_b   10.81880200
_cell_length_c   6.31572300
_cell_angle_alpha   90.00000000
_cell_angle_beta   90.00000000
_cell_angle_gamma   90.00000000
_symmetry_Int_Tables_number   1
_chemical_formula_structural   Dy18MgInIr12
_chemical_formula_sum   'Dy18 Mg1 In1 Ir12'
_cell_volume   739.23312506
_cell_formula_units_Z   1
loop_
 _symmetry_equiv_pos_site_id
 _symmetry_equiv_pos_as_xyz
  1  'x, y, z'
loop_
 _atom_site_type_symbol
 _atom_site_label
 _atom_site_symmetry_multiplicity
 _atom_site_fract_x
 _atom_site_fract_y
 _atom_site_fract_z
 _atom_site_occupancy
  Dy  Dy0  1  0.284426  0.084930  0.380349  1
  Dy  Dy1  1  0.292004  0.911548  0.878595  1
  Dy  Dy2  1  0.707996  0.088452  0.878595  1
  Dy  Dy3  1  0.715574  0.915070  0.380349  1
  Dy  Dy4  1  0.586751  0.785672  0.879997  1
  Dy  Dy5  1  0.587541  0.207615  0.379355  1
  Dy  Dy6  1  0.412459  0.792385  0.379355  1
  Dy  Dy7  1  0.413249  0.214328  0.879997  1
  Dy  Dy8  1  0.207615  0.412459  0.620645  1
  Dy  Dy9  1  0.214328  0.586751  0.120003  1
  Dy  Dy10  1  0.785672  0.413249  0.120003  1
  Dy  Dy11  1  0.792385  0.587541  0.620645  1
  Dy  Dy12  1  0.911548  0.707996  0.121405  1
  Dy  Dy13  1  0.915070  0.284426  0.619651  1
  Dy  Dy14  1  0.084930  0.715574  0.619651  1
  Dy  Dy15  1  0.088452  0.292004  0.121405  1
  Dy  Dy16  1  0.000000  0.000000  0.000000  1
  Dy  Dy17  1  0.500000  0.500000  0.500000  1
  Mg  Mg18  1  0.000000  0.000000  0.500000  1
  In  In19  1  0.500000  0.500000  0.000000  1
  Ir  Ir20  1  0.846943  0.155462  0.244930  1
  Ir  Ir21  1  0.844538  0.846943  0.755070  1
  Ir  Ir22  1  0.155462  0.153057  0.755070  1
  Ir  Ir23  1  0.153057  0.844538  0.244930  1
  Ir  Ir24  1  0.656920  0.345279  0.743557  1
  Ir  Ir25  1  0.654721  0.656920  0.256443  1
  Ir  Ir26  1  0.345279  0.343080  0.256443  1
  Ir  Ir27  1  0.343080  0.654721  0.743557  1
  Ir  Ir28  1  0.500000  0.000000  0.123026  1
  Ir  Ir29  1  0.500000  0.000000  0.622586  1
  Ir  Ir30  1  0.000000  0.500000  0.876974  1
  Ir  Ir31  1  0.000000  0.500000  0.377414  1
