# generated using pymatgen
data_Li2DyY2ZrIr3
_symmetry_space_group_name_H-M   'P 1'
_cell_length_a   7.32490371
_cell_length_b   7.29216633
_cell_length_c   4.00213200
_cell_angle_alpha   90.00000000
_cell_angle_beta   90.00000000
_cell_angle_gamma   119.85225907
_symmetry_Int_Tables_number   1
_chemical_formula_structural   Li2DyY2ZrIr3
_chemical_formula_sum   'Li2 Dy1 Y2 Zr1 Ir3'
_cell_volume   185.40658405
_cell_formula_units_Z   1
loop_
 _symmetry_equiv_pos_site_id
 _symmetry_equiv_pos_as_xyz
  1  'x, y, z'
loop_
 _atom_site_type_symbol
 _atom_site_label
 _atom_site_symmetry_multiplicity
 _atom_site_fract_x
 _atom_site_fract_y
 _atom_site_fract_z
 _atom_site_occupancy
  Li  Li0  1  0.247026  0.242892  0.500000  1
  Li  Li1  1  0.752974  0.995866  0.500000  1
  Dy  Dy2  1  0.000000  0.390596  0.000000  1
  Y  Y3  1  0.568775  0.582258  0.000000  1
  Y  Y4  1  0.431225  0.013483  0.000000  1
  Zr  Zr5  1  0.000000  0.757300  0.500000  1
  Ir  Ir6  1  0.000000  0.987908  0.000000  1
  Ir  Ir7  1  0.682900  0.356298  0.500000  1
  Ir  Ir8  1  0.317100  0.673399  0.500000  1
