# generated using pymatgen
data_Ta8MnSi2B4Mo
_symmetry_space_group_name_H-M   'P 1'
_cell_length_a   7.23090848
_cell_length_b   7.23091260
_cell_length_c   7.23090876
_cell_angle_alpha   129.90917800
_cell_angle_beta   129.90901898
_cell_angle_gamma   73.55205325
_symmetry_Int_Tables_number   1
_chemical_formula_structural   Ta8MnSi2B4Mo
_chemical_formula_sum   'Ta8 Mn1 Si2 B4 Mo1'
_cell_volume   217.08717962
_cell_formula_units_Z   1
loop_
 _symmetry_equiv_pos_site_id
 _symmetry_equiv_pos_as_xyz
  1  'x, y, z'
loop_
 _atom_site_type_symbol
 _atom_site_label
 _atom_site_symmetry_multiplicity
 _atom_site_fract_x
 _atom_site_fract_y
 _atom_site_fract_z
 _atom_site_occupancy
  Ta  Ta0  1  0.803597  0.965552  0.493162  1
  Ta  Ta1  1  0.310436  0.803597  0.838047  1
  Ta  Ta2  1  0.196403  0.034448  0.506838  1
  Ta  Ta3  1  0.527610  0.689565  0.493161  1
  Ta  Ta4  1  0.034449  0.527610  0.838047  1
  Ta  Ta5  1  0.689564  0.196403  0.161953  1
  Ta  Ta6  1  0.965551  0.472390  0.161953  1
  Ta  Ta7  1  0.472390  0.310435  0.506839  1
  Mn  Mn8  1  0.500000  0.500000  0.000000  1
  Si  Si9  1  0.754376  0.754376  0.000000  1
  Si  Si10  1  0.245624  0.245624  0.000000  1
  B  B11  1  0.383180  0.878301  0.261481  1
  B  B12  1  0.878302  0.616818  0.495120  1
  B  B13  1  0.616820  0.121699  0.738519  1
  B  B14  1  0.121698  0.383182  0.504880  1
  Mo  Mo15  1  0.000000  0.000000  0.000000  1
