# generated using pymatgen
data_Mg2PaP4Pd7
_symmetry_space_group_name_H-M   'P 1'
_cell_length_a   7.77651449
_cell_length_b   7.77651429
_cell_length_c   9.23688098
_cell_angle_alpha   55.16478929
_cell_angle_beta   55.16479120
_cell_angle_gamma   30.03383313
_symmetry_Int_Tables_number   1
_chemical_formula_structural   Mg2PaP4Pd7
_chemical_formula_sum   'Mg2 Pa1 P4 Pd7'
_cell_volume   225.44573091
_cell_formula_units_Z   1
loop_
 _symmetry_equiv_pos_site_id
 _symmetry_equiv_pos_as_xyz
  1  'x, y, z'
loop_
 _atom_site_type_symbol
 _atom_site_label
 _atom_site_symmetry_multiplicity
 _atom_site_fract_x
 _atom_site_fract_y
 _atom_site_fract_z
 _atom_site_occupancy
  Mg  Mg0  1  0.674868  0.674868  0.330079  1
  Mg  Mg1  1  0.325132  0.325132  0.669921  1
  Pa  Pa2  1  0.000000  0.000000  0.000000  1
  P  P3  1  0.345800  0.345800  0.248875  1
  P  P4  1  0.654200  0.654200  0.751125  1
  P  P5  1  0.896368  0.896368  0.822401  1
  P  P6  1  0.103632  0.103632  0.177599  1
  Pd  Pd7  1  0.298127  0.298127  0.042693  1
  Pd  Pd8  1  0.701873  0.701873  0.957307  1
  Pd  Pd9  1  0.508417  0.508417  0.706874  1
  Pd  Pd10  1  0.826256  0.826256  0.428897  1
  Pd  Pd11  1  0.491583  0.491583  0.293126  1
  Pd  Pd12  1  0.173744  0.173744  0.571103  1
  Pd  Pd13  1  0.000000  0.000000  0.500000  1
