# generated using pymatgen
data_DyYGa3Cu
_symmetry_space_group_name_H-M   'P 1'
_cell_length_a   4.37051700
_cell_length_b   4.37051747
_cell_length_c   7.27051600
_cell_angle_alpha   90.00000000
_cell_angle_beta   90.00000000
_cell_angle_gamma   120.00000404
_symmetry_Int_Tables_number   1
_chemical_formula_structural   DyYGa3Cu
_chemical_formula_sum   'Dy1 Y1 Ga3 Cu1'
_cell_volume   120.27116635
_cell_formula_units_Z   1
loop_
 _symmetry_equiv_pos_site_id
 _symmetry_equiv_pos_as_xyz
  1  'x, y, z'
loop_
 _atom_site_type_symbol
 _atom_site_label
 _atom_site_symmetry_multiplicity
 _atom_site_fract_x
 _atom_site_fract_y
 _atom_site_fract_z
 _atom_site_occupancy
  Dy  Dy0  1  0.333333  0.666667  0.767512  1
  Y  Y1  1  0.333333  0.666667  0.238760  1
  Ga  Ga2  1  0.000000  0.000000  0.017964  1
  Ga  Ga3  1  0.000000  0.000000  0.458128  1
  Ga  Ga4  1  0.666667  0.333333  0.548418  1
  Cu  Cu5  1  0.666667  0.333333  0.969218  1
