# generated using pymatgen
data_La2Y18Si15Rh
_symmetry_space_group_name_H-M   'P 1'
_cell_length_a   7.45080500
_cell_length_b   7.77485003
_cell_length_c   14.74046000
_cell_angle_alpha   89.69439060
_cell_angle_beta   90.00144570
_cell_angle_gamma   89.89755862
_symmetry_Int_Tables_number   1
_chemical_formula_structural   La2Y18Si15Rh
_chemical_formula_sum   'La2 Y18 Si15 Rh1'
_cell_volume   853.88499550
_cell_formula_units_Z   1
loop_
 _symmetry_equiv_pos_site_id
 _symmetry_equiv_pos_as_xyz
  1  'x, y, z'
loop_
 _atom_site_type_symbol
 _atom_site_label
 _atom_site_symmetry_multiplicity
 _atom_site_fract_x
 _atom_site_fract_y
 _atom_site_fract_z
 _atom_site_occupancy
  La  La0  1  0.523122  0.569963  0.342143  1
  La  La1  1  0.023926  0.429106  0.657221  1
  Y  Y2  1  0.808789  0.576782  0.876456  1
  Y  Y3  1  0.320101  0.426906  0.124644  1
  Y  Y4  1  0.182944  0.928224  0.372739  1
  Y  Y5  1  0.682237  0.069649  0.627198  1
  Y  Y6  1  0.183304  0.927861  0.628764  1
  Y  Y7  1  0.682273  0.070377  0.371244  1
  Y  Y8  1  0.812809  0.573091  0.124684  1
  Y  Y9  1  0.323062  0.431409  0.874314  1
  Y  Y10  1  0.644290  0.234527  0.999518  1
  Y  Y11  1  0.159075  0.759910  0.000680  1
  Y  Y12  1  0.350970  0.263339  0.499918  1
  Y  Y13  1  0.850158  0.735224  0.499736  1
  Y  Y14  1  0.475700  0.930344  0.847325  1
  Y  Y15  1  0.973197  0.066511  0.152158  1
  Y  Y16  1  0.474049  0.931093  0.151886  1
  Y  Y17  1  0.971476  0.067208  0.848973  1
  Y  Y18  1  0.528052  0.565920  0.652460  1
  Y  Y19  1  0.027971  0.433627  0.347282  1
  Si  Si20  1  0.018902  0.351169  0.999961  1
  Si  Si21  1  0.476307  0.858646  0.501129  1
  Si  Si22  1  0.977597  0.140019  0.499072  1
  Si  Si23  1  0.650617  0.276502  0.790376  1
  Si  Si24  1  0.149474  0.721204  0.209492  1
  Si  Si25  1  0.351888  0.216356  0.287384  1
  Si  Si26  1  0.851038  0.783409  0.713199  1
  Si  Si27  1  0.361847  0.220337  0.710936  1
  Si  Si28  1  0.860346  0.779773  0.288458  1
  Si  Si29  1  0.646706  0.269175  0.206587  1
  Si  Si30  1  0.144131  0.727743  0.793143  1
  Si  Si31  1  0.769495  0.881165  0.000731  1
  Si  Si32  1  0.258431  0.125615  0.999557  1
  Si  Si33  1  0.234522  0.627153  0.501787  1
  Si  Si34  1  0.734067  0.373033  0.498526  1
  Rh  Rh35  1  0.517125  0.657628  0.000314  1
