# generated using pymatgen
data_SrLi4Nd3Si7Ge
_symmetry_space_group_name_H-M   'P 1'
_cell_length_a   3.88599800
_cell_length_b   7.88830210
_cell_length_c   10.63247107
_cell_angle_alpha   89.68219652
_cell_angle_beta   90.00000000
_cell_angle_gamma   90.00000000
_symmetry_Int_Tables_number   1
_chemical_formula_structural   SrLi4Nd3Si7Ge
_chemical_formula_sum   'Sr1 Li4 Nd3 Si7 Ge1'
_cell_volume   325.92196957
_cell_formula_units_Z   1
loop_
 _symmetry_equiv_pos_site_id
 _symmetry_equiv_pos_as_xyz
  1  'x, y, z'
loop_
 _atom_site_type_symbol
 _atom_site_label
 _atom_site_symmetry_multiplicity
 _atom_site_fract_x
 _atom_site_fract_y
 _atom_site_fract_z
 _atom_site_occupancy
  Sr  Sr0  1  0.750000  0.362249  0.365187  1
  Li  Li1  1  0.250000  0.998185  0.392410  1
  Li  Li2  1  0.750000  0.008263  0.608920  1
  Li  Li3  1  0.250000  0.489844  0.111912  1
  Li  Li4  1  0.750000  0.503910  0.890609  1
  Nd  Nd5  1  0.250000  0.132123  0.863854  1
  Nd  Nd6  1  0.750000  0.867691  0.135090  1
  Nd  Nd7  1  0.250000  0.634243  0.633650  1
  Si  Si8  1  0.750000  0.264091  0.065475  1
  Si  Si9  1  0.750000  0.776783  0.430125  1
  Si  Si10  1  0.250000  0.232893  0.576320  1
  Si  Si11  1  0.750000  0.835471  0.816595  1
  Si  Si12  1  0.250000  0.158632  0.171227  1
  Si  Si13  1  0.750000  0.335551  0.683193  1
  Si  Si14  1  0.250000  0.674391  0.322691  1
  Ge  Ge15  1  0.250000  0.725677  0.932741  1
