# generated using pymatgen
data_La3Sm(Re2Si)8
_symmetry_space_group_name_H-M   'P 1'
_cell_length_a   4.18192400
_cell_length_b   7.36527005
_cell_length_c   15.60975702
_cell_angle_alpha   89.84159873
_cell_angle_beta   90.00000000
_cell_angle_gamma   90.00000000
_symmetry_Int_Tables_number   1
_chemical_formula_structural   La3Sm(Re2Si)8
_chemical_formula_sum   'La3 Sm1 Re16 Si8'
_cell_volume   480.79428242
_cell_formula_units_Z   1
loop_
 _symmetry_equiv_pos_site_id
 _symmetry_equiv_pos_as_xyz
  1  'x, y, z'
loop_
 _atom_site_type_symbol
 _atom_site_label
 _atom_site_symmetry_multiplicity
 _atom_site_fract_x
 _atom_site_fract_y
 _atom_site_fract_z
 _atom_site_occupancy
  La  La0  1  0.000000  0.580085  0.117792  1
  La  La1  1  0.000000  0.421342  0.880410  1
  La  La2  1  0.500000  0.078441  0.383193  1
  Sm  Sm3  1  0.500000  0.919068  0.618050  1
  Re  Re4  1  0.000000  0.136466  0.052137  1
  Re  Re5  1  0.000000  0.865350  0.946693  1
  Re  Re6  1  0.500000  0.633970  0.449972  1
  Re  Re7  1  0.500000  0.357151  0.553826  1
  Re  Re8  1  0.000000  0.732489  0.321759  1
  Re  Re9  1  0.000000  0.264423  0.677970  1
  Re  Re10  1  0.500000  0.233195  0.180282  1
  Re  Re11  1  0.500000  0.769639  0.818926  1
  Re  Re12  1  0.000000  0.431920  0.420533  1
  Re  Re13  1  0.000000  0.565433  0.583043  1
  Re  Re14  1  0.500000  0.934681  0.080892  1
  Re  Re15  1  0.500000  0.067966  0.917603  1
  Re  Re16  1  0.000000  0.993801  0.207349  1
  Re  Re17  1  0.000000  0.008230  0.791862  1
  Re  Re18  1  0.500000  0.493456  0.294561  1
  Re  Re19  1  0.500000  0.512058  0.704938  1
  Si  Si20  1  0.000000  0.823025  0.476913  1
  Si  Si21  1  0.000000  0.169288  0.525425  1
  Si  Si22  1  0.500000  0.323619  0.024817  1
  Si  Si23  1  0.500000  0.677922  0.973962  1
  Si  Si24  1  0.000000  0.295436  0.274858  1
  Si  Si25  1  0.000000  0.710323  0.724857  1
  Si  Si26  1  0.500000  0.795636  0.226665  1
  Si  Si27  1  0.500000  0.205585  0.770714  1
