# generated using pymatgen
data_K(TbI3)2
_symmetry_space_group_name_H-M   'P 1'
_cell_length_a   8.47842900
_cell_length_b   8.47842884
_cell_length_c   14.53125200
_cell_angle_alpha   90.00000000
_cell_angle_beta   90.00000000
_cell_angle_gamma   119.99999673
_symmetry_Int_Tables_number   1
_chemical_formula_structural   K(TbI3)2
_chemical_formula_sum   'K2 Tb4 I12'
_cell_volume   904.61638013
_cell_formula_units_Z   2
loop_
 _symmetry_equiv_pos_site_id
 _symmetry_equiv_pos_as_xyz
  1  'x, y, z'
loop_
 _atom_site_type_symbol
 _atom_site_label
 _atom_site_symmetry_multiplicity
 _atom_site_fract_x
 _atom_site_fract_y
 _atom_site_fract_z
 _atom_site_occupancy
  K  K0  1  0.333333  0.666667  0.872669  1
  K  K1  1  0.666667  0.333333  0.372669  1
  Tb  Tb2  1  0.000000  0.000000  0.125758  1
  Tb  Tb3  1  0.000000  0.000000  0.375943  1
  Tb  Tb4  1  0.000000  0.000000  0.625758  1
  Tb  Tb5  1  0.000000  0.000000  0.875943  1
  I  I6  1  0.986673  0.699545  0.001138  1
  I  I7  1  0.283443  0.980063  0.250648  1
  I  I8  1  0.019937  0.303379  0.250648  1
  I  I9  1  0.300455  0.287129  0.001138  1
  I  I10  1  0.287129  0.300455  0.501138  1
  I  I11  1  0.712871  0.013327  0.001138  1
  I  I12  1  0.303379  0.019937  0.750648  1
  I  I13  1  0.696621  0.716557  0.250648  1
  I  I14  1  0.716557  0.696621  0.750648  1
  I  I15  1  0.013327  0.712871  0.501138  1
  I  I16  1  0.699545  0.986673  0.501138  1
  I  I17  1  0.980063  0.283443  0.750648  1
