# generated using pymatgen
data_Tb3Ni2Sn3Ir
_symmetry_space_group_name_H-M   'P 1'
_cell_length_a   7.49258700
_cell_length_b   7.49258703
_cell_length_c   3.80391000
_cell_angle_alpha   90.00000000
_cell_angle_beta   90.00000000
_cell_angle_gamma   119.99998783
_symmetry_Int_Tables_number   1
_chemical_formula_structural   Tb3Ni2Sn3Ir
_chemical_formula_sum   'Tb3 Ni2 Sn3 Ir1'
_cell_volume   184.93729810
_cell_formula_units_Z   1
loop_
 _symmetry_equiv_pos_site_id
 _symmetry_equiv_pos_as_xyz
  1  'x, y, z'
loop_
 _atom_site_type_symbol
 _atom_site_label
 _atom_site_symmetry_multiplicity
 _atom_site_fract_x
 _atom_site_fract_y
 _atom_site_fract_z
 _atom_site_occupancy
  Tb  Tb0  1  0.595141  0.005091  0.000000  1
  Tb  Tb1  1  0.994909  0.590050  0.000000  1
  Tb  Tb2  1  0.409950  0.404859  0.000000  1
  Ni  Ni3  1  0.333333  0.666667  0.500000  1
  Ni  Ni4  1  0.000000  0.000000  0.000000  1
  Sn  Sn5  1  0.251412  0.992021  0.500000  1
  Sn  Sn6  1  0.007979  0.259391  0.500000  1
  Sn  Sn7  1  0.740609  0.748588  0.500000  1
  Ir  Ir8  1  0.666667  0.333333  0.500000  1
