# generated using pymatgen
data_Pr8Zn4Si11Hg
_symmetry_space_group_name_H-M   'P 1'
_cell_length_a   8.33139701
_cell_length_b   8.33140569
_cell_length_c   8.61857800
_cell_angle_alpha   90.00308839
_cell_angle_beta   89.99691257
_cell_angle_gamma   119.86236572
_symmetry_Int_Tables_number   1
_chemical_formula_structural   Pr8Zn4Si11Hg
_chemical_formula_sum   'Pr8 Zn4 Si11 Hg1'
_cell_volume   518.80363686
_cell_formula_units_Z   1
loop_
 _symmetry_equiv_pos_site_id
 _symmetry_equiv_pos_as_xyz
  1  'x, y, z'
loop_
 _atom_site_type_symbol
 _atom_site_label
 _atom_site_symmetry_multiplicity
 _atom_site_fract_x
 _atom_site_fract_y
 _atom_site_fract_z
 _atom_site_occupancy
  Pr  Pr0  1  0.499383  0.500617  0.749536  1
  Pr  Pr1  1  0.499612  0.500388  0.250423  1
  Pr  Pr2  1  0.002262  0.505398  0.747300  1
  Pr  Pr3  1  0.001943  0.505230  0.252723  1
  Pr  Pr4  1  0.494602  0.997738  0.747300  1
  Pr  Pr5  1  0.494770  0.998057  0.252723  1
  Pr  Pr6  1  0.002894  0.997106  0.745971  1
  Pr  Pr7  1  0.002871  0.997129  0.254001  1
  Zn  Zn8  1  0.659909  0.340091  0.998967  1
  Zn  Zn9  1  0.333353  0.666647  0.000899  1
  Zn  Zn10  1  0.333843  0.666157  0.499080  1
  Zn  Zn11  1  0.666607  0.333393  0.500980  1
  Si  Si12  1  0.165852  0.834148  0.000017  1
  Si  Si13  1  0.332746  0.166615  0.000005  1
  Si  Si14  1  0.166171  0.833829  0.499991  1
  Si  Si15  1  0.662538  0.821076  0.000046  1
  Si  Si16  1  0.834074  0.165926  0.500020  1
  Si  Si17  1  0.833385  0.667254  0.000005  1
  Si  Si18  1  0.667399  0.833312  0.499993  1
  Si  Si19  1  0.178924  0.337462  0.000046  1
  Si  Si20  1  0.332364  0.166267  0.499984  1
  Si  Si21  1  0.166688  0.332601  0.499993  1
  Si  Si22  1  0.833733  0.667636  0.499984  1
  Hg  Hg23  1  0.834076  0.165924  0.000016  1
