# generated using pymatgen
data_SmZnHgPd3
_symmetry_space_group_name_H-M   'P 1'
_cell_length_a   5.55864544
_cell_length_b   5.55864566
_cell_length_c   5.23323113
_cell_angle_alpha   57.92078803
_cell_angle_beta   57.92078521
_cell_angle_gamma   59.99999567
_symmetry_Int_Tables_number   1
_chemical_formula_structural   SmZnHgPd3
_chemical_formula_sum   'Sm1 Zn1 Hg1 Pd3'
_cell_volume   110.61243112
_cell_formula_units_Z   1
loop_
 _symmetry_equiv_pos_site_id
 _symmetry_equiv_pos_as_xyz
  1  'x, y, z'
loop_
 _atom_site_type_symbol
 _atom_site_label
 _atom_site_symmetry_multiplicity
 _atom_site_fract_x
 _atom_site_fract_y
 _atom_site_fract_z
 _atom_site_occupancy
  Sm  Sm0  1  0.248145  0.248145  0.255564  1
  Zn  Zn1  1  0.626276  0.626276  0.121171  1
  Hg  Hg2  1  0.996871  0.996871  0.009388  1
  Pd  Pd3  1  0.626855  0.124999  0.621292  1
  Pd  Pd4  1  0.124999  0.626855  0.621292  1
  Pd  Pd5  1  0.626855  0.626855  0.621292  1
