# generated using pymatgen
data_Ce10HgPb7
_symmetry_space_group_name_H-M   'P 1'
_cell_length_a   9.72477700
_cell_length_b   9.72477645
_cell_length_c   6.75670700
_cell_angle_alpha   90.00000000
_cell_angle_beta   90.00000000
_cell_angle_gamma   120.00000529
_symmetry_Int_Tables_number   1
_chemical_formula_structural   Ce10HgPb7
_chemical_formula_sum   'Ce10 Hg1 Pb7'
_cell_volume   553.38192886
_cell_formula_units_Z   1
loop_
 _symmetry_equiv_pos_site_id
 _symmetry_equiv_pos_as_xyz
  1  'x, y, z'
loop_
 _atom_site_type_symbol
 _atom_site_label
 _atom_site_symmetry_multiplicity
 _atom_site_fract_x
 _atom_site_fract_y
 _atom_site_fract_z
 _atom_site_occupancy
  Ce  Ce0  1  0.666667  0.333333  0.500000  1
  Ce  Ce1  1  0.333333  0.666667  0.500000  1
  Ce  Ce2  1  0.333333  0.666667  0.000000  1
  Ce  Ce3  1  0.666667  0.333333  0.000000  1
  Ce  Ce4  1  0.712934  0.712934  0.247456  1
  Ce  Ce5  1  0.287066  0.000000  0.247456  1
  Ce  Ce6  1  0.000000  0.287066  0.247456  1
  Ce  Ce7  1  0.287066  0.287066  0.752544  1
  Ce  Ce8  1  0.712934  0.000000  0.752544  1
  Ce  Ce9  1  0.000000  0.712934  0.752544  1
  Hg  Hg10  1  0.000000  0.000000  0.500000  1
  Pb  Pb11  1  0.000000  0.000000  0.000000  1
  Pb  Pb12  1  0.370733  0.370733  0.252560  1
  Pb  Pb13  1  0.629267  0.000000  0.252560  1
  Pb  Pb14  1  0.000000  0.629267  0.252560  1
  Pb  Pb15  1  0.629267  0.629267  0.747440  1
  Pb  Pb16  1  0.370733  0.000000  0.747440  1
  Pb  Pb17  1  0.000000  0.370733  0.747440  1
