# generated using pymatgen
data_Sr2Mg(SiPd2)6
_symmetry_space_group_name_H-M   'P 1'
_cell_length_a   10.29926800
_cell_length_b   10.29926737
_cell_length_c   3.85334400
_cell_angle_alpha   90.00000000
_cell_angle_beta   90.00000000
_cell_angle_gamma   120.00000203
_symmetry_Int_Tables_number   1
_chemical_formula_structural   Sr2Mg(SiPd2)6
_chemical_formula_sum   'Sr2 Mg1 Si6 Pd12'
_cell_volume   353.98193273
_cell_formula_units_Z   1
loop_
 _symmetry_equiv_pos_site_id
 _symmetry_equiv_pos_as_xyz
  1  'x, y, z'
loop_
 _atom_site_type_symbol
 _atom_site_label
 _atom_site_symmetry_multiplicity
 _atom_site_fract_x
 _atom_site_fract_y
 _atom_site_fract_z
 _atom_site_occupancy
  Sr  Sr0  1  0.666667  0.333333  0.244978  1
  Sr  Sr1  1  0.000000  0.000000  0.754264  1
  Mg  Mg2  1  0.333333  0.666667  0.452424  1
  Si  Si3  1  0.732746  0.776100  0.254812  1
  Si  Si4  1  0.043354  0.267254  0.254812  1
  Si  Si5  1  0.223900  0.956646  0.254812  1
  Si  Si6  1  0.934164  0.559271  0.745140  1
  Si  Si7  1  0.625109  0.065836  0.745140  1
  Si  Si8  1  0.440729  0.374891  0.745140  1
  Pd  Pd9  1  0.774589  0.048489  0.250965  1
  Pd  Pd10  1  0.273901  0.225411  0.250965  1
  Pd  Pd11  1  0.951511  0.726099  0.250965  1
  Pd  Pd12  1  0.891992  0.282629  0.748525  1
  Pd  Pd13  1  0.390636  0.108008  0.748525  1
  Pd  Pd14  1  0.717371  0.609364  0.748525  1
  Pd  Pd15  1  0.489461  0.542015  0.243453  1
  Pd  Pd16  1  0.052552  0.510539  0.243453  1
  Pd  Pd17  1  0.457985  0.947448  0.243453  1
  Pd  Pd18  1  0.181593  0.788092  0.757055  1
  Pd  Pd19  1  0.606499  0.818407  0.757055  1
  Pd  Pd20  1  0.211908  0.393501  0.757055  1
