# generated using pymatgen
data_Lu8B24MoIr2Rh
_symmetry_space_group_name_H-M   'P 1'
_cell_length_a   3.59936700
_cell_length_b   9.08083805
_cell_length_c   11.42053389
_cell_angle_alpha   89.87471913
_cell_angle_beta   90.00000000
_cell_angle_gamma   90.00000000
_symmetry_Int_Tables_number   1
_chemical_formula_structural   Lu8B24MoIr2Rh
_chemical_formula_sum   'Lu8 B24 Mo1 Ir2 Rh1'
_cell_volume   373.28232775
_cell_formula_units_Z   1
loop_
 _symmetry_equiv_pos_site_id
 _symmetry_equiv_pos_as_xyz
  1  'x, y, z'
loop_
 _atom_site_type_symbol
 _atom_site_label
 _atom_site_symmetry_multiplicity
 _atom_site_fract_x
 _atom_site_fract_y
 _atom_site_fract_z
 _atom_site_occupancy
  Lu  Lu0  1  0.500000  0.320110  0.417332  1
  Lu  Lu1  1  0.500000  0.676768  0.586467  1
  Lu  Lu2  1  0.500000  0.184685  0.909759  1
  Lu  Lu3  1  0.500000  0.820089  0.085587  1
  Lu  Lu4  1  0.500000  0.444788  0.128317  1
  Lu  Lu5  1  0.500000  0.554064  0.874321  1
  Lu  Lu6  1  0.500000  0.056252  0.624827  1
  Lu  Lu7  1  0.500000  0.941999  0.372848  1
  B  B8  1  0.000000  0.103556  0.469246  1
  B  B9  1  0.000000  0.891915  0.528567  1
  B  B10  1  0.000000  0.394380  0.973187  1
  B  B11  1  0.000000  0.607212  0.030239  1
  B  B12  1  0.000000  0.130138  0.316557  1
  B  B13  1  0.000000  0.868254  0.683541  1
  B  B14  1  0.000000  0.368870  0.817771  1
  B  B15  1  0.000000  0.632650  0.183372  1
  B  B16  1  0.000000  0.054432  0.064987  1
  B  B17  1  0.000000  0.947352  0.934578  1
  B  B18  1  0.000000  0.448632  0.563947  1
  B  B19  1  0.000000  0.553021  0.433381  1
  B  B20  1  0.000000  0.480734  0.287809  1
  B  B21  1  0.000000  0.521501  0.714028  1
  B  B22  1  0.000000  0.018723  0.787058  1
  B  B23  1  0.000000  0.980788  0.212319  1
  B  B24  1  0.000000  0.251462  0.079195  1
  B  B25  1  0.000000  0.749916  0.921694  1
  B  B26  1  0.000000  0.248414  0.577542  1
  B  B27  1  0.000000  0.749190  0.420566  1
  B  B28  1  0.000000  0.292555  0.236441  1
  B  B29  1  0.000000  0.707744  0.765966  1
  B  B30  1  0.000000  0.204487  0.736341  1
  B  B31  1  0.000000  0.794176  0.263145  1
  Mo  Mo32  1  0.500000  0.362202  0.679117  1
  Ir  Ir33  1  0.500000  0.137584  0.177719  1
  Ir  Ir34  1  0.500000  0.862467  0.822169  1
  Rh  Rh35  1  0.500000  0.638887  0.320057  1
