# generated using pymatgen
data_Pr7Th(MgIr)8
_symmetry_space_group_name_H-M   'P 1'
_cell_length_a   4.17329800
_cell_length_b   7.53656026
_cell_length_c   17.09485000
_cell_angle_alpha   89.78059484
_cell_angle_beta   90.00000000
_cell_angle_gamma   90.00000000
_symmetry_Int_Tables_number   1
_chemical_formula_structural   Pr7Th(MgIr)8
_chemical_formula_sum   'Pr7 Th1 Mg8 Ir8'
_cell_volume   537.66861105
_cell_formula_units_Z   1
loop_
 _symmetry_equiv_pos_site_id
 _symmetry_equiv_pos_as_xyz
  1  'x, y, z'
loop_
 _atom_site_type_symbol
 _atom_site_label
 _atom_site_symmetry_multiplicity
 _atom_site_fract_x
 _atom_site_fract_y
 _atom_site_fract_z
 _atom_site_occupancy
  Pr  Pr0  1  0.750000  0.947975  0.282503  1
  Pr  Pr1  1  0.750000  0.835935  0.060126  1
  Pr  Pr2  1  0.250000  0.049466  0.716710  1
  Pr  Pr3  1  0.250000  0.159978  0.938799  1
  Pr  Pr4  1  0.250000  0.548781  0.783409  1
  Pr  Pr5  1  0.750000  0.342587  0.439979  1
  Pr  Pr6  1  0.250000  0.663461  0.561523  1
  Th  Th7  1  0.750000  0.447922  0.217204  1
  Mg  Mg8  1  0.250000  0.000464  0.435899  1
  Mg  Mg9  1  0.750000  0.502971  0.935697  1
  Mg  Mg10  1  0.750000  0.006230  0.564274  1
  Mg  Mg11  1  0.250000  0.628666  0.351783  1
  Mg  Mg12  1  0.750000  0.375197  0.650339  1
  Mg  Mg13  1  0.750000  0.874290  0.849711  1
  Mg  Mg14  1  0.250000  0.494121  0.062462  1
  Mg  Mg15  1  0.250000  0.122026  0.149914  1
  Ir  Ir16  1  0.250000  0.249661  0.561370  1
  Ir  Ir17  1  0.750000  0.255184  0.065606  1
  Ir  Ir18  1  0.250000  0.258598  0.304957  1
  Ir  Ir19  1  0.750000  0.251476  0.812250  1
  Ir  Ir20  1  0.250000  0.747706  0.938587  1
  Ir  Ir21  1  0.750000  0.752863  0.688669  1
  Ir  Ir22  1  0.750000  0.758110  0.438228  1
  Ir  Ir23  1  0.250000  0.726331  0.189999  1
