# generated using pymatgen
data_Pr3Nd4ThTe12
_symmetry_space_group_name_H-M   'P 1'
_cell_length_a   4.42517000
_cell_length_b   12.09492795
_cell_length_c   12.35802619
_cell_angle_alpha   89.75063403
_cell_angle_beta   90.00000000
_cell_angle_gamma   90.00000000
_symmetry_Int_Tables_number   1
_chemical_formula_structural   Pr3Nd4ThTe12
_chemical_formula_sum   'Pr3 Nd4 Th1 Te12'
_cell_volume   661.42140132
_cell_formula_units_Z   1
loop_
 _symmetry_equiv_pos_site_id
 _symmetry_equiv_pos_as_xyz
  1  'x, y, z'
loop_
 _atom_site_type_symbol
 _atom_site_label
 _atom_site_symmetry_multiplicity
 _atom_site_fract_x
 _atom_site_fract_y
 _atom_site_fract_z
 _atom_site_occupancy
  Pr  Pr0  1  0.750000  0.505669  0.301370  1
  Pr  Pr1  1  0.750000  0.007080  0.804495  1
  Pr  Pr2  1  0.250000  0.999294  0.195937  1
  Nd  Nd3  1  0.250000  0.184914  0.515666  1
  Nd  Nd4  1  0.750000  0.813174  0.482680  1
  Nd  Nd5  1  0.750000  0.691496  0.982041  1
  Nd  Nd6  1  0.250000  0.309851  0.021701  1
  Th  Th7  1  0.250000  0.489302  0.696479  1
  Te  Te8  1  0.250000  0.877747  0.952801  1
  Te  Te9  1  0.750000  0.123895  0.044916  1
  Te  Te10  1  0.750000  0.375849  0.543232  1
  Te  Te11  1  0.250000  0.622670  0.460840  1
  Te  Te12  1  0.250000  0.209206  0.772528  1
  Te  Te13  1  0.750000  0.798374  0.225616  1
  Te  Te14  1  0.750000  0.687005  0.719641  1
  Te  Te15  1  0.250000  0.304335  0.278399  1
  Te  Te16  1  0.250000  0.555622  0.115750  1
  Te  Te17  1  0.750000  0.445619  0.883922  1
  Te  Te18  1  0.750000  0.055903  0.379927  1
  Te  Te19  1  0.250000  0.942995  0.622057  1
