# generated using pymatgen
data_TbEr9In8(AgPt)2
_symmetry_space_group_name_H-M   'P 1'
_cell_length_a   3.62564500
_cell_length_b   8.15897600
_cell_length_c   18.31645396
_cell_angle_alpha   89.98226571
_cell_angle_beta   90.00000000
_cell_angle_gamma   90.00000000
_symmetry_Int_Tables_number   1
_chemical_formula_structural   TbEr9In8(AgPt)2
_chemical_formula_sum   'Tb1 Er9 In8 Ag2 Pt2'
_cell_volume   541.82908264
_cell_formula_units_Z   1
loop_
 _symmetry_equiv_pos_site_id
 _symmetry_equiv_pos_as_xyz
  1  'x, y, z'
loop_
 _atom_site_type_symbol
 _atom_site_label
 _atom_site_symmetry_multiplicity
 _atom_site_fract_x
 _atom_site_fract_y
 _atom_site_fract_z
 _atom_site_occupancy
  Tb  Tb0  1  0.000000  0.000000  0.000000  1
  Er  Er1  1  0.000000  0.122396  0.420978  1
  Er  Er2  1  0.000000  0.877604  0.579022  1
  Er  Er3  1  0.000000  0.383603  0.916107  1
  Er  Er4  1  0.000000  0.616397  0.083893  1
  Er  Er5  1  0.000000  0.255716  0.216125  1
  Er  Er6  1  0.000000  0.744284  0.783875  1
  Er  Er7  1  0.000000  0.272992  0.721050  1
  Er  Er8  1  0.000000  0.727008  0.278950  1
  Er  Er9  1  0.000000  0.500000  0.500000  1
  In  In10  1  0.500000  0.419947  0.352399  1
  In  In11  1  0.500000  0.580053  0.647601  1
  In  In12  1  0.500000  0.076892  0.851470  1
  In  In13  1  0.500000  0.923108  0.148530  1
  In  In14  1  0.500000  0.292746  0.065545  1
  In  In15  1  0.500000  0.707254  0.934455  1
  In  In16  1  0.500000  0.208581  0.568137  1
  In  In17  1  0.500000  0.791419  0.431863  1
  Ag  Ag18  1  0.500000  0.026168  0.302131  1
  Ag  Ag19  1  0.500000  0.973832  0.697869  1
  Pt  Pt20  1  0.500000  0.473336  0.803688  1
  Pt  Pt21  1  0.500000  0.526664  0.196312  1
