# generated using pymatgen
data_Er7ZrTi2(Si5Ir2)4
_symmetry_space_group_name_H-M   'P 1'
_cell_length_a   12.53217802
_cell_length_b   12.49241902
_cell_length_c   4.17001100
_cell_angle_alpha   90.00000000
_cell_angle_beta   90.00000000
_cell_angle_gamma   89.99417048
_symmetry_Int_Tables_number   1
_chemical_formula_structural   Er7ZrTi2(Si5Ir2)4
_chemical_formula_sum   'Er7 Zr1 Ti2 Si20 Ir8'
_cell_volume   652.84532183
_cell_formula_units_Z   1
loop_
 _symmetry_equiv_pos_site_id
 _symmetry_equiv_pos_as_xyz
  1  'x, y, z'
loop_
 _atom_site_type_symbol
 _atom_site_label
 _atom_site_symmetry_multiplicity
 _atom_site_fract_x
 _atom_site_fract_y
 _atom_site_fract_z
 _atom_site_occupancy
  Er  Er0  1  0.503803  0.506177  0.000000  1
  Er  Er1  1  0.995987  0.006470  0.000000  1
  Er  Er2  1  0.824804  0.674461  0.500000  1
  Er  Er3  1  0.890225  0.378594  0.500000  1
  Er  Er4  1  0.121030  0.618170  0.500000  1
  Er  Er5  1  0.379933  0.118464  0.500000  1
  Er  Er6  1  0.607287  0.883703  0.500000  1
  Zr  Zr7  1  0.674830  0.176077  0.500000  1
  Ti  Ti8  1  0.322202  0.831275  0.500000  1
  Ti  Ti9  1  0.178617  0.330947  0.500000  1
  Si  Si10  1  0.563553  0.067826  0.000000  1
  Si  Si11  1  0.428352  0.934117  0.000000  1
  Si  Si12  1  0.071786  0.432996  0.000000  1
  Si  Si13  1  0.937606  0.565954  0.000000  1
  Si  Si14  1  0.662177  0.700473  0.000000  1
  Si  Si15  1  0.331068  0.305216  0.000000  1
  Si  Si16  1  0.169915  0.805592  0.000000  1
  Si  Si17  1  0.835743  0.199148  0.000000  1
  Si  Si18  1  0.301658  0.670677  0.000000  1
  Si  Si19  1  0.698955  0.333169  0.000000  1
  Si  Si20  1  0.198439  0.170822  0.000000  1
  Si  Si21  1  0.799072  0.836164  0.000000  1
  Si  Si22  1  0.668592  0.469393  0.500000  1
  Si  Si23  1  0.344854  0.480013  0.500000  1
  Si  Si24  1  0.155308  0.981958  0.500000  1
  Si  Si25  1  0.830434  0.971844  0.500000  1
  Si  Si26  1  0.448689  0.665344  0.500000  1
  Si  Si27  1  0.505916  0.346751  0.500000  1
  Si  Si28  1  0.052934  0.165009  0.500000  1
  Si  Si29  1  0.997134  0.847855  0.500000  1
  Ir  Ir30  1  0.747431  0.518964  0.000000  1
  Ir  Ir31  1  0.255405  0.484854  0.000000  1
  Ir  Ir32  1  0.245049  0.985453  0.000000  1
  Ir  Ir33  1  0.751343  0.022803  0.000000  1
  Ir  Ir34  1  0.479074  0.750469  0.000000  1
  Ir  Ir35  1  0.516086  0.256107  0.000000  1
  Ir  Ir36  1  0.019902  0.249406  0.000000  1
  Ir  Ir37  1  0.984805  0.757288  0.000000  1
