# generated using pymatgen
data_Er16Al4Pt3Rh
_symmetry_space_group_name_H-M   'P 1'
_cell_length_a   9.50029436
_cell_length_b   9.50029511
_cell_length_c   9.50029416
_cell_angle_alpha   59.91756279
_cell_angle_beta   59.91756281
_cell_angle_gamma   59.91756216
_symmetry_Int_Tables_number   1
_chemical_formula_structural   Er16Al4Pt3Rh
_chemical_formula_sum   'Er16 Al4 Pt3 Rh1'
_cell_volume   605.17824622
_cell_formula_units_Z   1
loop_
 _symmetry_equiv_pos_site_id
 _symmetry_equiv_pos_as_xyz
  1  'x, y, z'
loop_
 _atom_site_type_symbol
 _atom_site_label
 _atom_site_symmetry_multiplicity
 _atom_site_fract_x
 _atom_site_fract_y
 _atom_site_fract_z
 _atom_site_occupancy
  Er  Er0  1  0.193604  0.193604  0.805717  1
  Er  Er1  1  0.436616  0.064355  0.064355  1
  Er  Er2  1  0.435686  0.065153  0.435686  1
  Er  Er3  1  0.064355  0.436616  0.064355  1
  Er  Er4  1  0.647382  0.061581  0.647382  1
  Er  Er5  1  0.189359  0.807956  0.807956  1
  Er  Er6  1  0.064355  0.064355  0.436616  1
  Er  Er7  1  0.805717  0.193604  0.193604  1
  Er  Er8  1  0.807956  0.807956  0.189359  1
  Er  Er9  1  0.647382  0.647382  0.061581  1
  Er  Er10  1  0.646046  0.646046  0.646046  1
  Er  Er11  1  0.065153  0.435686  0.435686  1
  Er  Er12  1  0.061581  0.647382  0.647382  1
  Er  Er13  1  0.807956  0.189359  0.807956  1
  Er  Er14  1  0.435686  0.435686  0.065153  1
  Er  Er15  1  0.193604  0.805717  0.193604  1
  Al  Al16  1  0.421397  0.733477  0.421397  1
  Al  Al17  1  0.421397  0.421397  0.733477  1
  Al  Al18  1  0.733477  0.421397  0.421397  1
  Al  Al19  1  0.420950  0.420950  0.420950  1
  Pt  Pt20  1  0.856557  0.430310  0.856557  1
  Pt  Pt21  1  0.856557  0.856557  0.430310  1
  Pt  Pt22  1  0.430310  0.856557  0.856557  1
  Rh  Rh23  1  0.856920  0.856920  0.856920  1
