# generated using pymatgen
data_Ce2Sm(SnIr)3
_symmetry_space_group_name_H-M   'P 1'
_cell_length_a   7.52740736
_cell_length_b   7.52740705
_cell_length_c   4.06882000
_cell_angle_alpha   90.00000000
_cell_angle_beta   90.00000000
_cell_angle_gamma   120.43550235
_symmetry_Int_Tables_number   1
_chemical_formula_structural   Ce2Sm(SnIr)3
_chemical_formula_sum   'Ce2 Sm1 Sn3 Ir3'
_cell_volume   198.77753064
_cell_formula_units_Z   1
loop_
 _symmetry_equiv_pos_site_id
 _symmetry_equiv_pos_as_xyz
  1  'x, y, z'
loop_
 _atom_site_type_symbol
 _atom_site_label
 _atom_site_symmetry_multiplicity
 _atom_site_fract_x
 _atom_site_fract_y
 _atom_site_fract_z
 _atom_site_occupancy
  Ce  Ce0  1  0.586673  0.999303  0.000000  1
  Ce  Ce1  1  0.999303  0.586673  0.000000  1
  Sm  Sm2  1  0.408590  0.408590  0.000000  1
  Sn  Sn3  1  0.253976  0.004554  0.500000  1
  Sn  Sn4  1  0.004554  0.253976  0.500000  1
  Sn  Sn5  1  0.741895  0.741895  0.500000  1
  Ir  Ir6  1  0.331768  0.678250  0.500000  1
  Ir  Ir7  1  0.678250  0.331768  0.500000  1
  Ir  Ir8  1  0.994991  0.994991  0.000000  1
