# generated using pymatgen
data_Er3Sc2Tl2(InRh)2
_symmetry_space_group_name_H-M   'P 1'
_cell_length_a   3.55243900
_cell_length_b   7.91127600
_cell_length_c   17.92597900
_cell_angle_alpha   90.00000000
_cell_angle_beta   90.00000000
_cell_angle_gamma   90.00000000
_symmetry_Int_Tables_number   1
_chemical_formula_structural   Er3Sc2Tl2(InRh)2
_chemical_formula_sum   'Er6 Sc4 Tl4 In4 Rh4'
_cell_volume   503.79754697
_cell_formula_units_Z   2
loop_
 _symmetry_equiv_pos_site_id
 _symmetry_equiv_pos_as_xyz
  1  'x, y, z'
loop_
 _atom_site_type_symbol
 _atom_site_label
 _atom_site_symmetry_multiplicity
 _atom_site_fract_x
 _atom_site_fract_y
 _atom_site_fract_z
 _atom_site_occupancy
  Er  Er0  1  0.000000  0.000000  0.000000  1
  Er  Er1  1  0.000000  0.500000  0.500000  1
  Er  Er2  1  0.000000  0.750606  0.784065  1
  Er  Er3  1  0.000000  0.249394  0.215935  1
  Er  Er4  1  0.000000  0.250606  0.715935  1
  Er  Er5  1  0.000000  0.749394  0.284065  1
  Sc  Sc6  1  0.000000  0.880383  0.591063  1
  Sc  Sc7  1  0.000000  0.119617  0.408937  1
  Sc  Sc8  1  0.000000  0.380383  0.908937  1
  Sc  Sc9  1  0.000000  0.619617  0.091063  1
  Tl  Tl10  1  0.500000  0.808043  0.440601  1
  Tl  Tl11  1  0.500000  0.191957  0.559399  1
  Tl  Tl12  1  0.500000  0.308043  0.059399  1
  Tl  Tl13  1  0.500000  0.691957  0.940601  1
  In  In14  1  0.500000  0.919146  0.150672  1
  In  In15  1  0.500000  0.080854  0.849328  1
  In  In16  1  0.500000  0.419146  0.349328  1
  In  In17  1  0.500000  0.580854  0.650672  1
  Rh  Rh18  1  0.500000  0.959854  0.694989  1
  Rh  Rh19  1  0.500000  0.040146  0.305011  1
  Rh  Rh20  1  0.500000  0.459854  0.805011  1
  Rh  Rh21  1  0.500000  0.540146  0.194989  1
