# generated using pymatgen
data_Ta5Ti(AlRu2)6
_symmetry_space_group_name_H-M   'P 1'
_cell_length_a   4.37099000
_cell_length_b   6.18845600
_cell_length_c   13.09537300
_cell_angle_alpha   90.00000000
_cell_angle_beta   90.00028857
_cell_angle_gamma   90.00000000
_symmetry_Int_Tables_number   1
_chemical_formula_structural   Ta5Ti(AlRu2)6
_chemical_formula_sum   'Ta5 Ti1 Al6 Ru12'
_cell_volume   354.22563985
_cell_formula_units_Z   1
loop_
 _symmetry_equiv_pos_site_id
 _symmetry_equiv_pos_as_xyz
  1  'x, y, z'
loop_
 _atom_site_type_symbol
 _atom_site_label
 _atom_site_symmetry_multiplicity
 _atom_site_fract_x
 _atom_site_fract_y
 _atom_site_fract_z
 _atom_site_occupancy
  Ta  Ta0  1  0.999996  0.000000  0.997911  1
  Ta  Ta1  1  0.499823  0.499999  0.165445  1
  Ta  Ta2  1  0.999824  0.000000  0.333340  1
  Ta  Ta3  1  0.499998  0.499999  0.501221  1
  Ta  Ta4  1  0.000173  0.000000  0.668752  1
  Ti  Ti5  1  0.500206  0.499999  0.833337  1
  Al  Al6  1  0.999988  0.499999  0.998350  1
  Al  Al7  1  0.499805  0.000000  0.165689  1
  Al  Al8  1  0.999796  0.499999  0.333341  1
  Al  Al9  1  0.499996  0.000000  0.500951  1
  Al  Al10  1  0.000196  0.499999  0.668335  1
  Al  Al11  1  0.500188  0.000000  0.833344  1
  Ru  Ru12  1  0.499992  0.250769  0.999768  1
  Ru  Ru13  1  0.499992  0.749232  0.999768  1
  Ru  Ru14  1  0.999847  0.250164  0.166857  1
  Ru  Ru15  1  0.999847  0.749834  0.166857  1
  Ru  Ru16  1  0.499848  0.249792  0.333323  1
  Ru  Ru17  1  0.499848  0.750207  0.333323  1
  Ru  Ru18  1  0.999999  0.250176  0.499810  1
  Ru  Ru19  1  0.999999  0.749824  0.499810  1
  Ru  Ru20  1  0.500157  0.250788  0.666898  1
  Ru  Ru21  1  0.500157  0.749211  0.666898  1
  Ru  Ru22  1  0.000162  0.251985  0.833337  1
  Ru  Ru23  1  0.000162  0.748013  0.833337  1
