# generated using pymatgen
data_Ce9Th(SiPb3)2
_symmetry_space_group_name_H-M   'P 1'
_cell_length_a   9.68996177
_cell_length_b   9.68996206
_cell_length_c   6.48086800
_cell_angle_alpha   90.00000000
_cell_angle_beta   90.00000000
_cell_angle_gamma   120.04580887
_symmetry_Int_Tables_number   1
_chemical_formula_structural   Ce9Th(SiPb3)2
_chemical_formula_sum   'Ce9 Th1 Si2 Pb6'
_cell_volume   526.75333335
_cell_formula_units_Z   1
loop_
 _symmetry_equiv_pos_site_id
 _symmetry_equiv_pos_as_xyz
  1  'x, y, z'
loop_
 _atom_site_type_symbol
 _atom_site_label
 _atom_site_symmetry_multiplicity
 _atom_site_fract_x
 _atom_site_fract_y
 _atom_site_fract_z
 _atom_site_occupancy
  Ce  Ce0  1  0.666717  0.333084  0.500822  1
  Ce  Ce1  1  0.333084  0.666717  0.500822  1
  Ce  Ce2  1  0.333084  0.666717  0.999178  1
  Ce  Ce3  1  0.666717  0.333084  0.999178  1
  Ce  Ce4  1  0.251464  0.999950  0.250000  1
  Ce  Ce5  1  0.999950  0.251464  0.250000  1
  Ce  Ce6  1  0.251920  0.251920  0.750000  1
  Ce  Ce7  1  0.748212  0.999959  0.750000  1
  Ce  Ce8  1  0.999959  0.748212  0.750000  1
  Th  Th9  1  0.748104  0.748104  0.250000  1
  Si  Si10  1  0.001393  0.001393  0.501933  1
  Si  Si11  1  0.001393  0.001393  0.998067  1
  Pb  Pb12  1  0.386195  0.386195  0.250000  1
  Pb  Pb13  1  0.612202  0.000718  0.250000  1
  Pb  Pb14  1  0.000718  0.612202  0.250000  1
  Pb  Pb15  1  0.612789  0.612789  0.750000  1
  Pb  Pb16  1  0.386387  0.999711  0.750000  1
  Pb  Pb17  1  0.999711  0.386387  0.750000  1
