# generated using pymatgen
data_Sc4Al3GaTc4
_symmetry_space_group_name_H-M   'P 1'
_cell_length_a   5.28211164
_cell_length_b   5.28211196
_cell_length_c   8.61214600
_cell_angle_alpha   90.00000000
_cell_angle_beta   90.00000000
_cell_angle_gamma   120.71008686
_symmetry_Int_Tables_number   1
_chemical_formula_structural   Sc4Al3GaTc4
_chemical_formula_sum   'Sc4 Al3 Ga1 Tc4'
_cell_volume   206.58795629
_cell_formula_units_Z   1
loop_
 _symmetry_equiv_pos_site_id
 _symmetry_equiv_pos_as_xyz
  1  'x, y, z'
loop_
 _atom_site_type_symbol
 _atom_site_label
 _atom_site_symmetry_multiplicity
 _atom_site_fract_x
 _atom_site_fract_y
 _atom_site_fract_z
 _atom_site_occupancy
  Sc  Sc0  1  0.336491  0.663509  0.434707  1
  Sc  Sc1  1  0.662986  0.337014  0.567988  1
  Sc  Sc2  1  0.662986  0.337014  0.932012  1
  Sc  Sc3  1  0.336491  0.663509  0.065293  1
  Al  Al4  1  0.001071  0.998929  0.500007  1
  Al  Al5  1  0.001071  0.998929  0.999993  1
  Al  Al6  1  0.829617  0.170383  0.250000  1
  Ga  Ga7  1  0.170754  0.829246  0.750000  1
  Tc  Tc8  1  0.821491  0.657130  0.250000  1
  Tc  Tc9  1  0.342870  0.178509  0.250000  1
  Tc  Tc10  1  0.175974  0.341799  0.750000  1
  Tc  Tc11  1  0.658201  0.824026  0.750000  1
