# generated using pymatgen
data_Y3Be2AlIr6
_symmetry_space_group_name_H-M   'P 1'
_cell_length_a   5.49433400
_cell_length_b   5.49433416
_cell_length_c   15.04545900
_cell_angle_alpha   90.00000000
_cell_angle_beta   90.00000000
_cell_angle_gamma   119.99999907
_symmetry_Int_Tables_number   1
_chemical_formula_structural   Y3Be2AlIr6
_chemical_formula_sum   'Y6 Be4 Al2 Ir12'
_cell_volume   393.33826952
_cell_formula_units_Z   2
loop_
 _symmetry_equiv_pos_site_id
 _symmetry_equiv_pos_as_xyz
  1  'x, y, z'
loop_
 _atom_site_type_symbol
 _atom_site_label
 _atom_site_symmetry_multiplicity
 _atom_site_fract_x
 _atom_site_fract_y
 _atom_site_fract_z
 _atom_site_occupancy
  Y  Y0  1  0.333333  0.666667  0.537528  1
  Y  Y1  1  0.666667  0.333333  0.462472  1
  Y  Y2  1  0.666667  0.333333  0.037528  1
  Y  Y3  1  0.333333  0.666667  0.962472  1
  Y  Y4  1  0.333333  0.666667  0.750000  1
  Y  Y5  1  0.666667  0.333333  0.250000  1
  Be  Be6  1  0.000000  0.000000  0.250000  1
  Be  Be7  1  0.000000  0.000000  0.750000  1
  Be  Be8  1  0.333333  0.666667  0.250000  1
  Be  Be9  1  0.666667  0.333333  0.750000  1
  Al  Al10  1  0.000000  0.000000  0.000000  1
  Al  Al11  1  0.000000  0.000000  0.500000  1
  Ir  Ir12  1  0.167768  0.335537  0.135289  1
  Ir  Ir13  1  0.832232  0.664463  0.864711  1
  Ir  Ir14  1  0.664463  0.832232  0.135289  1
  Ir  Ir15  1  0.832232  0.664463  0.635289  1
  Ir  Ir16  1  0.335537  0.167768  0.864711  1
  Ir  Ir17  1  0.167768  0.335537  0.364711  1
  Ir  Ir18  1  0.167768  0.832232  0.135289  1
  Ir  Ir19  1  0.335537  0.167768  0.635289  1
  Ir  Ir20  1  0.832232  0.167768  0.864711  1
  Ir  Ir21  1  0.664463  0.832232  0.364711  1
  Ir  Ir22  1  0.832232  0.167768  0.635289  1
  Ir  Ir23  1  0.167768  0.832232  0.364711  1
