# generated using pymatgen
data_ThF25
_symmetry_space_group_name_H-M   'P 1'
_cell_length_a   7.49019626
_cell_length_b   7.51237295
_cell_length_c   8.57785600
_cell_angle_alpha   99.70456469
_cell_angle_beta   86.75884244
_cell_angle_gamma   107.07833595
_symmetry_Int_Tables_number   1
_chemical_formula_structural   ThF25
_chemical_formula_sum   'Th1 F25'
_cell_volume   454.76987948
_cell_formula_units_Z   1
loop_
 _symmetry_equiv_pos_site_id
 _symmetry_equiv_pos_as_xyz
  1  'x, y, z'
loop_
 _atom_site_type_symbol
 _atom_site_label
 _atom_site_symmetry_multiplicity
 _atom_site_fract_x
 _atom_site_fract_y
 _atom_site_fract_z
 _atom_site_occupancy
  Th  Th0  1  0.758086  0.007079  0.994299  1
  F  F1  1  0.268254  0.993403  0.979162  1
  F  F2  1  0.481498  0.374184  0.159356  1
  F  F3  1  0.440793  0.511462  0.833316  1
  F  F4  1  0.198172  0.556186  0.187895  1
  F  F5  1  0.848924  0.553750  0.788063  1
  F  F6  1  0.361730  0.769460  0.508477  1
  F  F7  1  0.620560  0.243922  0.520829  1
  F  F8  1  0.849132  0.807522  0.455459  1
  F  F9  1  0.185843  0.212838  0.491726  1
  F  F10  1  0.285521  0.353685  0.861187  1
  F  F11  1  0.635476  0.541964  0.152901  1
  F  F12  1  0.221503  0.121779  0.193061  1
  F  F13  1  0.683276  0.782157  0.789492  1
  F  F14  1  0.078619  0.672056  0.233786  1
  F  F15  1  0.958965  0.428057  0.796199  1
  F  F16  1  0.892758  0.835694  0.099241  1
  F  F17  1  0.000890  0.099114  0.845267  1
  F  F18  1  0.224114  0.067265  0.558075  1
  F  F19  1  0.779354  0.964818  0.457797  1
  F  F20  1  0.862060  0.236550  0.186898  1
  F  F21  1  0.215917  0.805408  0.890592  1
  F  F22  1  0.528693  0.924280  0.156339  1
  F  F23  1  0.607356  0.140633  0.865329  1
  F  F24  1  0.321877  0.577982  0.531188  1
  F  F25  1  0.690627  0.418752  0.464065  1
