# generated using pymatgen
data_YHoTm2(ReC2)2
_symmetry_space_group_name_H-M   'P 1'
_cell_length_a   5.06586700
_cell_length_b   6.55856700
_cell_length_c   9.79452700
_cell_angle_alpha   90.00000000
_cell_angle_beta   90.00000000
_cell_angle_gamma   90.00000000
_symmetry_Int_Tables_number   1
_chemical_formula_structural   YHoTm2(ReC2)2
_chemical_formula_sum   'Y2 Ho2 Tm4 Re4 C8'
_cell_volume   325.42147622
_cell_formula_units_Z   2
loop_
 _symmetry_equiv_pos_site_id
 _symmetry_equiv_pos_as_xyz
  1  'x, y, z'
loop_
 _atom_site_type_symbol
 _atom_site_label
 _atom_site_symmetry_multiplicity
 _atom_site_fract_x
 _atom_site_fract_y
 _atom_site_fract_z
 _atom_site_occupancy
  Y  Y0  1  0.250000  0.466040  0.215926  1
  Y  Y1  1  0.750000  0.033960  0.715926  1
  Ho  Ho2  1  0.750000  0.533725  0.783809  1
  Ho  Ho3  1  0.250000  0.966275  0.283809  1
  Tm  Tm4  1  0.750000  0.677270  0.442233  1
  Tm  Tm5  1  0.250000  0.822730  0.942233  1
  Tm  Tm6  1  0.750000  0.176493  0.057781  1
  Tm  Tm7  1  0.250000  0.323507  0.557781  1
  Re  Re8  1  0.250000  0.279751  0.867631  1
  Re  Re9  1  0.250000  0.779504  0.632638  1
  Re  Re10  1  0.750000  0.220249  0.367631  1
  Re  Re11  1  0.750000  0.720496  0.132638  1
  C  C12  1  0.250000  0.674962  0.448937  1
  C  C13  1  0.250000  0.547401  0.759591  1
  C  C14  1  0.750000  0.452544  0.240677  1
  C  C15  1  0.750000  0.825038  0.948937  1
  C  C16  1  0.250000  0.047456  0.740677  1
  C  C17  1  0.250000  0.172070  0.050779  1
  C  C18  1  0.750000  0.327930  0.550779  1
  C  C19  1  0.750000  0.952599  0.259591  1
