# generated using pymatgen
data_VCo2BrO4
_symmetry_space_group_name_H-M   'P 1'
_cell_length_a   6.71411700
_cell_length_b   5.23668488
_cell_length_c   6.95868022
_cell_angle_alpha   87.15260082
_cell_angle_beta   90.00000000
_cell_angle_gamma   90.00000000
_symmetry_Int_Tables_number   1
_chemical_formula_structural   VCo2BrO4
_chemical_formula_sum   'V2 Co4 Br2 O8'
_cell_volume   244.36314528
_cell_formula_units_Z   2
loop_
 _symmetry_equiv_pos_site_id
 _symmetry_equiv_pos_as_xyz
  1  'x, y, z'
loop_
 _atom_site_type_symbol
 _atom_site_label
 _atom_site_symmetry_multiplicity
 _atom_site_fract_x
 _atom_site_fract_y
 _atom_site_fract_z
 _atom_site_occupancy
  V  V0  1  0.750000  0.510290  0.768595  1
  V  V1  1  0.250000  0.489710  0.231405  1
  Co  Co2  1  0.000000  0.000000  0.000000  1
  Co  Co3  1  0.250000  0.339866  0.739118  1
  Co  Co4  1  0.500000  0.000000  0.000000  1
  Co  Co5  1  0.750000  0.660134  0.260882  1
  Br  Br6  1  0.250000  0.831651  0.742144  1
  Br  Br7  1  0.750000  0.168349  0.257856  1
  O  O8  1  0.041295  0.688306  0.193811  1
  O  O9  1  0.250000  0.361782  0.458842  1
  O  O10  1  0.458705  0.688306  0.193811  1
  O  O11  1  0.958705  0.311694  0.806189  1
  O  O12  1  0.750000  0.638218  0.541158  1
  O  O13  1  0.250000  0.227709  0.066950  1
  O  O14  1  0.541295  0.311694  0.806189  1
  O  O15  1  0.750000  0.772291  0.933050  1
