# generated using pymatgen
data_Er6Tm14(Ir3Rh)3
_symmetry_space_group_name_H-M   'P 1'
_cell_length_a   10.74525502
_cell_length_b   10.74449500
_cell_length_c   6.32518601
_cell_angle_alpha   89.99920150
_cell_angle_beta   89.99230569
_cell_angle_gamma   90.00021860
_symmetry_Int_Tables_number   1
_chemical_formula_structural   Er6Tm14(Ir3Rh)3
_chemical_formula_sum   'Er6 Tm14 Ir9 Rh3'
_cell_volume   730.25751258
_cell_formula_units_Z   1
loop_
 _symmetry_equiv_pos_site_id
 _symmetry_equiv_pos_as_xyz
  1  'x, y, z'
loop_
 _atom_site_type_symbol
 _atom_site_label
 _atom_site_symmetry_multiplicity
 _atom_site_fract_x
 _atom_site_fract_y
 _atom_site_fract_z
 _atom_site_occupancy
  Er  Er0  1  0.290257  0.088132  0.377673  1
  Er  Er1  1  0.290196  0.911610  0.877565  1
  Er  Er2  1  0.709781  0.088432  0.877532  1
  Er  Er3  1  0.709710  0.911820  0.377655  1
  Er  Er4  1  0.588347  0.790108  0.877561  1
  Er  Er5  1  0.588103  0.209820  0.377672  1
  Tm  Tm6  1  0.411848  0.790381  0.377919  1
  Tm  Tm7  1  0.411602  0.209697  0.877715  1
  Tm  Tm8  1  0.208708  0.412050  0.621076  1
  Tm  Tm9  1  0.208998  0.588185  0.123288  1
  Tm  Tm10  1  0.791083  0.411913  0.123137  1
  Tm  Tm11  1  0.791360  0.587883  0.620895  1
  Tm  Tm12  1  0.911935  0.708918  0.123163  1
  Tm  Tm13  1  0.912148  0.291363  0.620941  1
  Tm  Tm14  1  0.087907  0.708631  0.620892  1
  Tm  Tm15  1  0.088113  0.291091  0.123087  1
  Tm  Tm16  1  0.000000  0.999985  0.500577  1
  Tm  Tm17  1  0.999983  0.000025  0.000347  1
  Tm  Tm18  1  0.499919  0.499869  0.000320  1
  Tm  Tm19  1  0.499932  0.500130  0.500581  1
  Ir  Ir20  1  0.846113  0.153498  0.249951  1
  Ir  Ir21  1  0.846295  0.846214  0.750189  1
  Ir  Ir22  1  0.153986  0.153832  0.750308  1
  Ir  Ir23  1  0.154150  0.846438  0.250040  1
  Ir  Ir24  1  0.653594  0.346204  0.750314  1
  Ir  Ir25  1  0.653307  0.653967  0.250063  1
  Ir  Ir26  1  0.346624  0.345969  0.249500  1
  Ir  Ir27  1  0.346345  0.653854  0.749737  1
  Ir  Ir28  1  0.000016  0.499988  0.376628  1
  Rh  Rh29  1  0.499829  0.000037  0.123112  1
  Rh  Rh30  1  0.499821  0.999948  0.623188  1
  Rh  Rh31  1  0.999989  0.500006  0.877373  1
