# generated using pymatgen
data_PuAl2ZnGa
_symmetry_space_group_name_H-M   'P 1'
_cell_length_a   4.16845053
_cell_length_b   4.16845091
_cell_length_c   6.25138345
_cell_angle_alpha   70.52459886
_cell_angle_beta   70.52458332
_cell_angle_gamma   90.00000760
_symmetry_Int_Tables_number   1
_chemical_formula_structural   PuAl2ZnGa
_chemical_formula_sum   'Pu1 Al2 Zn1 Ga1'
_cell_volume   95.79163345
_cell_formula_units_Z   1
loop_
 _symmetry_equiv_pos_site_id
 _symmetry_equiv_pos_as_xyz
  1  'x, y, z'
loop_
 _atom_site_type_symbol
 _atom_site_label
 _atom_site_symmetry_multiplicity
 _atom_site_fract_x
 _atom_site_fract_y
 _atom_site_fract_z
 _atom_site_occupancy
  Pu  Pu0  1  0.997406  0.997406  0.005187  1
  Al  Al1  1  0.747840  0.247840  0.504319  1
  Al  Al2  1  0.247840  0.747840  0.504319  1
  Zn  Zn3  1  0.613346  0.613346  0.773308  1
  Ga  Ga4  1  0.393567  0.393567  0.212867  1
