# generated using pymatgen
data_TbDyY4(Al3Os)8
_symmetry_space_group_name_H-M   'P 1'
_cell_length_a   8.84465901
_cell_length_b   8.84133390
_cell_length_c   9.57655600
_cell_angle_alpha   90.00000000
_cell_angle_beta   90.00000000
_cell_angle_gamma   120.00847238
_symmetry_Int_Tables_number   1
_chemical_formula_structural   TbDyY4(Al3Os)8
_chemical_formula_sum   'Tb1 Dy1 Y4 Al24 Os8'
_cell_volume   648.48776532
_cell_formula_units_Z   1
loop_
 _symmetry_equiv_pos_site_id
 _symmetry_equiv_pos_as_xyz
  1  'x, y, z'
loop_
 _atom_site_type_symbol
 _atom_site_label
 _atom_site_symmetry_multiplicity
 _atom_site_fract_x
 _atom_site_fract_y
 _atom_site_fract_z
 _atom_site_occupancy
  Tb  Tb0  1  0.193213  0.386462  0.250000  1
  Dy  Dy1  1  0.193375  0.806635  0.250000  1
  Y  Y2  1  0.806804  0.613623  0.750000  1
  Y  Y3  1  0.613279  0.806666  0.250000  1
  Y  Y4  1  0.386426  0.193214  0.750000  1
  Y  Y5  1  0.806791  0.193197  0.750000  1
  Al  Al6  1  0.333365  0.666770  0.014957  1
  Al  Al7  1  0.666670  0.333349  0.985108  1
  Al  Al8  1  0.666670  0.333349  0.514892  1
  Al  Al9  1  0.333365  0.666770  0.485043  1
  Al  Al10  1  0.162683  0.325347  0.575949  1
  Al  Al11  1  0.837333  0.674629  0.424192  1
  Al  Al12  1  0.674684  0.837355  0.575848  1
  Al  Al13  1  0.837333  0.674629  0.075808  1
  Al  Al14  1  0.325377  0.162575  0.424163  1
  Al  Al15  1  0.162683  0.325347  0.924051  1
  Al  Al16  1  0.162681  0.837364  0.575825  1
  Al  Al17  1  0.325377  0.162575  0.075837  1
  Al  Al18  1  0.837210  0.162600  0.424196  1
  Al  Al19  1  0.674684  0.837355  0.924152  1
  Al  Al20  1  0.837210  0.162600  0.075804  1
  Al  Al21  1  0.162681  0.837364  0.924175  1
  Al  Al22  1  0.560209  0.120476  0.250000  1
  Al  Al23  1  0.439769  0.879533  0.750000  1
  Al  Al24  1  0.879280  0.439764  0.250000  1
  Al  Al25  1  0.120454  0.560248  0.750000  1
  Al  Al26  1  0.560460  0.439730  0.250000  1
  Al  Al27  1  0.439796  0.560252  0.750000  1
  Al  Al28  1  0.999972  0.999782  0.250000  1
  Al  Al29  1  0.000013  0.000020  0.750000  1
  Os  Os30  1  0.499991  0.000068  0.999970  1
  Os  Os31  1  0.999968  0.500096  0.999946  1
  Os  Os32  1  0.499991  0.000068  0.500030  1
  Os  Os33  1  0.500107  0.500033  0.999898  1
  Os  Os34  1  0.999968  0.500096  0.500054  1
  Os  Os35  1  0.500107  0.500033  0.500102  1
  Os  Os36  1  0.000012  0.000014  0.999916  1
  Os  Os37  1  0.000012  0.000014  0.500084  1
