# generated using pymatgen
data_SrPaNiS3
_symmetry_space_group_name_H-M   'P 1'
_cell_length_a   3.83471500
_cell_length_b   6.80144977
_cell_length_c   10.21601702
_cell_angle_alpha   90.01106510
_cell_angle_beta   89.99998156
_cell_angle_gamma   73.62461034
_symmetry_Int_Tables_number   1
_chemical_formula_structural   SrPaNiS3
_chemical_formula_sum   'Sr2 Pa2 Ni2 S6'
_cell_volume   255.64177060
_cell_formula_units_Z   2
loop_
 _symmetry_equiv_pos_site_id
 _symmetry_equiv_pos_as_xyz
  1  'x, y, z'
loop_
 _atom_site_type_symbol
 _atom_site_label
 _atom_site_symmetry_multiplicity
 _atom_site_fract_x
 _atom_site_fract_y
 _atom_site_fract_z
 _atom_site_occupancy
  Sr  Sr0  1  0.254316  0.491291  0.249952  1
  Sr  Sr1  1  0.745691  0.508679  0.750050  1
  Pa  Pa2  1  0.000000  0.999998  0.000039  1
  Pa  Pa3  1  0.999999  0.999998  0.499961  1
  Ni  Ni4  1  0.529755  0.940622  0.250001  1
  Ni  Ni5  1  0.470236  0.059408  0.749999  1
  S  S6  1  0.638939  0.721964  0.075380  1
  S  S7  1  0.931575  0.136845  0.250017  1
  S  S8  1  0.638923  0.721990  0.424558  1
  S  S9  1  0.361066  0.278027  0.575416  1
  S  S10  1  0.068437  0.863129  0.749981  1
  S  S11  1  0.361049  0.278048  0.924645  1
