# generated using pymatgen
data_Ta16Mn3NiTe16
_symmetry_space_group_name_H-M   'P 1'
_cell_length_a   4.84633300
_cell_length_b   11.02378719
_cell_length_c   19.33533500
_cell_angle_alpha   89.99024598
_cell_angle_beta   90.00000000
_cell_angle_gamma   90.00000000
_symmetry_Int_Tables_number   1
_chemical_formula_structural   Ta16Mn3NiTe16
_chemical_formula_sum   'Ta16 Mn3 Ni1 Te16'
_cell_volume   1032.98916800
_cell_formula_units_Z   1
loop_
 _symmetry_equiv_pos_site_id
 _symmetry_equiv_pos_as_xyz
  1  'x, y, z'
loop_
 _atom_site_type_symbol
 _atom_site_label
 _atom_site_symmetry_multiplicity
 _atom_site_fract_x
 _atom_site_fract_y
 _atom_site_fract_z
 _atom_site_occupancy
  Ta  Ta0  1  0.497877  0.562879  0.385976  1
  Ta  Ta1  1  0.497877  0.437121  0.614024  1
  Ta  Ta2  1  0.500043  0.063367  0.114469  1
  Ta  Ta3  1  0.500043  0.936633  0.885531  1
  Ta  Ta4  1  0.497496  0.700197  0.536059  1
  Ta  Ta5  1  0.497496  0.299803  0.463941  1
  Ta  Ta6  1  0.499942  0.201452  0.963952  1
  Ta  Ta7  1  0.499942  0.798548  0.036048  1
  Ta  Ta8  1  0.002633  0.686346  0.444670  1
  Ta  Ta9  1  0.002633  0.313654  0.555330  1
  Ta  Ta10  1  0.000102  0.187308  0.055635  1
  Ta  Ta11  1  0.000102  0.812692  0.944365  1
  Ta  Ta12  1  0.002025  0.403137  0.393868  1
  Ta  Ta13  1  0.002025  0.596863  0.606132  1
  Ta  Ta14  1  0.999928  0.902488  0.106426  1
  Ta  Ta15  1  0.999928  0.097512  0.893574  1
  Mn  Mn16  1  0.750039  0.000000  0.000000  1
  Mn  Mn17  1  0.749796  0.500000  0.500000  1
  Mn  Mn18  1  0.249914  0.000000  0.000000  1
  Ni  Ni19  1  0.249610  0.500000  0.500000  1
  Te  Te20  1  0.000250  0.845044  0.561834  1
  Te  Te21  1  0.000250  0.154956  0.438166  1
  Te  Te22  1  0.999987  0.345387  0.938007  1
  Te  Te23  1  0.999987  0.654613  0.061993  1
  Te  Te24  1  0.499224  0.333178  0.317081  1
  Te  Te25  1  0.499224  0.666822  0.682919  1
  Te  Te26  1  0.499807  0.833117  0.182667  1
  Te  Te27  1  0.499807  0.166883  0.817333  1
  Te  Te28  1  0.500001  0.820707  0.404877  1
  Te  Te29  1  0.500001  0.179293  0.595123  1
  Te  Te30  1  0.500093  0.321278  0.095371  1
  Te  Te31  1  0.500093  0.678722  0.904629  1
  Te  Te32  1  0.000793  0.609087  0.303510  1
  Te  Te33  1  0.000793  0.390913  0.696490  1
  Te  Te34  1  0.000119  0.108405  0.196541  1
  Te  Te35  1  0.000119  0.891595  0.803459  1
