# generated using pymatgen
data_Pr3Tl2In3
_symmetry_space_group_name_H-M   'P 1'
_cell_length_a   6.67840661
_cell_length_b   6.67840747
_cell_length_c   10.65862200
_cell_angle_alpha   90.00000000
_cell_angle_beta   90.00000000
_cell_angle_gamma   102.38570324
_symmetry_Int_Tables_number   1
_chemical_formula_structural   Pr3Tl2In3
_chemical_formula_sum   'Pr6 Tl4 In6'
_cell_volume   464.32225903
_cell_formula_units_Z   2
loop_
 _symmetry_equiv_pos_site_id
 _symmetry_equiv_pos_as_xyz
  1  'x, y, z'
loop_
 _atom_site_type_symbol
 _atom_site_label
 _atom_site_symmetry_multiplicity
 _atom_site_fract_x
 _atom_site_fract_y
 _atom_site_fract_z
 _atom_site_occupancy
  Pr  Pr0  1  0.634349  0.634349  0.250000  1
  Pr  Pr1  1  0.365651  0.365651  0.750000  1
  Pr  Pr2  1  0.202529  0.797471  0.500000  1
  Pr  Pr3  1  0.202529  0.797471  0.000000  1
  Pr  Pr4  1  0.797471  0.202529  0.500000  1
  Pr  Pr5  1  0.797471  0.202529  0.000000  1
  Tl  Tl6  1  0.506422  0.073141  0.250000  1
  Tl  Tl7  1  0.926859  0.493578  0.750000  1
  Tl  Tl8  1  0.493578  0.926859  0.750000  1
  Tl  Tl9  1  0.073141  0.506422  0.250000  1
  In  In10  1  0.017237  0.017237  0.250000  1
  In  In11  1  0.982763  0.982763  0.750000  1
  In  In12  1  0.308514  0.308514  0.047670  1
  In  In13  1  0.691486  0.691486  0.952330  1
  In  In14  1  0.308514  0.308514  0.452330  1
  In  In15  1  0.691486  0.691486  0.547670  1
