# generated using pymatgen
data_LaEu3(PIr)4
_symmetry_space_group_name_H-M   'P 1'
_cell_length_a   6.29718641
_cell_length_b   6.29718641
_cell_length_c   6.29718641
_cell_angle_alpha   89.87578014
_cell_angle_beta   89.87578014
_cell_angle_gamma   90.12421986
_symmetry_Int_Tables_number   1
_chemical_formula_structural   LaEu3(PIr)4
_chemical_formula_sum   'La1 Eu3 P4 Ir4'
_cell_volume   249.71037201
_cell_formula_units_Z   1
loop_
 _symmetry_equiv_pos_site_id
 _symmetry_equiv_pos_as_xyz
  1  'x, y, z'
loop_
 _atom_site_type_symbol
 _atom_site_label
 _atom_site_symmetry_multiplicity
 _atom_site_fract_x
 _atom_site_fract_y
 _atom_site_fract_z
 _atom_site_occupancy
  La  La0  1  0.393589  0.893589  0.606411  1
  Eu  Eu1  1  0.895044  0.602460  0.394366  1
  Eu  Eu2  1  0.605634  0.395044  0.897540  1
  Eu  Eu3  1  0.102460  0.105634  0.104956  1
  P  P4  1  0.672684  0.172684  0.327316  1
  P  P5  1  0.170996  0.330382  0.671752  1
  P  P6  1  0.328248  0.670996  0.169618  1
  P  P7  1  0.830382  0.828248  0.829004  1
  Ir  Ir8  1  0.082251  0.582251  0.917749  1
  Ir  Ir9  1  0.581296  0.918357  0.080940  1
  Ir  Ir10  1  0.919060  0.081296  0.581643  1
  Ir  Ir11  1  0.418357  0.419060  0.418704  1
