# generated using pymatgen
data_Ca2BC11
_symmetry_space_group_name_H-M   'P 1'
_cell_length_a   4.39992600
_cell_length_b   4.39985058
_cell_length_c   8.98009909
_cell_angle_alpha   91.15663615
_cell_angle_beta   90.00000000
_cell_angle_gamma   120.00056704
_symmetry_Int_Tables_number   1
_chemical_formula_structural   Ca2BC11
_chemical_formula_sum   'Ca2 B1 C11'
_cell_volume   150.51319444
_cell_formula_units_Z   1
loop_
 _symmetry_equiv_pos_site_id
 _symmetry_equiv_pos_as_xyz
  1  'x, y, z'
loop_
 _atom_site_type_symbol
 _atom_site_label
 _atom_site_symmetry_multiplicity
 _atom_site_fract_x
 _atom_site_fract_y
 _atom_site_fract_z
 _atom_site_occupancy
  Ca  Ca0  1  0.333886  0.653833  0.253733  1
  Ca  Ca1  1  0.680054  0.346169  0.746267  1
  B  B2  1  0.330350  0.000000  0.000000  1
  C  C3  1  0.675907  0.000000  0.000000  1
  C  C4  1  0.331327  0.345088  0.997750  1
  C  C5  1  0.997577  0.332800  0.999919  1
  C  C6  1  0.986240  0.654911  0.002250  1
  C  C7  1  0.664777  0.667199  0.000081  1
  C  C8  1  0.333303  0.000000  0.500000  1
  C  C9  1  0.666665  0.000000  0.500000  1
  C  C10  1  0.333397  0.333587  0.501017  1
  C  C11  1  0.000055  0.333403  0.499575  1
  C  C12  1  0.999811  0.666412  0.498983  1
  C  C13  1  0.666652  0.666596  0.500425  1
