# generated using pymatgen
data_Dy9HoCd3Ru
_symmetry_space_group_name_H-M   'P 1'
_cell_length_a   9.58418300
_cell_length_b   9.58418193
_cell_length_c   9.86418300
_cell_angle_alpha   90.00000000
_cell_angle_beta   90.00000000
_cell_angle_gamma   120.00000026
_symmetry_Int_Tables_number   1
_chemical_formula_structural   Dy9HoCd3Ru
_chemical_formula_sum   'Dy18 Ho2 Cd6 Ru2'
_cell_volume   784.69682896
_cell_formula_units_Z   2
loop_
 _symmetry_equiv_pos_site_id
 _symmetry_equiv_pos_as_xyz
  1  'x, y, z'
loop_
 _atom_site_type_symbol
 _atom_site_label
 _atom_site_symmetry_multiplicity
 _atom_site_fract_x
 _atom_site_fract_y
 _atom_site_fract_z
 _atom_site_occupancy
  Dy  Dy0  1  0.209742  0.790258  0.440520  1
  Dy  Dy1  1  0.209742  0.419484  0.440520  1
  Dy  Dy2  1  0.580516  0.790258  0.440520  1
  Dy  Dy3  1  0.790258  0.209742  0.559480  1
  Dy  Dy4  1  0.790258  0.580516  0.559480  1
  Dy  Dy5  1  0.419484  0.209742  0.559480  1
  Dy  Dy6  1  0.790258  0.209742  0.940520  1
  Dy  Dy7  1  0.790258  0.580516  0.940520  1
  Dy  Dy8  1  0.419484  0.209742  0.940520  1
  Dy  Dy9  1  0.209742  0.790258  0.059480  1
  Dy  Dy10  1  0.209742  0.419484  0.059480  1
  Dy  Dy11  1  0.580516  0.790258  0.059480  1
  Dy  Dy12  1  0.541255  0.458745  0.250000  1
  Dy  Dy13  1  0.541255  0.082509  0.250000  1
  Dy  Dy14  1  0.917491  0.458745  0.250000  1
  Dy  Dy15  1  0.458745  0.541255  0.750000  1
  Dy  Dy16  1  0.458745  0.917491  0.750000  1
  Dy  Dy17  1  0.082509  0.541255  0.750000  1
  Ho  Ho18  1  0.000000  0.000000  0.500000  1
  Ho  Ho19  1  0.000000  0.000000  0.000000  1
  Cd  Cd20  1  0.885477  0.114523  0.250000  1
  Cd  Cd21  1  0.885477  0.770955  0.250000  1
  Cd  Cd22  1  0.229045  0.114523  0.250000  1
  Cd  Cd23  1  0.114523  0.885477  0.750000  1
  Cd  Cd24  1  0.114523  0.229045  0.750000  1
  Cd  Cd25  1  0.770955  0.885477  0.750000  1
  Ru  Ru26  1  0.333333  0.666667  0.250000  1
  Ru  Ru27  1  0.666667  0.333333  0.750000  1
