# generated using pymatgen
data_ThAl6Cu7
_symmetry_space_group_name_H-M   'P 1'
_cell_length_a   8.36977389
_cell_length_b   8.36977353
_cell_length_c   8.36977341
_cell_angle_alpha   122.07337283
_cell_angle_beta   118.48105125
_cell_angle_gamma   89.54890374
_symmetry_Int_Tables_number   1
_chemical_formula_structural   ThAl6Cu7
_chemical_formula_sum   'Th2 Al12 Cu14'
_cell_volume   412.33369844
_cell_formula_units_Z   2
loop_
 _symmetry_equiv_pos_site_id
 _symmetry_equiv_pos_as_xyz
  1  'x, y, z'
loop_
 _atom_site_type_symbol
 _atom_site_label
 _atom_site_symmetry_multiplicity
 _atom_site_fract_x
 _atom_site_fract_y
 _atom_site_fract_z
 _atom_site_occupancy
  Th  Th0  1  0.250000  0.750000  0.500000  1
  Th  Th1  1  0.750000  0.250000  0.500000  1
  Al  Al2  1  0.554215  0.545066  0.356208  1
  Al  Al3  1  0.445785  0.454934  0.643792  1
  Al  Al4  1  0.188858  0.198008  0.643792  1
  Al  Al5  1  0.311142  0.954934  0.009148  1
  Al  Al6  1  0.811142  0.801992  0.356208  1
  Al  Al7  1  0.688858  0.045066  0.990852  1
  Al  Al8  1  0.945785  0.301992  0.990852  1
  Al  Al9  1  0.054215  0.698008  0.009148  1
  Al  Al10  1  0.053257  0.309471  0.362728  1
  Al  Al11  1  0.946743  0.690529  0.637272  1
  Al  Al12  1  0.553257  0.190529  0.743786  1
  Al  Al13  1  0.446743  0.809471  0.256214  1
  Cu  Cu14  1  0.285301  0.299705  0.234082  1
  Cu  Cu15  1  0.714699  0.700295  0.765918  1
  Cu  Cu16  1  0.065623  0.051218  0.765918  1
  Cu  Cu17  1  0.434377  0.200295  0.985596  1
  Cu  Cu18  1  0.934377  0.948782  0.234082  1
  Cu  Cu19  1  0.565623  0.799705  0.014404  1
  Cu  Cu20  1  0.214699  0.448782  0.014404  1
  Cu  Cu21  1  0.785301  0.551218  0.985596  1
  Cu  Cu22  1  0.000000  0.000000  0.000000  1
  Cu  Cu23  1  0.500000  0.500000  0.000000  1
  Cu  Cu24  1  0.287560  0.066686  0.354247  1
  Cu  Cu25  1  0.712440  0.933314  0.645753  1
  Cu  Cu26  1  0.787560  0.433314  0.220874  1
  Cu  Cu27  1  0.212440  0.566686  0.779126  1
