# generated using pymatgen
data_Lu10CdNiPd2
_symmetry_space_group_name_H-M   'P 1'
_cell_length_a   9.28747600
_cell_length_b   9.29990331
_cell_length_c   9.20642500
_cell_angle_alpha   90.00000000
_cell_angle_beta   90.00000000
_cell_angle_gamma   120.04426137
_symmetry_Int_Tables_number   1
_chemical_formula_structural   Lu10CdNiPd2
_chemical_formula_sum   'Lu20 Cd2 Ni2 Pd4'
_cell_volume   688.34144302
_cell_formula_units_Z   2
loop_
 _symmetry_equiv_pos_site_id
 _symmetry_equiv_pos_as_xyz
  1  'x, y, z'
loop_
 _atom_site_type_symbol
 _atom_site_label
 _atom_site_symmetry_multiplicity
 _atom_site_fract_x
 _atom_site_fract_y
 _atom_site_fract_z
 _atom_site_occupancy
  Lu  Lu0  1  0.005277  0.002639  0.533070  1
  Lu  Lu1  1  0.005277  0.002639  0.966930  1
  Lu  Lu2  1  0.530860  0.447040  0.250000  1
  Lu  Lu3  1  0.530860  0.083822  0.250000  1
  Lu  Lu4  1  0.911302  0.455651  0.250000  1
  Lu  Lu5  1  0.456329  0.542527  0.750000  1
  Lu  Lu6  1  0.456329  0.913802  0.750000  1
  Lu  Lu7  1  0.085009  0.542504  0.750000  1
  Lu  Lu8  1  0.207429  0.791987  0.441295  1
  Lu  Lu9  1  0.207429  0.415442  0.441295  1
  Lu  Lu10  1  0.585615  0.792807  0.442236  1
  Lu  Lu11  1  0.790365  0.207892  0.562038  1
  Lu  Lu12  1  0.790365  0.582472  0.562038  1
  Lu  Lu13  1  0.416172  0.208086  0.559666  1
  Lu  Lu14  1  0.790365  0.207892  0.937962  1
  Lu  Lu15  1  0.790365  0.582472  0.937962  1
  Lu  Lu16  1  0.416172  0.208086  0.940334  1
  Lu  Lu17  1  0.207429  0.791987  0.058705  1
  Lu  Lu18  1  0.207429  0.415442  0.058705  1
  Lu  Lu19  1  0.585615  0.792807  0.057764  1
  Cd  Cd20  1  0.891489  0.112849  0.250000  1
  Cd  Cd21  1  0.891489  0.778640  0.250000  1
  Ni  Ni22  1  0.335192  0.667597  0.250000  1
  Ni  Ni23  1  0.664834  0.332416  0.750000  1
  Pd  Pd24  1  0.240005  0.120003  0.250000  1
  Pd  Pd25  1  0.126763  0.871380  0.750000  1
  Pd  Pd26  1  0.126763  0.255384  0.750000  1
  Pd  Pd27  1  0.747471  0.873735  0.750000  1
