# generated using pymatgen
data_Pr8Y7Lu5Pb16
_symmetry_space_group_name_H-M   'P 1'
_cell_length_a   8.31209606
_cell_length_b   8.40868704
_cell_length_c   15.90500200
_cell_angle_alpha   90.00007495
_cell_angle_beta   89.99318276
_cell_angle_gamma   89.99432405
_symmetry_Int_Tables_number   1
_chemical_formula_structural   Pr8Y7Lu5Pb16
_chemical_formula_sum   'Pr8 Y7 Lu5 Pb16'
_cell_volume   1111.66124474
_cell_formula_units_Z   1
loop_
 _symmetry_equiv_pos_site_id
 _symmetry_equiv_pos_as_xyz
  1  'x, y, z'
loop_
 _atom_site_type_symbol
 _atom_site_label
 _atom_site_symmetry_multiplicity
 _atom_site_fract_x
 _atom_site_fract_y
 _atom_site_fract_z
 _atom_site_occupancy
  Pr  Pr0  1  0.476546  0.677605  0.597426  1
  Pr  Pr1  1  0.976588  0.822424  0.902307  1
  Pr  Pr2  1  0.523756  0.322317  0.097558  1
  Pr  Pr3  1  0.023407  0.177664  0.402668  1
  Pr  Pr4  1  0.523977  0.322467  0.402518  1
  Pr  Pr5  1  0.023500  0.177467  0.097561  1
  Pr  Pr6  1  0.476268  0.677564  0.902432  1
  Pr  Pr7  1  0.976408  0.822487  0.597472  1
  Y  Y8  1  0.634800  0.157687  0.622584  1
  Y  Y9  1  0.134812  0.341852  0.877213  1
  Y  Y10  1  0.365225  0.842121  0.122642  1
  Y  Y11  1  0.865190  0.658082  0.377229  1
  Y  Y12  1  0.364921  0.841985  0.377706  1
  Y  Y13  1  0.865153  0.657986  0.122767  1
  Y  Y14  1  0.634881  0.158064  0.877125  1
  Lu  Lu15  1  0.134793  0.341559  0.623275  1
  Lu  Lu16  1  0.801483  0.495211  0.749677  1
  Lu  Lu17  1  0.300679  0.005319  0.749739  1
  Lu  Lu18  1  0.199052  0.504458  0.250143  1
  Lu  Lu19  1  0.699046  0.995176  0.250069  1
  Pb  Pb20  1  0.704911  0.960165  0.456302  1
  Pb  Pb21  1  0.204844  0.539767  0.043823  1
  Pb  Pb22  1  0.295043  0.039786  0.955810  1
  Pb  Pb23  1  0.797181  0.459630  0.544351  1
  Pb  Pb24  1  0.294043  0.041932  0.544463  1
  Pb  Pb25  1  0.794997  0.460245  0.955748  1
  Pb  Pb26  1  0.704875  0.960263  0.043600  1
  Pb  Pb27  1  0.204331  0.538736  0.457312  1
  Pb  Pb28  1  0.439593  0.371045  0.749498  1
  Pb  Pb29  1  0.940784  0.129522  0.749248  1
  Pb  Pb30  1  0.559225  0.629198  0.250065  1
  Pb  Pb31  1  0.060039  0.871206  0.250035  1
  Pb  Pb32  1  0.664456  0.848406  0.749978  1
  Pb  Pb33  1  0.164544  0.650261  0.749567  1
  Pb  Pb34  1  0.335478  0.151495  0.250075  1
  Pb  Pb35  1  0.835170  0.348849  0.250011  1
