# generated using pymatgen
data_Eu5Th(TiSb5)2
_symmetry_space_group_name_H-M   'P 1'
_cell_length_a   9.54632600
_cell_length_b   9.51246907
_cell_length_c   6.22147400
_cell_angle_alpha   90.00000000
_cell_angle_beta   90.00000000
_cell_angle_gamma   120.11780790
_symmetry_Int_Tables_number   1
_chemical_formula_structural   Eu5Th(TiSb5)2
_chemical_formula_sum   'Eu5 Th1 Ti2 Sb10'
_cell_volume   488.69361028
_cell_formula_units_Z   1
loop_
 _symmetry_equiv_pos_site_id
 _symmetry_equiv_pos_as_xyz
  1  'x, y, z'
loop_
 _atom_site_type_symbol
 _atom_site_label
 _atom_site_symmetry_multiplicity
 _atom_site_fract_x
 _atom_site_fract_y
 _atom_site_fract_z
 _atom_site_occupancy
  Eu  Eu0  1  0.377439  0.000000  0.750000  1
  Eu  Eu1  1  0.383311  0.384977  0.250000  1
  Eu  Eu2  1  0.998334  0.615023  0.250000  1
  Eu  Eu3  1  0.002646  0.387337  0.750000  1
  Eu  Eu4  1  0.615308  0.612663  0.750000  1
  Th  Th5  1  0.619213  0.000000  0.250000  1
  Ti  Ti6  1  0.001264  0.000000  0.997323  1
  Ti  Ti7  1  0.001264  0.000000  0.502677  1
  Sb  Sb8  1  0.665151  0.328401  0.497931  1
  Sb  Sb9  1  0.336749  0.671599  0.002069  1
  Sb  Sb10  1  0.748439  0.000000  0.750000  1
  Sb  Sb11  1  0.751449  0.751528  0.250000  1
  Sb  Sb12  1  0.336749  0.671599  0.497931  1
  Sb  Sb13  1  0.665151  0.328401  0.002069  1
  Sb  Sb14  1  0.250801  0.000000  0.250000  1
  Sb  Sb15  1  0.248574  0.250334  0.750000  1
  Sb  Sb16  1  0.998239  0.749666  0.750000  1
  Sb  Sb17  1  0.999919  0.248472  0.250000  1
