# generated using pymatgen
data_HoScFeB6
_symmetry_space_group_name_H-M   'P 1'
_cell_length_a   3.42346700
_cell_length_b   8.87981700
_cell_length_c   11.23717300
_cell_angle_alpha   90.00000000
_cell_angle_beta   90.00000000
_cell_angle_gamma   90.00000000
_symmetry_Int_Tables_number   1
_chemical_formula_structural   HoScFeB6
_chemical_formula_sum   'Ho4 Sc4 Fe4 B24'
_cell_volume   341.60736751
_cell_formula_units_Z   4
loop_
 _symmetry_equiv_pos_site_id
 _symmetry_equiv_pos_as_xyz
  1  'x, y, z'
loop_
 _atom_site_type_symbol
 _atom_site_label
 _atom_site_symmetry_multiplicity
 _atom_site_fract_x
 _atom_site_fract_y
 _atom_site_fract_z
 _atom_site_occupancy
  Ho  Ho0  1  0.000000  0.821986  0.085133  1
  Ho  Ho1  1  0.000000  0.178014  0.914867  1
  Ho  Ho2  1  0.000000  0.321986  0.414867  1
  Ho  Ho3  1  0.000000  0.678014  0.585133  1
  Sc  Sc4  1  0.000000  0.444357  0.128726  1
  Sc  Sc5  1  0.000000  0.555643  0.871274  1
  Sc  Sc6  1  0.000000  0.944357  0.371274  1
  Sc  Sc7  1  0.000000  0.055643  0.628726  1
  Fe  Fe8  1  0.000000  0.141003  0.182047  1
  Fe  Fe9  1  0.000000  0.858997  0.817953  1
  Fe  Fe10  1  0.000000  0.641003  0.317953  1
  Fe  Fe11  1  0.000000  0.358997  0.682047  1
  B  B12  1  0.500000  0.056029  0.068751  1
  B  B13  1  0.500000  0.943971  0.931249  1
  B  B14  1  0.500000  0.556029  0.431249  1
  B  B15  1  0.500000  0.443971  0.568751  1
  B  B16  1  0.500000  0.251604  0.083077  1
  B  B17  1  0.500000  0.748396  0.916923  1
  B  B18  1  0.500000  0.751604  0.416923  1
  B  B19  1  0.500000  0.248396  0.583077  1
  B  B20  1  0.500000  0.292340  0.234923  1
  B  B21  1  0.500000  0.707660  0.765077  1
  B  B22  1  0.500000  0.792340  0.265077  1
  B  B23  1  0.500000  0.207660  0.734923  1
  B  B24  1  0.500000  0.129880  0.316412  1
  B  B25  1  0.500000  0.870120  0.683588  1
  B  B26  1  0.500000  0.629880  0.183588  1
  B  B27  1  0.500000  0.370120  0.816412  1
  B  B28  1  0.500000  0.484743  0.286421  1
  B  B29  1  0.500000  0.515257  0.713579  1
  B  B30  1  0.500000  0.984743  0.213579  1
  B  B31  1  0.500000  0.015257  0.786421  1
  B  B32  1  0.500000  0.099995  0.473326  1
  B  B33  1  0.500000  0.900005  0.526674  1
  B  B34  1  0.500000  0.599995  0.026674  1
  B  B35  1  0.500000  0.400005  0.973326  1
