# generated using pymatgen
data_Tb6Ho10Cd3AgIr4
_symmetry_space_group_name_H-M   'P 1'
_cell_length_a   9.61112966
_cell_length_b   9.61112943
_cell_length_c   9.61112950
_cell_angle_alpha   59.89289823
_cell_angle_beta   59.89289988
_cell_angle_gamma   59.89290133
_symmetry_Int_Tables_number   1
_chemical_formula_structural   Tb6Ho10Cd3AgIr4
_chemical_formula_sum   'Tb6 Ho10 Cd3 Ag1 Ir4'
_cell_volume   626.25576081
_cell_formula_units_Z   1
loop_
 _symmetry_equiv_pos_site_id
 _symmetry_equiv_pos_as_xyz
  1  'x, y, z'
loop_
 _atom_site_type_symbol
 _atom_site_label
 _atom_site_symmetry_multiplicity
 _atom_site_fract_x
 _atom_site_fract_y
 _atom_site_fract_z
 _atom_site_occupancy
  Tb  Tb0  1  0.186324  0.811435  0.811435  1
  Tb  Tb1  1  0.811319  0.187532  0.187532  1
  Tb  Tb2  1  0.811435  0.186324  0.811435  1
  Tb  Tb3  1  0.187532  0.811319  0.187532  1
  Tb  Tb4  1  0.811435  0.811435  0.186324  1
  Tb  Tb5  1  0.187532  0.187532  0.811319  1
  Ho  Ho6  1  0.598497  0.598497  0.598497  1
  Ho  Ho7  1  0.599794  0.599794  0.202727  1
  Ho  Ho8  1  0.599794  0.202727  0.599794  1
  Ho  Ho9  1  0.202727  0.599794  0.599794  1
  Ho  Ho10  1  0.060699  0.438872  0.438872  1
  Ho  Ho11  1  0.437533  0.060793  0.060793  1
  Ho  Ho12  1  0.438872  0.060699  0.438872  1
  Ho  Ho13  1  0.060793  0.437533  0.060793  1
  Ho  Ho14  1  0.438872  0.438872  0.060699  1
  Ho  Ho15  1  0.060793  0.060793  0.437533  1
  Cd  Cd16  1  0.831053  0.831053  0.508931  1
  Cd  Cd17  1  0.831053  0.508931  0.831053  1
  Cd  Cd18  1  0.508931  0.831053  0.831053  1
  Ag  Ag19  1  0.832622  0.832622  0.832622  1
  Ir  Ir20  1  0.391839  0.391839  0.391839  1
  Ir  Ir21  1  0.392491  0.392491  0.825571  1
  Ir  Ir22  1  0.392491  0.825571  0.392491  1
  Ir  Ir23  1  0.825571  0.392491  0.392491  1
