# generated using pymatgen
data_Ho9TmRu3Rh
_symmetry_space_group_name_H-M   'P 1'
_cell_length_a   6.31698523
_cell_length_b   7.28453325
_cell_length_c   8.44187957
_cell_angle_alpha   96.77066176
_cell_angle_beta   111.88565964
_cell_angle_gamma   90.06380196
_symmetry_Int_Tables_number   1
_chemical_formula_structural   Ho9TmRu3Rh
_chemical_formula_sum   'Ho9 Tm1 Ru3 Rh1'
_cell_volume   357.52507623
_cell_formula_units_Z   1
loop_
 _symmetry_equiv_pos_site_id
 _symmetry_equiv_pos_as_xyz
  1  'x, y, z'
loop_
 _atom_site_type_symbol
 _atom_site_label
 _atom_site_symmetry_multiplicity
 _atom_site_fract_x
 _atom_site_fract_y
 _atom_site_fract_z
 _atom_site_occupancy
  Ho  Ho0  1  0.793354  0.081372  0.814924  1
  Ho  Ho1  1  0.980042  0.415513  0.188573  1
  Ho  Ho2  1  0.207612  0.915082  0.185860  1
  Ho  Ho3  1  0.024031  0.586455  0.814844  1
  Ho  Ho4  1  0.203771  0.183121  0.563888  1
  Ho  Ho5  1  0.642934  0.314818  0.432058  1
  Ho  Ho6  1  0.792822  0.814615  0.433986  1
  Ho  Ho7  1  0.357104  0.687011  0.564356  1
  Ho  Ho8  1  0.419356  0.249008  0.001027  1
  Tm  Tm9  1  0.578999  0.752309  0.001430  1
  Ru  Ru10  1  0.823400  0.076320  0.219096  1
  Ru  Ru11  1  0.396465  0.575760  0.220499  1
  Ru  Ru12  1  0.178227  0.923875  0.779833  1
  Rh  Rh13  1  0.601883  0.424740  0.779627  1
