# generated using pymatgen
data_YLu(Fe5P3)2
_symmetry_space_group_name_H-M   'P 1'
_cell_length_a   3.64242800
_cell_length_b   10.27401200
_cell_length_c   11.79973600
_cell_angle_alpha   90.00000000
_cell_angle_beta   90.00000000
_cell_angle_gamma   90.00000000
_symmetry_Int_Tables_number   1
_chemical_formula_structural   YLu(Fe5P3)2
_chemical_formula_sum   'Y2 Lu2 Fe20 P12'
_cell_volume   441.57383848
_cell_formula_units_Z   2
loop_
 _symmetry_equiv_pos_site_id
 _symmetry_equiv_pos_as_xyz
  1  'x, y, z'
loop_
 _atom_site_type_symbol
 _atom_site_label
 _atom_site_symmetry_multiplicity
 _atom_site_fract_x
 _atom_site_fract_y
 _atom_site_fract_z
 _atom_site_occupancy
  Y  Y0  1  0.250000  0.580739  0.704477  1
  Y  Y1  1  0.250000  0.919261  0.204477  1
  Lu  Lu2  1  0.750000  0.419438  0.295596  1
  Lu  Lu3  1  0.750000  0.080562  0.795596  1
  Fe  Fe4  1  0.250000  0.707948  0.988868  1
  Fe  Fe5  1  0.250000  0.792052  0.488868  1
  Fe  Fe6  1  0.750000  0.291786  0.010941  1
  Fe  Fe7  1  0.750000  0.208214  0.510941  1
  Fe  Fe8  1  0.250000  0.405262  0.488947  1
  Fe  Fe9  1  0.250000  0.094738  0.988947  1
  Fe  Fe10  1  0.750000  0.594427  0.508891  1
  Fe  Fe11  1  0.750000  0.905573  0.008891  1
  Fe  Fe12  1  0.250000  0.220229  0.176765  1
  Fe  Fe13  1  0.250000  0.279771  0.676765  1
  Fe  Fe14  1  0.750000  0.781477  0.823440  1
  Fe  Fe15  1  0.750000  0.718523  0.323440  1
  Fe  Fe16  1  0.250000  0.877151  0.702126  1
  Fe  Fe17  1  0.250000  0.622849  0.202126  1
  Fe  Fe18  1  0.750000  0.125566  0.298703  1
  Fe  Fe19  1  0.750000  0.374434  0.798703  1
  Fe  Fe20  1  0.250000  0.462531  0.932843  1
  Fe  Fe21  1  0.250000  0.037469  0.432843  1
  Fe  Fe22  1  0.750000  0.535776  0.068446  1
  Fe  Fe23  1  0.750000  0.964224  0.568446  1
  P  P24  1  0.250000  0.421733  0.113860  1
  P  P25  1  0.250000  0.078267  0.613860  1
  P  P26  1  0.750000  0.578136  0.888090  1
  P  P27  1  0.750000  0.921864  0.388090  1
  P  P28  1  0.250000  0.264700  0.871328  1
  P  P29  1  0.250000  0.235300  0.371328  1
  P  P30  1  0.750000  0.733546  0.127699  1
  P  P31  1  0.750000  0.766454  0.627699  1
  P  P32  1  0.250000  0.599544  0.395815  1
  P  P33  1  0.250000  0.900456  0.895815  1
  P  P34  1  0.750000  0.398738  0.603163  1
  P  P35  1  0.750000  0.101262  0.103163  1
