# generated using pymatgen
data_Rb2Fe(SiO3)2
_symmetry_space_group_name_H-M   'P 1'
_cell_length_a   6.06533044
_cell_length_b   6.06533020
_cell_length_c   10.53417000
_cell_angle_alpha   90.00000000
_cell_angle_beta   90.00000000
_cell_angle_gamma   111.54012042
_symmetry_Int_Tables_number   1
_chemical_formula_structural   Rb2Fe(SiO3)2
_chemical_formula_sum   'Rb4 Fe2 Si4 O12'
_cell_volume   360.46842258
_cell_formula_units_Z   2
loop_
 _symmetry_equiv_pos_site_id
 _symmetry_equiv_pos_as_xyz
  1  'x, y, z'
loop_
 _atom_site_type_symbol
 _atom_site_label
 _atom_site_symmetry_multiplicity
 _atom_site_fract_x
 _atom_site_fract_y
 _atom_site_fract_z
 _atom_site_occupancy
  Rb  Rb0  1  0.270283  0.917790  0.578099  1
  Rb  Rb1  1  0.082210  0.729717  0.921901  1
  Rb  Rb2  1  0.729717  0.082210  0.078099  1
  Rb  Rb3  1  0.917790  0.270283  0.421901  1
  Fe  Fe4  1  0.190600  0.809400  0.250000  1
  Fe  Fe5  1  0.809400  0.190600  0.750000  1
  Si  Si6  1  0.369614  0.331761  0.859836  1
  Si  Si7  1  0.331761  0.369614  0.140164  1
  Si  Si8  1  0.668239  0.630386  0.640164  1
  Si  Si9  1  0.630386  0.668239  0.359836  1
  O  O10  1  0.545233  0.454767  0.250000  1
  O  O11  1  0.509959  0.862754  0.332342  1
  O  O12  1  0.531124  0.531124  0.500000  1
  O  O13  1  0.862754  0.509959  0.667658  1
  O  O14  1  0.490041  0.137246  0.832342  1
  O  O15  1  0.082140  0.221226  0.864216  1
  O  O16  1  0.917860  0.778775  0.364216  1
  O  O17  1  0.454767  0.545233  0.750000  1
  O  O18  1  0.137246  0.490041  0.167658  1
  O  O19  1  0.221225  0.082140  0.135784  1
  O  O20  1  0.778774  0.917860  0.635784  1
  O  O21  1  0.468876  0.468876  0.000000  1
