# generated using pymatgen
data_La3Mg3Sn2Hg
_symmetry_space_group_name_H-M   'P 1'
_cell_length_a   7.80744900
_cell_length_b   7.80744997
_cell_length_c   4.76849600
_cell_angle_alpha   90.00000000
_cell_angle_beta   90.00000000
_cell_angle_gamma   120.00000014
_symmetry_Int_Tables_number   1
_chemical_formula_structural   La3Mg3Sn2Hg
_chemical_formula_sum   'La3 Mg3 Sn2 Hg1'
_cell_volume   251.72735904
_cell_formula_units_Z   1
loop_
 _symmetry_equiv_pos_site_id
 _symmetry_equiv_pos_as_xyz
  1  'x, y, z'
loop_
 _atom_site_type_symbol
 _atom_site_label
 _atom_site_symmetry_multiplicity
 _atom_site_fract_x
 _atom_site_fract_y
 _atom_site_fract_z
 _atom_site_occupancy
  La  La0  1  0.413076  0.413076  0.500000  1
  La  La1  1  0.586924  0.000000  0.500000  1
  La  La2  1  0.000000  0.586924  0.500000  1
  Mg  Mg3  1  0.762615  0.762615  0.000000  1
  Mg  Mg4  1  0.237385  0.000000  0.000000  1
  Mg  Mg5  1  0.000000  0.237385  0.000000  1
  Sn  Sn6  1  0.666667  0.333333  0.000000  1
  Sn  Sn7  1  0.333333  0.666667  0.000000  1
  Hg  Hg8  1  0.000000  0.000000  0.500000  1
