# generated using pymatgen
data_Nb6AlZn5Co12
_symmetry_space_group_name_H-M   'P 1'
_cell_length_a   4.21018200
_cell_length_b   5.94569900
_cell_length_c   12.63862600
_cell_angle_alpha   90.00067218
_cell_angle_beta   90.00212684
_cell_angle_gamma   89.99981800
_symmetry_Int_Tables_number   1
_chemical_formula_structural   Nb6AlZn5Co12
_chemical_formula_sum   'Nb6 Al1 Zn5 Co12'
_cell_volume   316.37608809
_cell_formula_units_Z   1
loop_
 _symmetry_equiv_pos_site_id
 _symmetry_equiv_pos_as_xyz
  1  'x, y, z'
loop_
 _atom_site_type_symbol
 _atom_site_label
 _atom_site_symmetry_multiplicity
 _atom_site_fract_x
 _atom_site_fract_y
 _atom_site_fract_z
 _atom_site_occupancy
  Nb  Nb0  1  0.000001  0.999950  0.999997  1
  Nb  Nb1  1  0.500149  0.499998  0.169054  1
  Nb  Nb2  1  0.000177  0.000115  0.333327  1
  Nb  Nb3  1  0.499999  0.499874  0.500026  1
  Nb  Nb4  1  0.999823  0.000046  0.666679  1
  Nb  Nb5  1  0.499852  0.500013  0.830918  1
  Al  Al6  1  0.000000  0.500071  0.000001  1
  Zn  Zn7  1  0.500164  0.000011  0.166108  1
  Zn  Zn8  1  0.000188  0.499954  0.333437  1
  Zn  Zn9  1  0.500000  0.000013  0.500003  1
  Zn  Zn10  1  0.999812  0.499998  0.666562  1
  Zn  Zn11  1  0.499836  0.999972  0.833884  1
  Co  Co12  1  0.499998  0.255265  0.000012  1
  Co  Co13  1  0.500003  0.744753  0.000005  1
  Co  Co14  1  0.000168  0.252571  0.165365  1
  Co  Co15  1  0.000171  0.747440  0.165371  1
  Co  Co16  1  0.500207  0.248002  0.334287  1
  Co  Co17  1  0.500212  0.752030  0.334299  1
  Co  Co18  1  0.000012  0.250479  0.499999  1
  Co  Co19  1  0.999987  0.749478  0.499989  1
  Co  Co20  1  0.499787  0.247966  0.665694  1
  Co  Co21  1  0.499792  0.752016  0.665697  1
  Co  Co22  1  0.999830  0.252537  0.834642  1
  Co  Co23  1  0.999832  0.747441  0.834642  1
