# generated using pymatgen
data_Y6Tm2Cd2IrPt
_symmetry_space_group_name_H-M   'P 1'
_cell_length_a   9.65763988
_cell_length_b   9.65764044
_cell_length_c   9.64434200
_cell_angle_alpha   60.04554676
_cell_angle_beta   60.04554482
_cell_angle_gamma   60.16215450
_symmetry_Int_Tables_number   1
_chemical_formula_structural   Y6Tm2Cd2IrPt
_chemical_formula_sum   'Y12 Tm4 Cd4 Ir2 Pt2'
_cell_volume   637.27724194
_cell_formula_units_Z   2
loop_
 _symmetry_equiv_pos_site_id
 _symmetry_equiv_pos_as_xyz
  1  'x, y, z'
loop_
 _atom_site_type_symbol
 _atom_site_label
 _atom_site_symmetry_multiplicity
 _atom_site_fract_x
 _atom_site_fract_y
 _atom_site_fract_z
 _atom_site_occupancy
  Y  Y0  1  0.805633  0.191235  0.191922  1
  Y  Y1  1  0.191235  0.805633  0.811210  1
  Y  Y2  1  0.191235  0.805633  0.191922  1
  Y  Y3  1  0.805633  0.191235  0.811210  1
  Y  Y4  1  0.192603  0.192603  0.807397  1
  Y  Y5  1  0.809867  0.809867  0.190133  1
  Y  Y6  1  0.938261  0.563242  0.561302  1
  Y  Y7  1  0.563242  0.938261  0.937196  1
  Y  Y8  1  0.563242  0.938261  0.561302  1
  Y  Y9  1  0.938261  0.563242  0.937196  1
  Y  Y10  1  0.562343  0.562343  0.937657  1
  Y  Y11  1  0.937711  0.937711  0.562289  1
  Tm  Tm12  1  0.349781  0.349781  0.345594  1
  Tm  Tm13  1  0.349781  0.349781  0.954843  1
  Tm  Tm14  1  0.354580  0.947797  0.348811  1
  Tm  Tm15  1  0.947797  0.354580  0.348811  1
  Cd  Cd16  1  0.580922  0.580922  0.580931  1
  Cd  Cd17  1  0.580922  0.580922  0.257225  1
  Cd  Cd18  1  0.580833  0.256871  0.581148  1
  Cd  Cd19  1  0.256871  0.580833  0.581148  1
  Ir  Ir20  1  0.142570  0.570045  0.143692  1
  Ir  Ir21  1  0.570045  0.142570  0.143692  1
  Pt  Pt22  1  0.143315  0.143315  0.145289  1
  Pt  Pt23  1  0.143315  0.143315  0.568081  1
