# generated using pymatgen
data_Er3VO6
_symmetry_space_group_name_H-M   'P 1'
_cell_length_a   6.48130609
_cell_length_b   6.48130714
_cell_length_c   6.48130665
_cell_angle_alpha   92.26557260
_cell_angle_beta   92.26557101
_cell_angle_gamma   92.26558769
_symmetry_Int_Tables_number   1
_chemical_formula_structural   Er3VO6
_chemical_formula_sum   'Er6 V2 O12'
_cell_volume   271.60660099
_cell_formula_units_Z   2
loop_
 _symmetry_equiv_pos_site_id
 _symmetry_equiv_pos_as_xyz
  1  'x, y, z'
loop_
 _atom_site_type_symbol
 _atom_site_label
 _atom_site_symmetry_multiplicity
 _atom_site_fract_x
 _atom_site_fract_y
 _atom_site_fract_z
 _atom_site_occupancy
  Er  Er0  1  0.436680  0.746017  0.929179  1
  Er  Er1  1  0.253983  0.070821  0.563320  1
  Er  Er2  1  0.070821  0.563320  0.253983  1
  Er  Er3  1  0.929179  0.436680  0.746017  1
  Er  Er4  1  0.746017  0.929179  0.436680  1
  Er  Er5  1  0.563320  0.253983  0.070821  1
  V  V6  1  0.500000  0.500000  0.500000  1
  V  V7  1  0.000000  0.000000  0.000000  1
  O  O8  1  0.083299  0.696263  0.929260  1
  O  O9  1  0.303737  0.070740  0.916701  1
  O  O10  1  0.196468  0.409055  0.538085  1
  O  O11  1  0.070740  0.916701  0.303737  1
  O  O12  1  0.590945  0.461915  0.803532  1
  O  O13  1  0.461915  0.803532  0.590945  1
  O  O14  1  0.538085  0.196468  0.409055  1
  O  O15  1  0.409055  0.538085  0.196468  1
  O  O16  1  0.929260  0.083299  0.696263  1
  O  O17  1  0.803532  0.590945  0.461915  1
  O  O18  1  0.696263  0.929260  0.083299  1
  O  O19  1  0.916701  0.303737  0.070740  1
