# generated using pymatgen
data_Ho2Ga4CuIr
_symmetry_space_group_name_H-M   'P 1'
_cell_length_a   5.51307529
_cell_length_b   5.51307461
_cell_length_c   6.68288800
_cell_angle_alpha   90.00000000
_cell_angle_beta   90.00000000
_cell_angle_gamma   134.76205618
_symmetry_Int_Tables_number   1
_chemical_formula_structural   Ho2Ga4CuIr
_chemical_formula_sum   'Ho2 Ga4 Cu1 Ir1'
_cell_volume   144.22252414
_cell_formula_units_Z   1
loop_
 _symmetry_equiv_pos_site_id
 _symmetry_equiv_pos_as_xyz
  1  'x, y, z'
loop_
 _atom_site_type_symbol
 _atom_site_label
 _atom_site_symmetry_multiplicity
 _atom_site_fract_x
 _atom_site_fract_y
 _atom_site_fract_z
 _atom_site_occupancy
  Ho  Ho0  1  0.079528  0.920472  0.250000  1
  Ho  Ho1  1  0.919831  0.080169  0.750000  1
  Ga  Ga2  1  0.366314  0.633686  0.057100  1
  Ga  Ga3  1  0.633898  0.366102  0.549255  1
  Ga  Ga4  1  0.633898  0.366102  0.950745  1
  Ga  Ga5  1  0.366314  0.633686  0.442900  1
  Cu  Cu6  1  0.793637  0.206363  0.250000  1
  Ir  Ir7  1  0.206578  0.793422  0.750000  1
