# generated using pymatgen
data_Lu8Ti4VSi16Mo7
_symmetry_space_group_name_H-M   'P 1'
_cell_length_a   6.68664862
_cell_length_b   6.89110826
_cell_length_c   12.99095042
_cell_angle_alpha   89.97091552
_cell_angle_beta   89.97163511
_cell_angle_gamma   90.07985328
_symmetry_Int_Tables_number   1
_chemical_formula_structural   Lu8Ti4VSi16Mo7
_chemical_formula_sum   'Lu8 Ti4 V1 Si16 Mo7'
_cell_volume   598.60173113
_cell_formula_units_Z   1
loop_
 _symmetry_equiv_pos_site_id
 _symmetry_equiv_pos_as_xyz
  1  'x, y, z'
loop_
 _atom_site_type_symbol
 _atom_site_label
 _atom_site_symmetry_multiplicity
 _atom_site_fract_x
 _atom_site_fract_y
 _atom_site_fract_z
 _atom_site_occupancy
  Lu  Lu0  1  0.499746  0.326892  0.095919  1
  Lu  Lu1  1  0.999834  0.171577  0.405351  1
  Lu  Lu2  1  0.500683  0.673042  0.594483  1
  Lu  Lu3  1  0.999954  0.826704  0.905272  1
  Lu  Lu4  1  0.500522  0.668441  0.905288  1
  Lu  Lu5  1  0.000372  0.831371  0.594134  1
  Lu  Lu6  1  0.500304  0.330432  0.405375  1
  Lu  Lu7  1  0.000477  0.169288  0.095648  1
  Ti  Ti8  1  0.838396  0.330392  0.625721  1
  Ti  Ti9  1  0.337168  0.170379  0.873882  1
  Ti  Ti10  1  0.162210  0.670467  0.126006  1
  Ti  Ti11  1  0.663963  0.829922  0.374426  1
  V  V12  1  0.169022  0.670627  0.373732  1
  Si  Si13  1  0.660390  0.039949  0.543668  1
  Si  Si14  1  0.160881  0.460268  0.956475  1
  Si  Si15  1  0.339164  0.960320  0.043673  1
  Si  Si16  1  0.841431  0.540436  0.455674  1
  Si  Si17  1  0.332099  0.956007  0.457144  1
  Si  Si18  1  0.833775  0.539207  0.042509  1
  Si  Si19  1  0.665997  0.039921  0.958139  1
  Si  Si20  1  0.166709  0.463384  0.539676  1
  Si  Si21  1  0.535817  0.374269  0.747491  1
  Si  Si22  1  0.035563  0.125083  0.751830  1
  Si  Si23  1  0.462288  0.626011  0.249801  1
  Si  Si24  1  0.964877  0.873480  0.252942  1
  Si  Si25  1  0.799689  0.630035  0.748928  1
  Si  Si26  1  0.299607  0.869814  0.750239  1
  Si  Si27  1  0.200865  0.372463  0.251037  1
  Si  Si28  1  0.700833  0.129467  0.250933  1
  Mo  Mo29  1  0.670443  0.830558  0.124601  1
  Mo  Mo30  1  0.828706  0.331312  0.875789  1
  Mo  Mo31  1  0.327291  0.169370  0.623587  1
  Mo  Mo32  1  0.663922  0.005314  0.749724  1
  Mo  Mo33  1  0.164137  0.494747  0.749671  1
  Mo  Mo34  1  0.335539  0.993116  0.250690  1
  Mo  Mo35  1  0.837327  0.505932  0.250541  1
