# generated using pymatgen
data_Tb2SmCI3
_symmetry_space_group_name_H-M   'P 1'
_cell_length_a   3.95241500
_cell_length_b   8.81836075
_cell_length_c   12.00519358
_cell_angle_alpha   92.16834977
_cell_angle_beta   90.00000000
_cell_angle_gamma   90.00000000
_symmetry_Int_Tables_number   1
_chemical_formula_structural   Tb2SmCI3
_chemical_formula_sum   'Tb4 Sm2 C2 I6'
_cell_volume   418.12726548
_cell_formula_units_Z   2
loop_
 _symmetry_equiv_pos_site_id
 _symmetry_equiv_pos_as_xyz
  1  'x, y, z'
loop_
 _atom_site_type_symbol
 _atom_site_label
 _atom_site_symmetry_multiplicity
 _atom_site_fract_x
 _atom_site_fract_y
 _atom_site_fract_z
 _atom_site_occupancy
  Tb  Tb0  1  0.250000  0.886678  0.186175  1
  Tb  Tb1  1  0.750000  0.113322  0.813825  1
  Tb  Tb2  1  0.250000  0.293326  0.615550  1
  Tb  Tb3  1  0.750000  0.706674  0.384450  1
  Sm  Sm4  1  0.250000  0.915151  0.600682  1
  Sm  Sm5  1  0.750000  0.084849  0.399318  1
  C  C6  1  0.250000  0.878045  0.383967  1
  C  C7  1  0.750000  0.121955  0.616033  1
  I  I8  1  0.250000  0.860342  0.874442  1
  I  I9  1  0.750000  0.139658  0.125558  1
  I  I10  1  0.250000  0.373926  0.870432  1
  I  I11  1  0.750000  0.626074  0.129568  1
  I  I12  1  0.250000  0.386131  0.367986  1
  I  I13  1  0.750000  0.613869  0.632014  1
