# generated using pymatgen
data_La2Zn2PPt6
_symmetry_space_group_name_H-M   'P 1'
_cell_length_a   9.33819500
_cell_length_b   9.33819398
_cell_length_c   4.10252500
_cell_angle_alpha   90.00000000
_cell_angle_beta   90.00000000
_cell_angle_gamma   145.57866658
_symmetry_Int_Tables_number   1
_chemical_formula_structural   La2Zn2PPt6
_chemical_formula_sum   'La2 Zn2 P1 Pt6'
_cell_volume   202.22564033
_cell_formula_units_Z   1
loop_
 _symmetry_equiv_pos_site_id
 _symmetry_equiv_pos_as_xyz
  1  'x, y, z'
loop_
 _atom_site_type_symbol
 _atom_site_label
 _atom_site_symmetry_multiplicity
 _atom_site_fract_x
 _atom_site_fract_y
 _atom_site_fract_z
 _atom_site_occupancy
  La  La0  1  0.611284  0.377756  0.500000  1
  La  La1  1  0.377756  0.611284  0.500000  1
  Zn  Zn2  1  0.194997  0.790973  0.500000  1
  Zn  Zn3  1  0.790973  0.194997  0.500000  1
  P  P4  1  0.226539  0.226539  0.000000  1
  Pt  Pt5  1  0.109991  0.884287  0.000000  1
  Pt  Pt6  1  0.884287  0.109991  0.000000  1
  Pt  Pt7  1  0.491984  0.988594  0.000000  1
  Pt  Pt8  1  0.988594  0.491984  0.000000  1
  Pt  Pt9  1  0.997796  0.997796  0.500000  1
  Pt  Pt10  1  0.639397  0.639397  0.000000  1
