# generated using pymatgen
data_Er4Al18RePd3Pt2
_symmetry_space_group_name_H-M   'P 1'
_cell_length_a   7.61495418
_cell_length_b   7.61495582
_cell_length_c   9.46324903
_cell_angle_alpha   89.76135057
_cell_angle_beta   89.76135159
_cell_angle_gamma   119.34799110
_symmetry_Int_Tables_number   1
_chemical_formula_structural   Er4Al18RePd3Pt2
_chemical_formula_sum   'Er4 Al18 Re1 Pd3 Pt2'
_cell_volume   478.30709346
_cell_formula_units_Z   1
loop_
 _symmetry_equiv_pos_site_id
 _symmetry_equiv_pos_as_xyz
  1  'x, y, z'
loop_
 _atom_site_type_symbol
 _atom_site_label
 _atom_site_symmetry_multiplicity
 _atom_site_fract_x
 _atom_site_fract_y
 _atom_site_fract_z
 _atom_site_occupancy
  Er  Er0  1  0.995563  0.674744  0.247595  1
  Er  Er1  1  0.004437  0.325256  0.752405  1
  Er  Er2  1  0.674744  0.995563  0.247595  1
  Er  Er3  1  0.325256  0.004437  0.752405  1
  Al  Al4  1  0.131416  0.131416  0.247438  1
  Al  Al5  1  0.868584  0.868584  0.752562  1
  Al  Al6  1  0.999362  0.330814  0.074634  1
  Al  Al7  1  0.000638  0.669186  0.925366  1
  Al  Al8  1  0.998877  0.662607  0.578961  1
  Al  Al9  1  0.337393  0.001123  0.421039  1
  Al  Al10  1  0.001123  0.337393  0.421039  1
  Al  Al11  1  0.662607  0.998877  0.578961  1
  Al  Al12  1  0.669186  0.000638  0.925366  1
  Al  Al13  1  0.330814  0.999362  0.074634  1
  Al  Al14  1  0.333414  0.333414  0.557524  1
  Al  Al15  1  0.666586  0.666586  0.442476  1
  Al  Al16  1  0.670979  0.670979  0.053229  1
  Al  Al17  1  0.329021  0.329021  0.946771  1
  Al  Al18  1  0.342096  0.549545  0.249385  1
  Al  Al19  1  0.657904  0.450455  0.750615  1
  Al  Al20  1  0.549545  0.342096  0.249385  1
  Al  Al21  1  0.450455  0.657904  0.750615  1
  Re  Re22  1  0.000000  0.000000  0.000000  1
  Pd  Pd23  1  0.327706  0.672294  0.500000  1
  Pd  Pd24  1  0.672294  0.327706  0.500000  1
  Pd  Pd25  1  0.000000  0.000000  0.500000  1
  Pt  Pt26  1  0.672093  0.327907  0.000000  1
  Pt  Pt27  1  0.327907  0.672093  0.000000  1
