# generated using pymatgen
data_Nd12Ir(PtI4)3
_symmetry_space_group_name_H-M   'P 1'
_cell_length_a   10.97436299
_cell_length_b   10.87216510
_cell_length_c   10.87216511
_cell_angle_alpha   109.28001827
_cell_angle_beta   109.66174002
_cell_angle_gamma   109.66175630
_symmetry_Int_Tables_number   1
_chemical_formula_structural   Nd12Ir(PtI4)3
_chemical_formula_sum   'Nd12 Ir1 Pt3 I12'
_cell_volume   996.23762856
_cell_formula_units_Z   1
loop_
 _symmetry_equiv_pos_site_id
 _symmetry_equiv_pos_as_xyz
  1  'x, y, z'
loop_
 _atom_site_type_symbol
 _atom_site_label
 _atom_site_symmetry_multiplicity
 _atom_site_fract_x
 _atom_site_fract_y
 _atom_site_fract_z
 _atom_site_occupancy
  Nd  Nd0  1  0.458106  0.481959  0.226529  1
  Nd  Nd1  1  0.750000  0.229649  0.270351  1
  Nd  Nd2  1  0.750000  0.020326  0.479674  1
  Nd  Nd3  1  0.229674  0.459351  0.479674  1
  Nd  Nd4  1  0.268425  0.744570  0.226529  1
  Nd  Nd5  1  0.041894  0.273471  0.018041  1
  Nd  Nd6  1  0.020351  0.040700  0.270351  1
  Nd  Nd7  1  0.476145  0.744570  0.018041  1
  Nd  Nd8  1  0.479649  0.229649  0.459300  1
  Nd  Nd9  1  0.023855  0.481959  0.755430  1
  Nd  Nd10  1  0.270326  0.020326  0.040649  1
  Nd  Nd11  1  0.231575  0.273471  0.755430  1
  Ir  Ir12  1  0.250000  0.500000  0.000000  1
  Pt  Pt13  1  0.250000  0.250081  0.249919  1
  Pt  Pt14  1  0.499919  0.999838  0.249919  1
  Pt  Pt15  1  0.000081  0.250081  0.500162  1
  I  I16  1  0.250000  0.758648  0.741352  1
  I  I17  1  0.516921  0.508245  0.757953  1
  I  I18  1  0.983079  0.742047  0.991755  1
  I  I19  1  0.741029  0.249708  0.757953  1
  I  I20  1  0.991352  0.982706  0.741352  1
  I  I21  1  0.250000  0.992042  0.507958  1
  I  I22  1  0.757958  0.515913  0.507958  1
  I  I23  1  0.508679  0.249708  0.991755  1
  I  I24  1  0.758971  0.742047  0.250292  1
  I  I25  1  0.742042  0.992042  0.984087  1
  I  I26  1  0.991321  0.508245  0.250292  1
  I  I27  1  0.508648  0.758648  0.517294  1
