# generated using pymatgen
data_TbHo7In3Pt
_symmetry_space_group_name_H-M   'P 1'
_cell_length_a   10.45785330
_cell_length_b   10.45785282
_cell_length_c   6.98224814
_cell_angle_alpha   90.01991362
_cell_angle_beta   89.98008217
_cell_angle_gamma   120.01881988
_symmetry_Int_Tables_number   1
_chemical_formula_structural   TbHo7In3Pt
_chemical_formula_sum   'Tb2 Ho14 In6 Pt2'
_cell_volume   661.19346850
_cell_formula_units_Z   2
loop_
 _symmetry_equiv_pos_site_id
 _symmetry_equiv_pos_as_xyz
  1  'x, y, z'
loop_
 _atom_site_type_symbol
 _atom_site_label
 _atom_site_symmetry_multiplicity
 _atom_site_fract_x
 _atom_site_fract_y
 _atom_site_fract_z
 _atom_site_occupancy
  Tb  Tb0  1  0.530590  0.061218  0.508458  1
  Tb  Tb1  1  0.938782  0.469410  0.508458  1
  Ho  Ho2  1  0.530883  0.469117  0.508617  1
  Ho  Ho3  1  0.468980  0.937922  0.008296  1
  Ho  Ho4  1  0.062078  0.531020  0.008296  1
  Ho  Ho5  1  0.469071  0.530929  0.008394  1
  Ho  Ho6  1  0.175541  0.350518  0.715638  1
  Ho  Ho7  1  0.649482  0.824459  0.715638  1
  Ho  Ho8  1  0.175150  0.824850  0.715828  1
  Ho  Ho9  1  0.824674  0.649556  0.215114  1
  Ho  Ho10  1  0.350444  0.175326  0.215114  1
  Ho  Ho11  1  0.824885  0.175115  0.214835  1
  Ho  Ho12  1  0.666525  0.333475  0.883631  1
  Ho  Ho13  1  0.333487  0.666513  0.383141  1
  Ho  Ho14  1  0.000016  0.999984  0.489027  1
  Ho  Ho15  1  0.999969  0.000031  0.989393  1
  In  In16  1  0.837105  0.674715  0.751336  1
  In  In17  1  0.325285  0.162895  0.751336  1
  In  In18  1  0.837510  0.162490  0.751675  1
  In  In19  1  0.162727  0.325434  0.251058  1
  In  In20  1  0.674566  0.837273  0.251058  1
  In  In21  1  0.162706  0.837294  0.250940  1
  Pt  Pt22  1  0.666254  0.333746  0.280823  1
  Pt  Pt23  1  0.333288  0.666712  0.781942  1
