# generated using pymatgen
data_ErNb7S12
_symmetry_space_group_name_H-M   'P 1'
_cell_length_a   5.82489800
_cell_length_b   5.82489881
_cell_length_c   13.26988300
_cell_angle_alpha   90.00000000
_cell_angle_beta   90.00000000
_cell_angle_gamma   120.00000676
_symmetry_Int_Tables_number   1
_chemical_formula_structural   ErNb7S12
_chemical_formula_sum   'Er1 Nb7 S12'
_cell_volume   389.91900701
_cell_formula_units_Z   1
loop_
 _symmetry_equiv_pos_site_id
 _symmetry_equiv_pos_as_xyz
  1  'x, y, z'
loop_
 _atom_site_type_symbol
 _atom_site_label
 _atom_site_symmetry_multiplicity
 _atom_site_fract_x
 _atom_site_fract_y
 _atom_site_fract_z
 _atom_site_occupancy
  Er  Er0  1  0.333333  0.666667  0.250000  1
  Nb  Nb1  1  0.666667  0.333333  0.750000  1
  Nb  Nb2  1  0.000000  0.000000  0.511638  1
  Nb  Nb3  1  0.000000  0.000000  0.988362  1
  Nb  Nb4  1  0.333333  0.666667  0.987926  1
  Nb  Nb5  1  0.666667  0.333333  0.990014  1
  Nb  Nb6  1  0.666667  0.333333  0.509986  1
  Nb  Nb7  1  0.333333  0.666667  0.512074  1
  S  S8  1  0.332022  0.331165  0.391512  1
  S  S9  1  0.668835  0.000859  0.391512  1
  S  S10  1  0.999141  0.667978  0.391512  1
  S  S11  1  0.331713  0.332791  0.630088  1
  S  S12  1  0.001078  0.668287  0.630088  1
  S  S13  1  0.667209  0.998922  0.630088  1
  S  S14  1  0.667209  0.668287  0.869912  1
  S  S15  1  0.331713  0.998922  0.869912  1
  S  S16  1  0.001078  0.332791  0.869912  1
  S  S17  1  0.668835  0.667978  0.108488  1
  S  S18  1  0.999141  0.331165  0.108488  1
  S  S19  1  0.332022  0.000859  0.108488  1
