# generated using pymatgen
data_Ho8ReB24Ru2Rh
_symmetry_space_group_name_H-M   'P 1'
_cell_length_a   3.65982000
_cell_length_b   9.13143941
_cell_length_c   11.50524000
_cell_angle_alpha   90.21051185
_cell_angle_beta   90.00000000
_cell_angle_gamma   90.00000000
_symmetry_Int_Tables_number   1
_chemical_formula_structural   Ho8ReB24Ru2Rh
_chemical_formula_sum   'Ho8 Re1 B24 Ru2 Rh1'
_cell_volume   384.49590544
_cell_formula_units_Z   1
loop_
 _symmetry_equiv_pos_site_id
 _symmetry_equiv_pos_as_xyz
  1  'x, y, z'
loop_
 _atom_site_type_symbol
 _atom_site_label
 _atom_site_symmetry_multiplicity
 _atom_site_fract_x
 _atom_site_fract_y
 _atom_site_fract_z
 _atom_site_occupancy
  Ho  Ho0  1  0.000000  0.319908  0.416396  1
  Ho  Ho1  1  0.000000  0.680348  0.591503  1
  Ho  Ho2  1  0.000000  0.824721  0.080986  1
  Ho  Ho3  1  0.000000  0.176501  0.912742  1
  Ho  Ho4  1  0.000000  0.944503  0.370919  1
  Ho  Ho5  1  0.000000  0.055678  0.627221  1
  Ho  Ho6  1  0.000000  0.441068  0.127625  1
  Ho  Ho7  1  0.000000  0.556146  0.872908  1
  Re  Re8  1  0.000000  0.862313  0.820845  1
  B  B9  1  0.500000  0.554482  0.434418  1
  B  B10  1  0.500000  0.445942  0.566745  1
  B  B11  1  0.500000  0.054485  0.066933  1
  B  B12  1  0.500000  0.947456  0.933121  1
  B  B13  1  0.500000  0.749245  0.421310  1
  B  B14  1  0.500000  0.251756  0.580048  1
  B  B15  1  0.500000  0.248072  0.080609  1
  B  B16  1  0.500000  0.751953  0.919388  1
  B  B17  1  0.500000  0.790787  0.264882  1
  B  B18  1  0.500000  0.209232  0.733486  1
  B  B19  1  0.500000  0.291068  0.235090  1
  B  B20  1  0.500000  0.707898  0.765789  1
  B  B21  1  0.500000  0.631499  0.183195  1
  B  B22  1  0.500000  0.368355  0.814558  1
  B  B23  1  0.500000  0.131439  0.315313  1
  B  B24  1  0.500000  0.868602  0.685361  1
  B  B25  1  0.500000  0.983491  0.212361  1
  B  B26  1  0.500000  0.017967  0.786905  1
  B  B27  1  0.500000  0.482662  0.287615  1
  B  B28  1  0.500000  0.516760  0.712613  1
  B  B29  1  0.500000  0.606308  0.030479  1
  B  B30  1  0.500000  0.392681  0.971037  1
  B  B31  1  0.500000  0.106716  0.469728  1
  B  B32  1  0.500000  0.892335  0.528393  1
  Ru  Ru33  1  0.000000  0.362288  0.678343  1
  Ru  Ru34  1  0.000000  0.138256  0.179438  1
  Rh  Rh35  1  0.000000  0.637080  0.321700  1
