# generated using pymatgen
data_LiEu2ZnAs3
_symmetry_space_group_name_H-M   'P 1'
_cell_length_a   8.10032250
_cell_length_b   8.10032307
_cell_length_c   11.88405960
_cell_angle_alpha   55.38276544
_cell_angle_beta   55.38276327
_cell_angle_gamma   30.37231623
_symmetry_Int_Tables_number   1
_chemical_formula_structural   LiEu2ZnAs3
_chemical_formula_sum   'Li2 Eu4 Zn2 As6'
_cell_volume   318.72207469
_cell_formula_units_Z   2
loop_
 _symmetry_equiv_pos_site_id
 _symmetry_equiv_pos_as_xyz
  1  'x, y, z'
loop_
 _atom_site_type_symbol
 _atom_site_label
 _atom_site_symmetry_multiplicity
 _atom_site_fract_x
 _atom_site_fract_y
 _atom_site_fract_z
 _atom_site_occupancy
  Li  Li0  1  0.041172  0.041172  0.675034  1
  Li  Li1  1  0.958828  0.958828  0.324966  1
  Eu  Eu2  1  0.265520  0.265520  0.335570  1
  Eu  Eu3  1  0.734480  0.734480  0.664430  1
  Eu  Eu4  1  0.395234  0.395234  0.944746  1
  Eu  Eu5  1  0.604766  0.604766  0.055254  1
  Zn  Zn6  1  0.414728  0.414728  0.653784  1
  Zn  Zn7  1  0.585272  0.585272  0.346216  1
  As  As8  1  0.076476  0.076476  0.875949  1
  As  As9  1  0.923524  0.923524  0.124051  1
  As  As10  1  0.160886  0.160886  0.190124  1
  As  As11  1  0.839114  0.839114  0.809876  1
  As  As12  1  0.381159  0.381159  0.469031  1
  As  As13  1  0.618841  0.618841  0.530969  1
