# generated using pymatgen
data_Ce2Si4Tc3
_symmetry_space_group_name_H-M   'P 1'
_cell_length_a   8.16438000
_cell_length_b   5.68594375
_cell_length_c   6.87868519
_cell_angle_alpha   76.19017654
_cell_angle_beta   90.00000000
_cell_angle_gamma   90.00000000
_symmetry_Int_Tables_number   1
_chemical_formula_structural   Ce2Si4Tc3
_chemical_formula_sum   'Ce4 Si8 Tc6'
_cell_volume   310.09316383
_cell_formula_units_Z   2
loop_
 _symmetry_equiv_pos_site_id
 _symmetry_equiv_pos_as_xyz
  1  'x, y, z'
loop_
 _atom_site_type_symbol
 _atom_site_label
 _atom_site_symmetry_multiplicity
 _atom_site_fract_x
 _atom_site_fract_y
 _atom_site_fract_z
 _atom_site_occupancy
  Ce  Ce0  1  0.939447  0.569823  0.252723  1
  Ce  Ce1  1  0.439447  0.930177  0.747277  1
  Ce  Ce2  1  0.060553  0.430177  0.747277  1
  Ce  Ce3  1  0.560553  0.069823  0.252723  1
  Si  Si4  1  0.592353  0.614785  0.121864  1
  Si  Si5  1  0.092353  0.885215  0.878136  1
  Si  Si6  1  0.407647  0.385215  0.878136  1
  Si  Si7  1  0.907647  0.114785  0.121864  1
  Si  Si8  1  0.750702  0.720462  0.587143  1
  Si  Si9  1  0.250702  0.779538  0.412857  1
  Si  Si10  1  0.249298  0.279538  0.412857  1
  Si  Si11  1  0.749298  0.220462  0.587143  1
  Tc  Tc12  1  0.294010  0.614812  0.112029  1
  Tc  Tc13  1  0.794010  0.885188  0.887971  1
  Tc  Tc14  1  0.705990  0.385188  0.887971  1
  Tc  Tc15  1  0.205990  0.114812  0.112029  1
  Tc  Tc16  1  0.500000  0.500000  0.500000  1
  Tc  Tc17  1  0.000000  0.000000  0.500000  1
