# generated using pymatgen
data_Hf7BeNb3Sn7
_symmetry_space_group_name_H-M   'P 1'
_cell_length_a   5.76254100
_cell_length_b   8.57125626
_cell_length_c   8.57124000
_cell_angle_alpha   119.99982172
_cell_angle_beta   90.00036152
_cell_angle_gamma   90.00030892
_symmetry_Int_Tables_number   1
_chemical_formula_structural   Hf7BeNb3Sn7
_chemical_formula_sum   'Hf7 Be1 Nb3 Sn7'
_cell_volume   366.63470833
_cell_formula_units_Z   1
loop_
 _symmetry_equiv_pos_site_id
 _symmetry_equiv_pos_as_xyz
  1  'x, y, z'
loop_
 _atom_site_type_symbol
 _atom_site_label
 _atom_site_symmetry_multiplicity
 _atom_site_fract_x
 _atom_site_fract_y
 _atom_site_fract_z
 _atom_site_occupancy
  Hf  Hf0  1  0.999986  0.333329  0.666672  1
  Hf  Hf1  1  0.726358  0.270055  0.000284  1
  Hf  Hf2  1  0.726366  0.730230  0.729950  1
  Hf  Hf3  1  0.726349  0.999721  0.269763  1
  Hf  Hf4  1  0.273652  0.730263  0.000284  1
  Hf  Hf5  1  0.273647  0.270018  0.269738  1
  Hf  Hf6  1  0.273636  0.999715  0.729970  1
  Be  Be7  1  0.500057  0.999999  0.999988  1
  Nb  Nb8  1  0.499996  0.333334  0.666670  1
  Nb  Nb9  1  0.499999  0.666666  0.333336  1
  Nb  Nb10  1  0.999986  0.666671  0.333341  1
  Sn  Sn11  1  0.757046  0.611261  0.001943  1
  Sn  Sn12  1  0.757039  0.390678  0.388749  1
  Sn  Sn13  1  0.757029  0.998065  0.609313  1
  Sn  Sn14  1  0.242954  0.390698  0.001940  1
  Sn  Sn15  1  0.242968  0.611231  0.609304  1
  Sn  Sn16  1  0.242950  0.998062  0.388756  1
  Sn  Sn17  1  0.999981  0.000002  0.999998  1
