# generated using pymatgen
data_Y2SiRhI2
_symmetry_space_group_name_H-M   'P 1'
_cell_length_a   4.17472400
_cell_length_b   4.17472433
_cell_length_c   11.73491400
_cell_angle_alpha   90.00000000
_cell_angle_beta   90.00000000
_cell_angle_gamma   119.99998151
_symmetry_Int_Tables_number   1
_chemical_formula_structural   Y2SiRhI2
_chemical_formula_sum   'Y2 Si1 Rh1 I2'
_cell_volume   177.11942585
_cell_formula_units_Z   1
loop_
 _symmetry_equiv_pos_site_id
 _symmetry_equiv_pos_as_xyz
  1  'x, y, z'
loop_
 _atom_site_type_symbol
 _atom_site_label
 _atom_site_symmetry_multiplicity
 _atom_site_fract_x
 _atom_site_fract_y
 _atom_site_fract_z
 _atom_site_occupancy
  Y  Y0  1  0.000000  0.000000  0.159085  1
  Y  Y1  1  0.000000  0.000000  0.839094  1
  Si  Si2  1  0.666667  0.333333  0.991936  1
  Rh  Rh3  1  0.333333  0.666667  0.008765  1
  I  I4  1  0.333333  0.666667  0.663098  1
  I  I5  1  0.666667  0.333333  0.338020  1
