# generated using pymatgen
data_Tb2Er5(TmBi2)3
_symmetry_space_group_name_H-M   'P 1'
_cell_length_a   8.20767900
_cell_length_b   9.46345101
_cell_length_c   11.94933200
_cell_angle_alpha   89.99803837
_cell_angle_beta   90.00000000
_cell_angle_gamma   90.00000000
_symmetry_Int_Tables_number   1
_chemical_formula_structural   Tb2Er5(TmBi2)3
_chemical_formula_sum   'Tb4 Er10 Tm6 Bi12'
_cell_volume   928.14008254
_cell_formula_units_Z   2
loop_
 _symmetry_equiv_pos_site_id
 _symmetry_equiv_pos_as_xyz
  1  'x, y, z'
loop_
 _atom_site_type_symbol
 _atom_site_label
 _atom_site_symmetry_multiplicity
 _atom_site_fract_x
 _atom_site_fract_y
 _atom_site_fract_z
 _atom_site_occupancy
  Tb  Tb0  1  0.312734  0.249987  0.218492  1
  Tb  Tb1  1  0.812734  0.250013  0.281508  1
  Tb  Tb2  1  0.687225  0.750085  0.781553  1
  Tb  Tb3  1  0.187225  0.749915  0.718447  1
  Er  Er4  1  0.352587  0.749928  0.216979  1
  Er  Er5  1  0.852587  0.750072  0.283021  1
  Er  Er6  1  0.647301  0.250025  0.782993  1
  Er  Er7  1  0.147301  0.249975  0.717007  1
  Er  Er8  1  0.692480  0.565077  0.059311  1
  Er  Er9  1  0.192480  0.934923  0.440689  1
  Er  Er10  1  0.307517  0.065023  0.940643  1
  Er  Er11  1  0.807517  0.434977  0.559357  1
  Er  Er12  1  0.307642  0.434963  0.940725  1
  Er  Er13  1  0.807642  0.065037  0.559275  1
  Tm  Tm14  1  0.692577  0.934440  0.059330  1
  Tm  Tm15  1  0.192577  0.565560  0.440670  1
  Tm  Tm16  1  0.475981  0.250030  0.488787  1
  Tm  Tm17  1  0.975981  0.249970  0.011213  1
  Tm  Tm18  1  0.523784  0.749934  0.511144  1
  Tm  Tm19  1  0.023784  0.750066  0.988856  1
  Bi  Bi20  1  0.405067  0.750128  0.958434  1
  Bi  Bi21  1  0.905067  0.749872  0.541566  1
  Bi  Bi22  1  0.595129  0.249519  0.041681  1
  Bi  Bi23  1  0.095129  0.250481  0.458319  1
  Bi  Bi24  1  0.565258  0.994772  0.326241  1
  Bi  Bi25  1  0.065258  0.505228  0.173759  1
  Bi  Bi26  1  0.434771  0.494754  0.673688  1
  Bi  Bi27  1  0.934771  0.005246  0.826312  1
  Bi  Bi28  1  0.434777  0.005216  0.673720  1
  Bi  Bi29  1  0.934777  0.494784  0.826280  1
  Bi  Bi30  1  0.565173  0.505218  0.326266  1
  Bi  Bi31  1  0.065173  0.994782  0.173734  1
