# generated using pymatgen
data_La(DySe2)3
_symmetry_space_group_name_H-M   'P 1'
_cell_length_a   4.17096000
_cell_length_b   11.66598285
_cell_length_c   11.94691127
_cell_angle_alpha   70.93771716
_cell_angle_beta   90.00000000
_cell_angle_gamma   90.00000000
_symmetry_Int_Tables_number   1
_chemical_formula_structural   La(DySe2)3
_chemical_formula_sum   'La2 Dy6 Se12'
_cell_volume   549.43993163
_cell_formula_units_Z   2
loop_
 _symmetry_equiv_pos_site_id
 _symmetry_equiv_pos_as_xyz
  1  'x, y, z'
loop_
 _atom_site_type_symbol
 _atom_site_label
 _atom_site_symmetry_multiplicity
 _atom_site_fract_x
 _atom_site_fract_y
 _atom_site_fract_z
 _atom_site_occupancy
  La  La0  1  0.250000  0.453011  0.195209  1
  La  La1  1  0.750000  0.546989  0.804791  1
  Dy  Dy2  1  0.250000  0.340487  0.585900  1
  Dy  Dy3  1  0.750000  0.659513  0.414100  1
  Dy  Dy4  1  0.250000  0.819493  0.000135  1
  Dy  Dy5  1  0.750000  0.180507  0.999865  1
  Dy  Dy6  1  0.250000  0.061950  0.333465  1
  Dy  Dy7  1  0.750000  0.938050  0.666535  1
  Se  Se8  1  0.250000  0.697149  0.250397  1
  Se  Se9  1  0.750000  0.302851  0.749603  1
  Se  Se10  1  0.250000  0.583350  0.593683  1
  Se  Se11  1  0.750000  0.416650  0.406317  1
  Se  Se12  1  0.250000  0.381112  0.965205  1
  Se  Se13  1  0.750000  0.618888  0.034795  1
  Se  Se14  1  0.250000  0.020405  0.113807  1
  Se  Se15  1  0.750000  0.979595  0.886193  1
  Se  Se16  1  0.750000  0.894426  0.440047  1
  Se  Se17  1  0.250000  0.105574  0.559953  1
  Se  Se18  1  0.750000  0.237899  0.226838  1
  Se  Se19  1  0.250000  0.762101  0.773162  1
