# generated using pymatgen
data_Tb3HoGa18(NiIr2)2
_symmetry_space_group_name_H-M   'P 1'
_cell_length_a   7.55071027
_cell_length_b   7.55068835
_cell_length_c   9.44165700
_cell_angle_alpha   90.00000000
_cell_angle_beta   90.00000000
_cell_angle_gamma   119.97366751
_symmetry_Int_Tables_number   1
_chemical_formula_structural   Tb3HoGa18(NiIr2)2
_chemical_formula_sum   'Tb3 Ho1 Ga18 Ni2 Ir4'
_cell_volume   466.30318163
_cell_formula_units_Z   1
loop_
 _symmetry_equiv_pos_site_id
 _symmetry_equiv_pos_as_xyz
  1  'x, y, z'
loop_
 _atom_site_type_symbol
 _atom_site_label
 _atom_site_symmetry_multiplicity
 _atom_site_fract_x
 _atom_site_fract_y
 _atom_site_fract_z
 _atom_site_occupancy
  Tb  Tb0  1  0.003770  0.337342  0.750000  1
  Tb  Tb1  1  0.662663  0.996317  0.250000  1
  Tb  Tb2  1  0.337314  0.003776  0.750000  1
  Ho  Ho3  1  0.996331  0.662609  0.250000  1
  Ga  Ga4  1  0.113387  0.113217  0.250000  1
  Ga  Ga5  1  0.886506  0.886490  0.750000  1
  Ga  Ga6  1  0.999583  0.328318  0.078236  1
  Ga  Ga7  1  0.000464  0.671879  0.921911  1
  Ga  Ga8  1  0.000464  0.671879  0.578089  1
  Ga  Ga9  1  0.327824  0.999327  0.421764  1
  Ga  Ga10  1  0.999583  0.328318  0.421764  1
  Ga  Ga11  1  0.671882  0.000450  0.578259  1
  Ga  Ga12  1  0.671882  0.000450  0.921741  1
  Ga  Ga13  1  0.327824  0.999327  0.078236  1
  Ga  Ga14  1  0.327361  0.327363  0.564601  1
  Ga  Ga15  1  0.672874  0.672649  0.435388  1
  Ga  Ga16  1  0.672874  0.672649  0.064612  1
  Ga  Ga17  1  0.327361  0.327363  0.935399  1
  Ga  Ga18  1  0.337325  0.541273  0.250000  1
  Ga  Ga19  1  0.662482  0.458734  0.750000  1
  Ga  Ga20  1  0.541458  0.337614  0.250000  1
  Ga  Ga21  1  0.458729  0.662484  0.750000  1
  Ni  Ni22  1  0.999979  0.999954  0.000132  1
  Ni  Ni23  1  0.999979  0.999954  0.499868  1
  Ir  Ir24  1  0.671690  0.328545  0.000197  1
  Ir  Ir25  1  0.328361  0.671587  0.000189  1
  Ir  Ir26  1  0.328361  0.671587  0.499811  1
  Ir  Ir27  1  0.671690  0.328545  0.499803  1
