# generated using pymatgen
data_Cs3Rb3(Ru2Br9)2
_symmetry_space_group_name_H-M   'P 1'
_cell_length_a   7.67449600
_cell_length_b   7.67448208
_cell_length_c   19.00310700
_cell_angle_alpha   90.00000000
_cell_angle_beta   90.00000000
_cell_angle_gamma   120.00005138
_symmetry_Int_Tables_number   1
_chemical_formula_structural   Cs3Rb3(Ru2Br9)2
_chemical_formula_sum   'Cs3 Rb3 Ru4 Br18'
_cell_volume   969.29051041
_cell_formula_units_Z   1
loop_
 _symmetry_equiv_pos_site_id
 _symmetry_equiv_pos_as_xyz
  1  'x, y, z'
loop_
 _atom_site_type_symbol
 _atom_site_label
 _atom_site_symmetry_multiplicity
 _atom_site_fract_x
 _atom_site_fract_y
 _atom_site_fract_z
 _atom_site_occupancy
  Cs  Cs0  1  0.666667  0.333333  0.566168  1
  Cs  Cs1  1  0.666667  0.333333  0.934269  1
  Cs  Cs2  1  0.333333  0.666667  0.433244  1
  Rb  Rb3  1  0.000002  0.000001  0.249682  1
  Rb  Rb4  1  0.999998  0.999999  0.750609  1
  Rb  Rb5  1  0.333333  0.666667  0.057960  1
  Ru  Ru6  1  0.333333  0.666667  0.823863  1
  Ru  Ru7  1  0.666667  0.333333  0.321885  1
  Ru  Ru8  1  0.666667  0.333333  0.176850  1
  Ru  Ru9  1  0.333333  0.666667  0.678313  1
  Br  Br10  1  0.507038  0.014075  0.249388  1
  Br  Br11  1  0.492596  0.507404  0.750978  1
  Br  Br12  1  0.014809  0.507405  0.750978  1
  Br  Br13  1  0.985925  0.492962  0.249388  1
  Br  Br14  1  0.507037  0.492963  0.249388  1
  Br  Br15  1  0.492595  0.985191  0.750978  1
  Br  Br16  1  0.822029  0.644056  0.100135  1
  Br  Br17  1  0.178208  0.821792  0.601095  1
  Br  Br18  1  0.643583  0.821792  0.601095  1
  Br  Br19  1  0.355944  0.177971  0.100135  1
  Br  Br20  1  0.822029  0.177971  0.100135  1
  Br  Br21  1  0.179100  0.358201  0.901770  1
  Br  Br22  1  0.179100  0.820900  0.901770  1
  Br  Br23  1  0.178208  0.356417  0.601095  1
  Br  Br24  1  0.641799  0.820900  0.901770  1
  Br  Br25  1  0.355973  0.177986  0.399019  1
  Br  Br26  1  0.822014  0.644027  0.399019  1
  Br  Br27  1  0.822014  0.177986  0.399019  1
