# generated using pymatgen
data_Nd2Y2ReTcB12
_symmetry_space_group_name_H-M   'P 1'
_cell_length_a   3.73883800
_cell_length_b   9.25474978
_cell_length_c   11.71212901
_cell_angle_alpha   89.95752168
_cell_angle_beta   90.00000000
_cell_angle_gamma   90.00000000
_symmetry_Int_Tables_number   1
_chemical_formula_structural   Nd2Y2ReTcB12
_chemical_formula_sum   'Nd4 Y4 Re2 Tc2 B24'
_cell_volume   405.26309568
_cell_formula_units_Z   2
loop_
 _symmetry_equiv_pos_site_id
 _symmetry_equiv_pos_as_xyz
  1  'x, y, z'
loop_
 _atom_site_type_symbol
 _atom_site_label
 _atom_site_symmetry_multiplicity
 _atom_site_fract_x
 _atom_site_fract_y
 _atom_site_fract_z
 _atom_site_occupancy
  Nd  Nd0  1  0.000000  0.823183  0.085552  1
  Nd  Nd1  1  0.000000  0.176817  0.914448  1
  Nd  Nd2  1  0.000000  0.322729  0.414309  1
  Nd  Nd3  1  0.000000  0.677271  0.585691  1
  Y  Y4  1  0.000000  0.441607  0.130726  1
  Y  Y5  1  0.000000  0.558393  0.869274  1
  Y  Y6  1  0.000000  0.943161  0.368780  1
  Y  Y7  1  0.000000  0.056839  0.631220  1
  Re  Re8  1  0.000000  0.639123  0.319195  1
  Re  Re9  1  0.000000  0.360877  0.680805  1
  Tc  Tc10  1  0.000000  0.139153  0.180640  1
  Tc  Tc11  1  0.000000  0.860847  0.819360  1
  B  B12  1  0.500000  0.054835  0.069461  1
  B  B13  1  0.500000  0.945165  0.930540  1
  B  B14  1  0.500000  0.554800  0.430667  1
  B  B15  1  0.500000  0.445200  0.569332  1
  B  B16  1  0.500000  0.248660  0.084319  1
  B  B17  1  0.500000  0.751340  0.915681  1
  B  B18  1  0.500000  0.749186  0.415768  1
  B  B19  1  0.500000  0.250814  0.584232  1
  B  B20  1  0.500000  0.290589  0.234137  1
  B  B21  1  0.500000  0.709411  0.765863  1
  B  B22  1  0.500000  0.790845  0.265703  1
  B  B23  1  0.500000  0.209155  0.734297  1
  B  B24  1  0.500000  0.129536  0.313328  1
  B  B25  1  0.500000  0.870464  0.686672  1
  B  B26  1  0.500000  0.629280  0.186287  1
  B  B27  1  0.500000  0.370720  0.813713  1
  B  B28  1  0.500000  0.483628  0.287378  1
  B  B29  1  0.500000  0.516372  0.712622  1
  B  B30  1  0.500000  0.983904  0.212490  1
  B  B31  1  0.500000  0.016096  0.787510  1
  B  B32  1  0.500000  0.096553  0.473332  1
  B  B33  1  0.500000  0.903447  0.526668  1
  B  B34  1  0.500000  0.596399  0.027006  1
  B  B35  1  0.500000  0.403601  0.972994  1
