# generated using pymatgen
data_Hf3Zr3Al4(GaPt3)2
_symmetry_space_group_name_H-M   'P 1'
_cell_length_a   7.08250190
_cell_length_b   7.08845916
_cell_length_c   7.32373900
_cell_angle_alpha   90.00000000
_cell_angle_beta   90.00000000
_cell_angle_gamma   119.39529932
_symmetry_Int_Tables_number   1
_chemical_formula_structural   Hf3Zr3Al4(GaPt3)2
_chemical_formula_sum   'Hf3 Zr3 Al4 Ga2 Pt6'
_cell_volume   320.34372864
_cell_formula_units_Z   1
loop_
 _symmetry_equiv_pos_site_id
 _symmetry_equiv_pos_as_xyz
  1  'x, y, z'
loop_
 _atom_site_type_symbol
 _atom_site_label
 _atom_site_symmetry_multiplicity
 _atom_site_fract_x
 _atom_site_fract_y
 _atom_site_fract_z
 _atom_site_occupancy
  Hf  Hf0  1  0.415073  0.392940  0.250000  1
  Hf  Hf1  1  0.977310  0.590325  0.250000  1
  Hf  Hf2  1  0.610036  0.021075  0.250000  1
  Zr  Zr3  1  0.585539  0.977155  0.750000  1
  Zr  Zr4  1  0.397263  0.418871  0.750000  1
  Zr  Zr5  1  0.022156  0.606944  0.750000  1
  Al  Al6  1  0.259438  0.001831  0.001037  1
  Al  Al7  1  0.259438  0.001831  0.498963  1
  Al  Al8  1  0.004616  0.260976  0.499404  1
  Al  Al9  1  0.004616  0.260976  0.000596  1
  Ga  Ga10  1  0.736194  0.736900  0.000516  1
  Ga  Ga11  1  0.736194  0.736900  0.499484  1
  Pt  Pt12  1  0.664528  0.326071  0.522022  1
  Pt  Pt13  1  0.005910  0.005295  0.750000  1
  Pt  Pt14  1  0.664528  0.326071  0.977978  1
  Pt  Pt15  1  0.326517  0.665080  0.036551  1
  Pt  Pt16  1  0.326517  0.665080  0.463449  1
  Pt  Pt17  1  0.004127  0.005679  0.250000  1
