# generated using pymatgen
data_PrNdSbTe
_symmetry_space_group_name_H-M   'P 1'
_cell_length_a   7.88002082
_cell_length_b   7.88002088
_cell_length_c   7.88002106
_cell_angle_alpha   33.37032813
_cell_angle_beta   33.37032507
_cell_angle_gamma   33.37032899
_symmetry_Int_Tables_number   1
_chemical_formula_structural   PrNdSbTe
_chemical_formula_sum   'Pr1 Nd1 Sb1 Te1'
_cell_volume   131.82370477
_cell_formula_units_Z   1
loop_
 _symmetry_equiv_pos_site_id
 _symmetry_equiv_pos_as_xyz
  1  'x, y, z'
loop_
 _atom_site_type_symbol
 _atom_site_label
 _atom_site_symmetry_multiplicity
 _atom_site_fract_x
 _atom_site_fract_y
 _atom_site_fract_z
 _atom_site_occupancy
  Pr  Pr0  1  0.496580  0.496580  0.496580  1
  Nd  Nd1  1  0.003412  0.003412  0.003412  1
  Sb  Sb2  1  0.749262  0.749262  0.749262  1
  Te  Te3  1  0.250746  0.250746  0.250746  1
