# generated using pymatgen
data_Pr7Er(ScSn3)2
_symmetry_space_group_name_H-M   'P 1'
_cell_length_a   9.25343008
_cell_length_b   9.25344294
_cell_length_c   9.28970000
_cell_angle_alpha   96.53470363
_cell_angle_beta   96.20128622
_cell_angle_gamma   141.01380511
_symmetry_Int_Tables_number   1
_chemical_formula_structural   Pr7Er(ScSn3)2
_chemical_formula_sum   'Pr7 Er1 Sc2 Sn6'
_cell_volume   471.98325539
_cell_formula_units_Z   1
loop_
 _symmetry_equiv_pos_site_id
 _symmetry_equiv_pos_as_xyz
  1  'x, y, z'
loop_
 _atom_site_type_symbol
 _atom_site_label
 _atom_site_symmetry_multiplicity
 _atom_site_fract_x
 _atom_site_fract_y
 _atom_site_fract_z
 _atom_site_occupancy
  Pr  Pr0  1  0.088377  0.221378  0.309761  1
  Pr  Pr1  1  0.910491  0.778500  0.688987  1
  Pr  Pr2  1  0.777377  0.085940  0.863307  1
  Pr  Pr3  1  0.412944  0.722602  0.135531  1
  Pr  Pr4  1  0.220893  0.912560  0.133460  1
  Pr  Pr5  1  0.588389  0.278141  0.866539  1
  Pr  Pr6  1  0.719856  0.584947  0.304814  1
  Er  Er7  1  0.283593  0.416682  0.700275  1
  Sc  Sc8  1  0.250209  0.750436  0.500207  1
  Sc  Sc9  1  0.749778  0.249994  0.500209  1
  Sn  Sn10  1  0.151152  0.648347  0.799503  1
  Sn  Sn11  1  0.850884  0.348797  0.199652  1
  Sn  Sn12  1  0.348758  0.153762  0.502552  1
  Sn  Sn13  1  0.650947  0.849392  0.500339  1
  Sn  Sn14  1  0.248267  0.249354  0.997437  1
  Sn  Sn15  1  0.748081  0.749167  0.997427  1
