# generated using pymatgen
data_Er10SnPb5O2
_symmetry_space_group_name_H-M   'P 1'
_cell_length_a   9.02135367
_cell_length_b   9.02135278
_cell_length_c   9.01787985
_cell_angle_alpha   125.75986878
_cell_angle_beta   125.75986545
_cell_angle_gamma   80.30676098
_symmetry_Int_Tables_number   1
_chemical_formula_structural   Er10SnPb5O2
_chemical_formula_sum   'Er10 Sn1 Pb5 O2'
_cell_volume   466.27280979
_cell_formula_units_Z   1
loop_
 _symmetry_equiv_pos_site_id
 _symmetry_equiv_pos_as_xyz
  1  'x, y, z'
loop_
 _atom_site_type_symbol
 _atom_site_label
 _atom_site_symmetry_multiplicity
 _atom_site_fract_x
 _atom_site_fract_y
 _atom_site_fract_z
 _atom_site_occupancy
  Er  Er0  1  0.997489  0.199708  0.498594  1
  Er  Er1  1  0.800812  0.300812  0.800569  1
  Er  Er2  1  0.499760  0.999760  0.800563  1
  Er  Er3  1  0.501791  0.001791  0.201240  1
  Er  Er4  1  0.001100  0.798875  0.498579  1
  Er  Er5  1  0.501429  0.499190  0.000628  1
  Er  Er6  1  0.199452  0.699452  0.201242  1
  Er  Er7  1  0.699708  0.497489  0.498594  1
  Er  Er8  1  0.298875  0.501100  0.498579  1
  Er  Er9  1  0.999190  0.001429  0.000628  1
  Sn  Sn10  1  0.851959  0.351959  0.203918  1
  Pb  Pb11  1  0.148506  0.648506  0.797000  1
  Pb  Pb12  1  0.350759  0.149021  0.499777  1
  Pb  Pb13  1  0.750003  0.750015  0.000026  1
  Pb  Pb14  1  0.649021  0.850759  0.499777  1
  Pb  Pb15  1  0.250015  0.250003  0.000026  1
  O  O16  1  0.749929  0.249929  0.500117  1
  O  O17  1  0.250203  0.750203  0.500146  1
