# generated using pymatgen
data_Tb4NbRu3
_symmetry_space_group_name_H-M   'P 1'
_cell_length_a   10.75008600
_cell_length_b   10.75008600
_cell_length_c   6.25106600
_cell_angle_alpha   90.00000000
_cell_angle_beta   90.00000000
_cell_angle_gamma   90.00000000
_symmetry_Int_Tables_number   1
_chemical_formula_structural   Tb4NbRu3
_chemical_formula_sum   'Tb16 Nb4 Ru12'
_cell_volume   722.40037289
_cell_formula_units_Z   4
loop_
 _symmetry_equiv_pos_site_id
 _symmetry_equiv_pos_as_xyz
  1  'x, y, z'
loop_
 _atom_site_type_symbol
 _atom_site_label
 _atom_site_symmetry_multiplicity
 _atom_site_fract_x
 _atom_site_fract_y
 _atom_site_fract_z
 _atom_site_occupancy
  Tb  Tb0  1  0.287008  0.082467  0.371470  1
  Tb  Tb1  1  0.287008  0.917533  0.871470  1
  Tb  Tb2  1  0.712992  0.082467  0.871470  1
  Tb  Tb3  1  0.712992  0.917533  0.371470  1
  Tb  Tb4  1  0.582467  0.787008  0.871470  1
  Tb  Tb5  1  0.582467  0.212992  0.371470  1
  Tb  Tb6  1  0.417533  0.787008  0.371470  1
  Tb  Tb7  1  0.417533  0.212992  0.871470  1
  Tb  Tb8  1  0.212992  0.417533  0.628530  1
  Tb  Tb9  1  0.212992  0.582467  0.128530  1
  Tb  Tb10  1  0.787008  0.417533  0.128530  1
  Tb  Tb11  1  0.787008  0.582467  0.628530  1
  Tb  Tb12  1  0.917533  0.712992  0.128530  1
  Tb  Tb13  1  0.917533  0.287008  0.628530  1
  Tb  Tb14  1  0.082467  0.712992  0.628530  1
  Tb  Tb15  1  0.082467  0.287008  0.128530  1
  Nb  Nb16  1  0.000000  0.000000  0.500000  1
  Nb  Nb17  1  0.000000  0.000000  0.000000  1
  Nb  Nb18  1  0.500000  0.500000  0.000000  1
  Nb  Nb19  1  0.500000  0.500000  0.500000  1
  Ru  Ru20  1  0.863715  0.136285  0.250000  1
  Ru  Ru21  1  0.863715  0.863715  0.750000  1
  Ru  Ru22  1  0.136285  0.136285  0.750000  1
  Ru  Ru23  1  0.136285  0.863715  0.250000  1
  Ru  Ru24  1  0.636285  0.363715  0.750000  1
  Ru  Ru25  1  0.636285  0.636285  0.250000  1
  Ru  Ru26  1  0.363715  0.363715  0.250000  1
  Ru  Ru27  1  0.363715  0.636285  0.750000  1
  Ru  Ru28  1  0.500000  0.000000  0.124743  1
  Ru  Ru29  1  0.500000  0.000000  0.624743  1
  Ru  Ru30  1  0.000000  0.500000  0.875257  1
  Ru  Ru31  1  0.000000  0.500000  0.375257  1
