# generated using pymatgen
data_Lu10Zn3In8Ir
_symmetry_space_group_name_H-M   'P 1'
_cell_length_a   3.55445200
_cell_length_b   8.09711946
_cell_length_c   17.98684927
_cell_angle_alpha   89.65712475
_cell_angle_beta   90.00000000
_cell_angle_gamma   90.00000000
_symmetry_Int_Tables_number   1
_chemical_formula_structural   Lu10Zn3In8Ir
_chemical_formula_sum   'Lu10 Zn3 In8 Ir1'
_cell_volume   517.66704639
_cell_formula_units_Z   1
loop_
 _symmetry_equiv_pos_site_id
 _symmetry_equiv_pos_as_xyz
  1  'x, y, z'
loop_
 _atom_site_type_symbol
 _atom_site_label
 _atom_site_symmetry_multiplicity
 _atom_site_fract_x
 _atom_site_fract_y
 _atom_site_fract_z
 _atom_site_occupancy
  Lu  Lu0  1  0.000000  0.881015  0.078578  1
  Lu  Lu1  1  0.000000  0.740180  0.282490  1
  Lu  Lu2  1  0.000000  0.727415  0.783015  1
  Lu  Lu3  1  0.000000  0.385987  0.415136  1
  Lu  Lu4  1  0.000000  0.121363  0.920221  1
  Lu  Lu5  1  0.000000  0.230851  0.717132  1
  Lu  Lu6  1  0.000000  0.498730  0.999195  1
  Lu  Lu7  1  0.000000  0.286025  0.222397  1
  Lu  Lu8  1  0.000000  0.624908  0.580184  1
  Lu  Lu9  1  0.000000  0.002748  0.500456  1
  Zn  Zn10  1  0.500000  0.981636  0.198227  1
  Zn  Zn11  1  0.500000  0.017303  0.802704  1
  Zn  Zn12  1  0.500000  0.518016  0.697180  1
  In  In13  1  0.500000  0.208358  0.068342  1
  In  In14  1  0.500000  0.414573  0.850827  1
  In  In15  1  0.500000  0.583541  0.146938  1
  In  In16  1  0.500000  0.082500  0.350672  1
  In  In17  1  0.500000  0.917378  0.649854  1
  In  In18  1  0.500000  0.792617  0.931230  1
  In  In19  1  0.500000  0.709077  0.434212  1
  In  In20  1  0.500000  0.297347  0.566718  1
  Ir  Ir21  1  0.500000  0.478435  0.304290  1
