# generated using pymatgen
data_BeB3Mo4
_symmetry_space_group_name_H-M   'P 1'
_cell_length_a   8.86930186
_cell_length_b   3.17514772
_cell_length_c   3.13019447
_cell_angle_alpha   90.06727982
_cell_angle_beta   100.12490761
_cell_angle_gamma   100.23177649
_symmetry_Int_Tables_number   1
_chemical_formula_structural   BeB3Mo4
_chemical_formula_sum   'Be1 B3 Mo4'
_cell_volume   85.34992125
_cell_formula_units_Z   1
loop_
 _symmetry_equiv_pos_site_id
 _symmetry_equiv_pos_as_xyz
  1  'x, y, z'
loop_
 _atom_site_type_symbol
 _atom_site_label
 _atom_site_symmetry_multiplicity
 _atom_site_fract_x
 _atom_site_fract_y
 _atom_site_fract_z
 _atom_site_occupancy
  Be  Be0  1  0.563775  0.281523  0.031790  1
  B  B1  1  0.059273  0.029661  0.279533  1
  B  B2  1  0.940338  0.970391  0.720454  1
  B  B3  1  0.435307  0.717850  0.967523  1
  Mo  Mo4  1  0.857177  0.429193  0.177760  1
  Mo  Mo5  1  0.351368  0.176381  0.426033  1
  Mo  Mo6  1  0.649295  0.824230  0.574976  1
  Mo  Mo7  1  0.143467  0.570768  0.821937  1
