# generated using pymatgen
data_LiMg2(SbPt)3
_symmetry_space_group_name_H-M   'P 1'
_cell_length_a   7.71350624
_cell_length_b   7.71897525
_cell_length_c   7.72073828
_cell_angle_alpha   119.62643869
_cell_angle_beta   99.71885126
_cell_angle_gamma   99.69251266
_symmetry_Int_Tables_number   1
_chemical_formula_structural   LiMg2(SbPt)3
_chemical_formula_sum   'Li2 Mg4 Sb6 Pt6'
_cell_volume   376.46838825
_cell_formula_units_Z   2
loop_
 _symmetry_equiv_pos_site_id
 _symmetry_equiv_pos_as_xyz
  1  'x, y, z'
loop_
 _atom_site_type_symbol
 _atom_site_label
 _atom_site_symmetry_multiplicity
 _atom_site_fract_x
 _atom_site_fract_y
 _atom_site_fract_z
 _atom_site_occupancy
  Li  Li0  1  0.000749  0.836085  0.668400  1
  Li  Li1  1  0.500667  0.668474  0.836058  1
  Mg  Mg2  1  0.000614  0.501863  0.002295  1
  Mg  Mg3  1  0.500506  0.332265  0.165302  1
  Mg  Mg4  1  0.000520  0.165412  0.332244  1
  Mg  Mg5  1  0.500654  0.002483  0.501852  1
  Sb  Sb6  1  0.248400  0.912112  0.073125  1
  Sb  Sb7  1  0.749088  0.748502  0.248830  1
  Sb  Sb8  1  0.248743  0.585751  0.423660  1
  Sb  Sb9  1  0.748691  0.423563  0.585832  1
  Sb  Sb10  1  0.248983  0.248658  0.748586  1
  Sb  Sb11  1  0.748329  0.072993  0.912130  1
  Pt  Pt12  1  0.126779  0.213939  0.045423  1
  Pt  Pt13  1  0.626829  0.045409  0.213921  1
  Pt  Pt14  1  0.127671  0.874957  0.372927  1
  Pt  Pt15  1  0.622659  0.706851  0.537554  1
  Pt  Pt16  1  0.122621  0.537600  0.706862  1
  Pt  Pt17  1  0.627585  0.373058  0.874975  1
