# generated using pymatgen
data_CaTmZr2(Ga3Rh)6
_symmetry_space_group_name_H-M   'P 1'
_cell_length_a   7.53132642
_cell_length_b   7.51307289
_cell_length_c   9.43493900
_cell_angle_alpha   90.00000000
_cell_angle_beta   90.00000000
_cell_angle_gamma   119.95050824
_symmetry_Int_Tables_number   1
_chemical_formula_structural   CaTmZr2(Ga3Rh)6
_chemical_formula_sum   'Ca1 Tm1 Zr2 Ga18 Rh6'
_cell_volume   462.56756155
_cell_formula_units_Z   1
loop_
 _symmetry_equiv_pos_site_id
 _symmetry_equiv_pos_as_xyz
  1  'x, y, z'
loop_
 _atom_site_type_symbol
 _atom_site_label
 _atom_site_symmetry_multiplicity
 _atom_site_fract_x
 _atom_site_fract_y
 _atom_site_fract_z
 _atom_site_occupancy
  Ca  Ca0  1  0.668703  0.996059  0.250000  1
  Tm  Tm1  1  0.331543  0.003810  0.750000  1
  Zr  Zr2  1  0.995608  0.668638  0.250000  1
  Zr  Zr3  1  0.003687  0.330488  0.750000  1
  Ga  Ga4  1  0.124444  0.123314  0.250000  1
  Ga  Ga5  1  0.875930  0.876507  0.750000  1
  Ga  Ga6  1  0.998763  0.336902  0.079573  1
  Ga  Ga7  1  0.001623  0.663479  0.920085  1
  Ga  Ga8  1  0.001623  0.663479  0.579915  1
  Ga  Ga9  1  0.331465  0.996984  0.418101  1
  Ga  Ga10  1  0.998763  0.336902  0.420427  1
  Ga  Ga11  1  0.668250  0.002845  0.582260  1
  Ga  Ga12  1  0.668250  0.002845  0.917740  1
  Ga  Ga13  1  0.331465  0.996984  0.081899  1
  Ga  Ga14  1  0.330349  0.332394  0.568442  1
  Ga  Ga15  1  0.669490  0.667523  0.432047  1
  Ga  Ga16  1  0.669490  0.667523  0.067953  1
  Ga  Ga17  1  0.330349  0.332394  0.931558  1
  Ga  Ga18  1  0.335404  0.547313  0.250000  1
  Ga  Ga19  1  0.663916  0.452222  0.750000  1
  Ga  Ga20  1  0.552219  0.341137  0.250000  1
  Ga  Ga21  1  0.448153  0.659871  0.750000  1
  Rh  Rh22  1  0.672077  0.328903  0.998360  1
  Rh  Rh23  1  0.327254  0.671145  0.999574  1
  Rh  Rh24  1  0.327254  0.671145  0.500426  1
  Rh  Rh25  1  0.672077  0.328903  0.501640  1
  Rh  Rh26  1  0.000927  0.000145  0.999056  1
  Rh  Rh27  1  0.000927  0.000145  0.500944  1
