# generated using pymatgen
data_TbHoPb4
_symmetry_space_group_name_H-M   'P 1'
_cell_length_a   8.56353405
_cell_length_b   8.56353317
_cell_length_c   4.52808900
_cell_angle_alpha   90.00000000
_cell_angle_beta   90.00000000
_cell_angle_gamma   148.52884417
_symmetry_Int_Tables_number   1
_chemical_formula_structural   TbHoPb4
_chemical_formula_sum   'Tb1 Ho1 Pb4'
_cell_volume   173.36007564
_cell_formula_units_Z   1
loop_
 _symmetry_equiv_pos_site_id
 _symmetry_equiv_pos_as_xyz
  1  'x, y, z'
loop_
 _atom_site_type_symbol
 _atom_site_label
 _atom_site_symmetry_multiplicity
 _atom_site_fract_x
 _atom_site_fract_y
 _atom_site_fract_z
 _atom_site_occupancy
  Tb  Tb0  1  0.904664  0.095336  0.750000  1
  Ho  Ho1  1  0.095628  0.904372  0.250000  1
  Pb  Pb2  1  0.568871  0.431129  0.750000  1
  Pb  Pb3  1  0.431615  0.568385  0.250000  1
  Pb  Pb4  1  0.250146  0.749854  0.750000  1
  Pb  Pb5  1  0.749077  0.250923  0.250000  1
