# generated using pymatgen
data_HfZn3NiPd
_symmetry_space_group_name_H-M   'P 1'
_cell_length_a   4.99800226
_cell_length_b   4.99800240
_cell_length_c   4.94449854
_cell_angle_alpha   59.64139043
_cell_angle_beta   59.64139352
_cell_angle_gamma   60.00000208
_symmetry_Int_Tables_number   1
_chemical_formula_structural   HfZn3NiPd
_chemical_formula_sum   'Hf1 Zn3 Ni1 Pd1'
_cell_volume   86.86098465
_cell_formula_units_Z   1
loop_
 _symmetry_equiv_pos_site_id
 _symmetry_equiv_pos_as_xyz
  1  'x, y, z'
loop_
 _atom_site_type_symbol
 _atom_site_label
 _atom_site_symmetry_multiplicity
 _atom_site_fract_x
 _atom_site_fract_y
 _atom_site_fract_z
 _atom_site_occupancy
  Hf  Hf0  1  0.252173  0.252173  0.243481  1
  Zn  Zn1  1  0.626234  0.626234  0.626778  1
  Zn  Zn2  1  0.120752  0.626234  0.626778  1
  Zn  Zn3  1  0.626234  0.120752  0.626778  1
  Ni  Ni4  1  0.622599  0.622599  0.132203  1
  Pd  Pd5  1  0.002007  0.002007  0.993979  1
