# generated using pymatgen
data_Sc(NiH2)2
_symmetry_space_group_name_H-M   'P 1'
_cell_length_a   3.40451754
_cell_length_b   3.53551696
_cell_length_c   4.79749225
_cell_angle_alpha   68.33527576
_cell_angle_beta   89.89509304
_cell_angle_gamma   89.87080164
_symmetry_Int_Tables_number   1
_chemical_formula_structural   Sc(NiH2)2
_chemical_formula_sum   'Sc1 Ni2 H4'
_cell_volume   53.66676581
_cell_formula_units_Z   1
loop_
 _symmetry_equiv_pos_site_id
 _symmetry_equiv_pos_as_xyz
  1  'x, y, z'
loop_
 _atom_site_type_symbol
 _atom_site_label
 _atom_site_symmetry_multiplicity
 _atom_site_fract_x
 _atom_site_fract_y
 _atom_site_fract_z
 _atom_site_occupancy
  Sc  Sc0  1  0.530067  0.283117  0.641549  1
  Ni  Ni1  1  0.030805  0.639598  0.931240  1
  Ni  Ni2  1  0.030475  0.925219  0.353896  1
  H  H3  1  0.030031  0.441195  0.325341  1
  H  H4  1  0.530306  0.644759  0.918383  1
  H  H5  1  0.530204  0.921665  0.364406  1
  H  H6  1  0.030060  0.125062  0.957770  1
