# generated using pymatgen
data_Ti5ZnSn2Sb
_symmetry_space_group_name_H-M   'P 1'
_cell_length_a   8.24056901
_cell_length_b   8.22844647
_cell_length_c   5.55100600
_cell_angle_alpha   90.00000000
_cell_angle_beta   90.00000000
_cell_angle_gamma   119.95134336
_symmetry_Int_Tables_number   1
_chemical_formula_structural   Ti5ZnSn2Sb
_chemical_formula_sum   'Ti10 Zn2 Sn4 Sb2'
_cell_volume   326.12951276
_cell_formula_units_Z   2
loop_
 _symmetry_equiv_pos_site_id
 _symmetry_equiv_pos_as_xyz
  1  'x, y, z'
loop_
 _atom_site_type_symbol
 _atom_site_label
 _atom_site_symmetry_multiplicity
 _atom_site_fract_x
 _atom_site_fract_y
 _atom_site_fract_z
 _atom_site_occupancy
  Ti  Ti0  1  0.728833  0.730093  0.250000  1
  Ti  Ti1  1  0.728833  0.998739  0.750000  1
  Ti  Ti2  1  0.998675  0.269125  0.250000  1
  Ti  Ti3  1  0.998675  0.729548  0.750000  1
  Ti  Ti4  1  0.271131  0.271199  0.750000  1
  Ti  Ti5  1  0.271131  0.999932  0.250000  1
  Ti  Ti6  1  0.335227  0.667615  0.500000  1
  Ti  Ti7  1  0.666300  0.333150  0.000000  1
  Ti  Ti8  1  0.666300  0.333150  0.500000  1
  Ti  Ti9  1  0.335227  0.667615  0.000000  1
  Zn  Zn10  1  0.002440  0.001220  0.000000  1
  Zn  Zn11  1  0.002440  0.001220  0.500000  1
  Sn  Sn12  1  0.382027  0.999525  0.750000  1
  Sn  Sn13  1  0.382027  0.382501  0.250000  1
  Sn  Sn14  1  0.000453  0.615780  0.250000  1
  Sn  Sn15  1  0.000453  0.384673  0.750000  1
  Sb  Sb16  1  0.614915  0.613945  0.750000  1
  Sb  Sb17  1  0.614915  0.000969  0.250000  1
