# generated using pymatgen
data_Ho6Si4Ir3Os
_symmetry_space_group_name_H-M   'P 1'
_cell_length_a   5.54229084
_cell_length_b   5.54229123
_cell_length_c   13.20895389
_cell_angle_alpha   90.07037370
_cell_angle_beta   89.92970673
_cell_angle_gamma   136.46573589
_symmetry_Int_Tables_number   1
_chemical_formula_structural   Ho6Si4Ir3Os
_chemical_formula_sum   'Ho6 Si4 Ir3 Os1'
_cell_volume   279.46821728
_cell_formula_units_Z   1
loop_
 _symmetry_equiv_pos_site_id
 _symmetry_equiv_pos_as_xyz
  1  'x, y, z'
loop_
 _atom_site_type_symbol
 _atom_site_label
 _atom_site_symmetry_multiplicity
 _atom_site_fract_x
 _atom_site_fract_y
 _atom_site_fract_z
 _atom_site_occupancy
  Ho  Ho0  1  0.773648  0.226352  0.603706  1
  Ho  Ho1  1  0.517068  0.482932  0.248839  1
  Ho  Ho2  1  0.226352  0.773648  0.396294  1
  Ho  Ho3  1  0.773503  0.226492  0.896532  1
  Ho  Ho4  1  0.482932  0.517068  0.751161  1
  Ho  Ho5  1  0.226497  0.773508  0.103468  1
  Si  Si6  1  0.061987  0.938015  0.590063  1
  Si  Si7  1  0.062127  0.937875  0.910251  1
  Si  Si8  1  0.938013  0.061985  0.409937  1
  Si  Si9  1  0.937873  0.062125  0.089749  1
  Ir  Ir10  1  0.811368  0.188632  0.251232  1
  Ir  Ir11  1  0.188632  0.811368  0.748768  1
  Ir  Ir12  1  0.500000  0.500000  0.500000  1
  Os  Os13  1  0.500000  0.500000  0.000000  1
