# generated using pymatgen
data_LiHo8Sc11Si15As
_symmetry_space_group_name_H-M   'P 1'
_cell_length_a   7.07606848
_cell_length_b   7.34097246
_cell_length_c   13.94837825
_cell_angle_alpha   90.02494803
_cell_angle_beta   88.77792034
_cell_angle_gamma   90.18858671
_symmetry_Int_Tables_number   1
_chemical_formula_structural   LiHo8Sc11Si15As
_chemical_formula_sum   'Li1 Ho8 Sc11 Si15 As1'
_cell_volume   724.38285052
_cell_formula_units_Z   1
loop_
 _symmetry_equiv_pos_site_id
 _symmetry_equiv_pos_as_xyz
  1  'x, y, z'
loop_
 _atom_site_type_symbol
 _atom_site_label
 _atom_site_symmetry_multiplicity
 _atom_site_fract_x
 _atom_site_fract_y
 _atom_site_fract_z
 _atom_site_occupancy
  Li  Li0  1  0.167504  0.503515  0.751752  1
  Ho  Ho1  1  0.010993  0.175659  0.097047  1
  Ho  Ho2  1  0.989841  0.817120  0.900191  1
  Ho  Ho3  1  0.485968  0.674675  0.901038  1
  Ho  Ho4  1  0.996954  0.815140  0.597703  1
  Ho  Ho5  1  0.510100  0.325149  0.097055  1
  Ho  Ho6  1  0.003745  0.178431  0.404361  1
  Ho  Ho7  1  0.503497  0.321314  0.402451  1
  Ho  Ho8  1  0.495901  0.675713  0.599143  1
  Sc  Sc9  1  0.831270  0.498448  0.252759  1
  Sc  Sc10  1  0.332465  0.001388  0.251953  1
  Sc  Sc11  1  0.665945  0.998557  0.748159  1
  Sc  Sc12  1  0.339581  0.176089  0.627251  1
  Sc  Sc13  1  0.658194  0.827961  0.374199  1
  Sc  Sc14  1  0.155497  0.673158  0.377003  1
  Sc  Sc15  1  0.668024  0.823893  0.125009  1
  Sc  Sc16  1  0.849106  0.330661  0.624008  1
  Sc  Sc17  1  0.329960  0.181175  0.873596  1
  Sc  Sc18  1  0.838038  0.325377  0.873196  1
  Sc  Sc19  1  0.167235  0.678994  0.124923  1
  Si  Si20  1  0.037258  0.105507  0.749483  1
  Si  Si21  1  0.962453  0.885502  0.249442  1
  Si  Si22  1  0.457644  0.616911  0.249030  1
  Si  Si23  1  0.544448  0.384655  0.750454  1
  Si  Si24  1  0.292047  0.878737  0.750111  1
  Si  Si25  1  0.709804  0.128569  0.249396  1
  Si  Si26  1  0.207596  0.373263  0.249628  1
  Si  Si27  1  0.784308  0.628072  0.749895  1
  Si  Si28  1  0.810603  0.541638  0.459210  1
  Si  Si29  1  0.330233  0.962462  0.462355  1
  Si  Si30  1  0.843079  0.535271  0.038635  1
  Si  Si31  1  0.670443  0.037340  0.540762  1
  Si  Si32  1  0.158429  0.462315  0.964473  1
  Si  Si33  1  0.656601  0.034281  0.959029  1
  Si  Si34  1  0.345665  0.966930  0.038959  1
  As  As35  1  0.189574  0.456127  0.536343  1
