# generated using pymatgen
data_Cd4Ga6TeO12
_symmetry_space_group_name_H-M   'P 1'
_cell_length_a   8.05902135
_cell_length_b   8.05902071
_cell_length_c   8.05902100
_cell_angle_alpha   109.47122640
_cell_angle_beta   109.47122478
_cell_angle_gamma   109.47121099
_symmetry_Int_Tables_number   1
_chemical_formula_structural   Cd4Ga6TeO12
_chemical_formula_sum   'Cd4 Ga6 Te1 O12'
_cell_volume   402.92570384
_cell_formula_units_Z   1
loop_
 _symmetry_equiv_pos_site_id
 _symmetry_equiv_pos_as_xyz
  1  'x, y, z'
loop_
 _atom_site_type_symbol
 _atom_site_label
 _atom_site_symmetry_multiplicity
 _atom_site_fract_x
 _atom_site_fract_y
 _atom_site_fract_z
 _atom_site_occupancy
  Cd  Cd0  1  0.349903  0.349903  0.349903  1
  Cd  Cd1  1  0.000000  0.650097  0.000000  1
  Cd  Cd2  1  0.000000  0.000000  0.650097  1
  Cd  Cd3  1  0.650097  0.000000  0.000000  1
  Ga  Ga4  1  0.750000  0.500000  0.250000  1
  Ga  Ga5  1  0.250000  0.500000  0.750000  1
  Ga  Ga6  1  0.500000  0.750000  0.250000  1
  Ga  Ga7  1  0.500000  0.250000  0.750000  1
  Ga  Ga8  1  0.250000  0.750000  0.500000  1
  Ga  Ga9  1  0.750000  0.250000  0.500000  1
  Te  Te10  1  0.000000  0.000000  0.000000  1
  O  O11  1  0.733033  0.000000  0.444685  1
  O  O12  1  0.266967  0.711652  0.266967  1
  O  O13  1  0.288348  0.555315  0.555315  1
  O  O14  1  0.555315  0.555315  0.288348  1
  O  O15  1  0.000000  0.444685  0.733033  1
  O  O16  1  0.711652  0.266967  0.266967  1
  O  O17  1  0.266967  0.266967  0.711652  1
  O  O18  1  0.733033  0.444685  0.000000  1
  O  O19  1  0.444685  0.000000  0.733033  1
  O  O20  1  0.444685  0.733033  0.000000  1
  O  O21  1  0.555315  0.288348  0.555315  1
  O  O22  1  0.000000  0.733033  0.444685  1
