# generated using pymatgen
data_TbEr5(CI5)2
_symmetry_space_group_name_H-M   'P 1'
_cell_length_a   7.62111432
_cell_length_b   9.50046583
_cell_length_c   9.55725152
_cell_angle_alpha   106.85182668
_cell_angle_beta   96.34217950
_cell_angle_gamma   104.33432826
_symmetry_Int_Tables_number   1
_chemical_formula_structural   TbEr5(CI5)2
_chemical_formula_sum   'Tb1 Er5 C2 I10'
_cell_volume   629.13692019
_cell_formula_units_Z   1
loop_
 _symmetry_equiv_pos_site_id
 _symmetry_equiv_pos_as_xyz
  1  'x, y, z'
loop_
 _atom_site_type_symbol
 _atom_site_label
 _atom_site_symmetry_multiplicity
 _atom_site_fract_x
 _atom_site_fract_y
 _atom_site_fract_z
 _atom_site_occupancy
  Tb  Tb0  1  0.104724  0.038614  0.781948  1
  Er  Er1  1  0.372117  0.130711  0.175946  1
  Er  Er2  1  0.897341  0.962029  0.215923  1
  Er  Er3  1  0.028548  0.747241  0.926630  1
  Er  Er4  1  0.971748  0.252488  0.072754  1
  Er  Er5  1  0.627596  0.869089  0.824031  1
  C  C6  1  0.906685  0.969534  0.959983  1
  C  C7  1  0.091678  0.029764  0.043105  1
  I  I8  1  0.194842  0.735587  0.652116  1
  I  I9  1  0.085932  0.365232  0.825031  1
  I  I10  1  0.456575  0.811712  0.093354  1
  I  I11  1  0.253281  0.083644  0.454764  1
  I  I12  1  0.545999  0.189356  0.907784  1
  I  I13  1  0.806178  0.260614  0.347088  1
  I  I14  1  0.342645  0.449150  0.270944  1
  I  I15  1  0.913528  0.639229  0.176514  1
  I  I16  1  0.657367  0.550852  0.729002  1
  I  I17  1  0.743214  0.915153  0.543082  1
