# generated using pymatgen
data_TbSm5(Sn3Hg2)2
_symmetry_space_group_name_H-M   'P 1'
_cell_length_a   6.52018563
_cell_length_b   6.52018488
_cell_length_c   10.31935500
_cell_angle_alpha   90.00000000
_cell_angle_beta   90.00000000
_cell_angle_gamma   102.97869988
_symmetry_Int_Tables_number   1
_chemical_formula_structural   TbSm5(Sn3Hg2)2
_chemical_formula_sum   'Tb1 Sm5 Sn6 Hg4'
_cell_volume   427.49751963
_cell_formula_units_Z   1
loop_
 _symmetry_equiv_pos_site_id
 _symmetry_equiv_pos_as_xyz
  1  'x, y, z'
loop_
 _atom_site_type_symbol
 _atom_site_label
 _atom_site_symmetry_multiplicity
 _atom_site_fract_x
 _atom_site_fract_y
 _atom_site_fract_z
 _atom_site_occupancy
  Tb  Tb0  1  0.623684  0.623684  0.250000  1
  Sm  Sm1  1  0.379198  0.379198  0.750000  1
  Sm  Sm2  1  0.794270  0.205708  0.001189  1
  Sm  Sm3  1  0.205708  0.794270  0.001189  1
  Sm  Sm4  1  0.205708  0.794270  0.498811  1
  Sm  Sm5  1  0.794270  0.205708  0.498811  1
  Sn  Sn6  1  0.063079  0.492477  0.250000  1
  Sn  Sn7  1  0.936062  0.507675  0.750000  1
  Sn  Sn8  1  0.492477  0.063079  0.250000  1
  Sn  Sn9  1  0.507675  0.936062  0.750000  1
  Sn  Sn10  1  0.011833  0.011833  0.250000  1
  Sn  Sn11  1  0.987533  0.987533  0.750000  1
  Hg  Hg12  1  0.311380  0.311380  0.041203  1
  Hg  Hg13  1  0.687872  0.687872  0.960668  1
  Hg  Hg14  1  0.687872  0.687872  0.539332  1
  Hg  Hg15  1  0.311380  0.311380  0.458797  1
