# generated using pymatgen
data_Ho5Th(Ni3P2)6
_symmetry_space_group_name_H-M   'P 1'
_cell_length_a   3.78298100
_cell_length_b   10.47850800
_cell_length_c   12.30424400
_cell_angle_alpha   90.00000000
_cell_angle_beta   90.00000000
_cell_angle_gamma   90.00000000
_symmetry_Int_Tables_number   1
_chemical_formula_structural   Ho5Th(Ni3P2)6
_chemical_formula_sum   'Ho5 Th1 Ni18 P12'
_cell_volume   487.74019122
_cell_formula_units_Z   1
loop_
 _symmetry_equiv_pos_site_id
 _symmetry_equiv_pos_as_xyz
  1  'x, y, z'
loop_
 _atom_site_type_symbol
 _atom_site_label
 _atom_site_symmetry_multiplicity
 _atom_site_fract_x
 _atom_site_fract_y
 _atom_site_fract_z
 _atom_site_occupancy
  Ho  Ho0  1  0.500000  0.000000  0.478374  1
  Ho  Ho1  1  0.500000  0.817161  0.205627  1
  Ho  Ho2  1  0.500000  0.182839  0.205627  1
  Ho  Ho3  1  0.000000  0.683994  0.796098  1
  Ho  Ho4  1  0.000000  0.316006  0.796098  1
  Th  Th5  1  0.000000  0.500000  0.522628  1
  Ni  Ni6  1  0.500000  0.500000  0.155593  1
  Ni  Ni7  1  0.000000  0.000000  0.841530  1
  Ni  Ni8  1  0.500000  0.500000  0.700858  1
  Ni  Ni9  1  0.000000  0.000000  0.299828  1
  Ni  Ni10  1  0.000000  0.500000  0.985025  1
  Ni  Ni11  1  0.500000  0.000000  0.016501  1
  Ni  Ni12  1  0.500000  0.331937  0.995554  1
  Ni  Ni13  1  0.500000  0.668063  0.995554  1
  Ni  Ni14  1  0.000000  0.166462  0.003896  1
  Ni  Ni15  1  0.000000  0.833538  0.003896  1
  Ni  Ni16  1  0.500000  0.299382  0.427740  1
  Ni  Ni17  1  0.500000  0.700618  0.427740  1
  Ni  Ni18  1  0.000000  0.196868  0.571741  1
  Ni  Ni19  1  0.000000  0.803132  0.571741  1
  Ni  Ni20  1  0.500000  0.880141  0.712727  1
  Ni  Ni21  1  0.500000  0.119859  0.712727  1
  Ni  Ni22  1  0.000000  0.621715  0.287288  1
  Ni  Ni23  1  0.000000  0.378285  0.287288  1
  P  P24  1  0.500000  0.500000  0.877657  1
  P  P25  1  0.000000  0.000000  0.123311  1
  P  P26  1  0.500000  0.500000  0.337953  1
  P  P27  1  0.000000  0.000000  0.655861  1
  P  P28  1  0.500000  0.307862  0.616663  1
  P  P29  1  0.500000  0.692138  0.616663  1
  P  P30  1  0.000000  0.185791  0.385607  1
  P  P31  1  0.000000  0.814209  0.385607  1
  P  P32  1  0.500000  0.848329  0.893091  1
  P  P33  1  0.500000  0.151671  0.893091  1
  P  P34  1  0.000000  0.653411  0.106408  1
  P  P35  1  0.000000  0.346589  0.106408  1
