# generated using pymatgen
data_Er5Tm3Sc11Si16W
_symmetry_space_group_name_H-M   'P 1'
_cell_length_a   7.04804078
_cell_length_b   7.29851178
_cell_length_c   13.84218544
_cell_angle_alpha   90.15999335
_cell_angle_beta   89.63093734
_cell_angle_gamma   89.70766774
_symmetry_Int_Tables_number   1
_chemical_formula_structural   Er5Tm3Sc11Si16W
_chemical_formula_sum   'Er5 Tm3 Sc11 Si16 W1'
_cell_volume   712.01802596
_cell_formula_units_Z   1
loop_
 _symmetry_equiv_pos_site_id
 _symmetry_equiv_pos_as_xyz
  1  'x, y, z'
loop_
 _atom_site_type_symbol
 _atom_site_label
 _atom_site_symmetry_multiplicity
 _atom_site_fract_x
 _atom_site_fract_y
 _atom_site_fract_z
 _atom_site_occupancy
  Er  Er0  1  0.011732  0.175013  0.096732  1
  Er  Er1  1  0.989290  0.825238  0.899083  1
  Er  Er2  1  0.487316  0.678358  0.899950  1
  Er  Er3  1  0.993222  0.829212  0.595563  1
  Er  Er4  1  0.512969  0.322968  0.096325  1
  Tm  Tm5  1  0.010026  0.175591  0.404067  1
  Tm  Tm6  1  0.506994  0.323098  0.410077  1
  Tm  Tm7  1  0.487984  0.676368  0.595633  1
  Sc  Sc8  1  0.162557  0.496463  0.745259  1
  Sc  Sc9  1  0.838450  0.497196  0.251794  1
  Sc  Sc10  1  0.337682  0.003421  0.252417  1
  Sc  Sc11  1  0.658201  0.001356  0.747205  1
  Sc  Sc12  1  0.666056  0.825319  0.379011  1
  Sc  Sc13  1  0.168068  0.678524  0.378318  1
  Sc  Sc14  1  0.669373  0.824217  0.124706  1
  Sc  Sc15  1  0.832224  0.323244  0.623576  1
  Sc  Sc16  1  0.332754  0.176146  0.874658  1
  Sc  Sc17  1  0.829728  0.322853  0.871988  1
  Sc  Sc18  1  0.170363  0.676934  0.125785  1
  Si  Si19  1  0.041789  0.119423  0.744941  1
  Si  Si20  1  0.964709  0.887599  0.251373  1
  Si  Si21  1  0.467532  0.614761  0.250878  1
  Si  Si22  1  0.530160  0.376896  0.745845  1
  Si  Si23  1  0.287033  0.877672  0.745573  1
  Si  Si24  1  0.711969  0.128954  0.251083  1
  Si  Si25  1  0.215870  0.371223  0.250853  1
  Si  Si26  1  0.783496  0.626401  0.746645  1
  Si  Si27  1  0.177026  0.451345  0.540521  1
  Si  Si28  1  0.841112  0.531118  0.460720  1
  Si  Si29  1  0.332182  0.970269  0.470992  1
  Si  Si30  1  0.844193  0.534394  0.039034  1
  Si  Si31  1  0.647533  0.034755  0.544748  1
  Si  Si32  1  0.155430  0.466682  0.959106  1
  Si  Si33  1  0.661818  0.035207  0.958925  1
  Si  Si34  1  0.340323  0.963782  0.038561  1
  W  W35  1  0.332837  0.177998  0.628060  1
