# generated using pymatgen
data_Dy3YB16OsRu3
_symmetry_space_group_name_H-M   'P 1'
_cell_length_a   3.56174100
_cell_length_b   5.96244007
_cell_length_c   11.53706501
_cell_angle_alpha   90.00686337
_cell_angle_beta   90.00000000
_cell_angle_gamma   90.00000000
_symmetry_Int_Tables_number   1
_chemical_formula_structural   Dy3YB16OsRu3
_chemical_formula_sum   'Dy3 Y1 B16 Os1 Ru3'
_cell_volume   245.00880886
_cell_formula_units_Z   1
loop_
 _symmetry_equiv_pos_site_id
 _symmetry_equiv_pos_as_xyz
  1  'x, y, z'
loop_
 _atom_site_type_symbol
 _atom_site_label
 _atom_site_symmetry_multiplicity
 _atom_site_fract_x
 _atom_site_fract_y
 _atom_site_fract_z
 _atom_site_occupancy
  Dy  Dy0  1  0.000000  0.871361  0.350289  1
  Dy  Dy1  1  0.000000  0.628761  0.849723  1
  Dy  Dy2  1  0.000000  0.371184  0.150184  1
  Y  Y3  1  0.000000  0.128636  0.649660  1
  B  B4  1  0.500000  0.476734  0.691735  1
  B  B5  1  0.500000  0.523788  0.308237  1
  B  B6  1  0.500000  0.975553  0.808367  1
  B  B7  1  0.500000  0.024003  0.191759  1
  B  B8  1  0.500000  0.289120  0.814192  1
  B  B9  1  0.500000  0.711076  0.185807  1
  B  B10  1  0.500000  0.788674  0.685616  1
  B  B11  1  0.500000  0.211051  0.314524  1
  B  B12  1  0.500000  0.363791  0.970073  1
  B  B13  1  0.500000  0.636187  0.030175  1
  B  B14  1  0.500000  0.863766  0.530180  1
  B  B15  1  0.500000  0.136024  0.469550  1
  B  B16  1  0.500000  0.388152  0.546516  1
  B  B17  1  0.500000  0.612033  0.453298  1
  B  B18  1  0.500000  0.887838  0.953240  1
  B  B19  1  0.500000  0.112167  0.046805  1
  Os  Os20  1  0.000000  0.141102  0.907311  1
  Ru  Ru21  1  0.000000  0.858885  0.092772  1
  Ru  Ru22  1  0.000000  0.640195  0.592705  1
  Ru  Ru23  1  0.000000  0.359918  0.407280  1
