# generated using pymatgen
data_Ta6TiAl5Os12
_symmetry_space_group_name_H-M   'P 1'
_cell_length_a   4.40421100
_cell_length_b   6.23930000
_cell_length_c   13.25135200
_cell_angle_alpha   90.00000000
_cell_angle_beta   90.00047197
_cell_angle_gamma   89.99996862
_symmetry_Int_Tables_number   1
_chemical_formula_structural   Ta6TiAl5Os12
_chemical_formula_sum   'Ta6 Ti1 Al5 Os12'
_cell_volume   364.13646829
_cell_formula_units_Z   1
loop_
 _symmetry_equiv_pos_site_id
 _symmetry_equiv_pos_as_xyz
  1  'x, y, z'
loop_
 _atom_site_type_symbol
 _atom_site_label
 _atom_site_symmetry_multiplicity
 _atom_site_fract_x
 _atom_site_fract_y
 _atom_site_fract_z
 _atom_site_occupancy
  Ta  Ta0  1  0.000000  0.000000  0.000000  1
  Ta  Ta1  1  0.499878  0.500000  0.168658  1
  Ta  Ta2  1  0.999905  0.000000  0.333713  1
  Ta  Ta3  1  0.500000  0.500000  0.500000  1
  Ta  Ta4  1  0.000096  0.000000  0.666286  1
  Ta  Ta5  1  0.500121  0.500000  0.831342  1
  Ti  Ti6  1  0.000000  0.500000  0.000000  1
  Al  Al7  1  0.499793  0.000000  0.167585  1
  Al  Al8  1  0.999795  0.500000  0.334075  1
  Al  Al9  1  0.500000  0.000000  0.500000  1
  Al  Al10  1  0.000205  0.500000  0.665926  1
  Al  Al11  1  0.500206  0.000000  0.832416  1
  Os  Os12  1  0.500000  0.249519  0.000000  1
  Os  Os13  1  0.500000  0.750482  0.000000  1
  Os  Os14  1  0.999866  0.249459  0.166945  1
  Os  Os15  1  0.999866  0.750539  0.166945  1
  Os  Os16  1  0.499869  0.249634  0.333713  1
  Os  Os17  1  0.499869  0.750364  0.333713  1
  Os  Os18  1  0.000000  0.249511  0.500000  1
  Os  Os19  1  0.000000  0.750488  0.500000  1
  Os  Os20  1  0.500129  0.249634  0.666287  1
  Os  Os21  1  0.500129  0.750364  0.666287  1
  Os  Os22  1  0.000134  0.249459  0.833055  1
  Os  Os23  1  0.000134  0.750539  0.833055  1
