# generated using pymatgen
data_Y2ErCo8ReP6
_symmetry_space_group_name_H-M   'P 1'
_cell_length_a   3.72112700
_cell_length_b   10.50912800
_cell_length_c   12.21295200
_cell_angle_alpha   90.00000000
_cell_angle_beta   90.00000000
_cell_angle_gamma   90.00000000
_symmetry_Int_Tables_number   1
_chemical_formula_structural   Y2ErCo8ReP6
_chemical_formula_sum   'Y4 Er2 Co16 Re2 P12'
_cell_volume   477.59725768
_cell_formula_units_Z   2
loop_
 _symmetry_equiv_pos_site_id
 _symmetry_equiv_pos_as_xyz
  1  'x, y, z'
loop_
 _atom_site_type_symbol
 _atom_site_label
 _atom_site_symmetry_multiplicity
 _atom_site_fract_x
 _atom_site_fract_y
 _atom_site_fract_z
 _atom_site_occupancy
  Y  Y0  1  0.000000  0.500000  0.524597  1
  Y  Y1  1  0.500000  0.000000  0.475284  1
  Y  Y2  1  0.000000  0.681740  0.794383  1
  Y  Y3  1  0.000000  0.318260  0.794383  1
  Er  Er4  1  0.500000  0.818343  0.205606  1
  Er  Er5  1  0.500000  0.181657  0.205606  1
  Co  Co6  1  0.500000  0.500000  0.702302  1
  Co  Co7  1  0.000000  0.000000  0.297048  1
  Co  Co8  1  0.000000  0.500000  0.988268  1
  Co  Co9  1  0.500000  0.000000  0.012254  1
  Co  Co10  1  0.500000  0.332317  0.990211  1
  Co  Co11  1  0.500000  0.667683  0.990211  1
  Co  Co12  1  0.000000  0.167470  0.010491  1
  Co  Co13  1  0.000000  0.832530  0.010491  1
  Co  Co14  1  0.500000  0.296420  0.430725  1
  Co  Co15  1  0.500000  0.703580  0.430725  1
  Co  Co16  1  0.000000  0.203430  0.568893  1
  Co  Co17  1  0.000000  0.796570  0.568893  1
  Co  Co18  1  0.500000  0.879355  0.708852  1
  Co  Co19  1  0.500000  0.120645  0.708852  1
  Co  Co20  1  0.000000  0.621147  0.290898  1
  Co  Co21  1  0.000000  0.378853  0.290898  1
  Re  Re22  1  0.500000  0.500000  0.156100  1
  Re  Re23  1  0.000000  0.000000  0.844023  1
  P  P24  1  0.500000  0.500000  0.880464  1
  P  P25  1  0.000000  0.000000  0.120134  1
  P  P26  1  0.500000  0.500000  0.348881  1
  P  P27  1  0.000000  0.000000  0.651118  1
  P  P28  1  0.500000  0.311530  0.616157  1
  P  P29  1  0.500000  0.688470  0.616157  1
  P  P30  1  0.000000  0.188384  0.383183  1
  P  P31  1  0.000000  0.811616  0.383183  1
  P  P32  1  0.500000  0.845868  0.892642  1
  P  P33  1  0.500000  0.154132  0.892642  1
  P  P34  1  0.000000  0.654736  0.107721  1
  P  P35  1  0.000000  0.345264  0.107721  1
