# generated using pymatgen
data_Dy3Er7Pt8
_symmetry_space_group_name_H-M   'P 1'
_cell_length_a   7.43553923
_cell_length_b   7.51684766
_cell_length_c   14.72065201
_cell_angle_alpha   90.01443384
_cell_angle_beta   90.03445393
_cell_angle_gamma   89.97634614
_symmetry_Int_Tables_number   1
_chemical_formula_structural   Dy3Er7Pt8
_chemical_formula_sum   'Dy6 Er14 Pt16'
_cell_volume   822.76372408
_cell_formula_units_Z   2
loop_
 _symmetry_equiv_pos_site_id
 _symmetry_equiv_pos_as_xyz
  1  'x, y, z'
loop_
 _atom_site_type_symbol
 _atom_site_label
 _atom_site_symmetry_multiplicity
 _atom_site_fract_x
 _atom_site_fract_y
 _atom_site_fract_z
 _atom_site_occupancy
  Dy  Dy0  1  0.500156  0.320875  0.092879  1
  Dy  Dy1  1  0.999862  0.179174  0.407206  1
  Dy  Dy2  1  0.500173  0.321159  0.407173  1
  Dy  Dy3  1  0.000097  0.178559  0.092540  1
  Dy  Dy4  1  0.499800  0.679442  0.907084  1
  Dy  Dy5  1  0.999787  0.820407  0.592966  1
  Er  Er6  1  0.654362  0.167675  0.622491  1
  Er  Er7  1  0.154545  0.332335  0.877599  1
  Er  Er8  1  0.345445  0.832279  0.122194  1
  Er  Er9  1  0.845594  0.667442  0.377665  1
  Er  Er10  1  0.345979  0.832219  0.377860  1
  Er  Er11  1  0.846003  0.667930  0.122069  1
  Er  Er12  1  0.654829  0.167622  0.877720  1
  Er  Er13  1  0.154658  0.332762  0.622415  1
  Er  Er14  1  0.500069  0.679667  0.593220  1
  Er  Er15  1  0.000108  0.820478  0.906977  1
  Er  Er16  1  0.817374  0.511072  0.750102  1
  Er  Er17  1  0.317406  0.989208  0.750129  1
  Er  Er18  1  0.182830  0.488975  0.249892  1
  Er  Er19  1  0.682356  0.010852  0.249926  1
  Pt  Pt20  1  0.684039  0.966483  0.458889  1
  Pt  Pt21  1  0.184267  0.533607  0.041005  1
  Pt  Pt22  1  0.314515  0.032211  0.958312  1
  Pt  Pt23  1  0.814380  0.467966  0.541899  1
  Pt  Pt24  1  0.315452  0.031948  0.542155  1
  Pt  Pt25  1  0.815898  0.467840  0.958146  1
  Pt  Pt26  1  0.684478  0.966255  0.040798  1
  Pt  Pt27  1  0.184957  0.533516  0.458841  1
  Pt  Pt28  1  0.451419  0.386784  0.750008  1
  Pt  Pt29  1  0.951458  0.113110  0.750345  1
  Pt  Pt30  1  0.549151  0.614027  0.249738  1
  Pt  Pt31  1  0.048551  0.886323  0.249884  1
  Pt  Pt32  1  0.679689  0.856422  0.750069  1
  Pt  Pt33  1  0.179552  0.644004  0.750585  1
  Pt  Pt34  1  0.319975  0.143251  0.249631  1
  Pt  Pt35  1  0.820786  0.356126  0.249589  1
