# generated using pymatgen
data_Dy3YFe4(WO6)4
_symmetry_space_group_name_H-M   'P 1'
_cell_length_a   5.23351503
_cell_length_b   7.43338002
_cell_length_c   11.09732509
_cell_angle_alpha   90.00745313
_cell_angle_beta   90.01269510
_cell_angle_gamma   90.00065946
_symmetry_Int_Tables_number   1
_chemical_formula_structural   Dy3YFe4(WO6)4
_chemical_formula_sum   'Dy3 Y1 Fe4 W4 O24'
_cell_volume   431.71596173
_cell_formula_units_Z   1
loop_
 _symmetry_equiv_pos_site_id
 _symmetry_equiv_pos_as_xyz
  1  'x, y, z'
loop_
 _atom_site_type_symbol
 _atom_site_label
 _atom_site_symmetry_multiplicity
 _atom_site_fract_x
 _atom_site_fract_y
 _atom_site_fract_z
 _atom_site_occupancy
  Dy  Dy0  1  0.545093  0.250935  0.044793  1
  Dy  Dy1  1  0.044983  0.750948  0.455229  1
  Dy  Dy2  1  0.954979  0.250963  0.544769  1
  Y  Y3  1  0.455145  0.750957  0.955409  1
  Fe  Fe4  1  0.042825  0.996020  0.139784  1
  Fe  Fe5  1  0.542754  0.495791  0.360395  1
  Fe  Fe6  1  0.457353  0.995818  0.639492  1
  Fe  Fe7  1  0.957392  0.495643  0.860273  1
  W  W8  1  0.051650  0.506930  0.142303  1
  W  W9  1  0.551635  0.007000  0.357883  1
  W  W10  1  0.448341  0.506969  0.642030  1
  W  W11  1  0.948460  0.007250  0.857717  1
  O  O12  1  0.756453  0.961267  0.020824  1
  O  O13  1  0.764176  0.545671  0.028522  1
  O  O14  1  0.176603  0.748938  0.117565  1
  O  O15  1  0.934066  0.258561  0.144066  1
  O  O16  1  0.375640  0.433579  0.206278  1
  O  O17  1  0.390682  0.068139  0.212598  1
  O  O18  1  0.890538  0.568050  0.287502  1
  O  O19  1  0.875452  0.933607  0.293780  1
  O  O20  1  0.434039  0.758626  0.356110  1
  O  O21  1  0.677321  0.248905  0.382881  1
  O  O22  1  0.263851  0.046117  0.471506  1
  O  O23  1  0.256075  0.460839  0.479159  1
  O  O24  1  0.743885  0.960863  0.520753  1
  O  O25  1  0.736117  0.546105  0.528406  1
  O  O26  1  0.322642  0.748921  0.617116  1
  O  O27  1  0.565936  0.258620  0.643789  1
  O  O28  1  0.124594  0.433580  0.706216  1
  O  O29  1  0.109511  0.068240  0.712554  1
  O  O30  1  0.609881  0.567858  0.787156  1
  O  O31  1  0.624774  0.933980  0.793464  1
  O  O32  1  0.065130  0.758634  0.855998  1
  O  O33  1  0.822514  0.248983  0.882825  1
  O  O34  1  0.235883  0.046585  0.971571  1
  O  O35  1  0.243628  0.460505  0.979289  1
