# generated using pymatgen
data_Cu30Si7As
_symmetry_space_group_name_H-M   'P 1'
_cell_length_a   8.42216851
_cell_length_b   8.42216948
_cell_length_c   8.42216917
_cell_angle_alpha   109.44144805
_cell_angle_beta   109.44145174
_cell_angle_gamma   109.44144669
_symmetry_Int_Tables_number   1
_chemical_formula_structural   Cu30Si7As
_chemical_formula_sum   'Cu30 Si7 As1'
_cell_volume   460.39199282
_cell_formula_units_Z   1
loop_
 _symmetry_equiv_pos_site_id
 _symmetry_equiv_pos_as_xyz
  1  'x, y, z'
loop_
 _atom_site_type_symbol
 _atom_site_label
 _atom_site_symmetry_multiplicity
 _atom_site_fract_x
 _atom_site_fract_y
 _atom_site_fract_z
 _atom_site_occupancy
  Cu  Cu0  1  0.626630  0.372890  0.247120  1
  Cu  Cu1  1  0.247120  0.626630  0.372890  1
  Cu  Cu2  1  0.749641  0.875170  0.126167  1
  Cu  Cu3  1  0.126167  0.749641  0.875170  1
  Cu  Cu4  1  0.372890  0.247120  0.626630  1
  Cu  Cu5  1  0.875170  0.126167  0.749641  1
  Cu  Cu6  1  0.067977  0.271825  0.117392  1
  Cu  Cu7  1  0.700281  0.048120  0.925722  1
  Cu  Cu8  1  0.877378  0.450839  0.151612  1
  Cu  Cu9  1  0.151612  0.877378  0.450839  1
  Cu  Cu10  1  0.347718  0.798855  0.724078  1
  Cu  Cu11  1  0.724078  0.347718  0.798855  1
  Cu  Cu12  1  0.048120  0.925722  0.700281  1
  Cu  Cu13  1  0.224822  0.298918  0.849032  1
  Cu  Cu14  1  0.199647  0.428394  0.556130  1
  Cu  Cu15  1  0.948955  0.376807  0.652391  1
  Cu  Cu16  1  0.298918  0.849032  0.224822  1
  Cu  Cu17  1  0.556130  0.199647  0.428394  1
  Cu  Cu18  1  0.376807  0.652391  0.948955  1
  Cu  Cu19  1  0.117392  0.067977  0.271825  1
  Cu  Cu20  1  0.271825  0.117392  0.067977  1
  Cu  Cu21  1  0.849032  0.224822  0.298918  1
  Cu  Cu22  1  0.428394  0.556130  0.199647  1
  Cu  Cu23  1  0.652391  0.948955  0.376807  1
  Cu  Cu24  1  0.626730  0.780821  0.577582  1
  Cu  Cu25  1  0.577582  0.626730  0.780821  1
  Cu  Cu26  1  0.780821  0.577582  0.626730  1
  Cu  Cu27  1  0.798855  0.724078  0.347718  1
  Cu  Cu28  1  0.925722  0.700281  0.048120  1
  Cu  Cu29  1  0.450839  0.151612  0.877378  1
  Si  Si30  1  0.499273  0.000131  0.587794  1
  Si  Si31  1  0.587794  0.499273  0.000131  1
  Si  Si32  1  0.000131  0.587794  0.499273  1
  Si  Si33  1  0.088060  0.500702  0.000434  1
  Si  Si34  1  0.000434  0.088060  0.500702  1
  Si  Si35  1  0.500702  0.000434  0.088060  1
  Si  Si36  1  0.912111  0.912111  0.912111  1
  As  As37  1  0.411852  0.411852  0.411852  1
