# generated using pymatgen
data_Mg8B24IrOs3
_symmetry_space_group_name_H-M   'P 1'
_cell_length_a   3.49011400
_cell_length_b   8.87333027
_cell_length_c   11.04707804
_cell_angle_alpha   89.98938420
_cell_angle_beta   90.00000000
_cell_angle_gamma   90.00000000
_symmetry_Int_Tables_number   1
_chemical_formula_structural   Mg8B24IrOs3
_chemical_formula_sum   'Mg8 B24 Ir1 Os3'
_cell_volume   342.11622710
_cell_formula_units_Z   1
loop_
 _symmetry_equiv_pos_site_id
 _symmetry_equiv_pos_as_xyz
  1  'x, y, z'
loop_
 _atom_site_type_symbol
 _atom_site_label
 _atom_site_symmetry_multiplicity
 _atom_site_fract_x
 _atom_site_fract_y
 _atom_site_fract_z
 _atom_site_occupancy
  Mg  Mg0  1  0.500000  0.322111  0.413983  1
  Mg  Mg1  1  0.500000  0.675223  0.590136  1
  Mg  Mg2  1  0.500000  0.171713  0.912741  1
  Mg  Mg3  1  0.500000  0.830387  0.083385  1
  Mg  Mg4  1  0.500000  0.443646  0.126566  1
  Mg  Mg5  1  0.500000  0.556189  0.872228  1
  Mg  Mg6  1  0.500000  0.055101  0.628378  1
  Mg  Mg7  1  0.500000  0.944884  0.372441  1
  B  B8  1  0.000000  0.091809  0.474210  1
  B  B9  1  0.000000  0.906901  0.526256  1
  B  B10  1  0.000000  0.408145  0.974350  1
  B  B11  1  0.000000  0.592052  0.025502  1
  B  B12  1  0.000000  0.130346  0.319508  1
  B  B13  1  0.000000  0.869535  0.680850  1
  B  B14  1  0.000000  0.369207  0.819248  1
  B  B15  1  0.000000  0.631540  0.180195  1
  B  B16  1  0.000000  0.055033  0.064168  1
  B  B17  1  0.000000  0.945132  0.935829  1
  B  B18  1  0.000000  0.444827  0.564124  1
  B  B19  1  0.000000  0.556344  0.436108  1
  B  B20  1  0.000000  0.479192  0.289826  1
  B  B21  1  0.000000  0.521315  0.710859  1
  B  B22  1  0.000000  0.020777  0.789213  1
  B  B23  1  0.000000  0.979711  0.211000  1
  B  B24  1  0.000000  0.255437  0.078739  1
  B  B25  1  0.000000  0.744063  0.920766  1
  B  B26  1  0.000000  0.243582  0.579297  1
  B  B27  1  0.000000  0.755190  0.420925  1
  B  B28  1  0.000000  0.296667  0.238765  1
  B  B29  1  0.000000  0.703247  0.762021  1
  B  B30  1  0.000000  0.203304  0.737821  1
  B  B31  1  0.000000  0.796363  0.261857  1
  Ir  Ir32  1  0.500000  0.640985  0.318523  1
  Os  Os33  1  0.500000  0.141810  0.179807  1
  Os  Os34  1  0.500000  0.859185  0.820845  1
  Os  Os35  1  0.500000  0.359047  0.679532  1
