# generated using pymatgen
data_PrNd4Sn3P
_symmetry_space_group_name_H-M   'P 1'
_cell_length_a   9.41496000
_cell_length_b   9.41496040
_cell_length_c   7.01745500
_cell_angle_alpha   90.00000000
_cell_angle_beta   90.00000000
_cell_angle_gamma   119.99999859
_symmetry_Int_Tables_number   1
_chemical_formula_structural   PrNd4Sn3P
_chemical_formula_sum   'Pr2 Nd8 Sn6 P2'
_cell_volume   538.70034200
_cell_formula_units_Z   2
loop_
 _symmetry_equiv_pos_site_id
 _symmetry_equiv_pos_as_xyz
  1  'x, y, z'
loop_
 _atom_site_type_symbol
 _atom_site_label
 _atom_site_symmetry_multiplicity
 _atom_site_fract_x
 _atom_site_fract_y
 _atom_site_fract_z
 _atom_site_occupancy
  Pr  Pr0  1  0.333333  0.666667  0.500000  1
  Pr  Pr1  1  0.666667  0.333333  0.500000  1
  Nd  Nd2  1  0.666667  0.333333  0.000000  1
  Nd  Nd3  1  0.333333  0.666667  0.000000  1
  Nd  Nd4  1  0.760165  0.760165  0.750111  1
  Nd  Nd5  1  0.239835  0.000000  0.750111  1
  Nd  Nd6  1  0.000000  0.239835  0.750111  1
  Nd  Nd7  1  0.239835  0.239835  0.249889  1
  Nd  Nd8  1  0.760165  0.000000  0.249889  1
  Nd  Nd9  1  0.000000  0.760165  0.249889  1
  Sn  Sn10  1  0.400139  0.400139  0.750481  1
  Sn  Sn11  1  0.599861  0.000000  0.750481  1
  Sn  Sn12  1  0.000000  0.599861  0.750481  1
  Sn  Sn13  1  0.599861  0.599861  0.249519  1
  Sn  Sn14  1  0.400139  0.000000  0.249519  1
  Sn  Sn15  1  0.000000  0.400139  0.249519  1
  P  P16  1  0.000000  0.000000  0.000000  1
  P  P17  1  0.000000  0.000000  0.500000  1
