# generated using pymatgen
data_Pr6BiO12
_symmetry_space_group_name_H-M   'P 1'
_cell_length_a   6.87613912
_cell_length_b   6.87613882
_cell_length_c   6.87613869
_cell_angle_alpha   98.90426561
_cell_angle_beta   98.90426299
_cell_angle_gamma   98.90426524
_symmetry_Int_Tables_number   1
_chemical_formula_structural   Pr6BiO12
_chemical_formula_sum   'Pr6 Bi1 O12'
_cell_volume   311.95729966
_cell_formula_units_Z   1
loop_
 _symmetry_equiv_pos_site_id
 _symmetry_equiv_pos_as_xyz
  1  'x, y, z'
loop_
 _atom_site_type_symbol
 _atom_site_label
 _atom_site_symmetry_multiplicity
 _atom_site_fract_x
 _atom_site_fract_y
 _atom_site_fract_z
 _atom_site_occupancy
  Pr  Pr0  1  0.859478  0.391655  0.698555  1
  Pr  Pr1  1  0.698555  0.859478  0.391655  1
  Pr  Pr2  1  0.391655  0.698555  0.859478  1
  Pr  Pr3  1  0.140522  0.608345  0.301445  1
  Pr  Pr4  1  0.301445  0.140522  0.608345  1
  Pr  Pr5  1  0.608345  0.301445  0.140522  1
  Bi  Bi6  1  0.000000  0.000000  0.000000  1
  O  O7  1  0.953147  0.306810  0.065763  1
  O  O8  1  0.065763  0.953147  0.306810  1
  O  O9  1  0.306810  0.065763  0.953147  1
  O  O10  1  0.046853  0.693190  0.934237  1
  O  O11  1  0.934237  0.046853  0.693190  1
  O  O12  1  0.693190  0.934237  0.046853  1
  O  O13  1  0.587426  0.177463  0.438846  1
  O  O14  1  0.438846  0.587426  0.177463  1
  O  O15  1  0.177463  0.438846  0.587426  1
  O  O16  1  0.412574  0.822537  0.561154  1
  O  O17  1  0.561154  0.412574  0.822537  1
  O  O18  1  0.822537  0.561154  0.412574  1
