# generated using pymatgen
data_Sc6FeCoSi6
_symmetry_space_group_name_H-M   'P 1'
_cell_length_a   5.34013047
_cell_length_b   5.34012911
_cell_length_c   12.79113559
_cell_angle_alpha   70.70249684
_cell_angle_beta   70.70250216
_cell_angle_gamma   43.81888591
_symmetry_Int_Tables_number   1
_chemical_formula_structural   Sc6FeCoSi6
_chemical_formula_sum   'Sc6 Fe1 Co1 Si6'
_cell_volume   235.99091381
_cell_formula_units_Z   1
loop_
 _symmetry_equiv_pos_site_id
 _symmetry_equiv_pos_as_xyz
  1  'x, y, z'
loop_
 _atom_site_type_symbol
 _atom_site_label
 _atom_site_symmetry_multiplicity
 _atom_site_fract_x
 _atom_site_fract_y
 _atom_site_fract_z
 _atom_site_occupancy
  Sc  Sc0  1  0.745856  0.745856  0.772187  1
  Sc  Sc1  1  0.253707  0.253707  0.227420  1
  Sc  Sc2  1  0.523998  0.523998  0.621574  1
  Sc  Sc3  1  0.477585  0.477585  0.377985  1
  Sc  Sc4  1  0.400842  0.400842  0.919894  1
  Sc  Sc5  1  0.598877  0.598877  0.081773  1
  Fe  Fe6  1  0.246866  0.246866  0.583628  1
  Co  Co7  1  0.752605  0.752605  0.414731  1
  Si  Si8  1  0.135092  0.135092  0.454699  1
  Si  Si9  1  0.862823  0.862823  0.545228  1
  Si  Si10  1  0.118916  0.118916  0.925229  1
  Si  Si11  1  0.881172  0.881172  0.075482  1
  Si  Si12  1  0.049813  0.049813  0.758738  1
  Si  Si13  1  0.951848  0.951848  0.241434  1
