# generated using pymatgen
data_Dy4BeOs7
_symmetry_space_group_name_H-M   'P 1'
_cell_length_a   5.26682745
_cell_length_b   5.26682746
_cell_length_c   8.76733800
_cell_angle_alpha   90.00000000
_cell_angle_beta   90.00000000
_cell_angle_gamma   119.02549176
_symmetry_Int_Tables_number   1
_chemical_formula_structural   Dy4BeOs7
_chemical_formula_sum   'Dy4 Be1 Os7'
_cell_volume   212.65618986
_cell_formula_units_Z   1
loop_
 _symmetry_equiv_pos_site_id
 _symmetry_equiv_pos_as_xyz
  1  'x, y, z'
loop_
 _atom_site_type_symbol
 _atom_site_label
 _atom_site_symmetry_multiplicity
 _atom_site_fract_x
 _atom_site_fract_y
 _atom_site_fract_z
 _atom_site_occupancy
  Dy  Dy0  1  0.333131  0.666869  0.434997  1
  Dy  Dy1  1  0.669521  0.330479  0.563557  1
  Dy  Dy2  1  0.669521  0.330479  0.936443  1
  Dy  Dy3  1  0.333131  0.666869  0.065003  1
  Be  Be4  1  0.828939  0.171061  0.250000  1
  Os  Os5  1  0.003607  0.996393  0.495493  1
  Os  Os6  1  0.003607  0.996393  0.004507  1
  Os  Os7  1  0.820890  0.655840  0.250000  1
  Os  Os8  1  0.344160  0.179110  0.250000  1
  Os  Os9  1  0.165786  0.834214  0.750000  1
  Os  Os10  1  0.174513  0.346806  0.750000  1
  Os  Os11  1  0.653194  0.825487  0.750000  1
