# generated using pymatgen
data_SmY2PaN4
_symmetry_space_group_name_H-M   'P 1'
_cell_length_a   6.01110729
_cell_length_b   6.01101300
_cell_length_c   4.94787700
_cell_angle_alpha   65.69784722
_cell_angle_beta   65.69856680
_cell_angle_gamma   48.60629895
_symmetry_Int_Tables_number   1
_chemical_formula_structural   SmY2PaN4
_chemical_formula_sum   'Sm1 Y2 Pa1 N4'
_cell_volume   119.66600903
_cell_formula_units_Z   1
loop_
 _symmetry_equiv_pos_site_id
 _symmetry_equiv_pos_as_xyz
  1  'x, y, z'
loop_
 _atom_site_type_symbol
 _atom_site_label
 _atom_site_symmetry_multiplicity
 _atom_site_fract_x
 _atom_site_fract_y
 _atom_site_fract_z
 _atom_site_occupancy
  Sm  Sm0  1  0.497079  0.502924  0.502921  1
  Y  Y1  1  0.746917  0.753083  0.752806  1
  Y  Y2  1  0.247194  0.252806  0.253083  1
  Pa  Pa3  1  0.996931  0.003067  0.003069  1
  N  N4  1  0.997177  0.002825  0.503704  1
  N  N5  1  0.230284  0.235637  0.769716  1
  N  N6  1  0.496296  0.503706  0.002823  1
  N  N7  1  0.764057  0.770017  0.235943  1
