# generated using pymatgen
data_Tm7Np(Ge4Mo3)4
_symmetry_space_group_name_H-M   'P 1'
_cell_length_a   6.90906258
_cell_length_b   7.03146132
_cell_length_c   13.09345458
_cell_angle_alpha   89.94998034
_cell_angle_beta   90.00659719
_cell_angle_gamma   90.05368758
_symmetry_Int_Tables_number   1
_chemical_formula_structural   Tm7Np(Ge4Mo3)4
_chemical_formula_sum   'Tm7 Np1 Ge16 Mo12'
_cell_volume   636.09005448
_cell_formula_units_Z   1
loop_
 _symmetry_equiv_pos_site_id
 _symmetry_equiv_pos_as_xyz
  1  'x, y, z'
loop_
 _atom_site_type_symbol
 _atom_site_label
 _atom_site_symmetry_multiplicity
 _atom_site_fract_x
 _atom_site_fract_y
 _atom_site_fract_z
 _atom_site_occupancy
  Tm  Tm0  1  0.488460  0.670996  0.591097  1
  Tm  Tm1  1  0.987939  0.829909  0.907829  1
  Tm  Tm2  1  0.511919  0.329356  0.092139  1
  Tm  Tm3  1  0.012263  0.167614  0.409279  1
  Tm  Tm4  1  0.510852  0.329436  0.407509  1
  Tm  Tm5  1  0.010971  0.171071  0.092090  1
  Tm  Tm6  1  0.488073  0.670818  0.909088  1
  Np  Np7  1  0.984515  0.831110  0.594418  1
  Ge  Ge8  1  0.669261  0.953546  0.451749  1
  Ge  Ge9  1  0.171566  0.545607  0.047381  1
  Ge  Ge10  1  0.328042  0.045996  0.952640  1
  Ge  Ge11  1  0.828004  0.451800  0.547379  1
  Ge  Ge12  1  0.329140  0.046401  0.546251  1
  Ge  Ge13  1  0.828606  0.455106  0.952548  1
  Ge  Ge14  1  0.671283  0.954542  0.047286  1
  Ge  Ge15  1  0.171693  0.546137  0.452263  1
  Ge  Ge16  1  0.470238  0.369169  0.749251  1
  Ge  Ge17  1  0.969612  0.133561  0.750149  1
  Ge  Ge18  1  0.530771  0.630038  0.249488  1
  Ge  Ge19  1  0.030755  0.868594  0.250057  1
  Ge  Ge20  1  0.685738  0.853248  0.751669  1
  Ge  Ge21  1  0.191534  0.646003  0.750846  1
  Ge  Ge22  1  0.311364  0.146654  0.249757  1
  Ge  Ge23  1  0.811944  0.352986  0.250709  1
  Mo  Mo24  1  0.670826  0.151100  0.626921  1
  Mo  Mo25  1  0.169337  0.344374  0.873375  1
  Mo  Mo26  1  0.330202  0.844772  0.126298  1
  Mo  Mo27  1  0.830892  0.655741  0.373657  1
  Mo  Mo28  1  0.332224  0.845115  0.371769  1
  Mo  Mo29  1  0.831170  0.655937  0.126498  1
  Mo  Mo30  1  0.669052  0.156234  0.873888  1
  Mo  Mo31  1  0.171862  0.345276  0.626340  1
  Mo  Mo32  1  0.833384  0.497562  0.749383  1
  Mo  Mo33  1  0.333043  0.005542  0.749542  1
  Mo  Mo34  1  0.166720  0.504209  0.249963  1
  Mo  Mo35  1  0.666749  0.994443  0.249495  1
