# generated using pymatgen
data_Sc8Ti7Re4Si16Os
_symmetry_space_group_name_H-M   'P 1'
_cell_length_a   6.72959710
_cell_length_b   6.75479848
_cell_length_c   12.42026448
_cell_angle_alpha   89.77387507
_cell_angle_beta   90.00115202
_cell_angle_gamma   89.72669745
_symmetry_Int_Tables_number   1
_chemical_formula_structural   Sc8Ti7Re4Si16Os
_chemical_formula_sum   'Sc8 Ti7 Re4 Si16 Os1'
_cell_volume   564.57803993
_cell_formula_units_Z   1
loop_
 _symmetry_equiv_pos_site_id
 _symmetry_equiv_pos_as_xyz
  1  'x, y, z'
loop_
 _atom_site_type_symbol
 _atom_site_label
 _atom_site_symmetry_multiplicity
 _atom_site_fract_x
 _atom_site_fract_y
 _atom_site_fract_z
 _atom_site_occupancy
  Sc  Sc0  1  0.000036  0.659443  0.028118  1
  Sc  Sc1  1  0.000490  0.337546  0.530101  1
  Sc  Sc2  1  0.338219  0.999957  0.471214  1
  Sc  Sc3  1  0.163945  0.497538  0.781142  1
  Sc  Sc4  1  0.839570  0.500841  0.278947  1
  Sc  Sc5  1  0.499916  0.164387  0.217899  1
  Sc  Sc6  1  0.500119  0.836419  0.721000  1
  Sc  Sc7  1  0.659316  0.002347  0.970339  1
  Ti  Ti8  1  0.170736  0.828446  0.248659  1
  Ti  Ti9  1  0.998335  0.847775  0.628474  1
  Ti  Ti10  1  0.998998  0.152480  0.125630  1
  Ti  Ti11  1  0.847073  0.000314  0.371681  1
  Ti  Ti12  1  0.344305  0.504131  0.376513  1
  Ti  Ti13  1  0.655552  0.496679  0.875516  1
  Ti  Ti14  1  0.502283  0.344008  0.626184  1
  Re  Re15  1  0.331809  0.330121  0.997856  1
  Re  Re16  1  0.492055  0.664546  0.126678  1
  Re  Re17  1  0.163357  0.984603  0.873505  1
  Re  Re18  1  0.825184  0.170575  0.748017  1
  Si  Si19  1  0.039767  0.704605  0.435158  1
  Si  Si20  1  0.633808  0.298391  0.429389  1
  Si  Si21  1  0.371293  0.701247  0.932242  1
  Si  Si22  1  0.201108  0.133563  0.681413  1
  Si  Si23  1  0.295442  0.633397  0.572302  1
  Si  Si24  1  0.698948  0.372364  0.070473  1
  Si  Si25  1  0.791051  0.865481  0.179144  1
  Si  Si26  1  0.137511  0.206823  0.319543  1
  Si  Si27  1  0.963751  0.287003  0.932101  1
  Si  Si28  1  0.704304  0.040181  0.564675  1
  Si  Si29  1  0.204263  0.456433  0.182014  1
  Si  Si30  1  0.798654  0.543410  0.683394  1
  Si  Si31  1  0.453484  0.203018  0.816916  1
  Si  Si32  1  0.542912  0.801801  0.318060  1
  Si  Si33  1  0.294058  0.963055  0.062300  1
  Si  Si34  1  0.866948  0.799939  0.821654  1
  Os  Os35  1  0.671402  0.667134  0.501749  1
