# generated using pymatgen
data_Dy2Ho3(FeO6)2
_symmetry_space_group_name_H-M   'P 1'
_cell_length_a   6.75073019
_cell_length_b   6.75072927
_cell_length_c   7.24103595
_cell_angle_alpha   74.46254487
_cell_angle_beta   74.46254933
_cell_angle_gamma   51.18432249
_symmetry_Int_Tables_number   1
_chemical_formula_structural   Dy2Ho3(FeO6)2
_chemical_formula_sum   'Dy2 Ho3 Fe2 O12'
_cell_volume   245.51557818
_cell_formula_units_Z   1
loop_
 _symmetry_equiv_pos_site_id
 _symmetry_equiv_pos_as_xyz
  1  'x, y, z'
loop_
 _atom_site_type_symbol
 _atom_site_label
 _atom_site_symmetry_multiplicity
 _atom_site_fract_x
 _atom_site_fract_y
 _atom_site_fract_z
 _atom_site_occupancy
  Dy  Dy0  1  0.304581  0.304581  0.358942  1
  Dy  Dy1  1  0.999882  0.999882  0.500233  1
  Ho  Ho2  1  0.695311  0.695311  0.641443  1
  Ho  Ho3  1  0.307275  0.307275  0.832680  1
  Ho  Ho4  1  0.692797  0.692797  0.167417  1
  Fe  Fe5  1  0.756783  0.243448  0.999713  1
  Fe  Fe6  1  0.243448  0.756783  0.999713  1
  O  O7  1  0.899256  0.422099  0.920236  1
  O  O8  1  0.422099  0.899256  0.920236  1
  O  O9  1  0.100433  0.578473  0.078717  1
  O  O10  1  0.578473  0.100433  0.078717  1
  O  O11  1  0.095842  0.595585  0.578563  1
  O  O12  1  0.595585  0.095842  0.578563  1
  O  O13  1  0.902053  0.405487  0.422840  1
  O  O14  1  0.405487  0.902053  0.422840  1
  O  O15  1  0.000747  0.000747  0.817750  1
  O  O16  1  0.999422  0.999422  0.182200  1
  O  O17  1  0.499917  0.499917  0.815677  1
  O  O18  1  0.500608  0.500608  0.183519  1
