# generated using pymatgen
data_EuDy2Pa(Co5P3)4
_symmetry_space_group_name_H-M   'P 1'
_cell_length_a   3.67800100
_cell_length_b   10.35027561
_cell_length_c   11.77328401
_cell_angle_alpha   89.92580141
_cell_angle_beta   90.00000000
_cell_angle_gamma   90.00000000
_symmetry_Int_Tables_number   1
_chemical_formula_structural   EuDy2Pa(Co5P3)4
_chemical_formula_sum   'Eu1 Dy2 Pa1 Co20 P12'
_cell_volume   448.18881507
_cell_formula_units_Z   1
loop_
 _symmetry_equiv_pos_site_id
 _symmetry_equiv_pos_as_xyz
  1  'x, y, z'
loop_
 _atom_site_type_symbol
 _atom_site_label
 _atom_site_symmetry_multiplicity
 _atom_site_fract_x
 _atom_site_fract_y
 _atom_site_fract_z
 _atom_site_occupancy
  Eu  Eu0  1  0.250000  0.915679  0.202458  1
  Dy  Dy1  1  0.750000  0.417028  0.299386  1
  Dy  Dy2  1  0.750000  0.083350  0.796982  1
  Pa  Pa3  1  0.250000  0.582399  0.702814  1
  Co  Co4  1  0.250000  0.715218  0.988860  1
  Co  Co5  1  0.250000  0.781918  0.491902  1
  Co  Co6  1  0.750000  0.282735  0.004616  1
  Co  Co7  1  0.750000  0.216429  0.506867  1
  Co  Co8  1  0.250000  0.408035  0.488841  1
  Co  Co9  1  0.250000  0.094221  0.986991  1
  Co  Co10  1  0.750000  0.592922  0.518588  1
  Co  Co11  1  0.750000  0.906408  0.006947  1
  Co  Co12  1  0.250000  0.222325  0.175394  1
  Co  Co13  1  0.250000  0.278732  0.677410  1
  Co  Co14  1  0.750000  0.775405  0.821228  1
  Co  Co15  1  0.750000  0.717696  0.326372  1
  Co  Co16  1  0.250000  0.882692  0.698522  1
  Co  Co17  1  0.250000  0.615921  0.198620  1
  Co  Co18  1  0.750000  0.119904  0.301546  1
  Co  Co19  1  0.750000  0.388069  0.800163  1
  Co  Co20  1  0.250000  0.467350  0.931631  1
  Co  Co21  1  0.250000  0.032711  0.433105  1
  Co  Co22  1  0.750000  0.530156  0.069704  1
  Co  Co23  1  0.750000  0.970535  0.568502  1
  P  P24  1  0.250000  0.418747  0.113513  1
  P  P25  1  0.250000  0.081980  0.612590  1
  P  P26  1  0.750000  0.582655  0.892068  1
  P  P27  1  0.750000  0.919042  0.388628  1
  P  P28  1  0.250000  0.270631  0.870487  1
  P  P29  1  0.250000  0.228098  0.368672  1
  P  P30  1  0.750000  0.727195  0.129839  1
  P  P31  1  0.750000  0.776207  0.629137  1
  P  P32  1  0.250000  0.602432  0.390903  1
  P  P33  1  0.250000  0.899018  0.891482  1
  P  P34  1  0.750000  0.393280  0.607895  1
  P  P35  1  0.750000  0.102880  0.107333  1
