# generated using pymatgen
data_Hf20Fe4(SiAs3)3
_symmetry_space_group_name_H-M   'P 1'
_cell_length_a   3.69715700
_cell_length_b   10.42117201
_cell_length_c   17.42270403
_cell_angle_alpha   89.99385185
_cell_angle_beta   90.00000000
_cell_angle_gamma   90.00000000
_symmetry_Int_Tables_number   1
_chemical_formula_structural   Hf20Fe4(SiAs3)3
_chemical_formula_sum   'Hf20 Fe4 Si3 As9'
_cell_volume   671.27429062
_cell_formula_units_Z   1
loop_
 _symmetry_equiv_pos_site_id
 _symmetry_equiv_pos_as_xyz
  1  'x, y, z'
loop_
 _atom_site_type_symbol
 _atom_site_label
 _atom_site_symmetry_multiplicity
 _atom_site_fract_x
 _atom_site_fract_y
 _atom_site_fract_z
 _atom_site_occupancy
  Hf  Hf0  1  0.250000  0.126255  0.478069  1
  Hf  Hf1  1  0.750000  0.877204  0.522687  1
  Hf  Hf2  1  0.750000  0.626329  0.022337  1
  Hf  Hf3  1  0.250000  0.373396  0.977587  1
  Hf  Hf4  1  0.250000  0.053964  0.075668  1
  Hf  Hf5  1  0.750000  0.946007  0.924498  1
  Hf  Hf6  1  0.750000  0.550244  0.422724  1
  Hf  Hf7  1  0.250000  0.444188  0.575673  1
  Hf  Hf8  1  0.250000  0.477617  0.274336  1
  Hf  Hf9  1  0.750000  0.522154  0.725305  1
  Hf  Hf10  1  0.750000  0.978137  0.225754  1
  Hf  Hf11  1  0.250000  0.022028  0.774579  1
  Hf  Hf12  1  0.250000  0.817328  0.367247  1
  Hf  Hf13  1  0.750000  0.184970  0.630668  1
  Hf  Hf14  1  0.750000  0.315062  0.131020  1
  Hf  Hf15  1  0.250000  0.684916  0.869033  1
  Hf  Hf16  1  0.250000  0.758523  0.164795  1
  Hf  Hf17  1  0.750000  0.241516  0.835164  1
  Hf  Hf18  1  0.750000  0.258445  0.334795  1
  Hf  Hf19  1  0.250000  0.742290  0.666340  1
  Fe  Fe20  1  0.250000  0.370108  0.409296  1
  Fe  Fe21  1  0.750000  0.628387  0.592989  1
  Fe  Fe22  1  0.750000  0.869832  0.090506  1
  Fe  Fe23  1  0.250000  0.130032  0.909718  1
  Si  Si24  1  0.250000  0.813052  0.007464  1
  Si  Si25  1  0.750000  0.186715  0.992607  1
  Si  Si26  1  0.750000  0.312046  0.492580  1
  As  As27  1  0.250000  0.689055  0.506053  1
  As  As28  1  0.250000  0.505768  0.117162  1
  As  As29  1  0.750000  0.494132  0.882813  1
  As  As30  1  0.750000  0.006271  0.382630  1
  As  As31  1  0.250000  0.993631  0.617657  1
  As  As32  1  0.250000  0.183989  0.219353  1
  As  As33  1  0.750000  0.816606  0.781118  1
  As  As34  1  0.750000  0.684162  0.280648  1
  As  As35  1  0.250000  0.315645  0.719127  1
