# generated using pymatgen
data_AcNd3(InCu5)4
_symmetry_space_group_name_H-M   'P 1'
_cell_length_a   5.13871700
_cell_length_b   5.13871771
_cell_length_c   20.17939500
_cell_angle_alpha   90.00000000
_cell_angle_beta   90.00000000
_cell_angle_gamma   120.00000184
_symmetry_Int_Tables_number   1
_chemical_formula_structural   AcNd3(InCu5)4
_chemical_formula_sum   'Ac1 Nd3 In4 Cu20'
_cell_volume   461.47505162
_cell_formula_units_Z   1
loop_
 _symmetry_equiv_pos_site_id
 _symmetry_equiv_pos_as_xyz
  1  'x, y, z'
loop_
 _atom_site_type_symbol
 _atom_site_label
 _atom_site_symmetry_multiplicity
 _atom_site_fract_x
 _atom_site_fract_y
 _atom_site_fract_z
 _atom_site_occupancy
  Ac  Ac0  1  0.000000  0.000000  0.000000  1
  Nd  Nd1  1  0.333333  0.666667  0.750141  1
  Nd  Nd2  1  0.666667  0.333333  0.249859  1
  Nd  Nd3  1  0.000000  0.000000  0.500000  1
  In  In4  1  0.333333  0.666667  0.584457  1
  In  In5  1  0.666667  0.333333  0.415543  1
  In  In6  1  0.666667  0.333333  0.086655  1
  In  In7  1  0.333333  0.666667  0.913345  1
  Cu  Cu8  1  0.333333  0.666667  0.048871  1
  Cu  Cu9  1  0.666667  0.333333  0.951129  1
  Cu  Cu10  1  0.666667  0.333333  0.547983  1
  Cu  Cu11  1  0.333333  0.666667  0.452017  1
  Cu  Cu12  1  0.000000  0.000000  0.250196  1
  Cu  Cu13  1  0.000000  0.000000  0.749804  1
  Cu  Cu14  1  0.333333  0.666667  0.250972  1
  Cu  Cu15  1  0.666667  0.333333  0.749028  1
  Cu  Cu16  1  0.166316  0.332632  0.148966  1
  Cu  Cu17  1  0.833684  0.667368  0.851034  1
  Cu  Cu18  1  0.667368  0.833684  0.148966  1
  Cu  Cu19  1  0.835149  0.670298  0.647653  1
  Cu  Cu20  1  0.332632  0.166316  0.851034  1
  Cu  Cu21  1  0.164851  0.329702  0.352347  1
  Cu  Cu22  1  0.166316  0.833684  0.148966  1
  Cu  Cu23  1  0.329702  0.164851  0.647653  1
  Cu  Cu24  1  0.833684  0.166316  0.851034  1
  Cu  Cu25  1  0.670298  0.835149  0.352347  1
  Cu  Cu26  1  0.835149  0.164851  0.647653  1
  Cu  Cu27  1  0.164851  0.835149  0.352347  1
