# generated using pymatgen
data_NdLu2Ga8Ag3
_symmetry_space_group_name_H-M   'P 1'
_cell_length_a   4.34682819
_cell_length_b   8.36780226
_cell_length_c   8.36780352
_cell_angle_alpha   69.36405821
_cell_angle_beta   74.94563427
_cell_angle_gamma   74.94564217
_symmetry_Int_Tables_number   1
_chemical_formula_structural   NdLu2Ga8Ag3
_chemical_formula_sum   'Nd1 Lu2 Ga8 Ag3'
_cell_volume   270.25534832
_cell_formula_units_Z   1
loop_
 _symmetry_equiv_pos_site_id
 _symmetry_equiv_pos_as_xyz
  1  'x, y, z'
loop_
 _atom_site_type_symbol
 _atom_site_label
 _atom_site_symmetry_multiplicity
 _atom_site_fract_x
 _atom_site_fract_y
 _atom_site_fract_z
 _atom_site_occupancy
  Nd  Nd0  1  0.500000  0.500000  0.500000  1
  Lu  Lu1  1  0.199805  0.800195  0.800195  1
  Lu  Lu2  1  0.800195  0.199805  0.199805  1
  Ga  Ga3  1  0.354990  0.361059  0.928961  1
  Ga  Ga4  1  0.645010  0.638941  0.071039  1
  Ga  Ga5  1  0.354990  0.928961  0.361059  1
  Ga  Ga6  1  0.645010  0.071039  0.638941  1
  Ga  Ga7  1  0.160909  0.471162  0.207021  1
  Ga  Ga8  1  0.839091  0.528838  0.792979  1
  Ga  Ga9  1  0.160909  0.207021  0.471162  1
  Ga  Ga10  1  0.839091  0.792979  0.528838  1
  Ag  Ag11  1  0.500000  0.000000  0.000000  1
  Ag  Ag12  1  0.000000  0.806348  0.193652  1
  Ag  Ag13  1  0.000000  0.193652  0.806348  1
