# generated using pymatgen
data_HoEr3Lu12(Ga3Co)2
_symmetry_space_group_name_H-M   'P 1'
_cell_length_a   9.77464703
_cell_length_b   9.77464823
_cell_length_c   6.82627908
_cell_angle_alpha   89.99038051
_cell_angle_beta   90.00961943
_cell_angle_gamma   119.94696318
_symmetry_Int_Tables_number   1
_chemical_formula_structural   HoEr3Lu12(Ga3Co)2
_chemical_formula_sum   'Ho1 Er3 Lu12 Ga6 Co2'
_cell_volume   565.13048811
_cell_formula_units_Z   1
loop_
 _symmetry_equiv_pos_site_id
 _symmetry_equiv_pos_as_xyz
  1  'x, y, z'
loop_
 _atom_site_type_symbol
 _atom_site_label
 _atom_site_symmetry_multiplicity
 _atom_site_fract_x
 _atom_site_fract_y
 _atom_site_fract_z
 _atom_site_occupancy
  Ho  Ho0  1  0.999949  0.000051  0.731452  1
  Er  Er1  1  0.929097  0.464622  0.708250  1
  Er  Er2  1  0.535378  0.070903  0.708250  1
  Er  Er3  1  0.999949  0.000051  0.231274  1
  Lu  Lu4  1  0.174255  0.825745  0.509694  1
  Lu  Lu5  1  0.651039  0.824709  0.510243  1
  Lu  Lu6  1  0.175291  0.348961  0.510243  1
  Lu  Lu7  1  0.825698  0.174302  0.013480  1
  Lu  Lu8  1  0.348520  0.174855  0.012345  1
  Lu  Lu9  1  0.825145  0.651480  0.012345  1
  Lu  Lu10  1  0.333731  0.666269  0.828255  1
  Lu  Lu11  1  0.666271  0.333729  0.327663  1
  Lu  Lu12  1  0.463553  0.536447  0.206994  1
  Lu  Lu13  1  0.073478  0.536857  0.207551  1
  Lu  Lu14  1  0.463143  0.926522  0.207551  1
  Lu  Lu15  1  0.536051  0.463949  0.707296  1
  Ga  Ga16  1  0.163770  0.836230  0.959758  1
  Ga  Ga17  1  0.672450  0.836512  0.958759  1
  Ga  Ga18  1  0.163488  0.327550  0.958759  1
  Ga  Ga19  1  0.836879  0.163121  0.457734  1
  Ga  Ga20  1  0.327305  0.163763  0.458365  1
  Ga  Ga21  1  0.836237  0.672695  0.458365  1
  Co  Co22  1  0.333518  0.666482  0.444039  1
  Co  Co23  1  0.665806  0.334194  0.945379  1
