# generated using pymatgen
data_Sc4CrCoB12
_symmetry_space_group_name_H-M   'P 1'
_cell_length_a   3.35145200
_cell_length_b   8.84845065
_cell_length_c   11.16712515
_cell_angle_alpha   89.69941314
_cell_angle_beta   90.00000000
_cell_angle_gamma   90.00000000
_symmetry_Int_Tables_number   1
_chemical_formula_structural   Sc4CrCoB12
_chemical_formula_sum   'Sc8 Cr2 Co2 B24'
_cell_volume   331.15829951
_cell_formula_units_Z   2
loop_
 _symmetry_equiv_pos_site_id
 _symmetry_equiv_pos_as_xyz
  1  'x, y, z'
loop_
 _atom_site_type_symbol
 _atom_site_label
 _atom_site_symmetry_multiplicity
 _atom_site_fract_x
 _atom_site_fract_y
 _atom_site_fract_z
 _atom_site_occupancy
  Sc  Sc0  1  0.000000  0.818458  0.086874  1
  Sc  Sc1  1  0.000000  0.181542  0.913126  1
  Sc  Sc2  1  0.000000  0.323829  0.416762  1
  Sc  Sc3  1  0.000000  0.676171  0.583238  1
  Sc  Sc4  1  0.000000  0.444277  0.129131  1
  Sc  Sc5  1  0.000000  0.555723  0.870869  1
  Sc  Sc6  1  0.000000  0.942981  0.371097  1
  Sc  Sc7  1  0.000000  0.057019  0.628903  1
  Cr  Cr8  1  0.000000  0.640760  0.318469  1
  Cr  Cr9  1  0.000000  0.359240  0.681531  1
  Co  Co10  1  0.000000  0.139956  0.179881  1
  Co  Co11  1  0.000000  0.860044  0.820119  1
  B  B12  1  0.500000  0.054250  0.065290  1
  B  B13  1  0.500000  0.945750  0.934710  1
  B  B14  1  0.500000  0.552608  0.434002  1
  B  B15  1  0.500000  0.447392  0.565998  1
  B  B16  1  0.500000  0.250175  0.079925  1
  B  B17  1  0.500000  0.749825  0.920075  1
  B  B18  1  0.500000  0.751047  0.420395  1
  B  B19  1  0.500000  0.248953  0.579605  1
  B  B20  1  0.500000  0.292651  0.235972  1
  B  B21  1  0.500000  0.707349  0.764028  1
  B  B22  1  0.500000  0.795947  0.262828  1
  B  B23  1  0.500000  0.204053  0.737172  1
  B  B24  1  0.500000  0.131183  0.316825  1
  B  B25  1  0.500000  0.868817  0.683175  1
  B  B26  1  0.500000  0.631438  0.182133  1
  B  B27  1  0.500000  0.368562  0.817867  1
  B  B28  1  0.500000  0.479386  0.287528  1
  B  B29  1  0.500000  0.520614  0.712472  1
  B  B30  1  0.500000  0.983105  0.211313  1
  B  B31  1  0.500000  0.016895  0.788687  1
  B  B32  1  0.500000  0.101750  0.471851  1
  B  B33  1  0.500000  0.898250  0.528149  1
  B  B34  1  0.500000  0.602279  0.026937  1
  B  B35  1  0.500000  0.397721  0.973063  1
