# generated using pymatgen
data_Tb9Nd7Cd4NiOs3
_symmetry_space_group_name_H-M   'P 1'
_cell_length_a   9.72154430
_cell_length_b   9.84208249
_cell_length_c   9.83356400
_cell_angle_alpha   60.02862024
_cell_angle_beta   59.61808335
_cell_angle_gamma   59.59578693
_symmetry_Int_Tables_number   1
_chemical_formula_structural   Tb9Nd7Cd4NiOs3
_chemical_formula_sum   'Tb9 Nd7 Cd4 Ni1 Os3'
_cell_volume   661.46209333
_cell_formula_units_Z   1
loop_
 _symmetry_equiv_pos_site_id
 _symmetry_equiv_pos_as_xyz
  1  'x, y, z'
loop_
 _atom_site_type_symbol
 _atom_site_label
 _atom_site_symmetry_multiplicity
 _atom_site_fract_x
 _atom_site_fract_y
 _atom_site_fract_z
 _atom_site_occupancy
  Tb  Tb0  1  0.598594  0.594883  0.594466  1
  Tb  Tb1  1  0.598594  0.594883  0.212057  1
  Tb  Tb2  1  0.596764  0.213163  0.595037  1
  Tb  Tb3  1  0.216701  0.593319  0.594991  1
  Tb  Tb4  1  0.061788  0.439993  0.437721  1
  Tb  Tb5  1  0.438028  0.061503  0.061154  1
  Tb  Tb6  1  0.438028  0.061503  0.439316  1
  Tb  Tb7  1  0.061788  0.439993  0.060498  1
  Tb  Tb8  1  0.436579  0.438713  0.062354  1
  Nd  Nd9  1  0.061271  0.062407  0.438161  1
  Nd  Nd10  1  0.191835  0.806508  0.808660  1
  Nd  Nd11  1  0.803589  0.191133  0.190067  1
  Nd  Nd12  1  0.803589  0.191133  0.815210  1
  Nd  Nd13  1  0.191835  0.806508  0.192995  1
  Nd  Nd14  1  0.803866  0.815600  0.190267  1
  Nd  Nd15  1  0.191705  0.193530  0.807382  1
  Cd  Cd16  1  0.827633  0.828497  0.830816  1
  Cd  Cd17  1  0.827633  0.828497  0.513055  1
  Cd  Cd18  1  0.828215  0.512227  0.829779  1
  Cd  Cd19  1  0.510717  0.829447  0.829918  1
  Ni  Ni20  1  0.828171  0.391781  0.390024  1
  Os  Os21  1  0.393439  0.388177  0.388423  1
  Os  Os22  1  0.393439  0.388177  0.829961  1
  Os  Os23  1  0.396201  0.828427  0.387686  1
