# generated using pymatgen
data_Er2Mn2FeCo9P7
_symmetry_space_group_name_H-M   'P 1'
_cell_length_a   9.02792743
_cell_length_b   9.01541302
_cell_length_c   3.59042100
_cell_angle_alpha   90.00000000
_cell_angle_beta   90.00000000
_cell_angle_gamma   119.90129973
_symmetry_Int_Tables_number   1
_chemical_formula_structural   Er2Mn2FeCo9P7
_chemical_formula_sum   'Er2 Mn2 Fe1 Co9 P7'
_cell_volume   253.32658680
_cell_formula_units_Z   1
loop_
 _symmetry_equiv_pos_site_id
 _symmetry_equiv_pos_as_xyz
  1  'x, y, z'
loop_
 _atom_site_type_symbol
 _atom_site_label
 _atom_site_symmetry_multiplicity
 _atom_site_fract_x
 _atom_site_fract_y
 _atom_site_fract_z
 _atom_site_occupancy
  Er  Er0  1  0.331054  0.663706  0.000000  1
  Er  Er1  1  0.999544  0.000998  0.500000  1
  Mn  Mn2  1  0.768511  0.555095  0.500000  1
  Mn  Mn3  1  0.447232  0.211953  0.500000  1
  Fe  Fe4  1  0.791101  0.238429  0.500000  1
  Co  Co5  1  0.035836  0.272400  0.000000  1
  Co  Co6  1  0.727270  0.764922  0.000000  1
  Co  Co7  1  0.235714  0.963772  0.000000  1
  Co  Co8  1  0.547847  0.055777  0.000000  1
  Co  Co9  1  0.942635  0.492164  0.000000  1
  Co  Co10  1  0.509369  0.449556  0.000000  1
  Co  Co11  1  0.616692  0.897503  0.500000  1
  Co  Co12  1  0.103899  0.719739  0.500000  1
  Co  Co13  1  0.280377  0.384247  0.500000  1
  P  P14  1  0.779516  0.036607  0.000000  1
  P  P15  1  0.966884  0.746931  0.000000  1
  P  P16  1  0.253635  0.221130  0.000000  1
  P  P17  1  0.376762  0.924590  0.500000  1
  P  P18  1  0.067675  0.445739  0.500000  1
  P  P19  1  0.549286  0.623225  0.500000  1
  P  P20  1  0.669162  0.331519  0.000000  1
