# generated using pymatgen
data_Pr3Mg3AgPb2
_symmetry_space_group_name_H-M   'P 1'
_cell_length_a   7.81972900
_cell_length_b   7.81972928
_cell_length_c   4.67663800
_cell_angle_alpha   90.00000000
_cell_angle_beta   90.00000000
_cell_angle_gamma   120.00000304
_symmetry_Int_Tables_number   1
_chemical_formula_structural   Pr3Mg3AgPb2
_chemical_formula_sum   'Pr3 Mg3 Ag1 Pb2'
_cell_volume   247.65539489
_cell_formula_units_Z   1
loop_
 _symmetry_equiv_pos_site_id
 _symmetry_equiv_pos_as_xyz
  1  'x, y, z'
loop_
 _atom_site_type_symbol
 _atom_site_label
 _atom_site_symmetry_multiplicity
 _atom_site_fract_x
 _atom_site_fract_y
 _atom_site_fract_z
 _atom_site_occupancy
  Pr  Pr0  1  0.409197  0.409197  0.500000  1
  Pr  Pr1  1  0.590803  0.000000  0.500000  1
  Pr  Pr2  1  0.000000  0.590803  0.500000  1
  Mg  Mg3  1  0.765141  0.765141  0.000000  1
  Mg  Mg4  1  0.234859  0.000000  0.000000  1
  Mg  Mg5  1  0.000000  0.234859  0.000000  1
  Ag  Ag6  1  0.000000  0.000000  0.500000  1
  Pb  Pb7  1  0.666667  0.333333  0.000000  1
  Pb  Pb8  1  0.333333  0.666667  0.000000  1
