# generated using pymatgen
data_Ba4Li2Al2SiGe3
_symmetry_space_group_name_H-M   'P 1'
_cell_length_a   8.95013704
_cell_length_b   8.96460522
_cell_length_c   8.96460418
_cell_angle_alpha   137.39638660
_cell_angle_beta   137.05240846
_cell_angle_gamma   62.12105643
_symmetry_Int_Tables_number   1
_chemical_formula_structural   Ba4Li2Al2SiGe3
_chemical_formula_sum   'Ba4 Li2 Al2 Si1 Ge3'
_cell_volume   327.75885981
_cell_formula_units_Z   1
loop_
 _symmetry_equiv_pos_site_id
 _symmetry_equiv_pos_as_xyz
  1  'x, y, z'
loop_
 _atom_site_type_symbol
 _atom_site_label
 _atom_site_symmetry_multiplicity
 _atom_site_fract_x
 _atom_site_fract_y
 _atom_site_fract_z
 _atom_site_occupancy
  Ba  Ba0  1  0.098235  0.839081  0.259154  1
  Ba  Ba1  1  0.901988  0.161001  0.740986  1
  Ba  Ba2  1  0.420198  0.660952  0.759247  1
  Ba  Ba3  1  0.579843  0.338789  0.241053  1
  Li  Li4  1  0.499483  0.249570  0.748589  1
  Li  Li5  1  0.499483  0.750894  0.249914  1
  Al  Al6  1  0.002693  0.248689  0.249923  1
  Al  Al7  1  0.002693  0.752770  0.754003  1
  Si  Si8  1  0.325252  0.093886  0.231367  1
  Ge  Ge9  1  0.670047  0.904376  0.765670  1
  Ge  Ge10  1  0.138434  0.404394  0.734039  1
  Ge  Ge11  1  0.861653  0.595598  0.266056  1
