# generated using pymatgen
data_TbY7(BBr6)2
_symmetry_space_group_name_H-M   'P 1'
_cell_length_a   3.97275200
_cell_length_b   13.18710294
_cell_length_c   13.65615200
_cell_angle_alpha   89.93327202
_cell_angle_beta   90.00000000
_cell_angle_gamma   90.00000000
_symmetry_Int_Tables_number   1
_chemical_formula_structural   TbY7(BBr6)2
_chemical_formula_sum   'Tb1 Y7 B2 Br12'
_cell_volume   715.43288542
_cell_formula_units_Z   1
loop_
 _symmetry_equiv_pos_site_id
 _symmetry_equiv_pos_as_xyz
  1  'x, y, z'
loop_
 _atom_site_type_symbol
 _atom_site_label
 _atom_site_symmetry_multiplicity
 _atom_site_fract_x
 _atom_site_fract_y
 _atom_site_fract_z
 _atom_site_occupancy
  Tb  Tb0  1  0.000000  0.397964  0.581072  1
  Y  Y1  1  0.000000  0.102217  0.081055  1
  Y  Y2  1  0.000000  0.897950  0.918756  1
  Y  Y3  1  0.000000  0.602052  0.418872  1
  Y  Y4  1  0.500000  0.123167  0.855284  1
  Y  Y5  1  0.500000  0.877121  0.144430  1
  Y  Y6  1  0.500000  0.622683  0.644250  1
  Y  Y7  1  0.500000  0.377292  0.355758  1
  B  B8  1  0.500000  0.000094  0.999894  1
  B  B9  1  0.500000  0.500074  0.499938  1
  Br  Br10  1  0.500000  0.267683  0.682814  1
  Br  Br11  1  0.500000  0.732160  0.317558  1
  Br  Br12  1  0.500000  0.767770  0.817541  1
  Br  Br13  1  0.500000  0.232090  0.182599  1
  Br  Br14  1  0.000000  0.261281  0.931097  1
  Br  Br15  1  0.000000  0.738863  0.068770  1
  Br  Br16  1  0.000000  0.480760  0.239246  1
  Br  Br17  1  0.000000  0.518726  0.760840  1
  Br  Br18  1  0.000000  0.980663  0.260765  1
  Br  Br19  1  0.000000  0.019552  0.739076  1
  Br  Br20  1  0.000000  0.238776  0.431793  1
  Br  Br21  1  0.000000  0.761063  0.568593  1
