# generated using pymatgen
data_Ta7Al(TcOs)4
_symmetry_space_group_name_H-M   'P 1'
_cell_length_a   6.35236200
_cell_length_b   4.48032600
_cell_length_c   8.98171600
_cell_angle_alpha   90.00000000
_cell_angle_beta   89.99976154
_cell_angle_gamma   90.00000000
_symmetry_Int_Tables_number   1
_chemical_formula_structural   Ta7Al(TcOs)4
_chemical_formula_sum   'Ta7 Al1 Tc4 Os4'
_cell_volume   255.62549910
_cell_formula_units_Z   1
loop_
 _symmetry_equiv_pos_site_id
 _symmetry_equiv_pos_as_xyz
  1  'x, y, z'
loop_
 _atom_site_type_symbol
 _atom_site_label
 _atom_site_symmetry_multiplicity
 _atom_site_fract_x
 _atom_site_fract_y
 _atom_site_fract_z
 _atom_site_occupancy
  Ta  Ta0  1  0.000415  0.749999  0.124993  1
  Ta  Ta1  1  0.500132  0.250000  0.369017  1
  Ta  Ta2  1  0.000008  0.250000  0.373760  1
  Ta  Ta3  1  0.998707  0.749999  0.624994  1
  Ta  Ta4  1  0.498791  0.749999  0.624995  1
  Ta  Ta5  1  0.000008  0.250000  0.876252  1
  Ta  Ta6  1  0.500132  0.250000  0.880970  1
  Al  Al7  1  0.500381  0.749999  0.125018  1
  Tc  Tc8  1  0.749481  0.250000  0.124998  1
  Tc  Tc9  1  0.250999  0.749999  0.374446  1
  Tc  Tc10  1  0.749145  0.250000  0.624999  1
  Tc  Tc11  1  0.251008  0.749999  0.875561  1
  Os  Os12  1  0.252606  0.250000  0.124993  1
  Os  Os13  1  0.748661  0.749999  0.374043  1
  Os  Os14  1  0.250859  0.250000  0.624995  1
  Os  Os15  1  0.748667  0.749999  0.875967  1
