# generated using pymatgen
data_Pr4CuRu7
_symmetry_space_group_name_H-M   'P 1'
_cell_length_a   5.43951832
_cell_length_b   5.27801540
_cell_length_c   9.07374800
_cell_angle_alpha   90.00000000
_cell_angle_beta   90.00000000
_cell_angle_gamma   119.02262197
_symmetry_Int_Tables_number   1
_chemical_formula_structural   Pr4CuRu7
_chemical_formula_sum   'Pr4 Cu1 Ru7'
_cell_volume   227.79384055
_cell_formula_units_Z   1
loop_
 _symmetry_equiv_pos_site_id
 _symmetry_equiv_pos_as_xyz
  1  'x, y, z'
loop_
 _atom_site_type_symbol
 _atom_site_label
 _atom_site_symmetry_multiplicity
 _atom_site_fract_x
 _atom_site_fract_y
 _atom_site_fract_z
 _atom_site_occupancy
  Pr  Pr0  1  0.341577  0.670790  0.434882  1
  Pr  Pr1  1  0.673923  0.336961  0.565070  1
  Pr  Pr2  1  0.673923  0.336961  0.934930  1
  Pr  Pr3  1  0.341577  0.670790  0.065118  1
  Cu  Cu4  1  0.658168  0.829084  0.750000  1
  Ru  Ru5  1  0.022024  0.011012  0.498557  1
  Ru  Ru6  1  0.022024  0.011012  0.001443  1
  Ru  Ru7  1  0.827398  0.176701  0.250000  1
  Ru  Ru8  1  0.827398  0.650697  0.250000  1
  Ru  Ru9  1  0.306446  0.153224  0.250000  1
  Ru  Ru10  1  0.152771  0.824826  0.750000  1
  Ru  Ru11  1  0.152771  0.327945  0.750000  1
