# generated using pymatgen
data_La3Y9Tc3Pt
_symmetry_space_group_name_H-M   'P 1'
_cell_length_a   6.52435088
_cell_length_b   7.39776787
_cell_length_c   9.43707800
_cell_angle_alpha   90.00000000
_cell_angle_beta   90.00000000
_cell_angle_gamma   89.84585153
_symmetry_Int_Tables_number   1
_chemical_formula_structural   La3Y9Tc3Pt
_chemical_formula_sum   'La3 Y9 Tc3 Pt1'
_cell_volume   455.48489752
_cell_formula_units_Z   1
loop_
 _symmetry_equiv_pos_site_id
 _symmetry_equiv_pos_as_xyz
  1  'x, y, z'
loop_
 _atom_site_type_symbol
 _atom_site_label
 _atom_site_symmetry_multiplicity
 _atom_site_fract_x
 _atom_site_fract_y
 _atom_site_fract_z
 _atom_site_occupancy
  La  La0  1  0.128720  0.051583  0.250000  1
  La  La1  1  0.626228  0.442114  0.750000  1
  La  La2  1  0.370878  0.554753  0.250000  1
  Y  Y3  1  0.870020  0.962597  0.750000  1
  Y  Y4  1  0.667767  0.173581  0.065621  1
  Y  Y5  1  0.163532  0.320451  0.938756  1
  Y  Y6  1  0.828174  0.676821  0.432520  1
  Y  Y7  1  0.335294  0.828975  0.565511  1
  Y  Y8  1  0.335294  0.828975  0.934489  1
  Y  Y9  1  0.828174  0.676821  0.067480  1
  Y  Y10  1  0.163532  0.320451  0.561244  1
  Y  Y11  1  0.667767  0.173581  0.434379  1
  Tc  Tc12  1  0.974461  0.373995  0.250000  1
  Tc  Tc13  1  0.466811  0.125514  0.750000  1
  Tc  Tc14  1  0.521522  0.873518  0.250000  1
  Pt  Pt15  1  0.051825  0.616268  0.750000  1
