# generated using pymatgen
data_Zr6Zn12Cu11Si
_symmetry_space_group_name_H-M   'P 1'
_cell_length_a   8.59710231
_cell_length_b   8.58747856
_cell_length_c   8.54748200
_cell_angle_alpha   60.15395109
_cell_angle_beta   60.19074495
_cell_angle_gamma   60.16116496
_symmetry_Int_Tables_number   1
_chemical_formula_structural   Zr6Zn12Cu11Si
_chemical_formula_sum   'Zr6 Zn12 Cu11 Si1'
_cell_volume   447.91566610
_cell_formula_units_Z   1
loop_
 _symmetry_equiv_pos_site_id
 _symmetry_equiv_pos_as_xyz
  1  'x, y, z'
loop_
 _atom_site_type_symbol
 _atom_site_label
 _atom_site_symmetry_multiplicity
 _atom_site_fract_x
 _atom_site_fract_y
 _atom_site_fract_z
 _atom_site_occupancy
  Zr  Zr0  1  0.720313  0.279396  0.289214  1
  Zr  Zr1  1  0.274998  0.720557  0.719265  1
  Zr  Zr2  1  0.274998  0.720557  0.285180  1
  Zr  Zr3  1  0.720313  0.279396  0.711078  1
  Zr  Zr4  1  0.285633  0.284267  0.715050  1
  Zr  Zr5  1  0.724825  0.715154  0.280011  1
  Zn  Zn6  1  0.880985  0.365978  0.876518  1
  Zn  Zn7  1  0.630494  0.121728  0.123889  1
  Zn  Zn8  1  0.370478  0.877434  0.876043  1
  Zn  Zn9  1  0.331601  0.337390  0.335800  1
  Zn  Zn10  1  0.664416  0.665543  0.660428  1
  Zn  Zn11  1  0.331601  0.337390  0.995210  1
  Zn  Zn12  1  0.331429  0.994725  0.336924  1
  Zn  Zn13  1  0.664416  0.665543  0.009612  1
  Zn  Zn14  1  0.670923  0.997912  0.665582  1
  Zn  Zn15  1  0.005797  0.331317  0.331443  1
  Zn  Zn16  1  0.997941  0.671888  0.665085  1
  Zn  Zn17  1  0.002717  0.991341  0.002971  1
  Cu  Cu18  1  0.121050  0.122642  0.121676  1
  Cu  Cu19  1  0.877465  0.877966  0.877865  1
  Cu  Cu20  1  0.121050  0.122642  0.634632  1
  Cu  Cu21  1  0.122948  0.629487  0.123783  1
  Cu  Cu22  1  0.877465  0.877966  0.366703  1
  Cu  Cu23  1  0.498799  0.001813  0.999799  1
  Cu  Cu24  1  0.998938  0.500420  0.501562  1
  Cu  Cu25  1  0.998938  0.500420  0.999081  1
  Cu  Cu26  1  0.498799  0.001813  0.499590  1
  Cu  Cu27  1  0.999687  0.002072  0.499120  1
  Cu  Cu28  1  0.502430  0.499251  0.999159  1
  Si  Si29  1  0.498548  0.505995  0.497729  1
