# generated using pymatgen
data_CeNd5Ho10(CdRu)4
_symmetry_space_group_name_H-M   'P 1'
_cell_length_a   9.75449602
_cell_length_b   9.75412321
_cell_length_c   9.75411158
_cell_angle_alpha   59.16981490
_cell_angle_beta   59.13230674
_cell_angle_gamma   59.13238382
_symmetry_Int_Tables_number   1
_chemical_formula_structural   CeNd5Ho10(CdRu)4
_chemical_formula_sum   'Ce1 Nd5 Ho10 Cd4 Ru4'
_cell_volume   643.45419475
_cell_formula_units_Z   1
loop_
 _symmetry_equiv_pos_site_id
 _symmetry_equiv_pos_as_xyz
  1  'x, y, z'
loop_
 _atom_site_type_symbol
 _atom_site_label
 _atom_site_symmetry_multiplicity
 _atom_site_fract_x
 _atom_site_fract_y
 _atom_site_fract_z
 _atom_site_occupancy
  Ce  Ce0  1  0.342407  0.340023  0.340042  1
  Nd  Nd1  1  0.562148  0.559407  0.937854  1
  Nd  Nd2  1  0.940839  0.558608  0.938612  1
  Nd  Nd3  1  0.558060  0.941733  0.941738  1
  Nd  Nd4  1  0.940838  0.938625  0.558609  1
  Nd  Nd5  1  0.562154  0.937848  0.559419  1
  Ho  Ho6  1  0.942669  0.556269  0.556263  1
  Ho  Ho7  1  0.186167  0.189226  0.813906  1
  Ho  Ho8  1  0.813519  0.187698  0.812945  1
  Ho  Ho9  1  0.185114  0.814758  0.814763  1
  Ho  Ho10  1  0.813521  0.812945  0.187698  1
  Ho  Ho11  1  0.186166  0.813909  0.189229  1
  Ho  Ho12  1  0.814670  0.187155  0.187156  1
  Ho  Ho13  1  0.344409  0.346740  0.960795  1
  Ho  Ho14  1  0.344411  0.960794  0.346741  1
  Ho  Ho15  1  0.959404  0.345946  0.345939  1
  Cd  Cd16  1  0.578640  0.578907  0.262009  1
  Cd  Cd17  1  0.578637  0.262016  0.578901  1
  Cd  Cd18  1  0.260832  0.577846  0.577841  1
  Cd  Cd19  1  0.580169  0.578121  0.578111  1
  Ru  Ru20  1  0.144282  0.150227  0.575801  1
  Ru  Ru21  1  0.144287  0.575805  0.150244  1
  Ru  Ru22  1  0.575822  0.145676  0.145666  1
  Ru  Ru23  1  0.140836  0.139719  0.139716  1
