# generated using pymatgen
data_HfSc(ReW)2
_symmetry_space_group_name_H-M   'P 1'
_cell_length_a   5.34261727
_cell_length_b   5.35388288
_cell_length_c   8.71865198
_cell_angle_alpha   90.07739758
_cell_angle_beta   89.96122356
_cell_angle_gamma   120.06977844
_symmetry_Int_Tables_number   1
_chemical_formula_structural   HfSc(ReW)2
_chemical_formula_sum   'Hf2 Sc2 Re4 W4'
_cell_volume   215.82249621
_cell_formula_units_Z   2
loop_
 _symmetry_equiv_pos_site_id
 _symmetry_equiv_pos_as_xyz
  1  'x, y, z'
loop_
 _atom_site_type_symbol
 _atom_site_label
 _atom_site_symmetry_multiplicity
 _atom_site_fract_x
 _atom_site_fract_y
 _atom_site_fract_z
 _atom_site_occupancy
  Hf  Hf0  1  0.666647  0.333186  0.938462  1
  Hf  Hf1  1  0.333353  0.666540  0.438462  1
  Sc  Sc2  1  0.333330  0.666536  0.061973  1
  Sc  Sc3  1  0.666670  0.333206  0.561973  1
  Re  Re4  1  0.657548  0.826538  0.749964  1
  Re  Re5  1  0.342452  0.168989  0.249964  1
  Re  Re6  1  0.827446  0.168807  0.249871  1
  Re  Re7  1  0.172554  0.341361  0.749871  1
  W  W8  1  0.000434  0.004856  0.000010  1
  W  W9  1  0.999566  0.004421  0.500010  1
  W  W10  1  0.828967  0.657263  0.249719  1
  W  W11  1  0.171033  0.828296  0.749719  1
