# generated using pymatgen
data_TaNbAl3Cu
_symmetry_space_group_name_H-M   'P 1'
_cell_length_a   4.97252213
_cell_length_b   4.97252336
_cell_length_c   4.97252395
_cell_angle_alpha   62.30049424
_cell_angle_beta   62.30048884
_cell_angle_gamma   62.30049373
_symmetry_Int_Tables_number   1
_chemical_formula_structural   TaNbAl3Cu
_chemical_formula_sum   'Ta1 Nb1 Al3 Cu1'
_cell_volume   91.40290415
_cell_formula_units_Z   1
loop_
 _symmetry_equiv_pos_site_id
 _symmetry_equiv_pos_as_xyz
  1  'x, y, z'
loop_
 _atom_site_type_symbol
 _atom_site_label
 _atom_site_symmetry_multiplicity
 _atom_site_fract_x
 _atom_site_fract_y
 _atom_site_fract_z
 _atom_site_occupancy
  Ta  Ta0  1  0.879037  0.879037  0.879037  1
  Nb  Nb1  1  0.120734  0.120734  0.120734  1
  Al  Al2  1  0.999809  0.500132  0.500132  1
  Al  Al3  1  0.500132  0.500132  0.999809  1
  Al  Al4  1  0.500132  0.999809  0.500132  1
  Cu  Cu5  1  0.500155  0.500155  0.500155  1
