# generated using pymatgen
data_Y3Ho13CdHg3Pt4
_symmetry_space_group_name_H-M   'P 1'
_cell_length_a   9.62798850
_cell_length_b   9.63857659
_cell_length_c   9.65136453
_cell_angle_alpha   60.05231802
_cell_angle_beta   60.00419335
_cell_angle_gamma   59.92173931
_symmetry_Int_Tables_number   1
_chemical_formula_structural   Y3Ho13CdHg3Pt4
_chemical_formula_sum   'Y3 Ho13 Cd1 Hg3 Pt4'
_cell_volume   633.21273234
_cell_formula_units_Z   1
loop_
 _symmetry_equiv_pos_site_id
 _symmetry_equiv_pos_as_xyz
  1  'x, y, z'
loop_
 _atom_site_type_symbol
 _atom_site_label
 _atom_site_symmetry_multiplicity
 _atom_site_fract_x
 _atom_site_fract_y
 _atom_site_fract_z
 _atom_site_occupancy
  Y  Y0  1  0.936273  0.563099  0.937450  1
  Y  Y1  1  0.562604  0.564925  0.936451  1
  Y  Y2  1  0.935060  0.936151  0.563699  1
  Ho  Ho3  1  0.354041  0.351583  0.353815  1
  Ho  Ho4  1  0.356805  0.353647  0.935573  1
  Ho  Ho5  1  0.354440  0.940578  0.353425  1
  Ho  Ho6  1  0.932889  0.355144  0.357098  1
  Ho  Ho7  1  0.810422  0.189799  0.189974  1
  Ho  Ho8  1  0.188546  0.810562  0.811367  1
  Ho  Ho9  1  0.189218  0.810242  0.190304  1
  Ho  Ho10  1  0.810498  0.189286  0.810912  1
  Ho  Ho11  1  0.188536  0.189588  0.811363  1
  Ho  Ho12  1  0.810440  0.809810  0.189943  1
  Ho  Ho13  1  0.935501  0.564222  0.563002  1
  Ho  Ho14  1  0.561970  0.936756  0.937214  1
  Ho  Ho15  1  0.563679  0.935987  0.564423  1
  Cd  Cd16  1  0.256090  0.581672  0.580222  1
  Hg  Hg17  1  0.584934  0.587905  0.586433  1
  Hg  Hg18  1  0.584379  0.587799  0.240519  1
  Hg  Hg19  1  0.584447  0.240742  0.586913  1
  Pt  Pt20  1  0.143523  0.145056  0.143678  1
  Pt  Pt21  1  0.142744  0.144123  0.569283  1
  Pt  Pt22  1  0.143309  0.567737  0.143900  1
  Pt  Pt23  1  0.569651  0.143583  0.143038  1
