# generated using pymatgen
data_PrTh3Al3(Ga5Ir2)3
_symmetry_space_group_name_H-M   'P 1'
_cell_length_a   7.71213703
_cell_length_b   7.71400650
_cell_length_c   9.51441611
_cell_angle_alpha   89.95982128
_cell_angle_beta   89.96406623
_cell_angle_gamma   119.77616604
_symmetry_Int_Tables_number   1
_chemical_formula_structural   PrTh3Al3(Ga5Ir2)3
_chemical_formula_sum   'Pr1 Th3 Al3 Ga15 Ir6'
_cell_volume   491.29491454
_cell_formula_units_Z   1
loop_
 _symmetry_equiv_pos_site_id
 _symmetry_equiv_pos_as_xyz
  1  'x, y, z'
loop_
 _atom_site_type_symbol
 _atom_site_label
 _atom_site_symmetry_multiplicity
 _atom_site_fract_x
 _atom_site_fract_y
 _atom_site_fract_z
 _atom_site_occupancy
  Pr  Pr0  1  0.329979  0.003188  0.749072  1
  Th  Th1  1  0.998221  0.670711  0.250050  1
  Th  Th2  1  0.001854  0.330819  0.748858  1
  Th  Th3  1  0.669930  0.997782  0.250014  1
  Al  Al4  1  0.661394  0.661439  0.450134  1
  Al  Al5  1  0.664388  0.664388  0.050367  1
  Al  Al6  1  0.335226  0.333349  0.949238  1
  Ga  Ga7  1  0.133825  0.132592  0.249660  1
  Ga  Ga8  1  0.869830  0.869596  0.749645  1
  Ga  Ga9  1  0.004318  0.335265  0.078315  1
  Ga  Ga10  1  0.998862  0.667814  0.920990  1
  Ga  Ga11  1  0.998265  0.667898  0.578745  1
  Ga  Ga12  1  0.335413  0.004616  0.422458  1
  Ga  Ga13  1  0.005319  0.335461  0.419945  1
  Ga  Ga14  1  0.661984  0.995383  0.578812  1
  Ga  Ga15  1  0.662227  0.996139  0.920918  1
  Ga  Ga16  1  0.335199  0.003613  0.075739  1
  Ga  Ga17  1  0.333826  0.331484  0.561511  1
  Ga  Ga18  1  0.348621  0.547502  0.249964  1
  Ga  Ga19  1  0.654593  0.451441  0.750248  1
  Ga  Ga20  1  0.547689  0.347370  0.249949  1
  Ga  Ga21  1  0.452856  0.656121  0.750170  1
  Ir  Ir22  1  0.671648  0.331813  0.001312  1
  Ir  Ir23  1  0.329595  0.666937  0.001274  1
  Ir  Ir24  1  0.329345  0.670360  0.497532  1
  Ir  Ir25  1  0.675161  0.331734  0.497521  1
  Ir  Ir26  1  0.997507  0.999807  0.001842  1
  Ir  Ir27  1  0.992926  0.995380  0.495713  1
