# generated using pymatgen
data_NpHgO3F2
_symmetry_space_group_name_H-M   'P 1'
_cell_length_a   4.13304900
_cell_length_b   11.12963600
_cell_length_c   5.96901100
_cell_angle_alpha   90.00000000
_cell_angle_beta   109.98936361
_cell_angle_gamma   90.00000000
_symmetry_Int_Tables_number   1
_chemical_formula_structural   NpHgO3F2
_chemical_formula_sum   'Np2 Hg2 O6 F4'
_cell_volume   258.02931326
_cell_formula_units_Z   2
loop_
 _symmetry_equiv_pos_site_id
 _symmetry_equiv_pos_as_xyz
  1  'x, y, z'
loop_
 _atom_site_type_symbol
 _atom_site_label
 _atom_site_symmetry_multiplicity
 _atom_site_fract_x
 _atom_site_fract_y
 _atom_site_fract_z
 _atom_site_occupancy
  Np  Np0  1  0.736083  0.250000  0.487864  1
  Np  Np1  1  0.263915  0.750000  0.512135  1
  Hg  Hg2  1  0.000000  0.000000  0.000000  1
  Hg  Hg3  1  0.000000  0.500000  0.000000  1
  O  O4  1  0.147508  0.620630  0.272990  1
  O  O5  1  0.147508  0.879370  0.272990  1
  O  O6  1  0.228987  0.250000  0.473288  1
  O  O7  1  0.771010  0.750000  0.526711  1
  O  O8  1  0.852493  0.120630  0.727012  1
  O  O9  1  0.852493  0.379370  0.727012  1
  F  F10  1  0.598611  0.118885  0.210208  1
  F  F11  1  0.598611  0.381115  0.210208  1
  F  F12  1  0.401390  0.618885  0.789793  1
  F  F13  1  0.401390  0.881115  0.789793  1
