# generated using pymatgen
data_HfZr3Fe2(P2Pd)2
_symmetry_space_group_name_H-M   'P 1'
_cell_length_a   3.75286700
_cell_length_b   6.49019403
_cell_length_c   7.37070387
_cell_angle_alpha   87.84339864
_cell_angle_beta   90.00000000
_cell_angle_gamma   90.00000000
_symmetry_Int_Tables_number   1
_chemical_formula_structural   HfZr3Fe2(P2Pd)2
_chemical_formula_sum   'Hf1 Zr3 Fe2 P4 Pd2'
_cell_volume   179.39986023
_cell_formula_units_Z   1
loop_
 _symmetry_equiv_pos_site_id
 _symmetry_equiv_pos_as_xyz
  1  'x, y, z'
loop_
 _atom_site_type_symbol
 _atom_site_label
 _atom_site_symmetry_multiplicity
 _atom_site_fract_x
 _atom_site_fract_y
 _atom_site_fract_z
 _atom_site_occupancy
  Hf  Hf0  1  0.250000  0.526109  0.692003  1
  Zr  Zr1  1  0.750000  0.474220  0.309869  1
  Zr  Zr2  1  0.250000  0.022395  0.827861  1
  Zr  Zr3  1  0.750000  0.977452  0.171948  1
  Fe  Fe4  1  0.750000  0.366202  0.941935  1
  Fe  Fe5  1  0.250000  0.634093  0.054377  1
  P  P6  1  0.250000  0.282782  0.096432  1
  P  P7  1  0.750000  0.716979  0.902517  1
  P  P8  1  0.250000  0.749329  0.355642  1
  P  P9  1  0.750000  0.253765  0.645135  1
  Pd  Pd10  1  0.750000  0.846473  0.565813  1
  Pd  Pd11  1  0.250000  0.150201  0.436467  1
