# generated using pymatgen
data_Ca5ZnHgPt
_symmetry_space_group_name_H-M   'P 1'
_cell_length_a   9.32259208
_cell_length_b   9.32259225
_cell_length_c   9.32259400
_cell_angle_alpha   129.72432828
_cell_angle_beta   129.66319507
_cell_angle_gamma   73.89682371
_symmetry_Int_Tables_number   1
_chemical_formula_structural   Ca5ZnHgPt
_chemical_formula_sum   'Ca10 Zn2 Hg2 Pt2'
_cell_volume   467.91838994
_cell_formula_units_Z   2
loop_
 _symmetry_equiv_pos_site_id
 _symmetry_equiv_pos_as_xyz
  1  'x, y, z'
loop_
 _atom_site_type_symbol
 _atom_site_label
 _atom_site_symmetry_multiplicity
 _atom_site_fract_x
 _atom_site_fract_y
 _atom_site_fract_z
 _atom_site_occupancy
  Ca  Ca0  1  0.006151  0.012067  0.018218  1
  Ca  Ca1  1  0.506152  0.487932  0.994083  1
  Ca  Ca2  1  0.808687  0.315182  0.845364  1
  Ca  Ca3  1  0.308681  0.463323  0.493506  1
  Ca  Ca4  1  0.970865  0.804733  0.492473  1
  Ca  Ca5  1  0.687740  0.521607  0.492473  1
  Ca  Ca6  1  0.030183  0.184825  0.493506  1
  Ca  Ca7  1  0.530181  0.036677  0.845364  1
  Ca  Ca8  1  0.187738  0.695259  0.166127  1
  Ca  Ca9  1  0.470868  0.978390  0.166127  1
  Zn  Zn10  1  0.615784  0.882319  0.498102  1
  Zn  Zn11  1  0.115797  0.617687  0.733481  1
  Hg  Hg12  1  0.247810  0.249998  0.997809  1
  Hg  Hg13  1  0.747811  0.749999  0.997809  1
  Pt  Pt14  1  0.882778  0.382955  0.265734  1
  Pt  Pt15  1  0.382776  0.117047  0.499823  1
