# generated using pymatgen
data_Dy10SnBi5Cl2
_symmetry_space_group_name_H-M   'P 1'
_cell_length_a   9.22657733
_cell_length_b   9.22657864
_cell_length_c   6.49803100
_cell_angle_alpha   90.00000000
_cell_angle_beta   90.00000000
_cell_angle_gamma   119.66271646
_symmetry_Int_Tables_number   1
_chemical_formula_structural   Dy10SnBi5Cl2
_chemical_formula_sum   'Dy10 Sn1 Bi5 Cl2'
_cell_volume   480.68408926
_cell_formula_units_Z   1
loop_
 _symmetry_equiv_pos_site_id
 _symmetry_equiv_pos_as_xyz
  1  'x, y, z'
loop_
 _atom_site_type_symbol
 _atom_site_label
 _atom_site_symmetry_multiplicity
 _atom_site_fract_x
 _atom_site_fract_y
 _atom_site_fract_z
 _atom_site_occupancy
  Dy  Dy0  1  0.664281  0.334369  0.001546  1
  Dy  Dy1  1  0.334369  0.664281  0.498454  1
  Dy  Dy2  1  0.664281  0.334369  0.498454  1
  Dy  Dy3  1  0.334369  0.664281  0.001546  1
  Dy  Dy4  1  0.733973  0.000177  0.750000  1
  Dy  Dy5  1  0.729393  0.729393  0.250000  1
  Dy  Dy6  1  0.004825  0.267421  0.250000  1
  Dy  Dy7  1  0.000177  0.733973  0.750000  1
  Dy  Dy8  1  0.268331  0.268331  0.750000  1
  Dy  Dy9  1  0.267421  0.004825  0.250000  1
  Sn  Sn10  1  0.387750  0.387750  0.250000  1
  Bi  Bi11  1  0.612252  0.612252  0.750000  1
  Bi  Bi12  1  0.001082  0.614091  0.250000  1
  Bi  Bi13  1  0.614091  0.001082  0.250000  1
  Bi  Bi14  1  0.387034  0.999430  0.750000  1
  Bi  Bi15  1  0.999430  0.387034  0.750000  1
  Cl  Cl16  1  0.998470  0.998470  0.500650  1
  Cl  Cl17  1  0.998470  0.998470  0.999350  1
