# generated using pymatgen
data_Er2LuIn3Cu2Hg
_symmetry_space_group_name_H-M   'P 1'
_cell_length_a   7.60948061
_cell_length_b   7.62216296
_cell_length_c   3.91392000
_cell_angle_alpha   90.00000000
_cell_angle_beta   90.00000000
_cell_angle_gamma   120.05647418
_symmetry_Int_Tables_number   1
_chemical_formula_structural   Er2LuIn3Cu2Hg
_chemical_formula_sum   'Er2 Lu1 In3 Cu2 Hg1'
_cell_volume   196.48454462
_cell_formula_units_Z   1
loop_
 _symmetry_equiv_pos_site_id
 _symmetry_equiv_pos_as_xyz
  1  'x, y, z'
loop_
 _atom_site_type_symbol
 _atom_site_label
 _atom_site_symmetry_multiplicity
 _atom_site_fract_x
 _atom_site_fract_y
 _atom_site_fract_z
 _atom_site_occupancy
  Er  Er0  1  0.413504  0.397236  0.500000  1
  Er  Er1  1  0.603085  0.016346  0.500000  1
  Lu  Lu2  1  0.982503  0.586591  0.500000  1
  In  In3  1  0.754744  0.743176  0.000000  1
  In  In4  1  0.989774  0.245764  0.000000  1
  In  In5  1  0.255910  0.010051  0.000000  1
  Cu  Cu6  1  0.000020  0.999150  0.500000  1
  Cu  Cu7  1  0.669506  0.335415  0.000000  1
  Hg  Hg8  1  0.330956  0.666270  0.000000  1
