# generated using pymatgen
data_Sm(TaBr3)6
_symmetry_space_group_name_H-M   'P 1'
_cell_length_a   10.74815997
_cell_length_b   10.74815984
_cell_length_c   10.74815910
_cell_angle_alpha   55.99165291
_cell_angle_beta   55.99165889
_cell_angle_gamma   55.99165824
_symmetry_Int_Tables_number   1
_chemical_formula_structural   Sm(TaBr3)6
_chemical_formula_sum   'Sm1 Ta6 Br18'
_cell_volume   796.45130523
_cell_formula_units_Z   1
loop_
 _symmetry_equiv_pos_site_id
 _symmetry_equiv_pos_as_xyz
  1  'x, y, z'
loop_
 _atom_site_type_symbol
 _atom_site_label
 _atom_site_symmetry_multiplicity
 _atom_site_fract_x
 _atom_site_fract_y
 _atom_site_fract_z
 _atom_site_occupancy
  Sm  Sm0  1  0.000000  0.000000  0.000000  1
  Ta  Ta1  1  0.414099  0.310658  0.641328  1
  Ta  Ta2  1  0.358672  0.585901  0.689342  1
  Ta  Ta3  1  0.689342  0.358672  0.585901  1
  Ta  Ta4  1  0.310658  0.641328  0.414099  1
  Ta  Ta5  1  0.641328  0.414099  0.310658  1
  Ta  Ta6  1  0.585901  0.689342  0.358672  1
  Br  Br7  1  0.568786  0.163664  0.441028  1
  Br  Br8  1  0.224825  0.370867  0.905899  1
  Br  Br9  1  0.905899  0.224825  0.370867  1
  Br  Br10  1  0.370867  0.905899  0.224825  1
  Br  Br11  1  0.775175  0.629133  0.094101  1
  Br  Br12  1  0.094101  0.775175  0.629133  1
  Br  Br13  1  0.695977  0.956934  0.164294  1
  Br  Br14  1  0.956934  0.164294  0.695977  1
  Br  Br15  1  0.164294  0.695977  0.956934  1
  Br  Br16  1  0.304023  0.043066  0.835706  1
  Br  Br17  1  0.043066  0.835706  0.304023  1
  Br  Br18  1  0.835706  0.304023  0.043066  1
  Br  Br19  1  0.558972  0.431214  0.836336  1
  Br  Br20  1  0.163664  0.441028  0.568786  1
  Br  Br21  1  0.441028  0.568786  0.163664  1
  Br  Br22  1  0.431214  0.836336  0.558972  1
  Br  Br23  1  0.836336  0.558972  0.431214  1
  Br  Br24  1  0.629133  0.094101  0.775175  1
