# generated using pymatgen
data_Dy4Y4Sc12Si15Ge
_symmetry_space_group_name_H-M   'P 1'
_cell_length_a   7.10965250
_cell_length_b   7.39284500
_cell_length_c   14.01366334
_cell_angle_alpha   90.00755358
_cell_angle_beta   89.88923769
_cell_angle_gamma   90.03130498
_symmetry_Int_Tables_number   1
_chemical_formula_structural   Dy4Y4Sc12Si15Ge
_chemical_formula_sum   'Dy4 Y4 Sc12 Si15 Ge1'
_cell_volume   736.56448504
_cell_formula_units_Z   1
loop_
 _symmetry_equiv_pos_site_id
 _symmetry_equiv_pos_as_xyz
  1  'x, y, z'
loop_
 _atom_site_type_symbol
 _atom_site_label
 _atom_site_symmetry_multiplicity
 _atom_site_fract_x
 _atom_site_fract_y
 _atom_site_fract_z
 _atom_site_occupancy
  Dy  Dy0  1  0.512110  0.324767  0.097128  1
  Dy  Dy1  1  0.011248  0.174677  0.402435  1
  Dy  Dy2  1  0.512757  0.323859  0.402319  1
  Dy  Dy3  1  0.490218  0.676610  0.597396  1
  Y  Y4  1  0.012169  0.175175  0.096914  1
  Y  Y5  1  0.987952  0.824881  0.903058  1
  Y  Y6  1  0.488181  0.675199  0.903037  1
  Y  Y7  1  0.987348  0.825891  0.597045  1
  Sc  Sc8  1  0.160576  0.502105  0.751201  1
  Sc  Sc9  1  0.839150  0.497932  0.250038  1
  Sc  Sc10  1  0.339395  0.002098  0.250006  1
  Sc  Sc11  1  0.660603  0.997922  0.750019  1
  Sc  Sc12  1  0.332536  0.174416  0.626027  1
  Sc  Sc13  1  0.668650  0.823716  0.374496  1
  Sc  Sc14  1  0.168285  0.677368  0.374239  1
  Sc  Sc15  1  0.669103  0.823151  0.125291  1
  Sc  Sc16  1  0.829665  0.323291  0.625298  1
  Sc  Sc17  1  0.330995  0.176582  0.874722  1
  Sc  Sc18  1  0.830899  0.323180  0.874670  1
  Sc  Sc19  1  0.169019  0.676790  0.125301  1
  Si  Si20  1  0.033487  0.117952  0.750023  1
  Si  Si21  1  0.966471  0.882705  0.249793  1
  Si  Si22  1  0.466346  0.617563  0.249894  1
  Si  Si23  1  0.533108  0.382624  0.750002  1
  Si  Si24  1  0.285435  0.873658  0.750020  1
  Si  Si25  1  0.714490  0.126053  0.249877  1
  Si  Si26  1  0.214563  0.374027  0.250084  1
  Si  Si27  1  0.785656  0.625874  0.749933  1
  Si  Si28  1  0.837698  0.536260  0.459609  1
  Si  Si29  1  0.342017  0.964646  0.460464  1
  Si  Si30  1  0.842309  0.535291  0.039535  1
  Si  Si31  1  0.657642  0.035816  0.539448  1
  Si  Si32  1  0.157401  0.464510  0.960559  1
  Si  Si33  1  0.657298  0.035690  0.960554  1
  Si  Si34  1  0.342667  0.964627  0.039534  1
  Ge  Ge35  1  0.162553  0.463096  0.540032  1
