# generated using pymatgen
data_Tb7Dy(HgRh)2
_symmetry_space_group_name_H-M   'P 1'
_cell_length_a   9.62305043
_cell_length_b   9.62122759
_cell_length_c   9.62167503
_cell_angle_alpha   60.00153851
_cell_angle_beta   59.98711907
_cell_angle_gamma   60.00626775
_symmetry_Int_Tables_number   1
_chemical_formula_structural   Tb7Dy(HgRh)2
_chemical_formula_sum   'Tb14 Dy2 Hg4 Rh4'
_cell_volume   629.88643241
_cell_formula_units_Z   2
loop_
 _symmetry_equiv_pos_site_id
 _symmetry_equiv_pos_as_xyz
  1  'x, y, z'
loop_
 _atom_site_type_symbol
 _atom_site_label
 _atom_site_symmetry_multiplicity
 _atom_site_fract_x
 _atom_site_fract_y
 _atom_site_fract_z
 _atom_site_occupancy
  Tb  Tb0  1  0.689746  0.310037  0.310509  1
  Tb  Tb1  1  0.689746  0.689708  0.310509  1
  Tb  Tb2  1  0.310324  0.689709  0.310258  1
  Tb  Tb3  1  0.936776  0.937091  0.563160  1
  Tb  Tb4  1  0.148589  0.149073  0.553263  1
  Tb  Tb5  1  0.562834  0.937172  0.562822  1
  Tb  Tb6  1  0.148980  0.149163  0.148965  1
  Tb  Tb7  1  0.310696  0.310141  0.689699  1
  Tb  Tb8  1  0.936776  0.562974  0.563160  1
  Tb  Tb9  1  0.562977  0.562786  0.937008  1
  Tb  Tb10  1  0.562977  0.937229  0.937008  1
  Tb  Tb11  1  0.936778  0.563170  0.936881  1
  Tb  Tb12  1  0.148980  0.552890  0.148965  1
  Tb  Tb13  1  0.310696  0.689465  0.689699  1
  Dy  Dy14  1  0.689756  0.310151  0.689943  1
  Dy  Dy15  1  0.553182  0.149103  0.148612  1
  Hg  Hg16  1  0.914945  0.915327  0.254399  1
  Hg  Hg17  1  0.254471  0.915170  0.915190  1
  Hg  Hg18  1  0.914911  0.254322  0.915320  1
  Hg  Hg19  1  0.914911  0.915447  0.915320  1
  Rh  Rh20  1  0.357817  0.357289  0.356965  1
  Rh  Rh21  1  0.926952  0.357577  0.357895  1
  Rh  Rh22  1  0.358359  0.357080  0.927483  1
  Rh  Rh23  1  0.357817  0.927929  0.356965  1
