# generated using pymatgen
data_Nd15Y(CdNi)4
_symmetry_space_group_name_H-M   'P 1'
_cell_length_a   9.83468451
_cell_length_b   9.83468485
_cell_length_c   9.83162200
_cell_angle_alpha   60.01030159
_cell_angle_beta   60.01030045
_cell_angle_gamma   60.20183894
_symmetry_Int_Tables_number   1
_chemical_formula_structural   Nd15Y(CdNi)4
_chemical_formula_sum   'Nd15 Y1 Cd4 Ni4'
_cell_volume   673.53002280
_cell_formula_units_Z   1
loop_
 _symmetry_equiv_pos_site_id
 _symmetry_equiv_pos_as_xyz
  1  'x, y, z'
loop_
 _atom_site_type_symbol
 _atom_site_label
 _atom_site_symmetry_multiplicity
 _atom_site_fract_x
 _atom_site_fract_y
 _atom_site_fract_z
 _atom_site_occupancy
  Nd  Nd0  1  0.151265  0.545393  0.151671  1
  Nd  Nd1  1  0.687810  0.310020  0.691177  1
  Nd  Nd2  1  0.687810  0.310020  0.310994  1
  Nd  Nd3  1  0.938652  0.561168  0.565363  1
  Nd  Nd4  1  0.545393  0.151265  0.151671  1
  Nd  Nd5  1  0.153283  0.153283  0.543801  1
  Nd  Nd6  1  0.938604  0.938604  0.561396  1
  Nd  Nd7  1  0.310020  0.687810  0.310994  1
  Nd  Nd8  1  0.561168  0.938652  0.934817  1
  Nd  Nd9  1  0.561168  0.938652  0.565363  1
  Nd  Nd10  1  0.690537  0.690537  0.309463  1
  Nd  Nd11  1  0.563305  0.563305  0.936695  1
  Nd  Nd12  1  0.938652  0.561168  0.934817  1
  Nd  Nd13  1  0.310020  0.687810  0.691177  1
  Nd  Nd14  1  0.153283  0.153283  0.149633  1
  Y  Y15  1  0.309037  0.309037  0.690963  1
  Cd  Cd16  1  0.921285  0.240265  0.919225  1
  Cd  Cd17  1  0.920263  0.920263  0.919949  1
  Cd  Cd18  1  0.920263  0.920263  0.239524  1
  Cd  Cd19  1  0.240265  0.921285  0.919225  1
  Ni  Ni20  1  0.356885  0.356885  0.925756  1
  Ni  Ni21  1  0.357499  0.926652  0.357925  1
  Ni  Ni22  1  0.926652  0.357499  0.357925  1
  Ni  Ni23  1  0.356885  0.356885  0.360476  1
