# generated using pymatgen
data_MnNb6Si6Tc5
_symmetry_space_group_name_H-M   'P 1'
_cell_length_a   7.52849656
_cell_length_b   7.53258557
_cell_length_c   7.53258394
_cell_angle_alpha   127.60307064
_cell_angle_beta   124.07989833
_cell_angle_gamma   80.19330819
_symmetry_Int_Tables_number   1
_chemical_formula_structural   MnNb6Si6Tc5
_chemical_formula_sum   'Mn1 Nb6 Si6 Tc5'
_cell_volume   270.54939573
_cell_formula_units_Z   1
loop_
 _symmetry_equiv_pos_site_id
 _symmetry_equiv_pos_as_xyz
  1  'x, y, z'
loop_
 _atom_site_type_symbol
 _atom_site_label
 _atom_site_symmetry_multiplicity
 _atom_site_fract_x
 _atom_site_fract_y
 _atom_site_fract_z
 _atom_site_occupancy
  Mn  Mn0  1  0.000000  0.248574  0.248574  1
  Nb  Nb1  1  0.552529  0.096734  0.042700  1
  Nb  Nb2  1  0.447471  0.490170  0.544205  1
  Nb  Nb3  1  0.961832  0.496672  0.030548  1
  Nb  Nb4  1  0.038168  0.068717  0.534841  1
  Nb  Nb5  1  0.753972  0.914815  0.663552  1
  Nb  Nb6  1  0.246028  0.909579  0.160844  1
  Si  Si7  1  0.336545  0.825999  0.496992  1
  Si  Si8  1  0.663455  0.160446  0.489453  1
  Si  Si9  1  0.830301  0.832649  0.994506  1
  Si  Si10  1  0.169699  0.164204  0.002348  1
  Si  Si11  1  0.775876  0.524623  0.252455  1
  Si  Si12  1  0.224124  0.476579  0.748748  1
  Tc  Tc13  1  0.157864  0.746907  0.653395  1
  Tc  Tc14  1  0.842136  0.495530  0.589042  1
  Tc  Tc15  1  0.593505  0.747518  0.089970  1
  Tc  Tc16  1  0.406495  0.496464  0.154013  1
  Tc  Tc17  1  0.500000  0.245816  0.745816  1
