# generated using pymatgen
data_Ac6Mg7Cd16P
_symmetry_space_group_name_H-M   'P 1'
_cell_length_a   10.30909759
_cell_length_b   10.30884993
_cell_length_c   10.30872400
_cell_angle_alpha   60.52300090
_cell_angle_beta   60.52367740
_cell_angle_gamma   60.52397714
_symmetry_Int_Tables_number   1
_chemical_formula_structural   Ac6Mg7Cd16P
_chemical_formula_sum   'Ac6 Mg7 Cd16 P1'
_cell_volume   783.84195038
_cell_formula_units_Z   1
loop_
 _symmetry_equiv_pos_site_id
 _symmetry_equiv_pos_as_xyz
  1  'x, y, z'
loop_
 _atom_site_type_symbol
 _atom_site_label
 _atom_site_symmetry_multiplicity
 _atom_site_fract_x
 _atom_site_fract_y
 _atom_site_fract_z
 _atom_site_occupancy
  Ac  Ac0  1  0.790101  0.790100  0.209624  1
  Ac  Ac1  1  0.209903  0.790373  0.209899  1
  Ac  Ac2  1  0.790371  0.209902  0.209898  1
  Ac  Ac3  1  0.209899  0.209900  0.790376  1
  Ac  Ac4  1  0.790097  0.209627  0.790101  1
  Ac  Ac5  1  0.209629  0.790098  0.790102  1
  Mg  Mg6  1  0.000000  0.000000  0.500000  1
  Mg  Mg7  1  0.500000  0.000000  0.500000  1
  Mg  Mg8  1  0.000000  0.500000  0.500000  1
  Mg  Mg9  1  0.500000  0.500000  0.000000  1
  Mg  Mg10  1  0.000000  0.500000  0.000000  1
  Mg  Mg11  1  0.500000  0.000000  0.000000  1
  Mg  Mg12  1  0.500000  0.500000  0.500000  1
  Cd  Cd13  1  0.828175  0.828171  0.514040  1
  Cd  Cd14  1  0.828174  0.514043  0.828170  1
  Cd  Cd15  1  0.514046  0.828175  0.828172  1
  Cd  Cd16  1  0.828283  0.828284  0.828284  1
  Cd  Cd17  1  0.171825  0.171829  0.485960  1
  Cd  Cd18  1  0.171826  0.485957  0.171830  1
  Cd  Cd19  1  0.485954  0.171825  0.171828  1
  Cd  Cd20  1  0.171717  0.171716  0.171716  1
  Cd  Cd21  1  0.621920  0.621919  0.135378  1
  Cd  Cd22  1  0.621918  0.135377  0.621919  1
  Cd  Cd23  1  0.135374  0.621919  0.621919  1
  Cd  Cd24  1  0.622296  0.622288  0.622288  1
  Cd  Cd25  1  0.378080  0.378081  0.864622  1
  Cd  Cd26  1  0.378082  0.864623  0.378081  1
  Cd  Cd27  1  0.864626  0.378081  0.378081  1
  Cd  Cd28  1  0.377704  0.377712  0.377712  1
  P  P29  1  0.000000  0.000000  0.000000  1
