# generated using pymatgen
data_Y2Ho2TcOsC4
_symmetry_space_group_name_H-M   'P 1'
_cell_length_a   5.10440800
_cell_length_b   6.54128582
_cell_length_c   9.81175040
_cell_angle_alpha   89.67846044
_cell_angle_beta   90.00000000
_cell_angle_gamma   90.00000000
_symmetry_Int_Tables_number   1
_chemical_formula_structural   Y2Ho2TcOsC4
_chemical_formula_sum   'Y4 Ho4 Tc2 Os2 C8'
_cell_volume   327.60321820
_cell_formula_units_Z   2
loop_
 _symmetry_equiv_pos_site_id
 _symmetry_equiv_pos_as_xyz
  1  'x, y, z'
loop_
 _atom_site_type_symbol
 _atom_site_label
 _atom_site_symmetry_multiplicity
 _atom_site_fract_x
 _atom_site_fract_y
 _atom_site_fract_z
 _atom_site_occupancy
  Y  Y0  1  0.250000  0.531771  0.215740  1
  Y  Y1  1  0.750000  0.468229  0.784260  1
  Y  Y2  1  0.750000  0.969957  0.713788  1
  Y  Y3  1  0.250000  0.030043  0.286212  1
  Ho  Ho4  1  0.250000  0.678004  0.556033  1
  Ho  Ho5  1  0.750000  0.321996  0.443967  1
  Ho  Ho6  1  0.750000  0.823113  0.056475  1
  Ho  Ho7  1  0.250000  0.176887  0.943525  1
  Tc  Tc8  1  0.250000  0.722455  0.865300  1
  Tc  Tc9  1  0.750000  0.277545  0.134700  1
  Os  Os10  1  0.750000  0.776202  0.365172  1
  Os  Os11  1  0.250000  0.223798  0.634828  1
  C  C12  1  0.250000  0.456036  0.758544  1
  C  C13  1  0.750000  0.543964  0.241456  1
  C  C14  1  0.750000  0.042764  0.259530  1
  C  C15  1  0.250000  0.957236  0.740470  1
  C  C16  1  0.250000  0.824570  0.049966  1
  C  C17  1  0.750000  0.175430  0.950034  1
  C  C18  1  0.750000  0.674080  0.550557  1
  C  C19  1  0.250000  0.325920  0.449443  1
