# generated using pymatgen
data_Zn5Sn6PdRh12
_symmetry_space_group_name_H-M   'P 1'
_cell_length_a   4.41865000
_cell_length_b   6.35206100
_cell_length_c   13.34766100
_cell_angle_alpha   90.00000000
_cell_angle_beta   89.99922037
_cell_angle_gamma   90.00000000
_symmetry_Int_Tables_number   1
_chemical_formula_structural   Zn5Sn6PdRh12
_chemical_formula_sum   'Zn5 Sn6 Pd1 Rh12'
_cell_volume   374.63593343
_cell_formula_units_Z   1
loop_
 _symmetry_equiv_pos_site_id
 _symmetry_equiv_pos_as_xyz
  1  'x, y, z'
loop_
 _atom_site_type_symbol
 _atom_site_label
 _atom_site_symmetry_multiplicity
 _atom_site_fract_x
 _atom_site_fract_y
 _atom_site_fract_z
 _atom_site_occupancy
  Zn  Zn0  1  0.500033  0.500000  0.167857  1
  Zn  Zn1  1  0.000012  0.000000  0.333740  1
  Zn  Zn2  1  0.500000  0.500000  0.500000  1
  Zn  Zn3  1  0.999989  0.000000  0.666260  1
  Zn  Zn4  1  0.499968  0.500000  0.832143  1
  Sn  Sn5  1  0.000000  0.500000  0.000000  1
  Sn  Sn6  1  0.500054  0.000000  0.160332  1
  Sn  Sn7  1  0.000016  0.500000  0.335032  1
  Sn  Sn8  1  0.500000  0.000000  0.500000  1
  Sn  Sn9  1  0.999984  0.500000  0.664967  1
  Sn  Sn10  1  0.499947  0.000000  0.839668  1
  Pd  Pd11  1  0.000000  0.000000  0.000000  1
  Rh  Rh12  1  0.500000  0.264994  0.000000  1
  Rh  Rh13  1  0.500000  0.735006  0.000000  1
  Rh  Rh14  1  0.000050  0.252354  0.172552  1
  Rh  Rh15  1  0.000050  0.747645  0.172552  1
  Rh  Rh16  1  0.500024  0.247799  0.333940  1
  Rh  Rh17  1  0.500024  0.752200  0.333940  1
  Rh  Rh18  1  0.000000  0.250133  0.500000  1
  Rh  Rh19  1  0.000000  0.749866  0.500000  1
  Rh  Rh20  1  0.499977  0.247799  0.666060  1
  Rh  Rh21  1  0.499977  0.752200  0.666060  1
  Rh  Rh22  1  0.999950  0.252354  0.827448  1
  Rh  Rh23  1  0.999950  0.747645  0.827448  1
