# generated using pymatgen
data_Sr4W(N2Cl)2
_symmetry_space_group_name_H-M   'P 1'
_cell_length_a   6.00164100
_cell_length_b   8.04876722
_cell_length_c   10.38769625
_cell_angle_alpha   81.66210863
_cell_angle_beta   90.00000000
_cell_angle_gamma   90.00000000
_symmetry_Int_Tables_number   1
_chemical_formula_structural   Sr4W(N2Cl)2
_chemical_formula_sum   'Sr8 W2 N8 Cl4'
_cell_volume   496.48226971
_cell_formula_units_Z   2
loop_
 _symmetry_equiv_pos_site_id
 _symmetry_equiv_pos_as_xyz
  1  'x, y, z'
loop_
 _atom_site_type_symbol
 _atom_site_label
 _atom_site_symmetry_multiplicity
 _atom_site_fract_x
 _atom_site_fract_y
 _atom_site_fract_z
 _atom_site_occupancy
  Sr  Sr0  1  0.750000  0.285473  0.299637  1
  Sr  Sr1  1  0.750000  0.002250  0.624678  1
  Sr  Sr2  1  0.750000  0.448955  0.621422  1
  Sr  Sr3  1  0.750000  0.818659  0.083193  1
  Sr  Sr4  1  0.250000  0.997750  0.375322  1
  Sr  Sr5  1  0.250000  0.551045  0.378578  1
  Sr  Sr6  1  0.250000  0.181341  0.916807  1
  Sr  Sr7  1  0.250000  0.714527  0.700363  1
  W  W8  1  0.750000  0.771530  0.390201  1
  W  W9  1  0.250000  0.228470  0.609799  1
  N  N10  1  0.250000  0.024035  0.721835  1
  N  N11  1  0.997636  0.247377  0.500022  1
  N  N12  1  0.497636  0.752623  0.499978  1
  N  N13  1  0.002364  0.752623  0.499978  1
  N  N14  1  0.750000  0.603093  0.282363  1
  N  N15  1  0.750000  0.975965  0.278165  1
  N  N16  1  0.502364  0.247377  0.500022  1
  N  N17  1  0.250000  0.396907  0.717637  1
  Cl  Cl18  1  0.250000  0.318822  0.170330  1
  Cl  Cl19  1  0.750000  0.681178  0.829670  1
  Cl  Cl20  1  0.250000  0.843661  0.099400  1
  Cl  Cl21  1  0.750000  0.156339  0.900600  1
