# generated using pymatgen
data_Dy(GeRh2)2
_symmetry_space_group_name_H-M   'P 1'
_cell_length_a   4.22272800
_cell_length_b   9.18754200
_cell_length_c   11.48481800
_cell_angle_alpha   90.00000000
_cell_angle_beta   90.00000000
_cell_angle_gamma   90.00000000
_symmetry_Int_Tables_number   1
_chemical_formula_structural   Dy(GeRh2)2
_chemical_formula_sum   'Dy4 Ge8 Rh16'
_cell_volume   445.57063650
_cell_formula_units_Z   4
loop_
 _symmetry_equiv_pos_site_id
 _symmetry_equiv_pos_as_xyz
  1  'x, y, z'
loop_
 _atom_site_type_symbol
 _atom_site_label
 _atom_site_symmetry_multiplicity
 _atom_site_fract_x
 _atom_site_fract_y
 _atom_site_fract_z
 _atom_site_occupancy
  Dy  Dy0  1  0.250000  0.147736  0.825672  1
  Dy  Dy1  1  0.250000  0.352264  0.325672  1
  Dy  Dy2  1  0.750000  0.852264  0.174328  1
  Dy  Dy3  1  0.750000  0.647736  0.674328  1
  Ge  Ge4  1  0.250000  0.413876  0.638387  1
  Ge  Ge5  1  0.250000  0.086124  0.138387  1
  Ge  Ge6  1  0.750000  0.586124  0.361613  1
  Ge  Ge7  1  0.750000  0.913876  0.861613  1
  Ge  Ge8  1  0.250000  0.617986  0.059335  1
  Ge  Ge9  1  0.250000  0.882014  0.559335  1
  Ge  Ge10  1  0.750000  0.382014  0.940665  1
  Ge  Ge11  1  0.750000  0.117986  0.440665  1
  Rh  Rh12  1  0.250000  0.615611  0.498544  1
  Rh  Rh13  1  0.250000  0.884389  0.998544  1
  Rh  Rh14  1  0.750000  0.384389  0.501456  1
  Rh  Rh15  1  0.750000  0.115611  0.001456  1
  Rh  Rh16  1  0.250000  0.690904  0.269044  1
  Rh  Rh17  1  0.250000  0.809096  0.769044  1
  Rh  Rh18  1  0.750000  0.309096  0.730956  1
  Rh  Rh19  1  0.750000  0.190904  0.230956  1
  Rh  Rh20  1  0.250000  0.170827  0.560915  1
  Rh  Rh21  1  0.250000  0.329173  0.060915  1
  Rh  Rh22  1  0.750000  0.829173  0.439085  1
  Rh  Rh23  1  0.750000  0.670827  0.939085  1
  Rh  Rh24  1  0.250000  0.003744  0.344671  1
  Rh  Rh25  1  0.250000  0.496256  0.844671  1
  Rh  Rh26  1  0.750000  0.996256  0.655329  1
  Rh  Rh27  1  0.750000  0.503744  0.155329  1
