# generated using pymatgen
data_Sc2Tc5(PRh)7
_symmetry_space_group_name_H-M   'P 1'
_cell_length_a   3.90621000
_cell_length_b   9.40104068
_cell_length_c   9.42541722
_cell_angle_alpha   119.53114941
_cell_angle_beta   89.99965001
_cell_angle_gamma   90.00113311
_symmetry_Int_Tables_number   1
_chemical_formula_structural   Sc2Tc5(PRh)7
_chemical_formula_sum   'Sc2 Tc5 P7 Rh7'
_cell_volume   301.15855931
_cell_formula_units_Z   1
loop_
 _symmetry_equiv_pos_site_id
 _symmetry_equiv_pos_as_xyz
  1  'x, y, z'
loop_
 _atom_site_type_symbol
 _atom_site_label
 _atom_site_symmetry_multiplicity
 _atom_site_fract_x
 _atom_site_fract_y
 _atom_site_fract_z
 _atom_site_occupancy
  Sc  Sc0  1  0.262031  0.671124  0.334095  1
  Sc  Sc1  1  0.762101  0.333337  0.666869  1
  Tc  Tc2  1  0.761870  0.093583  0.869535  1
  Tc  Tc3  1  0.761859  0.128715  0.220659  1
  Tc  Tc4  1  0.761828  0.779608  0.907105  1
  Tc  Tc5  1  0.261850  0.884530  0.161924  1
  Tc  Tc6  1  0.261899  0.838994  0.723447  1
  P  P7  1  0.261557  0.996146  0.997487  1
  P  P8  1  0.761911  0.878189  0.596227  1
  P  P9  1  0.761856  0.405472  0.286141  1
  P  P10  1  0.761828  0.718238  0.124278  1
  P  P11  1  0.262057  0.117891  0.412525  1
  P  P12  1  0.261991  0.584853  0.703573  1
  P  P13  1  0.261930  0.294939  0.879377  1
  Rh  Rh14  1  0.261854  0.274174  0.113128  1
  Rh  Rh15  1  0.761957  0.607682  0.553198  1
  Rh  Rh16  1  0.761871  0.446744  0.058379  1
  Rh  Rh17  1  0.761934  0.943943  0.392633  1
  Rh  Rh18  1  0.261960  0.368754  0.438531  1
  Rh  Rh19  1  0.261875  0.559726  0.929189  1
  Rh  Rh20  1  0.261984  0.073354  0.631700  1
