# generated using pymatgen
data_Er2Al8ZnPd3
_symmetry_space_group_name_H-M   'P 1'
_cell_length_a   7.57831782
_cell_length_b   7.57831820
_cell_length_c   9.47476200
_cell_angle_alpha   90.00000000
_cell_angle_beta   90.00000000
_cell_angle_gamma   119.17789354
_symmetry_Int_Tables_number   1
_chemical_formula_structural   Er2Al8ZnPd3
_chemical_formula_sum   'Er4 Al16 Zn2 Pd6'
_cell_volume   475.09782731
_cell_formula_units_Z   2
loop_
 _symmetry_equiv_pos_site_id
 _symmetry_equiv_pos_as_xyz
  1  'x, y, z'
loop_
 _atom_site_type_symbol
 _atom_site_label
 _atom_site_symmetry_multiplicity
 _atom_site_fract_x
 _atom_site_fract_y
 _atom_site_fract_z
 _atom_site_occupancy
  Er  Er0  1  0.994122  0.670660  0.250000  1
  Er  Er1  1  0.005878  0.329340  0.750000  1
  Er  Er2  1  0.670660  0.994122  0.250000  1
  Er  Er3  1  0.329340  0.005878  0.750000  1
  Al  Al4  1  0.000812  0.332529  0.078043  1
  Al  Al5  1  0.999188  0.667471  0.921957  1
  Al  Al6  1  0.999188  0.667471  0.578043  1
  Al  Al7  1  0.332529  0.000812  0.421957  1
  Al  Al8  1  0.000812  0.332529  0.421957  1
  Al  Al9  1  0.667471  0.999188  0.578043  1
  Al  Al10  1  0.667471  0.999188  0.921957  1
  Al  Al11  1  0.332529  0.000812  0.078043  1
  Al  Al12  1  0.332455  0.332455  0.557697  1
  Al  Al13  1  0.667545  0.667545  0.442303  1
  Al  Al14  1  0.667545  0.667545  0.057697  1
  Al  Al15  1  0.332455  0.332455  0.942303  1
  Al  Al16  1  0.337852  0.545581  0.250000  1
  Al  Al17  1  0.662148  0.454419  0.750000  1
  Al  Al18  1  0.545581  0.337852  0.250000  1
  Al  Al19  1  0.454419  0.662148  0.750000  1
  Zn  Zn20  1  0.137109  0.137109  0.250000  1
  Zn  Zn21  1  0.862891  0.862891  0.750000  1
  Pd  Pd22  1  0.672091  0.327909  0.000000  1
  Pd  Pd23  1  0.327909  0.672091  0.000000  1
  Pd  Pd24  1  0.327909  0.672091  0.500000  1
  Pd  Pd25  1  0.672091  0.327909  0.500000  1
  Pd  Pd26  1  0.000000  0.000000  0.000000  1
  Pd  Pd27  1  0.000000  0.000000  0.500000  1
