# generated using pymatgen
data_Er8ZrSi16W11
_symmetry_space_group_name_H-M   'P 1'
_cell_length_a   6.88687509
_cell_length_b   6.88606192
_cell_length_c   12.80739193
_cell_angle_alpha   89.85157173
_cell_angle_beta   90.23095613
_cell_angle_gamma   90.04676326
_symmetry_Int_Tables_number   1
_chemical_formula_structural   Er8ZrSi16W11
_chemical_formula_sum   'Er8 Zr1 Si16 W11'
_cell_volume   607.36351941
_cell_formula_units_Z   1
loop_
 _symmetry_equiv_pos_site_id
 _symmetry_equiv_pos_as_xyz
  1  'x, y, z'
loop_
 _atom_site_type_symbol
 _atom_site_label
 _atom_site_symmetry_multiplicity
 _atom_site_fract_x
 _atom_site_fract_y
 _atom_site_fract_z
 _atom_site_occupancy
  Er  Er0  1  0.339161  0.999165  0.466797  1
  Er  Er1  1  0.499414  0.838347  0.719739  1
  Er  Er2  1  0.497808  0.161964  0.218927  1
  Er  Er3  1  0.838445  0.500103  0.279607  1
  Er  Er4  1  0.162344  0.498498  0.782629  1
  Er  Er5  1  0.660337  0.001458  0.970223  1
  Er  Er6  1  0.000408  0.338954  0.530694  1
  Er  Er7  1  0.001273  0.661501  0.031306  1
  Zr  Zr8  1  0.997048  0.841938  0.624610  1
  Si  Si9  1  0.207001  0.134271  0.684732  1
  Si  Si10  1  0.373408  0.702142  0.934103  1
  Si  Si11  1  0.629428  0.298232  0.432626  1
  Si  Si12  1  0.701400  0.372285  0.066826  1
  Si  Si13  1  0.305074  0.627699  0.563862  1
  Si  Si14  1  0.797736  0.872914  0.183553  1
  Si  Si15  1  0.126119  0.200335  0.316409  1
  Si  Si16  1  0.871068  0.796148  0.820900  1
  Si  Si17  1  0.288326  0.963521  0.063999  1
  Si  Si18  1  0.537405  0.788720  0.313326  1
  Si  Si19  1  0.462084  0.210057  0.814444  1
  Si  Si20  1  0.787326  0.532762  0.687388  1
  Si  Si21  1  0.211359  0.461726  0.186075  1
  Si  Si22  1  0.701720  0.044976  0.563688  1
  Si  Si23  1  0.963436  0.289131  0.937679  1
  Si  Si24  1  0.042387  0.708082  0.430812  1
  W  W25  1  0.333245  0.333361  0.000846  1
  W  W26  1  0.167871  0.831868  0.247780  1
  W  W27  1  0.830623  0.168940  0.751902  1
  W  W28  1  0.666399  0.664297  0.498128  1
  W  W29  1  0.164535  0.000166  0.874747  1
  W  W30  1  0.500816  0.663411  0.123567  1
  W  W31  1  0.499453  0.338199  0.623601  1
  W  W32  1  0.661926  0.496954  0.877564  1
  W  W33  1  0.340186  0.494352  0.374691  1
  W  W34  1  0.835881  0.999873  0.374985  1
  W  W35  1  0.997550  0.163650  0.127232  1
