# generated using pymatgen
data_CeY11PdRu3
_symmetry_space_group_name_H-M   'P 1'
_cell_length_a   6.34266100
_cell_length_b   7.25207537
_cell_length_c   9.79720700
_cell_angle_alpha   90.00000000
_cell_angle_beta   90.00000000
_cell_angle_gamma   92.58039588
_symmetry_Int_Tables_number   1
_chemical_formula_structural   CeY11PdRu3
_chemical_formula_sum   'Ce1 Y11 Pd1 Ru3'
_cell_volume   450.18965309
_cell_formula_units_Z   1
loop_
 _symmetry_equiv_pos_site_id
 _symmetry_equiv_pos_as_xyz
  1  'x, y, z'
loop_
 _atom_site_type_symbol
 _atom_site_label
 _atom_site_symmetry_multiplicity
 _atom_site_fract_x
 _atom_site_fract_y
 _atom_site_fract_z
 _atom_site_occupancy
  Ce  Ce0  1  0.153966  0.444453  0.750000  1
  Y  Y1  1  0.332416  0.670142  0.063559  1
  Y  Y2  1  0.172629  0.179437  0.437430  1
  Y  Y3  1  0.673768  0.324728  0.565382  1
  Y  Y4  1  0.825753  0.823009  0.927203  1
  Y  Y5  1  0.673768  0.324728  0.934618  1
  Y  Y6  1  0.825753  0.823009  0.572797  1
  Y  Y7  1  0.332416  0.670142  0.436441  1
  Y  Y8  1  0.172629  0.179437  0.062570  1
  Y  Y9  1  0.852287  0.535516  0.250000  1
  Y  Y10  1  0.631760  0.041259  0.250000  1
  Y  Y11  1  0.364023  0.962923  0.750000  1
  Pd  Pd12  1  0.063739  0.885994  0.250000  1
  Ru  Ru13  1  0.444893  0.383146  0.250000  1
  Ru  Ru14  1  0.967220  0.142606  0.750000  1
  Ru  Ru15  1  0.512977  0.609467  0.750000  1
