# generated using pymatgen
data_Zr2Re7Si4Os
_symmetry_space_group_name_H-M   'P 1'
_cell_length_a   7.35721712
_cell_length_b   7.37993542
_cell_length_c   4.05640800
_cell_angle_alpha   90.00000000
_cell_angle_beta   90.00000000
_cell_angle_gamma   89.89175771
_symmetry_Int_Tables_number   1
_chemical_formula_structural   Zr2Re7Si4Os
_chemical_formula_sum   'Zr2 Re7 Si4 Os1'
_cell_volume   220.24547264
_cell_formula_units_Z   1
loop_
 _symmetry_equiv_pos_site_id
 _symmetry_equiv_pos_as_xyz
  1  'x, y, z'
loop_
 _atom_site_type_symbol
 _atom_site_label
 _atom_site_symmetry_multiplicity
 _atom_site_fract_x
 _atom_site_fract_y
 _atom_site_fract_z
 _atom_site_occupancy
  Zr  Zr0  1  0.499400  0.500654  0.000000  1
  Zr  Zr1  1  0.998726  0.000029  0.500000  1
  Re  Re2  1  0.411566  0.845191  0.500000  1
  Re  Re3  1  0.088454  0.339483  0.000000  1
  Re  Re4  1  0.909729  0.655647  0.000000  1
  Re  Re5  1  0.161884  0.592947  0.500000  1
  Re  Re6  1  0.846691  0.411176  0.500000  1
  Re  Re7  1  0.342118  0.089532  0.000000  1
  Re  Re8  1  0.656113  0.905540  0.000000  1
  Si  Si9  1  0.709017  0.707196  0.500000  1
  Si  Si10  1  0.290981  0.290081  0.500000  1
  Si  Si11  1  0.207624  0.791687  0.000000  1
  Si  Si12  1  0.786821  0.206591  0.000000  1
  Os  Os13  1  0.590876  0.164246  0.500000  1
