# generated using pymatgen
data_Cs6ErInBr12
_symmetry_space_group_name_H-M   'P 1'
_cell_length_a   9.93298249
_cell_length_b   9.91034940
_cell_length_c   8.23900200
_cell_angle_alpha   90.00000000
_cell_angle_beta   90.00000000
_cell_angle_gamma   90.18865147
_symmetry_Int_Tables_number   1
_chemical_formula_structural   Cs6ErInBr12
_chemical_formula_sum   'Cs6 Er1 In1 Br12'
_cell_volume   811.03741627
_cell_formula_units_Z   1
loop_
 _symmetry_equiv_pos_site_id
 _symmetry_equiv_pos_as_xyz
  1  'x, y, z'
loop_
 _atom_site_type_symbol
 _atom_site_label
 _atom_site_symmetry_multiplicity
 _atom_site_fract_x
 _atom_site_fract_y
 _atom_site_fract_z
 _atom_site_occupancy
  Cs  Cs0  1  0.000000  0.000000  0.500000  1
  Cs  Cs1  1  0.000000  0.000000  0.000000  1
  Cs  Cs2  1  0.235067  0.584496  0.500000  1
  Cs  Cs3  1  0.764933  0.415504  0.500000  1
  Cs  Cs4  1  0.416628  0.234505  0.000000  1
  Cs  Cs5  1  0.583372  0.765495  0.000000  1
  Er  Er6  1  0.000000  0.500000  0.000000  1
  In  In7  1  0.500000  0.000000  0.500000  1
  Br  Br8  1  0.687668  0.057830  0.735912  1
  Br  Br9  1  0.312332  0.942170  0.735912  1
  Br  Br10  1  0.942303  0.691663  0.240182  1
  Br  Br11  1  0.057697  0.308337  0.240182  1
  Br  Br12  1  0.312332  0.942170  0.264088  1
  Br  Br13  1  0.687668  0.057830  0.264088  1
  Br  Br14  1  0.057697  0.308337  0.759818  1
  Br  Br15  1  0.942303  0.691663  0.759818  1
  Br  Br16  1  0.570426  0.736279  0.500000  1
  Br  Br17  1  0.429574  0.263721  0.500000  1
  Br  Br18  1  0.269807  0.572075  0.000000  1
  Br  Br19  1  0.730193  0.427925  0.000000  1
