# generated using pymatgen
data_Ce5TaMo2(P3Ru4)4
_symmetry_space_group_name_H-M   'P 1'
_cell_length_a   12.75727768
_cell_length_b   12.68313156
_cell_length_c   3.96948500
_cell_angle_alpha   90.00000000
_cell_angle_beta   90.00000000
_cell_angle_gamma   119.80792915
_symmetry_Int_Tables_number   1
_chemical_formula_structural   Ce5TaMo2(P3Ru4)4
_chemical_formula_sum   'Ce5 Ta1 Mo2 P12 Ru16'
_cell_volume   557.29686672
_cell_formula_units_Z   1
loop_
 _symmetry_equiv_pos_site_id
 _symmetry_equiv_pos_as_xyz
  1  'x, y, z'
loop_
 _atom_site_type_symbol
 _atom_site_label
 _atom_site_symmetry_multiplicity
 _atom_site_fract_x
 _atom_site_fract_y
 _atom_site_fract_z
 _atom_site_occupancy
  Ce  Ce0  1  0.187132  0.185483  0.500000  1
  Ce  Ce1  1  0.812868  0.998351  0.500000  1
  Ce  Ce2  1  0.000000  0.814917  0.500000  1
  Ce  Ce3  1  0.334918  0.667591  0.000000  1
  Ce  Ce4  1  0.665082  0.332672  0.000000  1
  Ta  Ta5  1  0.000000  0.436769  0.000000  1
  Mo  Mo6  1  0.560089  0.560348  0.000000  1
  Mo  Mo7  1  0.439911  0.000259  0.000000  1
  P  P8  1  0.815422  0.815814  0.000000  1
  P  P9  1  0.184578  0.000392  0.000000  1
  P  P10  1  0.000000  0.183933  0.000000  1
  P  P11  1  0.168925  0.477394  0.500000  1
  P  P12  1  0.523846  0.689361  0.500000  1
  P  P13  1  0.311065  0.834209  0.500000  1
  P  P14  1  0.688935  0.523144  0.500000  1
  P  P15  1  0.831075  0.308469  0.500000  1
  P  P16  1  0.476154  0.165515  0.500000  1
  P  P17  1  0.373023  0.372126  0.000000  1
  P  P18  1  0.626977  0.999104  0.000000  1
  P  P19  1  0.000000  0.634747  0.000000  1
  Ru  Ru20  1  0.719198  0.719365  0.500000  1
  Ru  Ru21  1  0.280802  0.000167  0.500000  1
  Ru  Ru22  1  0.000000  0.279078  0.500000  1
  Ru  Ru23  1  0.183868  0.376001  0.000000  1
  Ru  Ru24  1  0.625388  0.808342  0.000000  1
  Ru  Ru25  1  0.193224  0.817775  0.000000  1
  Ru  Ru26  1  0.806776  0.624552  0.000000  1
  Ru  Ru27  1  0.816132  0.192132  0.000000  1
  Ru  Ru28  1  0.374612  0.182955  0.000000  1
  Ru  Ru29  1  0.362524  0.489229  0.500000  1
  Ru  Ru30  1  0.510547  0.871810  0.500000  1
  Ru  Ru31  1  0.127111  0.638490  0.500000  1
  Ru  Ru32  1  0.872889  0.511379  0.500000  1
  Ru  Ru33  1  0.637476  0.126705  0.500000  1
  Ru  Ru34  1  0.489453  0.361263  0.500000  1
  Ru  Ru35  1  0.000000  0.000160  0.000000  1
