# generated using pymatgen
data_Yb3HoLu4(B6Ru)4
_symmetry_space_group_name_H-M   'P 1'
_cell_length_a   3.61236400
_cell_length_b   9.07530753
_cell_length_c   11.46065901
_cell_angle_alpha   89.94689706
_cell_angle_beta   90.00000000
_cell_angle_gamma   90.00000000
_symmetry_Int_Tables_number   1
_chemical_formula_structural   Yb3HoLu4(B6Ru)4
_chemical_formula_sum   'Yb3 Ho1 Lu4 B24 Ru4'
_cell_volume   375.71822394
_cell_formula_units_Z   1
loop_
 _symmetry_equiv_pos_site_id
 _symmetry_equiv_pos_as_xyz
  1  'x, y, z'
loop_
 _atom_site_type_symbol
 _atom_site_label
 _atom_site_symmetry_multiplicity
 _atom_site_fract_x
 _atom_site_fract_y
 _atom_site_fract_z
 _atom_site_occupancy
  Yb  Yb0  1  0.000000  0.324526  0.414631  1
  Yb  Yb1  1  0.000000  0.675401  0.584885  1
  Yb  Yb2  1  0.000000  0.823135  0.085895  1
  Ho  Ho3  1  0.000000  0.176079  0.915146  1
  Lu  Lu4  1  0.000000  0.941328  0.367020  1
  Lu  Lu5  1  0.000000  0.057845  0.631183  1
  Lu  Lu6  1  0.000000  0.443229  0.132376  1
  Lu  Lu7  1  0.000000  0.558417  0.868408  1
  B  B8  1  0.500000  0.553547  0.432785  1
  B  B9  1  0.500000  0.445665  0.568036  1
  B  B10  1  0.500000  0.054256  0.066768  1
  B  B11  1  0.500000  0.945775  0.933160  1
  B  B12  1  0.500000  0.749690  0.417447  1
  B  B13  1  0.500000  0.250121  0.582777  1
  B  B14  1  0.500000  0.250196  0.081795  1
  B  B15  1  0.500000  0.750568  0.917835  1
  B  B16  1  0.500000  0.791537  0.263880  1
  B  B17  1  0.500000  0.207910  0.736430  1
  B  B18  1  0.500000  0.291741  0.234913  1
  B  B19  1  0.500000  0.709264  0.764724  1
  B  B20  1  0.500000  0.630368  0.185079  1
  B  B21  1  0.500000  0.369457  0.815983  1
  B  B22  1  0.500000  0.130626  0.314179  1
  B  B23  1  0.500000  0.869954  0.684721  1
  B  B24  1  0.500000  0.982597  0.210943  1
  B  B25  1  0.500000  0.017547  0.788334  1
  B  B26  1  0.500000  0.483080  0.288461  1
  B  B27  1  0.500000  0.516652  0.712305  1
  B  B28  1  0.500000  0.598006  0.026940  1
  B  B29  1  0.500000  0.401344  0.973071  1
  B  B30  1  0.500000  0.096211  0.473146  1
  B  B31  1  0.500000  0.903671  0.526015  1
  Ru  Ru32  1  0.000000  0.639397  0.319843  1
  Ru  Ru33  1  0.000000  0.359301  0.681725  1
  Ru  Ru34  1  0.000000  0.139075  0.179458  1
  Ru  Ru35  1  0.000000  0.862487  0.819700  1
