# generated using pymatgen
data_NdTh3(Rh2Pb)2
_symmetry_space_group_name_H-M   'P 1'
_cell_length_a   3.78493000
_cell_length_b   7.90278509
_cell_length_c   7.90278441
_cell_angle_alpha   91.82879483
_cell_angle_beta   90.00000000
_cell_angle_gamma   90.00000000
_symmetry_Int_Tables_number   1
_chemical_formula_structural   NdTh3(Rh2Pb)2
_chemical_formula_sum   'Nd1 Th3 Rh4 Pb2'
_cell_volume   236.26364140
_cell_formula_units_Z   1
loop_
 _symmetry_equiv_pos_site_id
 _symmetry_equiv_pos_as_xyz
  1  'x, y, z'
loop_
 _atom_site_type_symbol
 _atom_site_label
 _atom_site_symmetry_multiplicity
 _atom_site_fract_x
 _atom_site_fract_y
 _atom_site_fract_z
 _atom_site_occupancy
  Nd  Nd0  1  0.500000  0.671987  0.828013  1
  Th  Th1  1  0.500000  0.169768  0.672983  1
  Th  Th2  1  0.500000  0.827017  0.330232  1
  Th  Th3  1  0.500000  0.330090  0.169910  1
  Rh  Rh4  1  0.000000  0.625311  0.142594  1
  Rh  Rh5  1  0.000000  0.357406  0.874689  1
  Rh  Rh6  1  0.000000  0.885572  0.614428  1
  Rh  Rh7  1  0.000000  0.139587  0.360413  1
  Pb  Pb8  1  0.000000  0.993182  0.999920  1
  Pb  Pb9  1  0.000000  0.500080  0.506818  1
