# generated using pymatgen
data_Ba4LuMn3O12
_symmetry_space_group_name_H-M   'P 1'
_cell_length_a   5.85012390
_cell_length_b   5.85012424
_cell_length_c   10.19149299
_cell_angle_alpha   73.32096050
_cell_angle_beta   73.32096046
_cell_angle_gamma   60.00000496
_symmetry_Int_Tables_number   1
_chemical_formula_structural   Ba4LuMn3O12
_chemical_formula_sum   'Ba4 Lu1 Mn3 O12'
_cell_volume   284.99309987
_cell_formula_units_Z   1
loop_
 _symmetry_equiv_pos_site_id
 _symmetry_equiv_pos_as_xyz
  1  'x, y, z'
loop_
 _atom_site_type_symbol
 _atom_site_label
 _atom_site_symmetry_multiplicity
 _atom_site_fract_x
 _atom_site_fract_y
 _atom_site_fract_z
 _atom_site_occupancy
  Ba  Ba0  1  0.284789  0.284789  0.145633  1
  Ba  Ba1  1  0.128922  0.128922  0.613233  1
  Ba  Ba2  1  0.715211  0.715211  0.854367  1
  Ba  Ba3  1  0.871078  0.871078  0.386767  1
  Lu  Lu4  1  0.000000  0.000000  0.000000  1
  Mn  Mn5  1  0.411062  0.411062  0.766815  1
  Mn  Mn6  1  0.588938  0.588938  0.233185  1
  Mn  Mn7  1  0.500000  0.500000  0.500000  1
  O  O8  1  0.781284  0.781284  0.130960  1
  O  O9  1  0.218716  0.218716  0.869040  1
  O  O10  1  0.781284  0.306472  0.130960  1
  O  O11  1  0.835721  0.395920  0.372439  1
  O  O12  1  0.218716  0.693528  0.869040  1
  O  O13  1  0.395920  0.835721  0.372439  1
  O  O14  1  0.395920  0.395920  0.372439  1
  O  O15  1  0.604080  0.164279  0.627561  1
  O  O16  1  0.604080  0.604080  0.627561  1
  O  O17  1  0.306472  0.781284  0.130960  1
  O  O18  1  0.164279  0.604080  0.627561  1
  O  O19  1  0.693528  0.218716  0.869040  1
