# generated using pymatgen
data_MnMoCl2O3
_symmetry_space_group_name_H-M   'P 1'
_cell_length_a   3.71973586
_cell_length_b   11.84492200
_cell_length_c   6.27935685
_cell_angle_alpha   90.00000000
_cell_angle_beta   107.24729321
_cell_angle_gamma   90.00000000
_symmetry_Int_Tables_number   1
_chemical_formula_structural   MnMoCl2O3
_chemical_formula_sum   'Mn2 Mo2 Cl4 O6'
_cell_volume   264.22766234
_cell_formula_units_Z   2
loop_
 _symmetry_equiv_pos_site_id
 _symmetry_equiv_pos_as_xyz
  1  'x, y, z'
loop_
 _atom_site_type_symbol
 _atom_site_label
 _atom_site_symmetry_multiplicity
 _atom_site_fract_x
 _atom_site_fract_y
 _atom_site_fract_z
 _atom_site_occupancy
  Mn  Mn0  1  0.000000  0.000000  0.000000  1
  Mn  Mn1  1  0.000000  0.500000  0.000000  1
  Mo  Mo2  1  0.215080  0.750000  0.431174  1
  Mo  Mo3  1  0.784920  0.250000  0.568826  1
  Cl  Cl4  1  0.603503  0.100657  0.206388  1
  Cl  Cl5  1  0.603503  0.399343  0.206388  1
  Cl  Cl6  1  0.396496  0.600657  0.793612  1
  Cl  Cl7  1  0.396496  0.899343  0.793612  1
  O  O8  1  0.124725  0.634055  0.250899  1
  O  O9  1  0.124725  0.865946  0.250899  1
  O  O10  1  0.243674  0.250000  0.486347  1
  O  O11  1  0.756326  0.750000  0.513653  1
  O  O12  1  0.875275  0.134055  0.749101  1
  O  O13  1  0.875275  0.365946  0.749101  1
