# generated using pymatgen
data_Ta7(Rh3S13)2
_symmetry_space_group_name_H-M   'P 1'
_cell_length_a   8.70159467
_cell_length_b   9.36049425
_cell_length_c   10.97728800
_cell_angle_alpha   72.90733754
_cell_angle_beta   75.19481341
_cell_angle_gamma   84.46225121
_symmetry_Int_Tables_number   1
_chemical_formula_structural   Ta7(Rh3S13)2
_chemical_formula_sum   'Ta7 Rh6 S26'
_cell_volume   826.02648051
_cell_formula_units_Z   1
loop_
 _symmetry_equiv_pos_site_id
 _symmetry_equiv_pos_as_xyz
  1  'x, y, z'
loop_
 _atom_site_type_symbol
 _atom_site_label
 _atom_site_symmetry_multiplicity
 _atom_site_fract_x
 _atom_site_fract_y
 _atom_site_fract_z
 _atom_site_occupancy
  Ta  Ta0  1  0.000000  0.000000  0.000000  1
  Ta  Ta1  1  0.145860  0.492374  0.350647  1
  Ta  Ta2  1  0.854140  0.507626  0.649353  1
  Ta  Ta3  1  0.492416  0.348811  0.149014  1
  Ta  Ta4  1  0.507584  0.651189  0.850986  1
  Ta  Ta5  1  0.652879  0.853008  0.505308  1
  Ta  Ta6  1  0.347121  0.146992  0.494692  1
  Rh  Rh7  1  0.236545  0.684764  0.077152  1
  Rh  Rh8  1  0.763455  0.315236  0.922848  1
  Rh  Rh9  1  0.685333  0.077081  0.237003  1
  Rh  Rh10  1  0.314667  0.922919  0.762997  1
  Rh  Rh11  1  0.922929  0.762960  0.315247  1
  Rh  Rh12  1  0.077071  0.237040  0.684753  1
  S  S13  1  0.954272  0.730288  0.100558  1
  S  S14  1  0.045728  0.269712  0.899442  1
  S  S15  1  0.713175  0.052358  0.019654  1
  S  S16  1  0.286825  0.947642  0.980346  1
  S  S17  1  0.034526  0.972220  0.778033  1
  S  S18  1  0.965474  0.027780  0.221967  1
  S  S19  1  0.648588  0.809603  0.305862  1
  S  S20  1  0.351412  0.190397  0.694138  1
  S  S21  1  0.790502  0.253274  0.720207  1
  S  S22  1  0.209498  0.746726  0.279793  1
  S  S23  1  0.233442  0.667572  0.861915  1
  S  S24  1  0.766558  0.332428  0.138085  1
  S  S25  1  0.862729  0.502665  0.411048  1
  S  S26  1  0.137271  0.497335  0.588952  1
  S  S27  1  0.485102  0.361270  0.930685  1
  S  S28  1  0.514898  0.638730  0.069315  1
  S  S29  1  0.343661  0.880841  0.552476  1
  S  S30  1  0.656339  0.119159  0.447524  1
  S  S31  1  0.186011  0.420243  0.157143  1
  S  S32  1  0.813989  0.579757  0.842857  1
  S  S33  1  0.402126  0.104990  0.257289  1
  S  S34  1  0.597874  0.895010  0.742711  1
  S  S35  1  0.085217  0.204445  0.472992  1
  S  S36  1  0.914783  0.795555  0.527008  1
  S  S37  1  0.571995  0.588300  0.634211  1
  S  S38  1  0.428005  0.411700  0.365789  1
