# generated using pymatgen
data_Pr6In8HgGe
_symmetry_space_group_name_H-M   'P 1'
_cell_length_a   8.61437119
_cell_length_b   8.61433511
_cell_length_c   8.61436100
_cell_angle_alpha   119.98576543
_cell_angle_beta   119.98578054
_cell_angle_gamma   90.02468125
_symmetry_Int_Tables_number   1
_chemical_formula_structural   Pr6In8HgGe
_chemical_formula_sum   'Pr6 In8 Hg1 Ge1'
_cell_volume   452.11259811
_cell_formula_units_Z   1
loop_
 _symmetry_equiv_pos_site_id
 _symmetry_equiv_pos_as_xyz
  1  'x, y, z'
loop_
 _atom_site_type_symbol
 _atom_site_label
 _atom_site_symmetry_multiplicity
 _atom_site_fract_x
 _atom_site_fract_y
 _atom_site_fract_z
 _atom_site_occupancy
  Pr  Pr0  1  0.762218  0.762223  0.000002  1
  Pr  Pr1  1  0.237782  0.237777  0.999998  1
  Pr  Pr2  1  0.675329  0.146667  0.822008  1
  Pr  Pr3  1  0.324671  0.853333  0.177992  1
  Pr  Pr4  1  0.146679  0.324666  0.471343  1
  Pr  Pr5  1  0.853321  0.675334  0.528657  1
  In  In6  1  0.333166  0.818660  0.787958  1
  In  In7  1  0.666834  0.181340  0.212042  1
  In  In8  1  0.030731  0.545227  0.212060  1
  In  In9  1  0.818653  0.030680  0.485485  1
  In  In10  1  0.454778  0.666840  0.485488  1
  In  In11  1  0.969269  0.454773  0.787940  1
  In  In12  1  0.181347  0.969320  0.514515  1
  In  In13  1  0.545222  0.333160  0.514512  1
  Hg  Hg14  1  0.500000  0.500000  0.000000  1
  Ge  Ge15  1  0.000000  0.000000  0.000000  1
