# generated using pymatgen
data_Y8TmRh6
_symmetry_space_group_name_H-M   'P 1'
_cell_length_a   7.40423537
_cell_length_b   7.40423623
_cell_length_c   7.40423565
_cell_angle_alpha   71.36367765
_cell_angle_beta   71.36367419
_cell_angle_gamma   71.36367788
_symmetry_Int_Tables_number   1
_chemical_formula_structural   Y8TmRh6
_chemical_formula_sum   'Y8 Tm1 Rh6'
_cell_volume   353.61924219
_cell_formula_units_Z   1
loop_
 _symmetry_equiv_pos_site_id
 _symmetry_equiv_pos_as_xyz
  1  'x, y, z'
loop_
 _atom_site_type_symbol
 _atom_site_label
 _atom_site_symmetry_multiplicity
 _atom_site_fract_x
 _atom_site_fract_y
 _atom_site_fract_z
 _atom_site_occupancy
  Y  Y0  1  0.797005  0.797005  0.797005  1
  Y  Y1  1  0.202995  0.202995  0.202995  1
  Y  Y2  1  0.159861  0.394487  0.666333  1
  Y  Y3  1  0.666333  0.159861  0.394487  1
  Y  Y4  1  0.394487  0.666333  0.159861  1
  Y  Y5  1  0.840139  0.605513  0.333667  1
  Y  Y6  1  0.333667  0.840139  0.605513  1
  Y  Y7  1  0.605513  0.333667  0.840139  1
  Tm  Tm8  1  0.000000  0.000000  0.000000  1
  Rh  Rh9  1  0.955960  0.163581  0.593309  1
  Rh  Rh10  1  0.593309  0.955960  0.163581  1
  Rh  Rh11  1  0.163581  0.593309  0.955960  1
  Rh  Rh12  1  0.044040  0.836419  0.406691  1
  Rh  Rh13  1  0.406691  0.044040  0.836419  1
  Rh  Rh14  1  0.836419  0.406691  0.044040  1
