# generated using pymatgen
data_Ho9Lu(BiPd2)2
_symmetry_space_group_name_H-M   'P 1'
_cell_length_a   8.79951956
_cell_length_b   8.79952041
_cell_length_c   8.79951991
_cell_angle_alpha   127.63698185
_cell_angle_beta   127.63699241
_cell_angle_gamma   77.21383754
_symmetry_Int_Tables_number   1
_chemical_formula_structural   Ho9Lu(BiPd2)2
_chemical_formula_sum   'Ho9 Lu1 Bi2 Pd4'
_cell_volume   414.60865020
_cell_formula_units_Z   1
loop_
 _symmetry_equiv_pos_site_id
 _symmetry_equiv_pos_as_xyz
  1  'x, y, z'
loop_
 _atom_site_type_symbol
 _atom_site_label
 _atom_site_symmetry_multiplicity
 _atom_site_fract_x
 _atom_site_fract_y
 _atom_site_fract_z
 _atom_site_occupancy
  Ho  Ho0  1  0.500000  0.500000  0.000000  1
  Ho  Ho1  1  0.796215  0.294687  0.809907  1
  Ho  Ho2  1  0.203785  0.705313  0.190093  1
  Ho  Ho3  1  0.484780  0.986308  0.190093  1
  Ho  Ho4  1  0.294687  0.484780  0.498471  1
  Ho  Ho5  1  0.013692  0.203785  0.498471  1
  Ho  Ho6  1  0.515220  0.013692  0.809907  1
  Ho  Ho7  1  0.705313  0.515220  0.501529  1
  Ho  Ho8  1  0.986308  0.796215  0.501529  1
  Lu  Lu9  1  0.000000  0.000000  0.000000  1
  Bi  Bi10  1  0.250041  0.250041  0.000000  1
  Bi  Bi11  1  0.749959  0.749959  0.000000  1
  Pd  Pd12  1  0.136178  0.637211  0.773388  1
  Pd  Pd13  1  0.863822  0.362789  0.226612  1
  Pd  Pd14  1  0.637211  0.863822  0.501033  1
  Pd  Pd15  1  0.362789  0.136178  0.498967  1
