# generated using pymatgen
data_U2Fe2NiRh3
_symmetry_space_group_name_H-M   'P 1'
_cell_length_a   3.87878100
_cell_length_b   3.97731100
_cell_length_c   7.83151400
_cell_angle_alpha   90.00000000
_cell_angle_beta   90.00000000
_cell_angle_gamma   90.00000000
_symmetry_Int_Tables_number   1
_chemical_formula_structural   U2Fe2NiRh3
_chemical_formula_sum   'U2 Fe2 Ni1 Rh3'
_cell_volume   120.81769324
_cell_formula_units_Z   1
loop_
 _symmetry_equiv_pos_site_id
 _symmetry_equiv_pos_as_xyz
  1  'x, y, z'
loop_
 _atom_site_type_symbol
 _atom_site_label
 _atom_site_symmetry_multiplicity
 _atom_site_fract_x
 _atom_site_fract_y
 _atom_site_fract_z
 _atom_site_occupancy
  U  U0  1  0.000000  0.000000  0.739846  1
  U  U1  1  0.000000  0.000000  0.260154  1
  Fe  Fe2  1  0.500000  0.000000  0.500000  1
  Fe  Fe3  1  0.000000  0.500000  0.500000  1
  Ni  Ni4  1  0.000000  0.500000  0.000000  1
  Rh  Rh5  1  0.500000  0.500000  0.744388  1
  Rh  Rh6  1  0.500000  0.500000  0.255612  1
  Rh  Rh7  1  0.500000  0.000000  0.000000  1
