# generated using pymatgen
data_Nd5YCo16(ReP6)2
_symmetry_space_group_name_H-M   'P 1'
_cell_length_a   3.77672400
_cell_length_b   10.63118512
_cell_length_c   12.38458916
_cell_angle_alpha   90.01781819
_cell_angle_beta   90.00000000
_cell_angle_gamma   90.00000000
_symmetry_Int_Tables_number   1
_chemical_formula_structural   Nd5YCo16(ReP6)2
_chemical_formula_sum   'Nd5 Y1 Co16 Re2 P12'
_cell_volume   497.25425922
_cell_formula_units_Z   1
loop_
 _symmetry_equiv_pos_site_id
 _symmetry_equiv_pos_as_xyz
  1  'x, y, z'
loop_
 _atom_site_type_symbol
 _atom_site_label
 _atom_site_symmetry_multiplicity
 _atom_site_fract_x
 _atom_site_fract_y
 _atom_site_fract_z
 _atom_site_occupancy
  Nd  Nd0  1  0.000000  0.500215  0.522213  1
  Nd  Nd1  1  0.500000  0.999568  0.476876  1
  Nd  Nd2  1  0.500000  0.181623  0.206003  1
  Nd  Nd3  1  0.000000  0.682663  0.793459  1
  Nd  Nd4  1  0.000000  0.317767  0.795031  1
  Y  Y5  1  0.500000  0.816794  0.204805  1
  Co  Co6  1  0.500000  0.500648  0.703687  1
  Co  Co7  1  0.000000  0.997329  0.295652  1
  Co  Co8  1  0.000000  0.501501  0.989443  1
  Co  Co9  1  0.500000  0.998024  0.013104  1
  Co  Co10  1  0.500000  0.332840  0.992419  1
  Co  Co11  1  0.500000  0.669105  0.992239  1
  Co  Co12  1  0.000000  0.166139  0.009445  1
  Co  Co13  1  0.000000  0.831680  0.010905  1
  Co  Co14  1  0.500000  0.296490  0.430277  1
  Co  Co15  1  0.500000  0.703761  0.427289  1
  Co  Co16  1  0.000000  0.203192  0.569875  1
  Co  Co17  1  0.000000  0.796420  0.567549  1
  Co  Co18  1  0.500000  0.881814  0.709650  1
  Co  Co19  1  0.500000  0.118718  0.711449  1
  Co  Co20  1  0.000000  0.620596  0.287819  1
  Co  Co21  1  0.000000  0.382166  0.289359  1
  Re  Re22  1  0.500000  0.501342  0.154466  1
  Re  Re23  1  0.000000  0.998800  0.846724  1
  P  P24  1  0.500000  0.500842  0.884997  1
  P  P25  1  0.000000  0.997327  0.117891  1
  P  P26  1  0.500000  0.499913  0.343963  1
  P  P27  1  0.000000  0.000231  0.656019  1
  P  P28  1  0.500000  0.307508  0.614495  1
  P  P29  1  0.500000  0.693670  0.612444  1
  P  P30  1  0.000000  0.191956  0.385656  1
  P  P31  1  0.000000  0.807961  0.381685  1
  P  P32  1  0.500000  0.847799  0.894389  1
  P  P33  1  0.500000  0.151756  0.896513  1
  P  P34  1  0.000000  0.654397  0.107031  1
  P  P35  1  0.000000  0.347442  0.105179  1
