# generated using pymatgen
data_Tb7Ho(LuGa5)4
_symmetry_space_group_name_H-M   'P 1'
_cell_length_a   6.09630015
_cell_length_b   9.60386709
_cell_length_c   11.43606421
_cell_angle_alpha   89.99293881
_cell_angle_beta   90.02099905
_cell_angle_gamma   90.01429913
_symmetry_Int_Tables_number   1
_chemical_formula_structural   Tb7Ho(LuGa5)4
_chemical_formula_sum   'Tb7 Ho1 Lu4 Ga20'
_cell_volume   669.55926166
_cell_formula_units_Z   1
loop_
 _symmetry_equiv_pos_site_id
 _symmetry_equiv_pos_as_xyz
  1  'x, y, z'
loop_
 _atom_site_type_symbol
 _atom_site_label
 _atom_site_symmetry_multiplicity
 _atom_site_fract_x
 _atom_site_fract_y
 _atom_site_fract_z
 _atom_site_occupancy
  Tb  Tb0  1  0.609380  0.988795  0.851822  1
  Tb  Tb1  1  0.109361  0.011248  0.648183  1
  Tb  Tb2  1  0.390614  0.488783  0.148380  1
  Tb  Tb3  1  0.109309  0.488804  0.647975  1
  Tb  Tb4  1  0.390625  0.011216  0.148209  1
  Tb  Tb5  1  0.890597  0.988751  0.351770  1
  Tb  Tb6  1  0.609464  0.511269  0.851798  1
  Ho  Ho7  1  0.890652  0.511231  0.351740  1
  Lu  Lu8  1  0.849201  0.749983  0.074057  1
  Lu  Lu9  1  0.650916  0.749871  0.573856  1
  Lu  Lu10  1  0.150858  0.250002  0.926075  1
  Lu  Lu11  1  0.348929  0.250027  0.425984  1
  Ga  Ga12  1  0.874769  0.052275  0.089880  1
  Ga  Ga13  1  0.625341  0.447791  0.589788  1
  Ga  Ga14  1  0.125284  0.552304  0.910113  1
  Ga  Ga15  1  0.374718  0.947679  0.410119  1
  Ga  Ga16  1  0.125237  0.947719  0.910104  1
  Ga  Ga17  1  0.374387  0.552184  0.410015  1
  Ga  Ga18  1  0.874766  0.447789  0.090177  1
  Ga  Ga19  1  0.625294  0.052292  0.589894  1
  Ga  Ga20  1  0.173571  0.749778  0.250506  1
  Ga  Ga21  1  0.326237  0.749985  0.750395  1
  Ga  Ga22  1  0.826219  0.250014  0.749567  1
  Ga  Ga23  1  0.674012  0.250274  0.249786  1
  Ga  Ga24  1  0.372473  0.750000  0.005384  1
  Ga  Ga25  1  0.127334  0.749885  0.505330  1
  Ga  Ga26  1  0.627484  0.250028  0.994649  1
  Ga  Ga27  1  0.872567  0.250343  0.494307  1
  Ga  Ga28  1  0.601691  0.749609  0.298830  1
  Ga  Ga29  1  0.898751  0.750031  0.798754  1
  Ga  Ga30  1  0.398757  0.250000  0.701256  1
  Ga  Ga31  1  0.101203  0.250039  0.201301  1
