# generated using pymatgen
data_Tb5Er5(TmOs2)2
_symmetry_space_group_name_H-M   'P 1'
_cell_length_a   7.40686373
_cell_length_b   8.99322043
_cell_length_c   6.30465627
_cell_angle_alpha   89.83104603
_cell_angle_beta   89.91917054
_cell_angle_gamma   89.94658300
_symmetry_Int_Tables_number   1
_chemical_formula_structural   Tb5Er5(TmOs2)2
_chemical_formula_sum   'Tb5 Er5 Tm2 Os4'
_cell_volume   419.96055350
_cell_formula_units_Z   1
loop_
 _symmetry_equiv_pos_site_id
 _symmetry_equiv_pos_as_xyz
  1  'x, y, z'
loop_
 _atom_site_type_symbol
 _atom_site_label
 _atom_site_symmetry_multiplicity
 _atom_site_fract_x
 _atom_site_fract_y
 _atom_site_fract_z
 _atom_site_occupancy
  Tb  Tb0  1  0.039191  0.250903  0.630246  1
  Tb  Tb1  1  0.960207  0.749151  0.370680  1
  Tb  Tb2  1  0.460827  0.749103  0.129465  1
  Tb  Tb3  1  0.539976  0.250579  0.869759  1
  Tb  Tb4  1  0.175012  0.063083  0.167199  1
  Er  Er5  1  0.824867  0.935989  0.832370  1
  Er  Er6  1  0.326013  0.935959  0.666720  1
  Er  Er7  1  0.825402  0.563291  0.833058  1
  Er  Er8  1  0.674250  0.063494  0.333731  1
  Er  Er9  1  0.174092  0.437820  0.166928  1
  Tm  Tm10  1  0.674432  0.436602  0.333362  1
  Tm  Tm11  1  0.325787  0.563323  0.666647  1
  Os  Os12  1  0.383546  0.251126  0.458430  1
  Os  Os13  1  0.617486  0.750141  0.542788  1
  Os  Os14  1  0.117286  0.748421  0.955981  1
  Os  Os15  1  0.881628  0.251013  0.042635  1
