# generated using pymatgen
data_Pr17Sm3Si15Sb
_symmetry_space_group_name_H-M   'P 1'
_cell_length_a   7.90175788
_cell_length_b   7.88942823
_cell_length_c   15.41531700
_cell_angle_alpha   89.98028272
_cell_angle_beta   89.74891098
_cell_angle_gamma   89.92490149
_symmetry_Int_Tables_number   1
_chemical_formula_structural   Pr17Sm3Si15Sb
_chemical_formula_sum   'Pr17 Sm3 Si15 Sb1'
_cell_volume   960.98617408
_cell_formula_units_Z   1
loop_
 _symmetry_equiv_pos_site_id
 _symmetry_equiv_pos_as_xyz
  1  'x, y, z'
loop_
 _atom_site_type_symbol
 _atom_site_label
 _atom_site_symmetry_multiplicity
 _atom_site_fract_x
 _atom_site_fract_y
 _atom_site_fract_z
 _atom_site_occupancy
  Pr  Pr0  1  0.688240  0.692863  0.496286  1
  Pr  Pr1  1  0.378641  0.011569  0.445144  1
  Pr  Pr2  1  0.492843  0.874516  0.696491  1
  Pr  Pr3  1  0.511752  0.120269  0.195197  1
  Pr  Pr4  1  0.878562  0.486769  0.302179  1
  Pr  Pr5  1  0.119896  0.517844  0.807933  1
  Pr  Pr6  1  0.623986  0.986208  0.947786  1
  Pr  Pr7  1  0.003451  0.384574  0.548851  1
  Pr  Pr8  1  0.988706  0.619381  0.055556  1
  Pr  Pr9  1  0.128194  0.980083  0.880442  1
  Pr  Pr10  1  0.521860  0.625738  0.127201  1
  Pr  Pr11  1  0.486920  0.381803  0.627581  1
  Pr  Pr12  1  0.628899  0.523399  0.875099  1
  Pr  Pr13  1  0.373470  0.477579  0.371854  1
  Pr  Pr14  1  0.873969  0.021608  0.376887  1
  Pr  Pr15  1  0.979921  0.125845  0.123102  1
  Pr  Pr16  1  0.012063  0.861507  0.619547  1
  Sm  Sm17  1  0.310528  0.309175  0.000863  1
  Sm  Sm18  1  0.190794  0.808671  0.249288  1
  Sm  Sm19  1  0.798116  0.191092  0.752745  1
  Si  Si20  1  0.329171  0.691393  0.956697  1
  Si  Si21  1  0.667240  0.305863  0.454789  1
  Si  Si22  1  0.694123  0.329628  0.045499  1
  Si  Si23  1  0.305644  0.670537  0.543989  1
  Si  Si24  1  0.808614  0.829483  0.205188  1
  Si  Si25  1  0.170280  0.191157  0.294076  1
  Si  Si26  1  0.833584  0.809357  0.794895  1
  Si  Si27  1  0.287103  0.920566  0.061968  1
  Si  Si28  1  0.576722  0.788239  0.308684  1
  Si  Si29  1  0.435230  0.212792  0.819093  1
  Si  Si30  1  0.789137  0.577018  0.690958  1
  Si  Si31  1  0.213048  0.421076  0.188806  1
  Si  Si32  1  0.708667  0.080216  0.562069  1
  Si  Si33  1  0.924219  0.287687  0.939393  1
  Si  Si34  1  0.080982  0.713822  0.436439  1
  Sb  Sb35  1  0.185429  0.170670  0.697429  1
