# generated using pymatgen
data_Er4Lu6CuGePb6
_symmetry_space_group_name_H-M   'P 1'
_cell_length_a   9.08032015
_cell_length_b   9.08031940
_cell_length_c   6.63779715
_cell_angle_alpha   89.98785988
_cell_angle_beta   89.98786463
_cell_angle_gamma   120.05638750
_symmetry_Int_Tables_number   1
_chemical_formula_structural   Er4Lu6CuGePb6
_chemical_formula_sum   'Er4 Lu6 Cu1 Ge1 Pb6'
_cell_volume   473.70700729
_cell_formula_units_Z   1
loop_
 _symmetry_equiv_pos_site_id
 _symmetry_equiv_pos_as_xyz
  1  'x, y, z'
loop_
 _atom_site_type_symbol
 _atom_site_label
 _atom_site_symmetry_multiplicity
 _atom_site_fract_x
 _atom_site_fract_y
 _atom_site_fract_z
 _atom_site_occupancy
  Er  Er0  1  0.249948  0.999995  0.742885  1
  Er  Er1  1  0.750052  0.000005  0.257115  1
  Er  Er2  1  0.999995  0.249948  0.742885  1
  Er  Er3  1  0.000005  0.750052  0.257115  1
  Lu  Lu4  1  0.750548  0.750548  0.742534  1
  Lu  Lu5  1  0.249452  0.249452  0.257466  1
  Lu  Lu6  1  0.333441  0.666559  0.500000  1
  Lu  Lu7  1  0.666559  0.333441  0.500000  1
  Lu  Lu8  1  0.666584  0.333416  0.000000  1
  Lu  Lu9  1  0.333416  0.666584  0.000000  1
  Cu  Cu10  1  0.000000  0.000000  0.000000  1
  Ge  Ge11  1  0.000000  0.000000  0.500000  1
  Pb  Pb12  1  0.605671  0.999646  0.749230  1
  Pb  Pb13  1  0.394329  0.000354  0.250770  1
  Pb  Pb14  1  0.999646  0.605671  0.749230  1
  Pb  Pb15  1  0.000354  0.394329  0.250770  1
  Pb  Pb16  1  0.395059  0.395059  0.749339  1
  Pb  Pb17  1  0.604941  0.604941  0.250661  1
