# generated using pymatgen
data_Dy3Cr2P6Ir7
_symmetry_space_group_name_H-M   'P 1'
_cell_length_a   3.92894400
_cell_length_b   11.22159000
_cell_length_c   12.67500300
_cell_angle_alpha   90.00000000
_cell_angle_beta   90.00000000
_cell_angle_gamma   90.00000000
_symmetry_Int_Tables_number   1
_chemical_formula_structural   Dy3Cr2P6Ir7
_chemical_formula_sum   'Dy6 Cr4 P12 Ir14'
_cell_volume   558.82819080
_cell_formula_units_Z   2
loop_
 _symmetry_equiv_pos_site_id
 _symmetry_equiv_pos_as_xyz
  1  'x, y, z'
loop_
 _atom_site_type_symbol
 _atom_site_label
 _atom_site_symmetry_multiplicity
 _atom_site_fract_x
 _atom_site_fract_y
 _atom_site_fract_z
 _atom_site_occupancy
  Dy  Dy0  1  0.000000  0.500000  0.518217  1
  Dy  Dy1  1  0.500000  0.000000  0.481783  1
  Dy  Dy2  1  0.500000  0.817836  0.201399  1
  Dy  Dy3  1  0.500000  0.182164  0.201399  1
  Dy  Dy4  1  0.000000  0.682164  0.798601  1
  Dy  Dy5  1  0.000000  0.317836  0.798601  1
  Cr  Cr6  1  0.500000  0.500000  0.163033  1
  Cr  Cr7  1  0.000000  0.000000  0.836967  1
  Cr  Cr8  1  0.000000  0.500000  0.987795  1
  Cr  Cr9  1  0.500000  0.000000  0.012205  1
  P  P10  1  0.500000  0.500000  0.879815  1
  P  P11  1  0.000000  0.000000  0.120185  1
  P  P12  1  0.500000  0.500000  0.344672  1
  P  P13  1  0.000000  0.000000  0.655328  1
  P  P14  1  0.500000  0.313227  0.619176  1
  P  P15  1  0.500000  0.686773  0.619176  1
  P  P16  1  0.000000  0.186773  0.380824  1
  P  P17  1  0.000000  0.813227  0.380824  1
  P  P18  1  0.500000  0.849991  0.894683  1
  P  P19  1  0.500000  0.150009  0.894683  1
  P  P20  1  0.000000  0.650009  0.105317  1
  P  P21  1  0.000000  0.349991  0.105317  1
  Ir  Ir22  1  0.500000  0.500000  0.697065  1
  Ir  Ir23  1  0.000000  0.000000  0.302935  1
  Ir  Ir24  1  0.500000  0.335373  0.990921  1
  Ir  Ir25  1  0.500000  0.664627  0.990921  1
  Ir  Ir26  1  0.000000  0.164627  0.009079  1
  Ir  Ir27  1  0.000000  0.835373  0.009079  1
  Ir  Ir28  1  0.500000  0.292805  0.429410  1
  Ir  Ir29  1  0.500000  0.707195  0.429410  1
  Ir  Ir30  1  0.000000  0.207195  0.570590  1
  Ir  Ir31  1  0.000000  0.792805  0.570590  1
  Ir  Ir32  1  0.500000  0.873447  0.714540  1
  Ir  Ir33  1  0.500000  0.126553  0.714540  1
  Ir  Ir34  1  0.000000  0.626553  0.285460  1
  Ir  Ir35  1  0.000000  0.373447  0.285460  1
