# generated using pymatgen
data_Lu5MnFeTe2
_symmetry_space_group_name_H-M   'P 1'
_cell_length_a   7.61876120
_cell_length_b   7.61876128
_cell_length_c   15.03748900
_cell_angle_alpha   90.00000000
_cell_angle_beta   90.00000000
_cell_angle_gamma   150.30942747
_symmetry_Int_Tables_number   1
_chemical_formula_structural   Lu5MnFeTe2
_chemical_formula_sum   'Lu10 Mn2 Fe2 Te4'
_cell_volume   432.34075439
_cell_formula_units_Z   2
loop_
 _symmetry_equiv_pos_site_id
 _symmetry_equiv_pos_as_xyz
  1  'x, y, z'
loop_
 _atom_site_type_symbol
 _atom_site_label
 _atom_site_symmetry_multiplicity
 _atom_site_fract_x
 _atom_site_fract_y
 _atom_site_fract_z
 _atom_site_occupancy
  Lu  Lu0  1  0.962324  0.037676  0.379342  1
  Lu  Lu1  1  0.037676  0.962324  0.620658  1
  Lu  Lu2  1  0.037676  0.962324  0.879342  1
  Lu  Lu3  1  0.962324  0.037676  0.120658  1
  Lu  Lu4  1  0.742695  0.257305  0.632185  1
  Lu  Lu5  1  0.257305  0.742695  0.367815  1
  Lu  Lu6  1  0.257305  0.742695  0.132185  1
  Lu  Lu7  1  0.742695  0.257305  0.867815  1
  Lu  Lu8  1  0.396547  0.603453  0.750000  1
  Lu  Lu9  1  0.603453  0.396547  0.250000  1
  Mn  Mn10  1  0.836178  0.163822  0.250000  1
  Mn  Mn11  1  0.163822  0.836178  0.750000  1
  Fe  Fe12  1  0.404140  0.595860  0.250000  1
  Fe  Fe13  1  0.595860  0.404140  0.750000  1
  Te  Te14  1  0.619239  0.380761  0.039063  1
  Te  Te15  1  0.380761  0.619239  0.960937  1
  Te  Te16  1  0.380761  0.619239  0.539063  1
  Te  Te17  1  0.619239  0.380761  0.460937  1
