# generated using pymatgen
data_Lu5Pt8Au
_symmetry_space_group_name_H-M   'P 1'
_cell_length_a   9.68062500
_cell_length_b   9.68062500
_cell_length_c   5.72204600
_cell_angle_alpha   90.00000000
_cell_angle_beta   90.00000000
_cell_angle_gamma   90.00000000
_symmetry_Int_Tables_number   1
_chemical_formula_structural   Lu5Pt8Au
_chemical_formula_sum   'Lu10 Pt16 Au2'
_cell_volume   536.23868210
_cell_formula_units_Z   2
loop_
 _symmetry_equiv_pos_site_id
 _symmetry_equiv_pos_as_xyz
  1  'x, y, z'
loop_
 _atom_site_type_symbol
 _atom_site_label
 _atom_site_symmetry_multiplicity
 _atom_site_fract_x
 _atom_site_fract_y
 _atom_site_fract_z
 _atom_site_occupancy
  Lu  Lu0  1  0.453942  0.814468  0.000000  1
  Lu  Lu1  1  0.546058  0.185532  0.000000  1
  Lu  Lu2  1  0.185532  0.546058  0.000000  1
  Lu  Lu3  1  0.814468  0.453942  0.000000  1
  Lu  Lu4  1  0.500000  0.500000  0.500000  1
  Lu  Lu5  1  0.314468  0.046058  0.500000  1
  Lu  Lu6  1  0.685532  0.953942  0.500000  1
  Lu  Lu7  1  0.953942  0.685532  0.500000  1
  Lu  Lu8  1  0.046058  0.314468  0.500000  1
  Lu  Lu9  1  0.000000  0.000000  0.000000  1
  Pt  Pt10  1  0.194334  0.805666  0.249422  1
  Pt  Pt11  1  0.805666  0.194334  0.750578  1
  Pt  Pt12  1  0.805666  0.194334  0.249422  1
  Pt  Pt13  1  0.194334  0.805666  0.750578  1
  Pt  Pt14  1  0.443144  0.780819  0.500000  1
  Pt  Pt15  1  0.556856  0.219181  0.500000  1
  Pt  Pt16  1  0.219181  0.556856  0.500000  1
  Pt  Pt17  1  0.780819  0.443144  0.500000  1
  Pt  Pt18  1  0.305666  0.305666  0.250578  1
  Pt  Pt19  1  0.694334  0.694334  0.749422  1
  Pt  Pt20  1  0.694334  0.694334  0.250578  1
  Pt  Pt21  1  0.305666  0.305666  0.749422  1
  Pt  Pt22  1  0.280819  0.056856  0.000000  1
  Pt  Pt23  1  0.719181  0.943144  0.000000  1
  Pt  Pt24  1  0.943144  0.719181  0.000000  1
  Pt  Pt25  1  0.056856  0.280819  0.000000  1
  Au  Au26  1  0.000000  0.000000  0.500000  1
  Au  Au27  1  0.500000  0.500000  0.000000  1
