# generated using pymatgen
data_Sc7PI12
_symmetry_space_group_name_H-M   'P 1'
_cell_length_a   9.38233465
_cell_length_b   9.38233475
_cell_length_c   9.38233497
_cell_angle_alpha   108.06970068
_cell_angle_beta   108.06969659
_cell_angle_gamma   108.06970263
_symmetry_Int_Tables_number   1
_chemical_formula_structural   Sc7PI12
_chemical_formula_sum   'Sc7 P1 I12'
_cell_volume   666.73741634
_cell_formula_units_Z   1
loop_
 _symmetry_equiv_pos_site_id
 _symmetry_equiv_pos_as_xyz
  1  'x, y, z'
loop_
 _atom_site_type_symbol
 _atom_site_label
 _atom_site_symmetry_multiplicity
 _atom_site_fract_x
 _atom_site_fract_y
 _atom_site_fract_z
 _atom_site_occupancy
  Sc  Sc0  1  0.500000  0.500000  0.500000  1
  Sc  Sc1  1  0.971137  0.904900  0.708571  1
  Sc  Sc2  1  0.708571  0.971137  0.904900  1
  Sc  Sc3  1  0.904900  0.708571  0.971137  1
  Sc  Sc4  1  0.028863  0.095100  0.291429  1
  Sc  Sc5  1  0.291429  0.028863  0.095100  1
  Sc  Sc6  1  0.095100  0.291429  0.028863  1
  P  P7  1  0.000000  0.000000  0.000000  1
  I  I8  1  0.074252  0.222509  0.691788  1
  I  I9  1  0.691788  0.074252  0.222509  1
  I  I10  1  0.222509  0.691788  0.074252  1
  I  I11  1  0.925748  0.777491  0.308212  1
  I  I12  1  0.308212  0.925748  0.777491  1
  I  I13  1  0.777491  0.308212  0.925748  1
  I  I14  1  0.617281  0.844843  0.542407  1
  I  I15  1  0.542407  0.617281  0.844843  1
  I  I16  1  0.844843  0.542407  0.617281  1
  I  I17  1  0.382719  0.155157  0.457593  1
  I  I18  1  0.457593  0.382719  0.155157  1
  I  I19  1  0.155157  0.457593  0.382719  1
