# generated using pymatgen
data_YHo2Ga2Co9B4
_symmetry_space_group_name_H-M   'P 1'
_cell_length_a   5.14396002
_cell_length_b   5.14328216
_cell_length_c   9.56787700
_cell_angle_alpha   90.00013976
_cell_angle_beta   89.99996671
_cell_angle_gamma   119.98747861
_symmetry_Int_Tables_number   1
_chemical_formula_structural   YHo2Ga2Co9B4
_chemical_formula_sum   'Y1 Ho2 Ga2 Co9 B4'
_cell_volume   219.24966216
_cell_formula_units_Z   1
loop_
 _symmetry_equiv_pos_site_id
 _symmetry_equiv_pos_as_xyz
  1  'x, y, z'
loop_
 _atom_site_type_symbol
 _atom_site_label
 _atom_site_symmetry_multiplicity
 _atom_site_fract_x
 _atom_site_fract_y
 _atom_site_fract_z
 _atom_site_occupancy
  Y  Y0  1  0.999990  0.000000  0.999998  1
  Ho  Ho1  1  0.999993  0.000000  0.340579  1
  Ho  Ho2  1  0.000001  0.999999  0.659400  1
  Ga  Ga3  1  0.333601  0.666836  0.000040  1
  Ga  Ga4  1  0.666375  0.333162  0.000040  1
  Co  Co5  1  0.499998  0.000000  0.499985  1
  Co  Co6  1  0.499995  0.500000  0.499983  1
  Co  Co7  1  0.999995  0.499998  0.499984  1
  Co  Co8  1  0.499992  0.000000  0.207537  1
  Co  Co9  1  0.499992  0.500002  0.207528  1
  Co  Co10  1  0.999992  0.499999  0.207471  1
  Co  Co11  1  0.500000  0.000000  0.792479  1
  Co  Co12  1  0.499999  0.500002  0.792487  1
  Co  Co13  1  0.999997  0.499999  0.792541  1
  B  B14  1  0.333341  0.666671  0.349386  1
  B  B15  1  0.666643  0.333329  0.349386  1
  B  B16  1  0.666668  0.333366  0.650588  1
  B  B17  1  0.333326  0.666634  0.650588  1
