# generated using pymatgen
data_Nb3Mo(AsO5)4
_symmetry_space_group_name_H-M   'P 1'
_cell_length_a   5.15934543
_cell_length_b   9.17054851
_cell_length_c   9.55479969
_cell_angle_alpha   90.14004871
_cell_angle_beta   89.77316710
_cell_angle_gamma   89.93265885
_symmetry_Int_Tables_number   1
_chemical_formula_structural   Nb3Mo(AsO5)4
_chemical_formula_sum   'Nb3 Mo1 As4 O20'
_cell_volume   452.07084488
_cell_formula_units_Z   1
loop_
 _symmetry_equiv_pos_site_id
 _symmetry_equiv_pos_as_xyz
  1  'x, y, z'
loop_
 _atom_site_type_symbol
 _atom_site_label
 _atom_site_symmetry_multiplicity
 _atom_site_fract_x
 _atom_site_fract_y
 _atom_site_fract_z
 _atom_site_occupancy
  Nb  Nb0  1  0.877842  0.644582  0.101931  1
  Nb  Nb1  1  0.375151  0.847294  0.895081  1
  Nb  Nb2  1  0.135227  0.141902  0.395183  1
  Mo  Mo3  1  0.628355  0.350690  0.601338  1
  As  As4  1  0.882897  0.034217  0.712940  1
  As  As5  1  0.386829  0.472542  0.295368  1
  As  As6  1  0.111861  0.523652  0.786083  1
  As  As7  1  0.620301  0.970019  0.207035  1
  O  O8  1  0.036409  0.504752  0.961822  1
  O  O9  1  0.537355  0.990757  0.034403  1
  O  O10  1  0.953063  0.015790  0.536042  1
  O  O11  1  0.457672  0.499400  0.469094  1
  O  O12  1  0.243739  0.694862  0.761167  1
  O  O13  1  0.742341  0.799214  0.239281  1
  O  O14  1  0.771921  0.208124  0.746445  1
  O  O15  1  0.255886  0.301119  0.265302  1
  O  O16  1  0.880369  0.305280  0.478303  1
  O  O17  1  0.385706  0.198648  0.523713  1
  O  O18  1  0.107167  0.798898  0.022792  1
  O  O19  1  0.609114  0.697474  0.976698  1
  O  O20  1  0.171909  0.601171  0.242391  1
  O  O21  1  0.665022  0.902554  0.754709  1
  O  O22  1  0.828018  0.103376  0.256331  1
  O  O23  1  0.334472  0.393854  0.740948  1
  O  O24  1  0.667177  0.487521  0.198518  1
  O  O25  1  0.163611  0.008741  0.804444  1
  O  O26  1  0.336491  0.985602  0.303737  1
  O  O27  1  0.834094  0.517963  0.688900  1
