# generated using pymatgen
data_Zr4AlCoRe6
_symmetry_space_group_name_H-M   'P 1'
_cell_length_a   5.22836000
_cell_length_b   5.22836000
_cell_length_c   8.65106500
_cell_angle_alpha   90.00000000
_cell_angle_beta   90.00000000
_cell_angle_gamma   120.00001267
_symmetry_Int_Tables_number   1
_chemical_formula_structural   Zr4AlCoRe6
_chemical_formula_sum   'Zr4 Al1 Co1 Re6'
_cell_volume   204.80054968
_cell_formula_units_Z   1
loop_
 _symmetry_equiv_pos_site_id
 _symmetry_equiv_pos_as_xyz
  1  'x, y, z'
loop_
 _atom_site_type_symbol
 _atom_site_label
 _atom_site_symmetry_multiplicity
 _atom_site_fract_x
 _atom_site_fract_y
 _atom_site_fract_z
 _atom_site_occupancy
  Zr  Zr0  1  0.333333  0.666667  0.437201  1
  Zr  Zr1  1  0.666667  0.333333  0.562799  1
  Zr  Zr2  1  0.666667  0.333333  0.931036  1
  Zr  Zr3  1  0.333333  0.666667  0.068964  1
  Al  Al4  1  0.000000  0.000000  0.000000  1
  Co  Co5  1  0.000000  0.000000  0.500000  1
  Re  Re6  1  0.830760  0.169240  0.253195  1
  Re  Re7  1  0.830760  0.661519  0.253195  1
  Re  Re8  1  0.338481  0.169240  0.253195  1
  Re  Re9  1  0.169240  0.830760  0.746805  1
  Re  Re10  1  0.169240  0.338481  0.746805  1
  Re  Re11  1  0.661519  0.830760  0.746805  1
