# generated using pymatgen
data_Ca3Sm(TcB4)4
_symmetry_space_group_name_H-M   'P 1'
_cell_length_a   3.58902100
_cell_length_b   6.02024998
_cell_length_c   11.63936803
_cell_angle_alpha   90.05046525
_cell_angle_beta   90.00000000
_cell_angle_gamma   90.00000000
_symmetry_Int_Tables_number   1
_chemical_formula_structural   Ca3Sm(TcB4)4
_chemical_formula_sum   'Ca3 Sm1 Tc4 B16'
_cell_volume   251.48944145
_cell_formula_units_Z   1
loop_
 _symmetry_equiv_pos_site_id
 _symmetry_equiv_pos_as_xyz
  1  'x, y, z'
loop_
 _atom_site_type_symbol
 _atom_site_label
 _atom_site_symmetry_multiplicity
 _atom_site_fract_x
 _atom_site_fract_y
 _atom_site_fract_z
 _atom_site_occupancy
  Ca  Ca0  1  0.500000  0.374153  0.148825  1
  Ca  Ca1  1  0.500000  0.626340  0.849793  1
  Ca  Ca2  1  0.500000  0.126667  0.651793  1
  Sm  Sm3  1  0.500000  0.872832  0.348876  1
  Tc  Tc4  1  0.500000  0.372035  0.416329  1
  Tc  Tc5  1  0.500000  0.629816  0.583227  1
  Tc  Tc6  1  0.500000  0.129526  0.917030  1
  Tc  Tc7  1  0.500000  0.871901  0.082572  1
  B  B8  1  0.000000  0.113914  0.046880  1
  B  B9  1  0.000000  0.885930  0.952928  1
  B  B10  1  0.000000  0.385530  0.547933  1
  B  B11  1  0.000000  0.610722  0.453904  1
  B  B12  1  0.000000  0.136692  0.468710  1
  B  B13  1  0.000000  0.863163  0.533084  1
  B  B14  1  0.000000  0.364682  0.967430  1
  B  B15  1  0.000000  0.634859  0.031775  1
  B  B16  1  0.000000  0.025607  0.191030  1
  B  B17  1  0.000000  0.975804  0.807751  1
  B  B18  1  0.000000  0.475894  0.692600  1
  B  B19  1  0.000000  0.523923  0.307890  1
  B  B20  1  0.000000  0.218152  0.315222  1
  B  B21  1  0.000000  0.782360  0.685543  1
  B  B22  1  0.000000  0.283328  0.815305  1
  B  B23  1  0.000000  0.716169  0.183573  1
