# generated using pymatgen
data_Tb13LuTh2(InRh)4
_symmetry_space_group_name_H-M   'P 1'
_cell_length_a   9.73484970
_cell_length_b   9.73484914
_cell_length_c   9.75477900
_cell_angle_alpha   59.93225033
_cell_angle_beta   59.93225224
_cell_angle_gamma   60.05932466
_symmetry_Int_Tables_number   1
_chemical_formula_structural   Tb13LuTh2(InRh)4
_chemical_formula_sum   'Tb13 Lu1 Th2 In4 Rh4'
_cell_volume   653.29504164
_cell_formula_units_Z   1
loop_
 _symmetry_equiv_pos_site_id
 _symmetry_equiv_pos_as_xyz
  1  'x, y, z'
loop_
 _atom_site_type_symbol
 _atom_site_label
 _atom_site_symmetry_multiplicity
 _atom_site_fract_x
 _atom_site_fract_y
 _atom_site_fract_z
 _atom_site_occupancy
  Tb  Tb0  1  0.601626  0.195500  0.601437  1
  Tb  Tb1  1  0.195500  0.601626  0.601437  1
  Tb  Tb2  1  0.061667  0.439792  0.439732  1
  Tb  Tb3  1  0.439792  0.061667  0.058809  1
  Tb  Tb4  1  0.439792  0.061667  0.439732  1
  Tb  Tb5  1  0.061667  0.439792  0.058809  1
  Tb  Tb6  1  0.438254  0.438254  0.061746  1
  Tb  Tb7  1  0.060164  0.060164  0.439836  1
  Tb  Tb8  1  0.187164  0.816381  0.811461  1
  Tb  Tb9  1  0.816381  0.187164  0.184994  1
  Tb  Tb10  1  0.816381  0.187164  0.811461  1
  Tb  Tb11  1  0.187164  0.816381  0.184994  1
  Tb  Tb12  1  0.812589  0.812589  0.187411  1
  Lu  Lu13  1  0.192341  0.192341  0.807659  1
  Th  Th14  1  0.594904  0.594904  0.599150  1
  Th  Th15  1  0.594904  0.594904  0.211043  1
  In  In16  1  0.833220  0.833220  0.833736  1
  In  In17  1  0.833220  0.833220  0.499823  1
  In  In18  1  0.833264  0.500409  0.833163  1
  In  In19  1  0.500409  0.833264  0.833163  1
  Rh  Rh20  1  0.391687  0.391687  0.396019  1
  Rh  Rh21  1  0.391687  0.391687  0.820606  1
  Rh  Rh22  1  0.396209  0.820009  0.391891  1
  Rh  Rh23  1  0.820009  0.396209  0.391891  1
