# generated using pymatgen
data_Mg5Si9P3Ir19
_symmetry_space_group_name_H-M   'P 1'
_cell_length_a   12.74010600
_cell_length_b   12.74010598
_cell_length_c   3.90621000
_cell_angle_alpha   90.00000000
_cell_angle_beta   90.00000000
_cell_angle_gamma   119.99999485
_symmetry_Int_Tables_number   1
_chemical_formula_structural   Mg5Si9P3Ir19
_chemical_formula_sum   'Mg5 Si9 P3 Ir19'
_cell_volume   549.07582649
_cell_formula_units_Z   1
loop_
 _symmetry_equiv_pos_site_id
 _symmetry_equiv_pos_as_xyz
  1  'x, y, z'
loop_
 _atom_site_type_symbol
 _atom_site_label
 _atom_site_symmetry_multiplicity
 _atom_site_fract_x
 _atom_site_fract_y
 _atom_site_fract_z
 _atom_site_occupancy
  Mg  Mg0  1  0.333333  0.666667  0.500000  1
  Mg  Mg1  1  0.666667  0.333333  0.500000  1
  Mg  Mg2  1  0.000000  0.817169  0.000000  1
  Mg  Mg3  1  0.182831  0.182831  0.000000  1
  Mg  Mg4  1  0.817169  0.000000  0.000000  1
  Si  Si5  1  0.000000  0.634405  0.500000  1
  Si  Si6  1  0.365595  0.365595  0.500000  1
  Si  Si7  1  0.634405  0.000000  0.500000  1
  Si  Si8  1  0.519112  0.684774  0.000000  1
  Si  Si9  1  0.315226  0.834338  0.000000  1
  Si  Si10  1  0.165662  0.480888  0.000000  1
  Si  Si11  1  0.480888  0.165662  0.000000  1
  Si  Si12  1  0.684774  0.519112  0.000000  1
  Si  Si13  1  0.834338  0.315226  0.000000  1
  P  P14  1  0.000000  0.177213  0.500000  1
  P  P15  1  0.822787  0.822787  0.500000  1
  P  P16  1  0.177213  0.000000  0.500000  1
  Ir  Ir17  1  0.511695  0.869496  0.000000  1
  Ir  Ir18  1  0.130504  0.642199  0.000000  1
  Ir  Ir19  1  0.357801  0.488305  0.000000  1
  Ir  Ir20  1  0.488305  0.357801  0.000000  1
  Ir  Ir21  1  0.869496  0.511695  0.000000  1
  Ir  Ir22  1  0.642199  0.130504  0.000000  1
  Ir  Ir23  1  0.000000  0.448440  0.500000  1
  Ir  Ir24  1  0.551560  0.551560  0.500000  1
  Ir  Ir25  1  0.448440  0.000000  0.500000  1
  Ir  Ir26  1  0.000000  0.277213  0.000000  1
  Ir  Ir27  1  0.722787  0.722787  0.000000  1
  Ir  Ir28  1  0.277213  0.000000  0.000000  1
  Ir  Ir29  1  0.629074  0.809881  0.500000  1
  Ir  Ir30  1  0.190119  0.819194  0.500000  1
  Ir  Ir31  1  0.180806  0.370926  0.500000  1
  Ir  Ir32  1  0.370926  0.180806  0.500000  1
  Ir  Ir33  1  0.809881  0.629074  0.500000  1
  Ir  Ir34  1  0.819194  0.190119  0.500000  1
  Ir  Ir35  1  0.000000  0.000000  0.500000  1
