# generated using pymatgen
data_Hf4Mn5CrSi2
_symmetry_space_group_name_H-M   'P 1'
_cell_length_a   4.93749639
_cell_length_b   4.99533971
_cell_length_c   8.08418700
_cell_angle_alpha   90.00000000
_cell_angle_beta   90.00000000
_cell_angle_gamma   120.38830523
_symmetry_Int_Tables_number   1
_chemical_formula_structural   Hf4Mn5CrSi2
_chemical_formula_sum   'Hf4 Mn5 Cr1 Si2'
_cell_volume   171.99909088
_cell_formula_units_Z   1
loop_
 _symmetry_equiv_pos_site_id
 _symmetry_equiv_pos_as_xyz
  1  'x, y, z'
loop_
 _atom_site_type_symbol
 _atom_site_label
 _atom_site_symmetry_multiplicity
 _atom_site_fract_x
 _atom_site_fract_y
 _atom_site_fract_z
 _atom_site_occupancy
  Hf  Hf0  1  0.333009  0.666505  0.433855  1
  Hf  Hf1  1  0.666984  0.333492  0.564605  1
  Hf  Hf2  1  0.666984  0.333492  0.935395  1
  Hf  Hf3  1  0.333009  0.666505  0.066145  1
  Mn  Mn4  1  0.825018  0.169883  0.250000  1
  Mn  Mn5  1  0.825018  0.655135  0.250000  1
  Mn  Mn6  1  0.351367  0.175684  0.250000  1
  Mn  Mn7  1  0.173405  0.830425  0.750000  1
  Mn  Mn8  1  0.173405  0.342980  0.750000  1
  Cr  Cr9  1  0.650904  0.825452  0.750000  1
  Si  Si10  1  0.000449  0.000225  0.496819  1
  Si  Si11  1  0.000449  0.000225  0.003181  1
