# generated using pymatgen
data_Nd3Co(P3Rh4)2
_symmetry_space_group_name_H-M   'P 1'
_cell_length_a   3.92131300
_cell_length_b   11.25559700
_cell_length_c   12.97255000
_cell_angle_alpha   90.00000000
_cell_angle_beta   90.00000000
_cell_angle_gamma   90.00000000
_symmetry_Int_Tables_number   1
_chemical_formula_structural   Nd3Co(P3Rh4)2
_chemical_formula_sum   'Nd6 Co2 P12 Rh16'
_cell_volume   572.56579197
_cell_formula_units_Z   2
loop_
 _symmetry_equiv_pos_site_id
 _symmetry_equiv_pos_as_xyz
  1  'x, y, z'
loop_
 _atom_site_type_symbol
 _atom_site_label
 _atom_site_symmetry_multiplicity
 _atom_site_fract_x
 _atom_site_fract_y
 _atom_site_fract_z
 _atom_site_occupancy
  Nd  Nd0  1  0.000000  0.500000  0.520826  1
  Nd  Nd1  1  0.500000  0.000000  0.479174  1
  Nd  Nd2  1  0.500000  0.815847  0.201596  1
  Nd  Nd3  1  0.500000  0.184153  0.201596  1
  Nd  Nd4  1  0.000000  0.684153  0.798404  1
  Nd  Nd5  1  0.000000  0.315847  0.798404  1
  Co  Co6  1  0.000000  0.500000  0.983331  1
  Co  Co7  1  0.500000  0.000000  0.016669  1
  P  P8  1  0.500000  0.500000  0.884943  1
  P  P9  1  0.000000  0.000000  0.115057  1
  P  P10  1  0.500000  0.500000  0.346878  1
  P  P11  1  0.000000  0.000000  0.653122  1
  P  P12  1  0.500000  0.313221  0.618356  1
  P  P13  1  0.500000  0.686779  0.618356  1
  P  P14  1  0.000000  0.186779  0.381644  1
  P  P15  1  0.000000  0.813221  0.381644  1
  P  P16  1  0.500000  0.854202  0.896637  1
  P  P17  1  0.500000  0.145798  0.896637  1
  P  P18  1  0.000000  0.645798  0.103363  1
  P  P19  1  0.000000  0.354202  0.103363  1
  Rh  Rh20  1  0.500000  0.500000  0.167083  1
  Rh  Rh21  1  0.000000  0.000000  0.832917  1
  Rh  Rh22  1  0.500000  0.500000  0.704424  1
  Rh  Rh23  1  0.000000  0.000000  0.295576  1
  Rh  Rh24  1  0.500000  0.337186  0.996313  1
  Rh  Rh25  1  0.500000  0.662814  0.996313  1
  Rh  Rh26  1  0.000000  0.162814  0.003687  1
  Rh  Rh27  1  0.000000  0.837186  0.003687  1
  Rh  Rh28  1  0.500000  0.292918  0.429991  1
  Rh  Rh29  1  0.500000  0.707082  0.429991  1
  Rh  Rh30  1  0.000000  0.207082  0.570009  1
  Rh  Rh31  1  0.000000  0.792918  0.570009  1
  Rh  Rh32  1  0.500000  0.875229  0.711993  1
  Rh  Rh33  1  0.500000  0.124771  0.711993  1
  Rh  Rh34  1  0.000000  0.624771  0.288007  1
  Rh  Rh35  1  0.000000  0.375229  0.288007  1
