# generated using pymatgen
data_NdHo5CoBr10
_symmetry_space_group_name_H-M   'P 1'
_cell_length_a   7.36199930
_cell_length_b   9.24307374
_cell_length_c   9.18467810
_cell_angle_alpha   108.24003275
_cell_angle_beta   104.52457051
_cell_angle_gamma   96.93334768
_symmetry_Int_Tables_number   1
_chemical_formula_structural   NdHo5CoBr10
_chemical_formula_sum   'Nd1 Ho5 Co1 Br10'
_cell_volume   560.96853468
_cell_formula_units_Z   1
loop_
 _symmetry_equiv_pos_site_id
 _symmetry_equiv_pos_as_xyz
  1  'x, y, z'
loop_
 _atom_site_type_symbol
 _atom_site_label
 _atom_site_symmetry_multiplicity
 _atom_site_fract_x
 _atom_site_fract_y
 _atom_site_fract_z
 _atom_site_occupancy
  Nd  Nd0  1  0.970449  0.092806  0.291067  1
  Ho  Ho1  1  0.353225  0.175317  0.125214  1
  Ho  Ho2  1  0.031420  0.911838  0.722240  1
  Ho  Ho3  1  0.119263  0.756579  0.046258  1
  Ho  Ho4  1  0.646331  0.823845  0.870215  1
  Ho  Ho5  1  0.877026  0.242662  0.955060  1
  Co  Co6  1  0.998680  0.000598  0.002761  1
  Br  Br7  1  0.451438  0.081171  0.818038  1
  Br  Br8  1  0.749594  0.541494  0.912114  1
  Br  Br9  1  0.246221  0.456877  0.081452  1
  Br  Br10  1  0.913420  0.169658  0.637957  1
  Br  Br11  1  0.656622  0.730194  0.554759  1
  Br  Br12  1  0.538991  0.912357  0.173495  1
  Br  Br13  1  0.090815  0.821109  0.370588  1
  Br  Br14  1  0.771493  0.352141  0.245094  1
  Br  Br15  1  0.216689  0.655904  0.747720  1
  Br  Br16  1  0.368321  0.275450  0.445965  1
