# generated using pymatgen
data_La6MgCd22P
_symmetry_space_group_name_H-M   'P 1'
_cell_length_a   10.15881487
_cell_length_b   10.15881490
_cell_length_c   10.15881500
_cell_angle_alpha   60.00000293
_cell_angle_beta   60.00000283
_cell_angle_gamma   60.00000387
_symmetry_Int_Tables_number   1
_chemical_formula_structural   La6MgCd22P
_chemical_formula_sum   'La6 Mg1 Cd22 P1'
_cell_volume   741.33444358
_cell_formula_units_Z   1
loop_
 _symmetry_equiv_pos_site_id
 _symmetry_equiv_pos_as_xyz
  1  'x, y, z'
loop_
 _atom_site_type_symbol
 _atom_site_label
 _atom_site_symmetry_multiplicity
 _atom_site_fract_x
 _atom_site_fract_y
 _atom_site_fract_z
 _atom_site_occupancy
  La  La0  1  0.794689  0.794689  0.205311  1
  La  La1  1  0.205311  0.794689  0.205311  1
  La  La2  1  0.794689  0.205311  0.205311  1
  La  La3  1  0.205311  0.205311  0.794689  1
  La  La4  1  0.794689  0.205311  0.794689  1
  La  La5  1  0.205311  0.794689  0.794689  1
  Mg  Mg6  1  0.500000  0.500000  0.500000  1
  Cd  Cd7  1  0.830049  0.830049  0.509853  1
  Cd  Cd8  1  0.830049  0.509853  0.830049  1
  Cd  Cd9  1  0.509853  0.830049  0.830049  1
  Cd  Cd10  1  0.830049  0.830049  0.830049  1
  Cd  Cd11  1  0.169951  0.169951  0.490147  1
  Cd  Cd12  1  0.169951  0.490147  0.169951  1
  Cd  Cd13  1  0.490147  0.169951  0.169951  1
  Cd  Cd14  1  0.169951  0.169951  0.169951  1
  Cd  Cd15  1  0.620253  0.620253  0.139240  1
  Cd  Cd16  1  0.620253  0.139240  0.620253  1
  Cd  Cd17  1  0.139240  0.620253  0.620253  1
  Cd  Cd18  1  0.620253  0.620253  0.620253  1
  Cd  Cd19  1  0.379747  0.379747  0.860760  1
  Cd  Cd20  1  0.379747  0.860760  0.379747  1
  Cd  Cd21  1  0.860760  0.379747  0.379747  1
  Cd  Cd22  1  0.379747  0.379747  0.379747  1
  Cd  Cd23  1  0.000000  0.000000  0.500000  1
  Cd  Cd24  1  0.500000  0.000000  0.500000  1
  Cd  Cd25  1  0.000000  0.500000  0.500000  1
  Cd  Cd26  1  0.500000  0.500000  0.000000  1
  Cd  Cd27  1  0.000000  0.500000  0.000000  1
  Cd  Cd28  1  0.500000  0.000000  0.000000  1
  P  P29  1  0.000000  0.000000  0.000000  1
