# generated using pymatgen
data_Ho10Hg8Ir3Au
_symmetry_space_group_name_H-M   'P 1'
_cell_length_a   3.69070000
_cell_length_b   7.91462208
_cell_length_c   17.91694700
_cell_angle_alpha   89.94947016
_cell_angle_beta   90.00000000
_cell_angle_gamma   90.00000000
_symmetry_Int_Tables_number   1
_chemical_formula_structural   Ho10Hg8Ir3Au
_chemical_formula_sum   'Ho10 Hg8 Ir3 Au1'
_cell_volume   523.36269982
_cell_formula_units_Z   1
loop_
 _symmetry_equiv_pos_site_id
 _symmetry_equiv_pos_as_xyz
  1  'x, y, z'
loop_
 _atom_site_type_symbol
 _atom_site_label
 _atom_site_symmetry_multiplicity
 _atom_site_fract_x
 _atom_site_fract_y
 _atom_site_fract_z
 _atom_site_occupancy
  Ho  Ho0  1  0.000000  0.111759  0.413091  1
  Ho  Ho1  1  0.000000  0.891635  0.590371  1
  Ho  Ho2  1  0.000000  0.390761  0.908959  1
  Ho  Ho3  1  0.000000  0.613114  0.082668  1
  Ho  Ho4  1  0.000000  0.216541  0.216210  1
  Ho  Ho5  1  0.000000  0.760408  0.781777  1
  Ho  Ho6  1  0.000000  0.259259  0.718772  1
  Ho  Ho7  1  0.000000  0.756017  0.285821  1
  Ho  Ho8  1  0.000000  0.000792  0.999625  1
  Ho  Ho9  1  0.000000  0.502623  0.500268  1
  Hg  Hg10  1  0.500000  0.417401  0.357105  1
  Hg  Hg11  1  0.500000  0.579870  0.644028  1
  Hg  Hg12  1  0.500000  0.079178  0.856016  1
  Hg  Hg13  1  0.500000  0.918119  0.143471  1
  Hg  Hg14  1  0.500000  0.289028  0.058725  1
  Hg  Hg15  1  0.500000  0.708270  0.939184  1
  Hg  Hg16  1  0.500000  0.210638  0.562253  1
  Hg  Hg17  1  0.500000  0.789052  0.438836  1
  Ir  Ir18  1  0.500000  0.027031  0.303660  1
  Ir  Ir19  1  0.500000  0.977358  0.698904  1
  Ir  Ir20  1  0.500000  0.479465  0.800550  1
  Au  Au21  1  0.500000  0.521679  0.199709  1
