# generated using pymatgen
data_Tb3Lu3Th2(MgRu)2
_symmetry_space_group_name_H-M   'P 1'
_cell_length_a   9.69721838
_cell_length_b   9.69721912
_cell_length_c   9.69721800
_cell_angle_alpha   59.99999700
_cell_angle_beta   59.99999449
_cell_angle_gamma   59.99999687
_symmetry_Int_Tables_number   1
_chemical_formula_structural   Tb3Lu3Th2(MgRu)2
_chemical_formula_sum   'Tb6 Lu6 Th4 Mg4 Ru4'
_cell_volume   644.80219650
_cell_formula_units_Z   2
loop_
 _symmetry_equiv_pos_site_id
 _symmetry_equiv_pos_as_xyz
  1  'x, y, z'
loop_
 _atom_site_type_symbol
 _atom_site_label
 _atom_site_symmetry_multiplicity
 _atom_site_fract_x
 _atom_site_fract_y
 _atom_site_fract_z
 _atom_site_occupancy
  Tb  Tb0  1  0.186352  0.813648  0.813648  1
  Tb  Tb1  1  0.813648  0.186352  0.186352  1
  Tb  Tb2  1  0.813648  0.186352  0.813648  1
  Tb  Tb3  1  0.186352  0.813648  0.186352  1
  Tb  Tb4  1  0.813648  0.813648  0.186352  1
  Tb  Tb5  1  0.186352  0.186352  0.813648  1
  Lu  Lu6  1  0.065414  0.434586  0.434586  1
  Lu  Lu7  1  0.434586  0.065414  0.065414  1
  Lu  Lu8  1  0.434586  0.065414  0.434586  1
  Lu  Lu9  1  0.065414  0.434586  0.065414  1
  Lu  Lu10  1  0.434586  0.434586  0.065414  1
  Lu  Lu11  1  0.065414  0.065414  0.434586  1
  Th  Th12  1  0.596895  0.596895  0.596895  1
  Th  Th13  1  0.596895  0.596895  0.209317  1
  Th  Th14  1  0.596895  0.209317  0.596895  1
  Th  Th15  1  0.209317  0.596895  0.596895  1
  Mg  Mg16  1  0.829965  0.829965  0.829965  1
  Mg  Mg17  1  0.829965  0.829965  0.510104  1
  Mg  Mg18  1  0.829965  0.510104  0.829965  1
  Mg  Mg19  1  0.510104  0.829965  0.829965  1
  Ru  Ru20  1  0.392666  0.392666  0.392666  1
  Ru  Ru21  1  0.392666  0.392666  0.822002  1
  Ru  Ru22  1  0.392666  0.822002  0.392666  1
  Ru  Ru23  1  0.822002  0.392666  0.392666  1
