# generated using pymatgen
data_Nd2Fe7CoNi4P7
_symmetry_space_group_name_H-M   'P 1'
_cell_length_a   9.09344448
_cell_length_b   9.11150118
_cell_length_c   3.68105800
_cell_angle_alpha   90.00000000
_cell_angle_beta   90.00000000
_cell_angle_gamma   120.06976030
_symmetry_Int_Tables_number   1
_chemical_formula_structural   Nd2Fe7CoNi4P7
_chemical_formula_sum   'Nd2 Fe7 Co1 Ni4 P7'
_cell_volume   263.94651366
_cell_formula_units_Z   1
loop_
 _symmetry_equiv_pos_site_id
 _symmetry_equiv_pos_as_xyz
  1  'x, y, z'
loop_
 _atom_site_type_symbol
 _atom_site_label
 _atom_site_symmetry_multiplicity
 _atom_site_fract_x
 _atom_site_fract_y
 _atom_site_fract_z
 _atom_site_occupancy
  Nd  Nd0  1  0.668526  0.334770  0.000000  1
  Nd  Nd1  1  0.331786  0.666023  0.500000  1
  Fe  Fe2  1  0.272621  0.119069  0.000000  1
  Fe  Fe3  1  0.845988  0.728464  0.000000  1
  Fe  Fe4  1  0.882607  0.151571  0.000000  1
  Fe  Fe5  1  0.952429  0.383834  0.500000  1
  Fe  Fe6  1  0.098476  0.877419  0.500000  1
  Fe  Fe7  1  0.787454  0.904207  0.500000  1
  Fe  Fe8  1  0.115623  0.210695  0.500000  1
  Co  Co9  1  0.057506  0.630389  0.000000  1
  Ni  Ni10  1  0.567363  0.943045  0.000000  1
  Ni  Ni11  1  0.369138  0.431431  0.000000  1
  Ni  Ni12  1  0.434123  0.048646  0.500000  1
  Ni  Ni13  1  0.615171  0.567266  0.500000  1
  P  P14  1  0.288443  0.889297  0.000000  1
  P  P15  1  0.597995  0.707108  0.000000  1
  P  P16  1  0.101552  0.406347  0.000000  1
  P  P17  1  0.392395  0.283379  0.500000  1
  P  P18  1  0.896417  0.603370  0.500000  1
  P  P19  1  0.722827  0.115022  0.500000  1
  P  P20  1  0.001561  0.998646  0.000000  1
