# generated using pymatgen
data_Ho2PaAs4Pd7
_symmetry_space_group_name_H-M   'P 1'
_cell_length_a   8.09887786
_cell_length_b   8.09887744
_cell_length_c   9.64811039
_cell_angle_alpha   55.15616025
_cell_angle_beta   55.15616223
_cell_angle_gamma   29.60438166
_symmetry_Int_Tables_number   1
_chemical_formula_structural   Ho2PaAs4Pd7
_chemical_formula_sum   'Ho2 Pa1 As4 Pd7'
_cell_volume   252.19786496
_cell_formula_units_Z   1
loop_
 _symmetry_equiv_pos_site_id
 _symmetry_equiv_pos_as_xyz
  1  'x, y, z'
loop_
 _atom_site_type_symbol
 _atom_site_label
 _atom_site_symmetry_multiplicity
 _atom_site_fract_x
 _atom_site_fract_y
 _atom_site_fract_z
 _atom_site_occupancy
  Ho  Ho0  1  0.678037  0.678037  0.325750  1
  Ho  Ho1  1  0.321963  0.321963  0.674250  1
  Pa  Pa2  1  0.000000  0.000000  0.000000  1
  As  As3  1  0.345142  0.345142  0.243856  1
  As  As4  1  0.654858  0.654858  0.756144  1
  As  As5  1  0.895911  0.895911  0.824715  1
  As  As6  1  0.104089  0.104089  0.175285  1
  Pd  Pd7  1  0.306995  0.306995  0.023991  1
  Pd  Pd8  1  0.693005  0.693005  0.976009  1
  Pd  Pd9  1  0.513319  0.513319  0.700695  1
  Pd  Pd10  1  0.831347  0.831347  0.431776  1
  Pd  Pd11  1  0.486681  0.486681  0.299305  1
  Pd  Pd12  1  0.168653  0.168653  0.568224  1
  Pd  Pd13  1  0.000000  0.000000  0.500000  1
