# generated using pymatgen
data_YbSb12(OsPd)2
_symmetry_space_group_name_H-M   'P 1'
_cell_length_a   8.23712710
_cell_length_b   8.21375487
_cell_length_c   8.21375431
_cell_angle_alpha   109.41443479
_cell_angle_beta   109.46870011
_cell_angle_gamma   109.41542419
_symmetry_Int_Tables_number   1
_chemical_formula_structural   YbSb12(OsPd)2
_chemical_formula_sum   'Yb1 Sb12 Os2 Pd2'
_cell_volume   428.40311631
_cell_formula_units_Z   1
loop_
 _symmetry_equiv_pos_site_id
 _symmetry_equiv_pos_as_xyz
  1  'x, y, z'
loop_
 _atom_site_type_symbol
 _atom_site_label
 _atom_site_symmetry_multiplicity
 _atom_site_fract_x
 _atom_site_fract_y
 _atom_site_fract_z
 _atom_site_occupancy
  Yb  Yb0  1  0.000000  0.000000  0.000000  1
  Sb  Sb1  1  0.841047  0.656865  0.505839  1
  Sb  Sb2  1  0.158953  0.343135  0.494161  1
  Sb  Sb3  1  0.158953  0.664792  0.815820  1
  Sb  Sb4  1  0.841047  0.335208  0.184180  1
  Sb  Sb5  1  0.657392  0.506419  0.841705  1
  Sb  Sb6  1  0.342608  0.493581  0.158295  1
  Sb  Sb7  1  0.657392  0.815688  0.150973  1
  Sb  Sb8  1  0.342608  0.184312  0.849027  1
  Sb  Sb9  1  0.507566  0.844059  0.663507  1
  Sb  Sb10  1  0.492434  0.155941  0.336493  1
  Sb  Sb11  1  0.188147  0.847794  0.340353  1
  Sb  Sb12  1  0.811853  0.152206  0.659647  1
  Os  Os13  1  0.500000  0.500000  0.500000  1
  Os  Os14  1  0.500000  0.000000  0.000000  1
  Pd  Pd15  1  0.000000  0.500000  0.000000  1
  Pd  Pd16  1  0.000000  0.000000  0.500000  1
