# generated using pymatgen
data_Eu4Cr3SnO12
_symmetry_space_group_name_H-M   'P 1'
_cell_length_a   5.53062906
_cell_length_b   5.65197053
_cell_length_c   7.88382814
_cell_angle_alpha   90.32216074
_cell_angle_beta   90.16402734
_cell_angle_gamma   89.89619523
_symmetry_Int_Tables_number   1
_chemical_formula_structural   Eu4Cr3SnO12
_chemical_formula_sum   'Eu4 Cr3 Sn1 O12'
_cell_volume   246.43490640
_cell_formula_units_Z   1
loop_
 _symmetry_equiv_pos_site_id
 _symmetry_equiv_pos_as_xyz
  1  'x, y, z'
loop_
 _atom_site_type_symbol
 _atom_site_label
 _atom_site_symmetry_multiplicity
 _atom_site_fract_x
 _atom_site_fract_y
 _atom_site_fract_z
 _atom_site_occupancy
  Eu  Eu0  1  0.511579  0.550604  0.260777  1
  Eu  Eu1  1  0.992309  0.042253  0.260514  1
  Eu  Eu2  1  0.488421  0.449396  0.739223  1
  Eu  Eu3  1  0.007691  0.957747  0.739486  1
  Cr  Cr4  1  0.500000  0.000000  0.500000  1
  Cr  Cr5  1  0.000000  0.500000  0.500000  1
  Cr  Cr6  1  0.500000  0.000000  0.000000  1
  Sn  Sn7  1  0.000000  0.500000  0.000000  1
  O  O8  1  0.411113  0.971034  0.249982  1
  O  O9  1  0.091067  0.472672  0.254091  1
  O  O10  1  0.588887  0.028966  0.750018  1
  O  O11  1  0.908933  0.527328  0.745909  1
  O  O12  1  0.795953  0.801248  0.051369  1
  O  O13  1  0.704888  0.294304  0.457157  1
  O  O14  1  0.204294  0.206234  0.542896  1
  O  O15  1  0.302820  0.704611  0.948844  1
  O  O16  1  0.204047  0.198752  0.948631  1
  O  O17  1  0.295112  0.705696  0.542843  1
  O  O18  1  0.795706  0.793766  0.457104  1
  O  O19  1  0.697180  0.295389  0.051156  1
