# generated using pymatgen
data_InGa(SeBr7)2
_symmetry_space_group_name_H-M   'P 1'
_cell_length_a   6.91707791
_cell_length_b   7.21633994
_cell_length_c   15.40175553
_cell_angle_alpha   74.50012622
_cell_angle_beta   90.07927760
_cell_angle_gamma   90.78017995
_symmetry_Int_Tables_number   1
_chemical_formula_structural   InGa(SeBr7)2
_chemical_formula_sum   'In1 Ga1 Se2 Br14'
_cell_volume   740.76286931
_cell_formula_units_Z   1
loop_
 _symmetry_equiv_pos_site_id
 _symmetry_equiv_pos_as_xyz
  1  'x, y, z'
loop_
 _atom_site_type_symbol
 _atom_site_label
 _atom_site_symmetry_multiplicity
 _atom_site_fract_x
 _atom_site_fract_y
 _atom_site_fract_z
 _atom_site_occupancy
  In  In0  1  0.002452  0.698105  0.663861  1
  Ga  Ga1  1  0.002997  0.696921  0.163102  1
  Se  Se2  1  0.599754  0.999915  0.501309  1
  Se  Se3  1  0.399097  0.997513  0.005450  1
  Br  Br4  1  0.401994  0.898978  0.396193  1
  Br  Br5  1  0.399946  0.238569  0.533791  1
  Br  Br6  1  0.173383  0.198517  0.905875  1
  Br  Br7  1  0.821184  0.206670  0.399016  1
  Br  Br8  1  0.125943  0.005909  0.164995  1
  Br  Br9  1  0.597911  0.241382  0.037548  1
  Br  Br10  1  0.131922  0.643132  0.028269  1
  Br  Br11  1  0.859191  0.650822  0.517115  1
  Br  Br12  1  0.664832  0.672406  0.165860  1
  Br  Br13  1  0.366566  0.670496  0.665966  1
  Br  Br14  1  0.132994  0.469112  0.289571  1
  Br  Br15  1  0.862619  0.451503  0.801253  1
  Br  Br16  1  0.591425  0.903863  0.897501  1
  Br  Br17  1  0.865789  0.026784  0.663123  1
