# generated using pymatgen
data_Dy13Y3Cd4Ir3Os
_symmetry_space_group_name_H-M   'P 1'
_cell_length_a   9.67903104
_cell_length_b   9.68089456
_cell_length_c   9.67916971
_cell_angle_alpha   59.58493094
_cell_angle_beta   59.53884357
_cell_angle_gamma   59.48670040
_symmetry_Int_Tables_number   1
_chemical_formula_structural   Dy13Y3Cd4Ir3Os
_chemical_formula_sum   'Dy13 Y3 Cd4 Ir3 Os1'
_cell_volume   634.55871111
_cell_formula_units_Z   1
loop_
 _symmetry_equiv_pos_site_id
 _symmetry_equiv_pos_as_xyz
  1  'x, y, z'
loop_
 _atom_site_type_symbol
 _atom_site_label
 _atom_site_symmetry_multiplicity
 _atom_site_fract_x
 _atom_site_fract_y
 _atom_site_fract_z
 _atom_site_occupancy
  Dy  Dy0  1  0.349291  0.349202  0.349362  1
  Dy  Dy1  1  0.348552  0.348460  0.956943  1
  Dy  Dy2  1  0.348523  0.957147  0.348379  1
  Dy  Dy3  1  0.957137  0.348388  0.348402  1
  Dy  Dy4  1  0.811647  0.189045  0.189323  1
  Dy  Dy5  1  0.187856  0.809403  0.809409  1
  Dy  Dy6  1  0.189213  0.811528  0.189265  1
  Dy  Dy7  1  0.809338  0.187781  0.809484  1
  Dy  Dy8  1  0.189307  0.189098  0.811446  1
  Dy  Dy9  1  0.809269  0.809439  0.187810  1
  Dy  Dy10  1  0.938882  0.561266  0.561007  1
  Dy  Dy11  1  0.557052  0.939479  0.939310  1
  Dy  Dy12  1  0.561303  0.938834  0.561184  1
  Y  Y13  1  0.939161  0.557534  0.939069  1
  Y  Y14  1  0.561387  0.561532  0.938731  1
  Y  Y15  1  0.938941  0.938947  0.557532  1
  Cd  Cd16  1  0.579724  0.579762  0.579875  1
  Cd  Cd17  1  0.580403  0.580429  0.257080  1
  Cd  Cd18  1  0.580449  0.257053  0.580434  1
  Cd  Cd19  1  0.257209  0.580409  0.580369  1
  Ir  Ir20  1  0.143271  0.143354  0.577240  1
  Ir  Ir21  1  0.143150  0.577334  0.143408  1
  Ir  Ir22  1  0.577410  0.143092  0.143309  1
  Os  Os23  1  0.141527  0.141486  0.141630  1
