# generated using pymatgen
data_Dy6Er4InPb5
_symmetry_space_group_name_H-M   'P 1'
_cell_length_a   9.01989802
_cell_length_b   9.01989784
_cell_length_c   6.63993900
_cell_angle_alpha   90.00000000
_cell_angle_beta   90.00000000
_cell_angle_gamma   120.05574039
_symmetry_Int_Tables_number   1
_chemical_formula_structural   Dy6Er4InPb5
_chemical_formula_sum   'Dy6 Er4 In1 Pb5'
_cell_volume   467.57766783
_cell_formula_units_Z   1
loop_
 _symmetry_equiv_pos_site_id
 _symmetry_equiv_pos_as_xyz
  1  'x, y, z'
loop_
 _atom_site_type_symbol
 _atom_site_label
 _atom_site_symmetry_multiplicity
 _atom_site_fract_x
 _atom_site_fract_y
 _atom_site_fract_z
 _atom_site_occupancy
  Dy  Dy0  1  0.760322  0.760322  0.750000  1
  Dy  Dy1  1  0.239526  0.004896  0.750000  1
  Dy  Dy2  1  0.004896  0.239526  0.750000  1
  Dy  Dy3  1  0.238101  0.238101  0.250000  1
  Dy  Dy4  1  0.761950  0.999581  0.250000  1
  Dy  Dy5  1  0.999581  0.761950  0.250000  1
  Er  Er6  1  0.663754  0.333645  0.998228  1
  Er  Er7  1  0.333645  0.663754  0.998228  1
  Er  Er8  1  0.333645  0.663754  0.501772  1
  Er  Er9  1  0.663754  0.333645  0.501772  1
  In  In10  1  0.397373  0.397373  0.750000  1
  Pb  Pb11  1  0.605702  0.000472  0.750000  1
  Pb  Pb12  1  0.000472  0.605702  0.750000  1
  Pb  Pb13  1  0.603853  0.603853  0.250000  1
  Pb  Pb14  1  0.395048  0.998375  0.250000  1
  Pb  Pb15  1  0.998375  0.395048  0.250000  1
