# generated using pymatgen
data_La3Nd9(GeI3)4
_symmetry_space_group_name_H-M   'P 1'
_cell_length_a   10.93451579
_cell_length_b   10.90993361
_cell_length_c   10.90039366
_cell_angle_alpha   109.49344923
_cell_angle_beta   109.38810391
_cell_angle_gamma   109.42344157
_symmetry_Int_Tables_number   1
_chemical_formula_structural   La3Nd9(GeI3)4
_chemical_formula_sum   'La3 Nd9 Ge4 I12'
_cell_volume   1002.35771731
_cell_formula_units_Z   1
loop_
 _symmetry_equiv_pos_site_id
 _symmetry_equiv_pos_as_xyz
  1  'x, y, z'
loop_
 _atom_site_type_symbol
 _atom_site_label
 _atom_site_symmetry_multiplicity
 _atom_site_fract_x
 _atom_site_fract_y
 _atom_site_fract_z
 _atom_site_occupancy
  La  La0  1  0.470289  0.485145  0.235145  1
  La  La1  1  0.749785  0.235120  0.264053  1
  La  La2  1  0.749785  0.014665  0.485732  1
  Nd  Nd3  1  0.234202  0.466415  0.483406  1
  Nd  Nd4  1  0.264740  0.748828  0.231613  1
  Nd  Nd5  1  0.034886  0.267443  0.017443  1
  Nd  Nd6  1  0.017832  0.033766  0.267273  1
  Nd  Nd7  1  0.480896  0.748757  0.015264  1
  Nd  Nd8  1  0.480896  0.232139  0.465632  1
  Nd  Nd9  1  0.017832  0.484067  0.750559  1
  Nd  Nd10  1  0.264740  0.015911  0.033126  1
  Nd  Nd11  1  0.234202  0.267786  0.750795  1
  Ge  Ge12  1  0.249420  0.248918  0.250175  1
  Ge  Ge13  1  0.497918  0.998959  0.248959  1
  Ge  Ge14  1  0.001765  0.250883  0.500883  1
  Ge  Ge15  1  0.249420  0.500503  0.999245  1
  I  I16  1  0.249646  0.755976  0.743640  1
  I  I17  1  0.512066  0.506033  0.756033  1
  I  I18  1  0.987485  0.743743  0.993743  1
  I  I19  1  0.744464  0.254258  0.759699  1
  I  I20  1  0.996290  0.987564  0.745610  1
  I  I21  1  0.249646  0.993670  0.506005  1
  I  I22  1  0.757736  0.515284  0.512330  1
  I  I23  1  0.502784  0.245278  0.987386  1
  I  I24  1  0.757736  0.742451  0.245406  1
  I  I25  1  0.744464  0.990206  0.984766  1
  I  I26  1  0.996290  0.508726  0.250680  1
  I  I27  1  0.502784  0.757505  0.515398  1
