# generated using pymatgen
data_Ac5In11IrRh5
_symmetry_space_group_name_H-M   'P 1'
_cell_length_a   10.79546400
_cell_length_b   10.79546363
_cell_length_c   4.54412700
_cell_angle_alpha   90.00000000
_cell_angle_beta   90.00000000
_cell_angle_gamma   90.91800615
_symmetry_Int_Tables_number   1
_chemical_formula_structural   Ac5In11IrRh5
_chemical_formula_sum   'Ac5 In11 Ir1 Rh5'
_cell_volume   529.51385256
_cell_formula_units_Z   1
loop_
 _symmetry_equiv_pos_site_id
 _symmetry_equiv_pos_as_xyz
  1  'x, y, z'
loop_
 _atom_site_type_symbol
 _atom_site_label
 _atom_site_symmetry_multiplicity
 _atom_site_fract_x
 _atom_site_fract_y
 _atom_site_fract_z
 _atom_site_occupancy
  Ac  Ac0  1  0.041829  0.686200  0.000000  1
  Ac  Ac1  1  0.313800  0.958171  0.000000  1
  Ac  Ac2  1  0.689260  0.042142  0.000000  1
  Ac  Ac3  1  0.957858  0.310740  0.000000  1
  Ac  Ac4  1  0.499571  0.500429  0.500000  1
  In  In5  1  0.296316  0.297079  0.000000  1
  In  In6  1  0.702921  0.703684  0.000000  1
  In  In7  1  0.718567  0.281433  0.500000  1
  In  In8  1  0.840192  0.542841  0.500000  1
  In  In9  1  0.157430  0.156363  0.500000  1
  In  In10  1  0.843637  0.842570  0.500000  1
  In  In11  1  0.159532  0.456762  0.500000  1
  In  In12  1  0.280011  0.719989  0.500000  1
  In  In13  1  0.543238  0.840468  0.500000  1
  In  In14  1  0.001001  0.998999  0.000000  1
  In  In15  1  0.457159  0.159808  0.500000  1
  Ir  Ir16  1  0.899499  0.100501  0.500000  1
  Rh  Rh17  1  0.547760  0.273306  0.000000  1
  Rh  Rh18  1  0.451680  0.727147  0.000000  1
  Rh  Rh19  1  0.099189  0.900811  0.500000  1
  Rh  Rh20  1  0.726694  0.452240  0.000000  1
  Rh  Rh21  1  0.272853  0.548320  0.000000  1
