# generated using pymatgen
data_La12ZnCo4Ag
_symmetry_space_group_name_H-M   'P 1'
_cell_length_a   8.73551103
_cell_length_b   8.73551249
_cell_length_c   8.73551100
_cell_angle_alpha   113.68811828
_cell_angle_beta   108.96931264
_cell_angle_gamma   105.85360276
_symmetry_Int_Tables_number   1
_chemical_formula_structural   La12ZnCo4Ag
_chemical_formula_sum   'La12 Zn1 Co4 Ag1'
_cell_volume   510.69768293
_cell_formula_units_Z   1
loop_
 _symmetry_equiv_pos_site_id
 _symmetry_equiv_pos_as_xyz
  1  'x, y, z'
loop_
 _atom_site_type_symbol
 _atom_site_label
 _atom_site_symmetry_multiplicity
 _atom_site_fract_x
 _atom_site_fract_y
 _atom_site_fract_z
 _atom_site_occupancy
  La  La0  1  0.418287  0.217858  0.200429  1
  La  La1  1  0.581713  0.782142  0.799571  1
  La  La2  1  0.017429  0.217858  0.799571  1
  La  La3  1  0.982571  0.782142  0.200429  1
  La  La4  1  0.174343  0.301082  0.475424  1
  La  La5  1  0.825657  0.698918  0.524576  1
  La  La6  1  0.174343  0.698918  0.873263  1
  La  La7  1  0.825657  0.301082  0.126737  1
  La  La8  1  0.329798  0.642775  0.312977  1
  La  La9  1  0.670202  0.357225  0.687023  1
  La  La10  1  0.329798  0.016821  0.687023  1
  La  La11  1  0.670202  0.983179  0.312977  1
  Zn  Zn12  1  0.000000  0.000000  0.000000  1
  Co  Co13  1  0.329363  0.000000  0.329363  1
  Co  Co14  1  0.670637  0.000000  0.670637  1
  Co  Co15  1  0.137313  0.637313  0.500000  1
  Co  Co16  1  0.862687  0.362687  0.500000  1
  Ag  Ag17  1  0.500000  0.500000  0.000000  1
