# generated using pymatgen
data_Pr5VWO12
_symmetry_space_group_name_H-M   'P 1'
_cell_length_a   7.14452905
_cell_length_b   7.14452815
_cell_length_c   7.69226310
_cell_angle_alpha   74.42178395
_cell_angle_beta   74.42179023
_cell_angle_gamma   50.66763833
_symmetry_Int_Tables_number   1
_chemical_formula_structural   Pr5VWO12
_chemical_formula_sum   'Pr5 V1 W1 O12'
_cell_volume   289.98877105
_cell_formula_units_Z   1
loop_
 _symmetry_equiv_pos_site_id
 _symmetry_equiv_pos_as_xyz
  1  'x, y, z'
loop_
 _atom_site_type_symbol
 _atom_site_label
 _atom_site_symmetry_multiplicity
 _atom_site_fract_x
 _atom_site_fract_y
 _atom_site_fract_z
 _atom_site_occupancy
  Pr  Pr0  1  0.315299  0.293406  0.358556  1
  Pr  Pr1  1  0.706594  0.684701  0.641444  1
  Pr  Pr2  1  0.694687  0.694018  0.165542  1
  Pr  Pr3  1  0.305982  0.305313  0.834458  1
  Pr  Pr4  1  0.007254  0.992746  0.500000  1
  V  V5  1  0.745767  0.254233  0.000000  1
  W  W6  1  0.232017  0.767983  0.000000  1
  O  O7  1  0.101774  0.593278  0.574205  1
  O  O8  1  0.011332  0.987781  0.177639  1
  O  O9  1  0.406722  0.898226  0.425795  1
  O  O10  1  0.480987  0.521112  0.173013  1
  O  O11  1  0.101671  0.584853  0.079463  1
  O  O12  1  0.911219  0.399659  0.420799  1
  O  O13  1  0.012219  0.988668  0.822361  1
  O  O14  1  0.600341  0.088780  0.579201  1
  O  O15  1  0.478888  0.519013  0.826987  1
  O  O16  1  0.574711  0.102610  0.079444  1
  O  O17  1  0.415147  0.898329  0.920537  1
  O  O18  1  0.897390  0.425289  0.920556  1
