# generated using pymatgen
data_ZrMnNbB2Ru5
_symmetry_space_group_name_H-M   'P 1'
_cell_length_a   9.34358720
_cell_length_b   9.34358746
_cell_length_c   3.03461000
_cell_angle_alpha   90.00000000
_cell_angle_beta   90.00000000
_cell_angle_gamma   90.23887001
_symmetry_Int_Tables_number   1
_chemical_formula_structural   ZrMnNbB2Ru5
_chemical_formula_sum   'Zr2 Mn2 Nb2 B4 Ru10'
_cell_volume   264.92711408
_cell_formula_units_Z   2
loop_
 _symmetry_equiv_pos_site_id
 _symmetry_equiv_pos_as_xyz
  1  'x, y, z'
loop_
 _atom_site_type_symbol
 _atom_site_label
 _atom_site_symmetry_multiplicity
 _atom_site_fract_x
 _atom_site_fract_y
 _atom_site_fract_z
 _atom_site_occupancy
  Zr  Zr0  1  0.822487  0.677513  0.000000  1
  Zr  Zr1  1  0.177513  0.322487  0.000000  1
  Mn  Mn2  1  0.500000  0.500000  0.000000  1
  Mn  Mn3  1  0.000000  0.000000  0.000000  1
  Nb  Nb4  1  0.322892  0.822892  0.000000  1
  Nb  Nb5  1  0.677108  0.177108  0.000000  1
  B  B6  1  0.623191  0.876809  0.000000  1
  B  B7  1  0.376809  0.123191  0.000000  1
  B  B8  1  0.123859  0.623859  0.000000  1
  B  B9  1  0.876141  0.376141  0.000000  1
  Ru  Ru10  1  0.565469  0.715915  0.500000  1
  Ru  Ru11  1  0.434531  0.284085  0.500000  1
  Ru  Ru12  1  0.074515  0.787442  0.500000  1
  Ru  Ru13  1  0.925485  0.212558  0.500000  1
  Ru  Ru14  1  0.287442  0.574515  0.500000  1
  Ru  Ru15  1  0.712558  0.425485  0.500000  1
  Ru  Ru16  1  0.215915  0.065469  0.500000  1
  Ru  Ru17  1  0.784085  0.934531  0.500000  1
  Ru  Ru18  1  0.500000  0.000000  0.500000  1
  Ru  Ru19  1  0.000000  0.500000  0.500000  1
