# generated using pymatgen
data_YbY5NpO12
_symmetry_space_group_name_H-M   'P 1'
_cell_length_a   6.57550126
_cell_length_b   6.58444465
_cell_length_c   6.59179698
_cell_angle_alpha   98.80749558
_cell_angle_beta   98.59350626
_cell_angle_gamma   98.85618059
_symmetry_Int_Tables_number   1
_chemical_formula_structural   YbY5NpO12
_chemical_formula_sum   'Yb1 Y5 Np1 O12'
_cell_volume   274.26222352
_cell_formula_units_Z   1
loop_
 _symmetry_equiv_pos_site_id
 _symmetry_equiv_pos_as_xyz
  1  'x, y, z'
loop_
 _atom_site_type_symbol
 _atom_site_label
 _atom_site_symmetry_multiplicity
 _atom_site_fract_x
 _atom_site_fract_y
 _atom_site_fract_z
 _atom_site_occupancy
  Yb  Yb0  1  0.391198  0.675699  0.853372  1
  Y  Y1  1  0.854873  0.390381  0.674099  1
  Y  Y2  1  0.670203  0.851293  0.389322  1
  Y  Y3  1  0.608849  0.328093  0.145272  1
  Y  Y4  1  0.152156  0.610480  0.329792  1
  Y  Y5  1  0.327107  0.149035  0.613223  1
  Np  Np6  1  0.998731  0.999362  0.000386  1
  O  O7  1  0.174619  0.422891  0.585377  1
  O  O8  1  0.593433  0.178025  0.426013  1
  O  O9  1  0.429499  0.588610  0.180215  1
  O  O10  1  0.823789  0.573858  0.408957  1
  O  O11  1  0.406589  0.825839  0.568001  1
  O  O12  1  0.575117  0.399002  0.822986  1
  O  O13  1  0.920872  0.040271  0.697533  1
  O  O14  1  0.960929  0.301715  0.077879  1
  O  O15  1  0.298964  0.081074  0.961704  1
  O  O16  1  0.078201  0.958776  0.301352  1
  O  O17  1  0.033982  0.700509  0.921261  1
  O  O18  1  0.700889  0.925087  0.043257  1
