# generated using pymatgen
data_Nd2GaH3Pd16
_symmetry_space_group_name_H-M   'P 1'
_cell_length_a   7.04710249
_cell_length_b   6.98240841
_cell_length_c   6.98240828
_cell_angle_alpha   82.24159273
_cell_angle_beta   83.46487540
_cell_angle_gamma   83.46487523
_symmetry_Int_Tables_number   1
_chemical_formula_structural   Nd2GaH3Pd16
_chemical_formula_sum   'Nd2 Ga1 H3 Pd16'
_cell_volume   336.52196507
_cell_formula_units_Z   1
loop_
 _symmetry_equiv_pos_site_id
 _symmetry_equiv_pos_as_xyz
  1  'x, y, z'
loop_
 _atom_site_type_symbol
 _atom_site_label
 _atom_site_symmetry_multiplicity
 _atom_site_fract_x
 _atom_site_fract_y
 _atom_site_fract_z
 _atom_site_occupancy
  Nd  Nd0  1  0.673099  0.662922  0.662922  1
  Nd  Nd1  1  0.326901  0.337078  0.337078  1
  Ga  Ga2  1  0.500000  0.000000  0.000000  1
  H  H3  1  0.500000  0.500000  0.000000  1
  H  H4  1  0.000000  0.500000  0.500000  1
  H  H5  1  0.500000  0.000000  0.500000  1
  Pd  Pd6  1  0.000000  0.000000  0.500000  1
  Pd  Pd7  1  0.000000  0.500000  0.000000  1
  Pd  Pd8  1  0.700973  0.293515  0.997658  1
  Pd  Pd9  1  0.000000  0.702721  0.297279  1
  Pd  Pd10  1  0.299027  0.002342  0.706485  1
  Pd  Pd11  1  0.000000  0.297279  0.702721  1
  Pd  Pd12  1  0.700973  0.997658  0.293515  1
  Pd  Pd13  1  0.299027  0.706485  0.002342  1
  Pd  Pd14  1  0.350768  0.346845  0.854491  1
  Pd  Pd15  1  0.843261  0.350012  0.350012  1
  Pd  Pd16  1  0.350768  0.854491  0.346845  1
  Pd  Pd17  1  0.649232  0.653155  0.145509  1
  Pd  Pd18  1  0.156739  0.649988  0.649988  1
  Pd  Pd19  1  0.649232  0.145509  0.653155  1
  Pd  Pd20  1  0.893907  0.899951  0.899951  1
  Pd  Pd21  1  0.106093  0.100049  0.100049  1
