# generated using pymatgen
data_YbPa5Sb8
_symmetry_space_group_name_H-M   'P 1'
_cell_length_a   7.95816586
_cell_length_b   7.95816472
_cell_length_c   7.95816495
_cell_angle_alpha   109.27262475
_cell_angle_beta   109.57060459
_cell_angle_gamma   109.57061182
_symmetry_Int_Tables_number   1
_chemical_formula_structural   YbPa5Sb8
_chemical_formula_sum   'Yb1 Pa5 Sb8'
_cell_volume   387.98332538
_cell_formula_units_Z   1
loop_
 _symmetry_equiv_pos_site_id
 _symmetry_equiv_pos_as_xyz
  1  'x, y, z'
loop_
 _atom_site_type_symbol
 _atom_site_label
 _atom_site_symmetry_multiplicity
 _atom_site_fract_x
 _atom_site_fract_y
 _atom_site_fract_z
 _atom_site_occupancy
  Yb  Yb0  1  0.250000  0.125000  0.875000  1
  Pa  Pa1  1  0.127134  0.881554  0.256174  1
  Pa  Pa2  1  0.750000  0.375000  0.625000  1
  Pa  Pa3  1  0.874620  0.245580  0.118446  1
  Pa  Pa4  1  0.625380  0.743826  0.370960  1
  Pa  Pa5  1  0.372866  0.629040  0.754420  1
  Sb  Sb6  1  0.504965  0.997343  0.655704  1
  Sb  Sb7  1  0.995035  0.650739  0.492377  1
  Sb  Sb8  1  0.660528  0.501904  0.997301  1
  Sb  Sb9  1  0.995397  0.158624  0.498096  1
  Sb  Sb10  1  0.839472  0.836773  0.841376  1
  Sb  Sb11  1  0.341638  0.344296  0.349261  1
  Sb  Sb12  1  0.158362  0.507623  0.002657  1
  Sb  Sb13  1  0.504603  0.002699  0.163227  1
