# generated using pymatgen
data_Cs2Hf4O9
_symmetry_space_group_name_H-M   'P 1'
_cell_length_a   4.01936300
_cell_length_b   10.91121189
_cell_length_c   12.95233561
_cell_angle_alpha   107.12686476
_cell_angle_beta   90.00000000
_cell_angle_gamma   100.61362218
_symmetry_Int_Tables_number   1
_chemical_formula_structural   Cs2Hf4O9
_chemical_formula_sum   'Cs4 Hf8 O18'
_cell_volume   532.67190629
_cell_formula_units_Z   2
loop_
 _symmetry_equiv_pos_site_id
 _symmetry_equiv_pos_as_xyz
  1  'x, y, z'
loop_
 _atom_site_type_symbol
 _atom_site_label
 _atom_site_symmetry_multiplicity
 _atom_site_fract_x
 _atom_site_fract_y
 _atom_site_fract_z
 _atom_site_occupancy
  Cs  Cs0  1  0.582435  0.164870  0.581052  1
  Cs  Cs1  1  0.417565  0.835130  0.418948  1
  Cs  Cs2  1  0.512318  0.024635  0.827812  1
  Cs  Cs3  1  0.487682  0.975365  0.172188  1
  Hf  Hf4  1  0.754839  0.509677  0.335734  1
  Hf  Hf5  1  0.245161  0.490323  0.664266  1
  Hf  Hf6  1  0.205782  0.411564  0.896324  1
  Hf  Hf7  1  0.794218  0.588436  0.103676  1
  Hf  Hf8  1  0.832405  0.664810  0.875429  1
  Hf  Hf9  1  0.167595  0.335190  0.124571  1
  Hf  Hf10  1  0.870043  0.740086  0.641034  1
  Hf  Hf11  1  0.129957  0.259914  0.358966  1
  O  O12  1  0.768653  0.537307  0.703507  1
  O  O13  1  0.231347  0.462693  0.296493  1
  O  O14  1  0.829047  0.658095  0.261121  1
  O  O15  1  0.170953  0.341905  0.738879  1
  O  O16  1  0.131941  0.263881  0.960727  1
  O  O17  1  0.868059  0.736119  0.039273  1
  O  O18  1  0.302113  0.604224  0.859033  1
  O  O19  1  0.697887  0.395776  0.140967  1
  O  O20  1  0.954929  0.909860  0.625361  1
  O  O21  1  0.045071  0.090140  0.374639  1
  O  O22  1  0.815062  0.630124  0.479132  1
  O  O23  1  0.184938  0.369876  0.520868  1
  O  O24  1  0.733780  0.467558  0.923940  1
  O  O25  1  0.266220  0.532442  0.076060  1
  O  O26  1  0.659193  0.318387  0.352717  1
  O  O27  1  0.340807  0.681613  0.647283  1
  O  O28  1  0.904858  0.809716  0.816833  1
  O  O29  1  0.095142  0.190284  0.183167  1
