# generated using pymatgen
data_K2BaAs6(Ir2Ru)2
_symmetry_space_group_name_H-M   'P 1'
_cell_length_a   9.19382619
_cell_length_b   9.19169096
_cell_length_c   7.17752219
_cell_angle_alpha   67.48097921
_cell_angle_beta   67.42853170
_cell_angle_gamma   36.68561065
_symmetry_Int_Tables_number   1
_chemical_formula_structural   K2BaAs6(Ir2Ru)2
_chemical_formula_sum   'K2 Ba1 As6 Ir4 Ru2'
_cell_volume   331.48833763
_cell_formula_units_Z   1
loop_
 _symmetry_equiv_pos_site_id
 _symmetry_equiv_pos_as_xyz
  1  'x, y, z'
loop_
 _atom_site_type_symbol
 _atom_site_label
 _atom_site_symmetry_multiplicity
 _atom_site_fract_x
 _atom_site_fract_y
 _atom_site_fract_z
 _atom_site_occupancy
  K  K0  1  0.669884  0.672022  0.998434  1
  K  K1  1  0.331397  0.327135  0.999663  1
  Ba  Ba2  1  0.998218  0.001441  0.002377  1
  As  As3  1  0.888791  0.879197  0.704768  1
  As  As4  1  0.209265  0.218411  0.706290  1
  As  As5  1  0.548384  0.548428  0.709216  1
  As  As6  1  0.449971  0.456782  0.291720  1
  As  As7  1  0.786192  0.779152  0.294137  1
  As  As8  1  0.117564  0.117866  0.293711  1
  Ir  Ir9  1  0.749671  0.249662  0.500150  1
  Ir  Ir10  1  0.084699  0.582743  0.497642  1
  Ir  Ir11  1  0.416538  0.916445  0.501732  1
  Ir  Ir12  1  0.583099  0.084151  0.498839  1
  Ru  Ru13  1  0.914946  0.416026  0.501324  1
  Ru  Ru14  1  0.251381  0.750540  0.499997  1
