# generated using pymatgen
data_Li4Ca2Yb2Si7Ge
_symmetry_space_group_name_H-M   'P 1'
_cell_length_a   3.81408400
_cell_length_b   7.89103489
_cell_length_c   10.64502210
_cell_angle_alpha   90.18068116
_cell_angle_beta   90.00000000
_cell_angle_gamma   90.00000000
_symmetry_Int_Tables_number   1
_chemical_formula_structural   Li4Ca2Yb2Si7Ge
_chemical_formula_sum   'Li4 Ca2 Yb2 Si7 Ge1'
_cell_volume   320.38238146
_cell_formula_units_Z   1
loop_
 _symmetry_equiv_pos_site_id
 _symmetry_equiv_pos_as_xyz
  1  'x, y, z'
loop_
 _atom_site_type_symbol
 _atom_site_label
 _atom_site_symmetry_multiplicity
 _atom_site_fract_x
 _atom_site_fract_y
 _atom_site_fract_z
 _atom_site_occupancy
  Li  Li0  1  0.250000  0.998809  0.388212  1
  Li  Li1  1  0.750000  0.000809  0.612331  1
  Li  Li2  1  0.250000  0.499490  0.111672  1
  Li  Li3  1  0.750000  0.502690  0.887797  1
  Ca  Ca4  1  0.250000  0.634751  0.636149  1
  Ca  Ca5  1  0.750000  0.365341  0.364544  1
  Yb  Yb6  1  0.250000  0.133903  0.864374  1
  Yb  Yb7  1  0.750000  0.865150  0.135625  1
  Si  Si8  1  0.250000  0.733509  0.933540  1
  Si  Si9  1  0.750000  0.768105  0.432197  1
  Si  Si10  1  0.250000  0.231781  0.567946  1
  Si  Si11  1  0.750000  0.836065  0.826691  1
  Si  Si12  1  0.250000  0.161392  0.176464  1
  Si  Si13  1  0.750000  0.331812  0.676081  1
  Si  Si14  1  0.250000  0.668113  0.324078  1
  Ge  Ge15  1  0.750000  0.268281  0.062299  1
