# generated using pymatgen
data_TbEr4(In2Cu)2
_symmetry_space_group_name_H-M   'P 1'
_cell_length_a   3.61175000
_cell_length_b   8.02567800
_cell_length_c   17.96912300
_cell_angle_alpha   90.00000000
_cell_angle_beta   90.00000000
_cell_angle_gamma   90.00000000
_symmetry_Int_Tables_number   1
_chemical_formula_structural   TbEr4(In2Cu)2
_chemical_formula_sum   'Tb2 Er8 In8 Cu4'
_cell_volume   520.86634165
_cell_formula_units_Z   2
loop_
 _symmetry_equiv_pos_site_id
 _symmetry_equiv_pos_as_xyz
  1  'x, y, z'
loop_
 _atom_site_type_symbol
 _atom_site_label
 _atom_site_symmetry_multiplicity
 _atom_site_fract_x
 _atom_site_fract_y
 _atom_site_fract_z
 _atom_site_occupancy
  Tb  Tb0  1  0.000000  0.500000  0.500000  1
  Tb  Tb1  1  0.000000  0.000000  0.000000  1
  Er  Er2  1  0.000000  0.738065  0.280089  1
  Er  Er3  1  0.000000  0.261935  0.719911  1
  Er  Er4  1  0.000000  0.761935  0.780089  1
  Er  Er5  1  0.000000  0.238065  0.219911  1
  Er  Er6  1  0.000000  0.616894  0.083101  1
  Er  Er7  1  0.000000  0.383106  0.916899  1
  Er  Er8  1  0.000000  0.883106  0.583101  1
  Er  Er9  1  0.000000  0.116894  0.416899  1
  In  In10  1  0.500000  0.707988  0.930692  1
  In  In11  1  0.500000  0.292012  0.069308  1
  In  In12  1  0.500000  0.792012  0.430692  1
  In  In13  1  0.500000  0.207988  0.569308  1
  In  In14  1  0.500000  0.581783  0.650865  1
  In  In15  1  0.500000  0.418217  0.349135  1
  In  In16  1  0.500000  0.918217  0.150865  1
  In  In17  1  0.500000  0.081783  0.849135  1
  Cu  Cu18  1  0.500000  0.523641  0.197025  1
  Cu  Cu19  1  0.500000  0.476359  0.802975  1
  Cu  Cu20  1  0.500000  0.976359  0.697025  1
  Cu  Cu21  1  0.500000  0.023641  0.302975  1
