# generated using pymatgen
data_CrSeO4F
_symmetry_space_group_name_H-M   'P 1'
_cell_length_a   5.41352421
_cell_length_b   5.43854415
_cell_length_c   7.42585360
_cell_angle_alpha   106.81339540
_cell_angle_beta   108.47593137
_cell_angle_gamma   97.87051622
_symmetry_Int_Tables_number   1
_chemical_formula_structural   CrSeO4F
_chemical_formula_sum   'Cr2 Se2 O8 F2'
_cell_volume   192.10144206
_cell_formula_units_Z   2
loop_
 _symmetry_equiv_pos_site_id
 _symmetry_equiv_pos_as_xyz
  1  'x, y, z'
loop_
 _atom_site_type_symbol
 _atom_site_label
 _atom_site_symmetry_multiplicity
 _atom_site_fract_x
 _atom_site_fract_y
 _atom_site_fract_z
 _atom_site_occupancy
  Cr  Cr0  1  0.000000  0.000000  0.000000  1
  Cr  Cr1  1  0.000000  0.000000  0.500000  1
  Se  Se2  1  0.325660  0.647204  0.762205  1
  Se  Se3  1  0.674340  0.352796  0.237795  1
  O  O4  1  0.638001  0.770986  0.936938  1
  O  O5  1  0.268203  0.792470  0.586941  1
  O  O6  1  0.307584  0.328211  0.649243  1
  O  O7  1  0.889689  0.330004  0.117410  1
  O  O8  1  0.110311  0.669996  0.882590  1
  O  O9  1  0.692416  0.671789  0.350757  1
  O  O10  1  0.731797  0.207530  0.413059  1
  O  O11  1  0.361999  0.229014  0.063062  1
  F  F12  1  0.101632  0.954767  0.263676  1
  F  F13  1  0.898368  0.045233  0.736324  1
