# generated using pymatgen
data_Gd6IrBr10
_symmetry_space_group_name_H-M   'P 1'
_cell_length_a   7.40579897
_cell_length_b   9.22335589
_cell_length_c   9.32645100
_cell_angle_alpha   107.24365498
_cell_angle_beta   97.06195759
_cell_angle_gamma   104.67130204
_symmetry_Int_Tables_number   1
_chemical_formula_structural   Gd6IrBr10
_chemical_formula_sum   'Gd6 Ir1 Br10'
_cell_volume   574.90604779
_cell_formula_units_Z   1
loop_
 _symmetry_equiv_pos_site_id
 _symmetry_equiv_pos_as_xyz
  1  'x, y, z'
loop_
 _atom_site_type_symbol
 _atom_site_label
 _atom_site_symmetry_multiplicity
 _atom_site_fract_x
 _atom_site_fract_y
 _atom_site_fract_z
 _atom_site_occupancy
  Gd  Gd0  1  0.124238  0.046581  0.748288  1
  Gd  Gd1  1  0.875762  0.953419  0.251712  1
  Gd  Gd2  1  0.967265  0.297247  0.089877  1
  Gd  Gd3  1  0.032735  0.702753  0.910123  1
  Gd  Gd4  1  0.368950  0.134443  0.178696  1
  Gd  Gd5  1  0.631050  0.865557  0.821304  1
  Ir  Ir6  1  0.000000  0.000000  0.000000  1
  Br  Br7  1  0.348673  0.449149  0.271119  1
  Br  Br8  1  0.651327  0.550851  0.728881  1
  Br  Br9  1  0.255487  0.086093  0.457781  1
  Br  Br10  1  0.744513  0.913907  0.542219  1
  Br  Br11  1  0.085608  0.370281  0.822682  1
  Br  Br12  1  0.914392  0.629719  0.177318  1
  Br  Br13  1  0.454486  0.817012  0.088881  1
  Br  Br14  1  0.545514  0.182988  0.911119  1
  Br  Br15  1  0.785096  0.257538  0.347355  1
  Br  Br16  1  0.214904  0.742462  0.652645  1
