# generated using pymatgen
data_AcErBiSbO7
_symmetry_space_group_name_H-M   'P 1'
_cell_length_a   6.60683000
_cell_length_b   6.60683139
_cell_length_c   7.68735700
_cell_angle_alpha   90.00000000
_cell_angle_beta   90.00000000
_cell_angle_gamma   109.74251104
_symmetry_Int_Tables_number   1
_chemical_formula_structural   AcErBiSbO7
_chemical_formula_sum   'Ac2 Er2 Bi2 Sb2 O14'
_cell_volume   315.83091147
_cell_formula_units_Z   2
loop_
 _symmetry_equiv_pos_site_id
 _symmetry_equiv_pos_as_xyz
  1  'x, y, z'
loop_
 _atom_site_type_symbol
 _atom_site_label
 _atom_site_symmetry_multiplicity
 _atom_site_fract_x
 _atom_site_fract_y
 _atom_site_fract_z
 _atom_site_occupancy
  Ac  Ac0  1  0.010761  0.989239  0.500000  1
  Ac  Ac1  1  0.010761  0.989239  0.000000  1
  Er  Er2  1  0.500207  0.958430  0.750000  1
  Er  Er3  1  0.041570  0.499793  0.250000  1
  Bi  Bi4  1  0.521807  0.040378  0.250000  1
  Bi  Bi5  1  0.959622  0.478193  0.750000  1
  Sb  Sb6  1  0.495375  0.504625  0.500000  1
  Sb  Sb7  1  0.495375  0.504625  0.000000  1
  O  O8  1  0.439511  0.193242  0.545009  1
  O  O9  1  0.806758  0.560489  0.454991  1
  O  O10  1  0.439511  0.193242  0.954991  1
  O  O11  1  0.806758  0.560489  0.045009  1
  O  O12  1  0.558619  0.826397  0.473876  1
  O  O13  1  0.173603  0.441381  0.526124  1
  O  O14  1  0.558619  0.826397  0.026124  1
  O  O15  1  0.173603  0.441381  0.973876  1
  O  O16  1  0.169638  0.852490  0.250000  1
  O  O17  1  0.147510  0.830362  0.750000  1
  O  O18  1  0.849261  0.104479  0.750000  1
  O  O19  1  0.895521  0.150739  0.250000  1
  O  O20  1  0.392895  0.447289  0.250000  1
  O  O21  1  0.552711  0.607105  0.750000  1
