# generated using pymatgen
data_Th4Cd2Cu3Ir
_symmetry_space_group_name_H-M   'P 1'
_cell_length_a   7.79533307
_cell_length_b   7.79533343
_cell_length_c   3.83669300
_cell_angle_alpha   90.00000000
_cell_angle_beta   90.00000000
_cell_angle_gamma   90.08699473
_symmetry_Int_Tables_number   1
_chemical_formula_structural   Th4Cd2Cu3Ir
_chemical_formula_sum   'Th4 Cd2 Cu3 Ir1'
_cell_volume   233.14490070
_cell_formula_units_Z   1
loop_
 _symmetry_equiv_pos_site_id
 _symmetry_equiv_pos_as_xyz
  1  'x, y, z'
loop_
 _atom_site_type_symbol
 _atom_site_label
 _atom_site_symmetry_multiplicity
 _atom_site_fract_x
 _atom_site_fract_y
 _atom_site_fract_z
 _atom_site_occupancy
  Th  Th0  1  0.671458  0.171458  0.500000  1
  Th  Th1  1  0.317843  0.817843  0.500000  1
  Th  Th2  1  0.178525  0.336303  0.500000  1
  Th  Th3  1  0.836303  0.678525  0.500000  1
  Cd  Cd4  1  0.999287  0.010218  0.000000  1
  Cd  Cd5  1  0.510218  0.499287  0.000000  1
  Cu  Cu6  1  0.871129  0.371129  0.000000  1
  Cu  Cu7  1  0.617184  0.877643  0.000000  1
  Cu  Cu8  1  0.377643  0.117184  0.000000  1
  Ir  Ir9  1  0.120409  0.620409  0.000000  1
