# generated using pymatgen
data_Hf8ZnSi5(MoN)2
_symmetry_space_group_name_H-M   'P 1'
_cell_length_a   7.77439317
_cell_length_b   7.77124020
_cell_length_c   5.42091513
_cell_angle_alpha   90.07834172
_cell_angle_beta   89.84338734
_cell_angle_gamma   120.01342213
_symmetry_Int_Tables_number   1
_chemical_formula_structural   Hf8ZnSi5(MoN)2
_chemical_formula_sum   'Hf8 Zn1 Si5 Mo2 N2'
_cell_volume   283.59573520
_cell_formula_units_Z   1
loop_
 _symmetry_equiv_pos_site_id
 _symmetry_equiv_pos_as_xyz
  1  'x, y, z'
loop_
 _atom_site_type_symbol
 _atom_site_label
 _atom_site_symmetry_multiplicity
 _atom_site_fract_x
 _atom_site_fract_y
 _atom_site_fract_z
 _atom_site_occupancy
  Hf  Hf0  1  0.234956  0.000000  0.250109  1
  Hf  Hf1  1  0.765552  0.000000  0.749474  1
  Hf  Hf2  1  0.002834  0.237239  0.251227  1
  Hf  Hf3  1  0.000916  0.764575  0.749962  1
  Hf  Hf4  1  0.765595  0.762761  0.251227  1
  Hf  Hf5  1  0.236341  0.235425  0.749962  1
  Hf  Hf6  1  0.667584  0.335279  0.498487  1
  Hf  Hf7  1  0.332303  0.664721  0.498487  1
  Zn  Zn8  1  0.593033  0.000000  0.232858  1
  Si  Si9  1  0.410456  0.000000  0.772472  1
  Si  Si10  1  0.000016  0.591835  0.228916  1
  Si  Si11  1  0.997348  0.405977  0.770205  1
  Si  Si12  1  0.408181  0.408165  0.228916  1
  Si  Si13  1  0.591371  0.594023  0.770205  1
  Mo  Mo14  1  0.326718  0.658732  0.997388  1
  Mo  Mo15  1  0.667986  0.341268  0.997388  1
  N  N16  1  0.998315  0.000000  0.001485  1
  N  N17  1  0.000497  0.000000  0.501235  1
