# generated using pymatgen
data_La9Tb5(Yb3Sn8)2
_symmetry_space_group_name_H-M   'P 1'
_cell_length_a   8.03774333
_cell_length_b   8.43504565
_cell_length_c   15.91454500
_cell_angle_alpha   90.07602945
_cell_angle_beta   90.26554593
_cell_angle_gamma   90.08439786
_symmetry_Int_Tables_number   1
_chemical_formula_structural   La9Tb5(Yb3Sn8)2
_chemical_formula_sum   'La9 Tb5 Yb6 Sn16'
_cell_volume   1078.97225122
_cell_formula_units_Z   1
loop_
 _symmetry_equiv_pos_site_id
 _symmetry_equiv_pos_as_xyz
  1  'x, y, z'
loop_
 _atom_site_type_symbol
 _atom_site_label
 _atom_site_symmetry_multiplicity
 _atom_site_fract_x
 _atom_site_fract_y
 _atom_site_fract_z
 _atom_site_occupancy
  La  La0  1  0.832799  0.673150  0.876962  1
  La  La1  1  0.490988  0.317975  0.904168  1
  La  La2  1  0.992960  0.182085  0.595159  1
  La  La3  1  0.507379  0.682468  0.403535  1
  La  La4  1  0.010045  0.817066  0.097225  1
  La  La5  1  0.508114  0.679453  0.095887  1
  La  La6  1  0.010019  0.818209  0.403409  1
  La  La7  1  0.489244  0.317224  0.595296  1
  La  La8  1  0.991525  0.181482  0.904609  1
  Tb  Tb9  1  0.331851  0.828341  0.875817  1
  Tb  Tb10  1  0.830944  0.669520  0.623886  1
  Tb  Tb11  1  0.668430  0.169770  0.374658  1
  Tb  Tb12  1  0.167367  0.327525  0.125085  1
  Tb  Tb13  1  0.668141  0.172227  0.125507  1
  Yb  Yb14  1  0.171783  0.331796  0.376680  1
  Yb  Yb15  1  0.328943  0.831808  0.622512  1
  Yb  Yb16  1  0.161317  0.499349  0.749505  1
  Yb  Yb17  1  0.660430  0.000295  0.748231  1
  Yb  Yb18  1  0.839171  0.501496  0.251908  1
  Yb  Yb19  1  0.337370  0.000343  0.250425  1
  Sn  Sn20  1  0.326951  0.039252  0.038401  1
  Sn  Sn21  1  0.825142  0.460675  0.461852  1
  Sn  Sn22  1  0.674911  0.960514  0.536908  1
  Sn  Sn23  1  0.179964  0.538366  0.964496  1
  Sn  Sn24  1  0.667098  0.965220  0.964020  1
  Sn  Sn25  1  0.163910  0.537828  0.539969  1
  Sn  Sn26  1  0.335102  0.038050  0.459489  1
  Sn  Sn27  1  0.828694  0.456972  0.040972  1
  Sn  Sn28  1  0.526793  0.610819  0.746602  1
  Sn  Sn29  1  0.031380  0.889749  0.749554  1
  Sn  Sn30  1  0.471196  0.385088  0.248744  1
  Sn  Sn31  1  0.970098  0.111518  0.250699  1
  Sn  Sn32  1  0.290327  0.137814  0.750562  1
  Sn  Sn33  1  0.787781  0.362718  0.748974  1
  Sn  Sn34  1  0.710125  0.866085  0.249260  1
  Sn  Sn35  1  0.211709  0.637748  0.249032  1
