# generated using pymatgen
data_Y4Ho8Co5Sn
_symmetry_space_group_name_H-M   'P 1'
_cell_length_a   8.25886817
_cell_length_b   8.25888621
_cell_length_c   8.25886876
_cell_angle_alpha   110.63687681
_cell_angle_beta   110.85978856
_cell_angle_gamma   106.94612217
_symmetry_Int_Tables_number   1
_chemical_formula_structural   Y4Ho8Co5Sn
_chemical_formula_sum   'Y4 Ho8 Co5 Sn1'
_cell_volume   433.02187359
_cell_formula_units_Z   1
loop_
 _symmetry_equiv_pos_site_id
 _symmetry_equiv_pos_as_xyz
  1  'x, y, z'
loop_
 _atom_site_type_symbol
 _atom_site_label
 _atom_site_symmetry_multiplicity
 _atom_site_fract_x
 _atom_site_fract_y
 _atom_site_fract_z
 _atom_site_occupancy
  Y  Y0  1  0.812318  0.709117  0.521437  1
  Y  Y1  1  0.187682  0.290883  0.478563  1
  Y  Y2  1  0.187681  0.709117  0.896799  1
  Y  Y3  1  0.812319  0.290883  0.103201  1
  Ho  Ho4  1  0.686616  0.379716  0.693101  1
  Ho  Ho5  1  0.313384  0.620284  0.306899  1
  Ho  Ho6  1  0.686617  0.993515  0.306897  1
  Ho  Ho7  1  0.313383  0.006485  0.693103  1
  Ho  Ho8  1  0.598820  0.791311  0.807510  1
  Ho  Ho9  1  0.401180  0.208689  0.192490  1
  Ho  Ho10  1  0.983802  0.791311  0.192492  1
  Ho  Ho11  1  0.016198  0.208689  0.807508  1
  Co  Co12  1  0.623138  0.000000  0.623138  1
  Co  Co13  1  0.376862  0.000000  0.376862  1
  Co  Co14  1  0.112358  0.612360  0.500001  1
  Co  Co15  1  0.887642  0.387640  0.499999  1
  Co  Co16  1  0.000000  0.000000  0.000000  1
  Sn  Sn17  1  0.500000  0.500000  0.000000  1
