# generated using pymatgen
data_La2Zn3GeRh6
_symmetry_space_group_name_H-M   'P 1'
_cell_length_a   5.61423620
_cell_length_b   6.85707712
_cell_length_c   6.85707799
_cell_angle_alpha   69.81539897
_cell_angle_beta   65.53532001
_cell_angle_gamma   65.53531986
_symmetry_Int_Tables_number   1
_chemical_formula_structural   La2Zn3GeRh6
_chemical_formula_sum   'La2 Zn3 Ge1 Rh6'
_cell_volume   213.85315193
_cell_formula_units_Z   1
loop_
 _symmetry_equiv_pos_site_id
 _symmetry_equiv_pos_as_xyz
  1  'x, y, z'
loop_
 _atom_site_type_symbol
 _atom_site_label
 _atom_site_symmetry_multiplicity
 _atom_site_fract_x
 _atom_site_fract_y
 _atom_site_fract_z
 _atom_site_occupancy
  La  La0  1  0.541928  0.746789  0.746789  1
  La  La1  1  0.452759  0.252813  0.252813  1
  Zn  Zn2  1  0.215033  0.572179  0.572179  1
  Zn  Zn3  1  0.796993  0.414785  0.414785  1
  Zn  Zn4  1  0.116986  0.095704  0.095704  1
  Ge  Ge5  1  0.861514  0.920165  0.920165  1
  Rh  Rh6  1  0.499014  0.224597  0.774083  1
  Rh  Rh7  1  0.001333  0.740948  0.258229  1
  Rh  Rh8  1  0.499014  0.774083  0.224597  1
  Rh  Rh9  1  0.001333  0.258229  0.740948  1
  Rh  Rh10  1  0.007048  0.512607  0.987101  1
  Rh  Rh11  1  0.007048  0.987101  0.512607  1
