# generated using pymatgen
data_ErSc3Al8
_symmetry_space_group_name_H-M   'P 1'
_cell_length_a   9.39285507
_cell_length_b   9.39285526
_cell_length_c   9.39285480
_cell_angle_alpha   33.50528606
_cell_angle_beta   33.50528332
_cell_angle_gamma   33.50528974
_symmetry_Int_Tables_number   1
_chemical_formula_structural   ErSc3Al8
_chemical_formula_sum   'Er1 Sc3 Al8'
_cell_volume   224.90479953
_cell_formula_units_Z   1
loop_
 _symmetry_equiv_pos_site_id
 _symmetry_equiv_pos_as_xyz
  1  'x, y, z'
loop_
 _atom_site_type_symbol
 _atom_site_label
 _atom_site_symmetry_multiplicity
 _atom_site_fract_x
 _atom_site_fract_y
 _atom_site_fract_z
 _atom_site_occupancy
  Er  Er0  1  0.687451  0.687451  0.687451  1
  Sc  Sc1  1  0.187506  0.187506  0.187506  1
  Sc  Sc2  1  0.813520  0.813520  0.813520  1
  Sc  Sc3  1  0.311314  0.311314  0.311314  1
  Al  Al4  1  0.999781  0.999781  0.999781  1
  Al  Al5  1  0.500128  0.500128  0.500128  1
  Al  Al6  1  0.752083  0.250633  0.250633  1
  Al  Al7  1  0.247854  0.749547  0.749547  1
  Al  Al8  1  0.250633  0.752083  0.250633  1
  Al  Al9  1  0.749547  0.247854  0.749547  1
  Al  Al10  1  0.250633  0.250633  0.752083  1
  Al  Al11  1  0.749547  0.749547  0.247854  1
