# generated using pymatgen
data_TbEr2Mg3AgPb2
_symmetry_space_group_name_H-M   'P 1'
_cell_length_a   7.54254780
_cell_length_b   7.54254723
_cell_length_c   4.57915600
_cell_angle_alpha   90.00000000
_cell_angle_beta   90.00000000
_cell_angle_gamma   120.29486377
_symmetry_Int_Tables_number   1
_chemical_formula_structural   TbEr2Mg3AgPb2
_chemical_formula_sum   'Tb1 Er2 Mg3 Ag1 Pb2'
_cell_volume   224.93348007
_cell_formula_units_Z   1
loop_
 _symmetry_equiv_pos_site_id
 _symmetry_equiv_pos_as_xyz
  1  'x, y, z'
loop_
 _atom_site_type_symbol
 _atom_site_label
 _atom_site_symmetry_multiplicity
 _atom_site_fract_x
 _atom_site_fract_y
 _atom_site_fract_z
 _atom_site_occupancy
  Tb  Tb0  1  0.414764  0.414764  0.500000  1
  Er  Er1  1  0.587900  0.000799  0.500000  1
  Er  Er2  1  0.000799  0.587900  0.500000  1
  Mg  Mg3  1  0.765932  0.765932  0.000000  1
  Mg  Mg4  1  0.233278  0.000078  0.000000  1
  Mg  Mg5  1  0.000078  0.233278  0.000000  1
  Ag  Ag6  1  0.996106  0.996106  0.500000  1
  Pb  Pb7  1  0.668494  0.332649  0.000000  1
  Pb  Pb8  1  0.332649  0.668494  0.000000  1
