# generated using pymatgen
data_Tb5Er3Ti12Si15As
_symmetry_space_group_name_H-M   'P 1'
_cell_length_a   7.06387410
_cell_length_b   7.05493633
_cell_length_c   12.97333955
_cell_angle_alpha   89.99201389
_cell_angle_beta   89.79734099
_cell_angle_gamma   89.97975551
_symmetry_Int_Tables_number   1
_chemical_formula_structural   Tb5Er3Ti12Si15As
_chemical_formula_sum   'Tb5 Er3 Ti12 Si15 As1'
_cell_volume   646.52464672
_cell_formula_units_Z   1
loop_
 _symmetry_equiv_pos_site_id
 _symmetry_equiv_pos_as_xyz
  1  'x, y, z'
loop_
 _atom_site_type_symbol
 _atom_site_label
 _atom_site_symmetry_multiplicity
 _atom_site_fract_x
 _atom_site_fract_y
 _atom_site_fract_z
 _atom_site_occupancy
  Tb  Tb0  1  0.340791  0.002078  0.466189  1
  Tb  Tb1  1  0.497154  0.842100  0.717586  1
  Tb  Tb2  1  0.502486  0.159183  0.216247  1
  Tb  Tb3  1  0.840025  0.496608  0.283081  1
  Tb  Tb4  1  0.159210  0.501572  0.783348  1
  Er  Er5  1  0.661218  0.995502  0.967776  1
  Er  Er6  1  0.998363  0.343581  0.531977  1
  Er  Er7  1  0.999085  0.659274  0.033444  1
  Ti  Ti8  1  0.326573  0.326826  0.999838  1
  Ti  Ti9  1  0.172626  0.827007  0.249745  1
  Ti  Ti10  1  0.824138  0.173820  0.750362  1
  Ti  Ti11  1  0.672654  0.672555  0.500039  1
  Ti  Ti12  1  0.153918  0.009643  0.875421  1
  Ti  Ti13  1  0.492061  0.651867  0.125189  1
  Ti  Ti14  1  0.509168  0.347213  0.627065  1
  Ti  Ti15  1  0.655426  0.495093  0.875492  1
  Ti  Ti16  1  0.346385  0.507806  0.374056  1
  Ti  Ti17  1  0.847034  0.991952  0.375587  1
  Ti  Ti18  1  0.008356  0.150840  0.124054  1
  Ti  Ti19  1  0.989212  0.844455  0.623251  1
  Si  Si20  1  0.369429  0.704094  0.934205  1
  Si  Si21  1  0.629537  0.297797  0.435167  1
  Si  Si22  1  0.704195  0.369847  0.065739  1
  Si  Si23  1  0.296129  0.628960  0.565757  1
  Si  Si24  1  0.797319  0.869006  0.183602  1
  Si  Si25  1  0.129646  0.203029  0.316108  1
  Si  Si26  1  0.870581  0.798246  0.816209  1
  Si  Si27  1  0.291279  0.952435  0.064040  1
  Si  Si28  1  0.546848  0.789546  0.314228  1
  Si  Si29  1  0.463129  0.211748  0.820086  1
  Si  Si30  1  0.790433  0.546340  0.685225  1
  Si  Si31  1  0.209055  0.453463  0.185127  1
  Si  Si32  1  0.709589  0.047096  0.564157  1
  Si  Si33  1  0.953547  0.290765  0.935958  1
  Si  Si34  1  0.046229  0.709068  0.435065  1
  As  As35  1  0.197170  0.129587  0.679583  1
