# generated using pymatgen
data_Dy4Lu6Si7Hg
_symmetry_space_group_name_H-M   'P 1'
_cell_length_a   7.43114000
_cell_length_b   7.62015989
_cell_length_c   14.49558000
_cell_angle_alpha   90.02763223
_cell_angle_beta   90.00000000
_cell_angle_gamma   90.00000000
_symmetry_Int_Tables_number   1
_chemical_formula_structural   Dy4Lu6Si7Hg
_chemical_formula_sum   'Dy8 Lu12 Si14 Hg2'
_cell_volume   820.83350210
_cell_formula_units_Z   2
loop_
 _symmetry_equiv_pos_site_id
 _symmetry_equiv_pos_as_xyz
  1  'x, y, z'
loop_
 _atom_site_type_symbol
 _atom_site_label
 _atom_site_symmetry_multiplicity
 _atom_site_fract_x
 _atom_site_fract_y
 _atom_site_fract_z
 _atom_site_occupancy
  Dy  Dy0  1  0.499160  0.314682  0.898416  1
  Dy  Dy1  1  0.999160  0.185318  0.601584  1
  Dy  Dy2  1  0.494284  0.669845  0.401447  1
  Dy  Dy3  1  0.994284  0.830155  0.098553  1
  Dy  Dy4  1  0.489618  0.686149  0.100021  1
  Dy  Dy5  1  0.989618  0.813851  0.399979  1
  Dy  Dy6  1  0.510850  0.327600  0.601898  1
  Dy  Dy7  1  0.010850  0.172400  0.898102  1
  Lu  Lu8  1  0.361106  0.827438  0.879179  1
  Lu  Lu9  1  0.861106  0.672562  0.620821  1
  Lu  Lu10  1  0.653002  0.170538  0.377480  1
  Lu  Lu11  1  0.153002  0.329462  0.122520  1
  Lu  Lu12  1  0.636396  0.164025  0.122688  1
  Lu  Lu13  1  0.136396  0.335975  0.377312  1
  Lu  Lu14  1  0.358079  0.822080  0.628097  1
  Lu  Lu15  1  0.858079  0.677920  0.871903  1
  Lu  Lu16  1  0.191078  0.497256  0.750105  1
  Lu  Lu17  1  0.691078  0.002744  0.749895  1
  Lu  Lu18  1  0.807274  0.504927  0.252654  1
  Lu  Lu19  1  0.307274  0.995073  0.247346  1
  Si  Si20  1  0.308869  0.035827  0.040157  1
  Si  Si21  1  0.808869  0.464173  0.459843  1
  Si  Si22  1  0.678588  0.965464  0.541909  1
  Si  Si23  1  0.178588  0.534536  0.958091  1
  Si  Si24  1  0.696395  0.963965  0.957835  1
  Si  Si25  1  0.196395  0.536035  0.542165  1
  Si  Si26  1  0.563034  0.607941  0.751479  1
  Si  Si27  1  0.063034  0.892059  0.748521  1
  Si  Si28  1  0.440225  0.386979  0.249481  1
  Si  Si29  1  0.940225  0.113021  0.250519  1
  Si  Si30  1  0.305914  0.129157  0.750029  1
  Si  Si31  1  0.805914  0.370843  0.749971  1
  Si  Si32  1  0.692815  0.871019  0.249141  1
  Si  Si33  1  0.192815  0.628981  0.250859  1
  Hg  Hg34  1  0.313314  0.037533  0.462784  1
  Hg  Hg35  1  0.813314  0.462467  0.037216  1
