# generated using pymatgen
data_Ho12AlZnCo3Ni
_symmetry_space_group_name_H-M   'P 1'
_cell_length_a   8.25151555
_cell_length_b   8.25151616
_cell_length_c   8.25151556
_cell_angle_alpha   111.74129203
_cell_angle_beta   109.91871654
_cell_angle_gamma   106.79194006
_symmetry_Int_Tables_number   1
_chemical_formula_structural   Ho12AlZnCo3Ni
_chemical_formula_sum   'Ho12 Al1 Zn1 Co3 Ni1'
_cell_volume   431.67319772
_cell_formula_units_Z   1
loop_
 _symmetry_equiv_pos_site_id
 _symmetry_equiv_pos_as_xyz
  1  'x, y, z'
loop_
 _atom_site_type_symbol
 _atom_site_label
 _atom_site_symmetry_multiplicity
 _atom_site_fract_x
 _atom_site_fract_y
 _atom_site_fract_z
 _atom_site_occupancy
  Ho  Ho0  1  0.430883  0.234582  0.196301  1
  Ho  Ho1  1  0.570262  0.767091  0.803170  1
  Ho  Ho2  1  0.036079  0.232909  0.803170  1
  Ho  Ho3  1  0.961719  0.765418  0.196301  1
  Ho  Ho4  1  0.180291  0.286404  0.466693  1
  Ho  Ho5  1  0.817359  0.717094  0.534455  1
  Ho  Ho6  1  0.180291  0.713596  0.893887  1
  Ho  Ho7  1  0.817359  0.282906  0.100264  1
  Ho  Ho8  1  0.323836  0.631094  0.310489  1
  Ho  Ho9  1  0.679394  0.368906  0.692742  1
  Ho  Ho10  1  0.323836  0.013348  0.692742  1
  Ho  Ho11  1  0.679394  0.986652  0.310489  1
  Al  Al12  1  0.499621  0.500000  0.999621  1
  Zn  Zn13  1  0.999082  0.000000  0.999082  1
  Co  Co14  1  0.654360  0.000000  0.654360  1
  Co  Co15  1  0.113639  0.615280  0.498359  1
  Co  Co16  1  0.883078  0.384720  0.498359  1
  Ni  Ni17  1  0.349514  0.000000  0.349514  1
