# generated using pymatgen
data_Ho7ErGe8(BiO5)8
_symmetry_space_group_name_H-M   'P 1'
_cell_length_a   5.38704200
_cell_length_b   11.11082601
_cell_length_c   15.44643101
_cell_angle_alpha   90.00326159
_cell_angle_beta   90.00236379
_cell_angle_gamma   90.00420982
_symmetry_Int_Tables_number   1
_chemical_formula_structural   Ho7ErGe8(BiO5)8
_chemical_formula_sum   'Ho7 Er1 Ge8 Bi8 O40'
_cell_volume   924.53819054
_cell_formula_units_Z   1
loop_
 _symmetry_equiv_pos_site_id
 _symmetry_equiv_pos_as_xyz
  1  'x, y, z'
loop_
 _atom_site_type_symbol
 _atom_site_label
 _atom_site_symmetry_multiplicity
 _atom_site_fract_x
 _atom_site_fract_y
 _atom_site_fract_z
 _atom_site_occupancy
  Ho  Ho0  1  0.010320  0.858946  0.553256  1
  Ho  Ho1  1  0.510301  0.141050  0.946750  1
  Ho  Ho2  1  0.489678  0.358950  0.446746  1
  Ho  Ho3  1  0.489604  0.858760  0.053249  1
  Ho  Ho4  1  0.989689  0.141057  0.446745  1
  Ho  Ho5  1  0.510316  0.641047  0.553253  1
  Ho  Ho6  1  0.010311  0.359080  0.946822  1
  Er  Er7  1  0.989999  0.641116  0.053172  1
  Ge  Ge8  1  0.006490  0.402999  0.595753  1
  Ge  Ge9  1  0.993494  0.596999  0.404272  1
  Ge  Ge10  1  0.506565  0.597042  0.904411  1
  Ge  Ge11  1  0.493472  0.902990  0.404253  1
  Ge  Ge12  1  0.993503  0.097018  0.095732  1
  Ge  Ge13  1  0.006464  0.902835  0.904331  1
  Ge  Ge14  1  0.493504  0.403320  0.095680  1
  Ge  Ge15  1  0.506514  0.097004  0.595748  1
  Bi  Bi16  1  0.543882  0.647099  0.236939  1
  Bi  Bi17  1  0.043737  0.352878  0.262862  1
  Bi  Bi18  1  0.543754  0.147145  0.262874  1
  Bi  Bi19  1  0.456251  0.852863  0.737129  1
  Bi  Bi20  1  0.956267  0.147150  0.762883  1
  Bi  Bi21  1  0.456251  0.352855  0.762874  1
  Bi  Bi22  1  0.956265  0.647155  0.737141  1
  Bi  Bi23  1  0.043707  0.852708  0.237005  1
  O  O24  1  0.194173  0.975719  0.126329  1
  O  O25  1  0.249351  0.235143  0.849534  1
  O  O26  1  0.694824  0.524521  0.126100  1
  O  O27  1  0.750972  0.764549  0.150239  1
  O  O28  1  0.199310  0.958743  0.438701  1
  O  O29  1  0.934272  0.670075  0.302314  1
  O  O30  1  0.800707  0.041251  0.561292  1
  O  O31  1  0.934351  0.170074  0.197697  1
  O  O32  1  0.199048  0.459290  0.061352  1
  O  O33  1  0.750636  0.264866  0.349536  1
  O  O34  1  0.801041  0.541733  0.939118  1
  O  O35  1  0.065604  0.829936  0.802334  1
  O  O36  1  0.250640  0.235144  0.349526  1
  O  O37  1  0.856624  0.308710  0.520304  1
  O  O38  1  0.857141  0.808240  0.979883  1
  O  O39  1  0.434396  0.330056  0.197609  1
  O  O40  1  0.805983  0.024127  0.873740  1
  O  O41  1  0.749361  0.764859  0.650467  1
  O  O42  1  0.699298  0.041217  0.061287  1
  O  O43  1  0.643361  0.808724  0.479682  1
  O  O44  1  0.749389  0.264876  0.849547  1
  O  O45  1  0.694083  0.024265  0.373671  1
  O  O46  1  0.356624  0.191282  0.520307  1
  O  O47  1  0.249355  0.735136  0.650465  1
  O  O48  1  0.065640  0.329920  0.697692  1
  O  O49  1  0.300662  0.958705  0.938708  1
  O  O50  1  0.643156  0.308816  0.020352  1
  O  O51  1  0.143354  0.191315  0.020318  1
  O  O52  1  0.565632  0.670031  0.802407  1
  O  O53  1  0.306170  0.475754  0.873691  1
  O  O54  1  0.699300  0.541247  0.438704  1
  O  O55  1  0.305905  0.975731  0.626321  1
  O  O56  1  0.300704  0.458751  0.561295  1
  O  O57  1  0.194083  0.475738  0.373680  1
  O  O58  1  0.565642  0.170071  0.697693  1
  O  O59  1  0.805907  0.524258  0.626319  1
  O  O60  1  0.355456  0.691080  0.979803  1
  O  O61  1  0.143376  0.691283  0.479689  1
  O  O62  1  0.434342  0.829906  0.302237  1
  O  O63  1  0.249789  0.734793  0.150179  1
