# generated using pymatgen
data_Ba5Ir2O9F
_symmetry_space_group_name_H-M   'P 1'
_cell_length_a   6.13070795
_cell_length_b   6.13070830
_cell_length_c   17.76569500
_cell_angle_alpha   90.00000000
_cell_angle_beta   90.00000000
_cell_angle_gamma   120.21028687
_symmetry_Int_Tables_number   1
_chemical_formula_structural   Ba5Ir2O9F
_chemical_formula_sum   'Ba10 Ir4 O18 F2'
_cell_volume   577.04534748
_cell_formula_units_Z   2
loop_
 _symmetry_equiv_pos_site_id
 _symmetry_equiv_pos_as_xyz
  1  'x, y, z'
loop_
 _atom_site_type_symbol
 _atom_site_label
 _atom_site_symmetry_multiplicity
 _atom_site_fract_x
 _atom_site_fract_y
 _atom_site_fract_z
 _atom_site_occupancy
  Ba  Ba0  1  0.169123  0.830877  0.014219  1
  Ba  Ba1  1  0.830877  0.169123  0.514219  1
  Ba  Ba2  1  0.833014  0.166986  0.745926  1
  Ba  Ba3  1  0.166986  0.833014  0.245926  1
  Ba  Ba4  1  0.499086  0.500914  0.357057  1
  Ba  Ba5  1  0.500914  0.499086  0.857057  1
  Ba  Ba6  1  0.499415  0.500585  0.635145  1
  Ba  Ba7  1  0.833581  0.166419  0.977989  1
  Ba  Ba8  1  0.500585  0.499415  0.135145  1
  Ba  Ba9  1  0.166419  0.833581  0.477989  1
  Ir  Ir10  1  0.171199  0.828801  0.674076  1
  Ir  Ir11  1  0.160711  0.839289  0.818291  1
  Ir  Ir12  1  0.828801  0.171199  0.174076  1
  Ir  Ir13  1  0.839289  0.160711  0.318291  1
  O  O14  1  0.461294  0.004314  0.884420  1
  O  O15  1  0.004889  0.995111  0.879251  1
  O  O16  1  0.679782  0.320218  0.249810  1
  O  O17  1  0.321752  0.142950  0.744317  1
  O  O18  1  0.004314  0.461294  0.384420  1
  O  O19  1  0.995686  0.538706  0.884420  1
  O  O20  1  0.029744  0.521356  0.611209  1
  O  O21  1  0.022675  0.977325  0.606414  1
  O  O22  1  0.521356  0.029744  0.111209  1
  O  O23  1  0.857050  0.678248  0.744317  1
  O  O24  1  0.678248  0.857050  0.244317  1
  O  O25  1  0.142950  0.321752  0.244317  1
  O  O26  1  0.995111  0.004889  0.379251  1
  O  O27  1  0.320218  0.679782  0.749810  1
  O  O28  1  0.478644  0.970256  0.611209  1
  O  O29  1  0.970256  0.478644  0.111209  1
  O  O30  1  0.538706  0.995686  0.384420  1
  O  O31  1  0.977325  0.022675  0.106414  1
  F  F32  1  0.438938  0.561062  0.996132  1
  F  F33  1  0.561062  0.438938  0.496132  1
