# generated using pymatgen
data_Ca5Cd3
_symmetry_space_group_name_H-M   'P 1'
_cell_length_a   8.27709300
_cell_length_b   8.27709300
_cell_length_c   15.27123800
_cell_angle_alpha   90.00000000
_cell_angle_beta   90.00000000
_cell_angle_gamma   90.00000000
_symmetry_Int_Tables_number   1
_chemical_formula_structural   Ca5Cd3
_chemical_formula_sum   'Ca20 Cd12'
_cell_volume   1046.23661618
_cell_formula_units_Z   4
loop_
 _symmetry_equiv_pos_site_id
 _symmetry_equiv_pos_as_xyz
  1  'x, y, z'
loop_
 _atom_site_type_symbol
 _atom_site_label
 _atom_site_symmetry_multiplicity
 _atom_site_fract_x
 _atom_site_fract_y
 _atom_site_fract_z
 _atom_site_occupancy
  Ca  Ca0  1  0.666590  0.165161  0.099510  1
  Ca  Ca1  1  0.166879  0.666125  0.600558  1
  Ca  Ca2  1  0.333410  0.834839  0.099510  1
  Ca  Ca3  1  0.833121  0.333875  0.600558  1
  Ca  Ca4  1  0.834839  0.666590  0.099510  1
  Ca  Ca5  1  0.333875  0.166879  0.600558  1
  Ca  Ca6  1  0.165161  0.333410  0.099510  1
  Ca  Ca7  1  0.666125  0.833121  0.600558  1
  Ca  Ca8  1  0.834839  0.333410  0.900490  1
  Ca  Ca9  1  0.333875  0.833121  0.399442  1
  Ca  Ca10  1  0.165161  0.666590  0.900490  1
  Ca  Ca11  1  0.666125  0.166879  0.399442  1
  Ca  Ca12  1  0.666590  0.834839  0.900490  1
  Ca  Ca13  1  0.166879  0.333875  0.399442  1
  Ca  Ca14  1  0.333410  0.165161  0.900490  1
  Ca  Ca15  1  0.833121  0.666125  0.399442  1
  Ca  Ca16  1  0.500000  0.500000  0.753443  1
  Ca  Ca17  1  0.000000  0.000000  0.250578  1
  Ca  Ca18  1  0.000000  0.000000  0.749422  1
  Ca  Ca19  1  0.500000  0.500000  0.246557  1
  Cd  Cd20  1  0.500000  0.500000  0.500000  1
  Cd  Cd21  1  0.500000  0.500000  0.000000  1
  Cd  Cd22  1  0.000000  0.000000  0.500000  1
  Cd  Cd23  1  0.628443  0.128807  0.750726  1
  Cd  Cd24  1  0.128807  0.628443  0.249274  1
  Cd  Cd25  1  0.871193  0.371557  0.249274  1
  Cd  Cd26  1  0.371557  0.871193  0.750726  1
  Cd  Cd27  1  0.871193  0.628443  0.750726  1
  Cd  Cd28  1  0.371557  0.128807  0.249274  1
  Cd  Cd29  1  0.128807  0.371557  0.750726  1
  Cd  Cd30  1  0.628443  0.871193  0.249274  1
  Cd  Cd31  1  0.000000  0.000000  0.000000  1
