# generated using pymatgen
data_Nd5Ge3P9Ir19
_symmetry_space_group_name_H-M   'P 1'
_cell_length_a   12.96296924
_cell_length_b   12.85791312
_cell_length_c   4.03268800
_cell_angle_alpha   90.00000000
_cell_angle_beta   90.00000000
_cell_angle_gamma   119.91906919
_symmetry_Int_Tables_number   1
_chemical_formula_structural   Nd5Ge3P9Ir19
_chemical_formula_sum   'Nd5 Ge3 P9 Ir19'
_cell_volume   582.57766066
_cell_formula_units_Z   1
loop_
 _symmetry_equiv_pos_site_id
 _symmetry_equiv_pos_as_xyz
  1  'x, y, z'
loop_
 _atom_site_type_symbol
 _atom_site_label
 _atom_site_symmetry_multiplicity
 _atom_site_fract_x
 _atom_site_fract_y
 _atom_site_fract_z
 _atom_site_occupancy
  Nd  Nd0  1  0.662954  0.333572  0.000000  1
  Nd  Nd1  1  0.334261  0.666352  0.000000  1
  Nd  Nd2  1  0.819276  0.816846  0.500000  1
  Nd  Nd3  1  0.180507  0.999067  0.500000  1
  Nd  Nd4  1  0.999968  0.186341  0.500000  1
  Ge  Ge5  1  0.677679  0.162696  0.500000  1
  Ge  Ge6  1  0.640738  0.641411  0.000000  1
  Ge  Ge7  1  0.358919  0.997812  0.000000  1
  P  P8  1  0.832175  0.517331  0.500000  1
  P  P9  1  0.478535  0.321909  0.500000  1
  P  P10  1  0.179951  0.695296  0.500000  1
  P  P11  1  0.520089  0.824399  0.500000  1
  P  P12  1  0.304428  0.481626  0.500000  1
  P  P13  1  0.998640  0.359704  0.000000  1
  P  P14  1  0.175120  0.182454  0.000000  1
  P  P15  1  0.821029  0.999917  0.000000  1
  P  P16  1  0.002140  0.817400  0.000000  1
  Ir  Ir17  1  0.813933  0.181520  0.000000  1
  Ir  Ir18  1  0.828479  0.621821  0.000000  1
  Ir  Ir19  1  0.362543  0.194167  0.000000  1
  Ir  Ir20  1  0.174680  0.789680  0.000000  1
  Ir  Ir21  1  0.617132  0.826226  0.000000  1
  Ir  Ir22  1  0.192682  0.379924  0.000000  1
  Ir  Ir23  1  0.465781  0.440229  0.000000  1
  Ir  Ir24  1  0.557411  0.019127  0.000000  1
  Ir  Ir25  1  0.996365  0.535965  0.000000  1
  Ir  Ir26  1  0.284654  0.290317  0.500000  1
  Ir  Ir27  1  0.721400  0.996946  0.500000  1
  Ir  Ir28  1  0.001957  0.712681  0.500000  1
  Ir  Ir29  1  0.870663  0.361659  0.500000  1
  Ir  Ir30  1  0.647239  0.511392  0.500000  1
  Ir  Ir31  1  0.477724  0.138753  0.500000  1
  Ir  Ir32  1  0.371119  0.873280  0.500000  1
  Ir  Ir33  1  0.503053  0.629826  0.500000  1
  Ir  Ir34  1  0.126911  0.494862  0.500000  1
  Ir  Ir35  1  0.999866  0.997491  0.000000  1
