# generated using pymatgen
data_La8Pr8MgHg3Ir4
_symmetry_space_group_name_H-M   'P 1'
_cell_length_a   10.04109055
_cell_length_b   10.09306230
_cell_length_c   10.14993300
_cell_angle_alpha   59.81343542
_cell_angle_beta   59.64077626
_cell_angle_gamma   60.25612894
_symmetry_Int_Tables_number   1
_chemical_formula_structural   La8Pr8MgHg3Ir4
_chemical_formula_sum   'La8 Pr8 Mg1 Hg3 Ir4'
_cell_volume   725.72633022
_cell_formula_units_Z   1
loop_
 _symmetry_equiv_pos_site_id
 _symmetry_equiv_pos_as_xyz
  1  'x, y, z'
loop_
 _atom_site_type_symbol
 _atom_site_label
 _atom_site_symmetry_multiplicity
 _atom_site_fract_x
 _atom_site_fract_y
 _atom_site_fract_z
 _atom_site_occupancy
  La  La0  1  0.346414  0.345733  0.348121  1
  La  La1  1  0.346414  0.345733  0.959734  1
  La  La2  1  0.349661  0.958056  0.346143  1
  La  La3  1  0.950998  0.351599  0.348702  1
  La  La4  1  0.807649  0.191524  0.192534  1
  La  La5  1  0.186541  0.811326  0.811984  1
  La  La6  1  0.186541  0.811326  0.190150  1
  La  La7  1  0.807649  0.191524  0.808295  1
  Pr  Pr8  1  0.190257  0.191585  0.809079  1
  Pr  Pr9  1  0.802550  0.804289  0.196581  1
  Pr  Pr10  1  0.937938  0.562953  0.564261  1
  Pr  Pr11  1  0.561121  0.938175  0.936734  1
  Pr  Pr12  1  0.561121  0.938175  0.563970  1
  Pr  Pr13  1  0.937938  0.562953  0.934848  1
  Pr  Pr14  1  0.560393  0.562441  0.938583  1
  Pr  Pr15  1  0.938630  0.938151  0.561609  1
  Mg  Mg16  1  0.285015  0.570429  0.572279  1
  Hg  Hg17  1  0.581404  0.587374  0.585561  1
  Hg  Hg18  1  0.581404  0.587374  0.245660  1
  Hg  Hg19  1  0.580389  0.245154  0.587228  1
  Ir  Ir20  1  0.138292  0.139582  0.145787  1
  Ir  Ir21  1  0.138292  0.139582  0.576338  1
  Ir  Ir22  1  0.146724  0.577508  0.137884  1
  Ir  Ir23  1  0.576670  0.147455  0.137937  1
