# generated using pymatgen
data_Eu(WF4)3
_symmetry_space_group_name_H-M   'P 1'
_cell_length_a   8.53930089
_cell_length_b   5.98154523
_cell_length_c   5.97985100
_cell_angle_alpha   89.98381190
_cell_angle_beta   90.13265675
_cell_angle_gamma   89.81858723
_symmetry_Int_Tables_number   1
_chemical_formula_structural   Eu(WF4)3
_chemical_formula_sum   'Eu1 W3 F12'
_cell_volume   305.43774969
_cell_formula_units_Z   1
loop_
 _symmetry_equiv_pos_site_id
 _symmetry_equiv_pos_as_xyz
  1  'x, y, z'
loop_
 _atom_site_type_symbol
 _atom_site_label
 _atom_site_symmetry_multiplicity
 _atom_site_fract_x
 _atom_site_fract_y
 _atom_site_fract_z
 _atom_site_occupancy
  Eu  Eu0  1  0.500000  0.000000  0.000000  1
  W  W1  1  0.000000  0.000000  0.000000  1
  W  W2  1  0.000000  0.500000  0.500000  1
  W  W3  1  0.500000  0.500000  0.500000  1
  F  F4  1  0.239606  0.031979  0.998504  1
  F  F5  1  0.510803  0.338456  0.202069  1
  F  F6  1  0.988256  0.283334  0.218761  1
  F  F7  1  0.009582  0.781661  0.283860  1
  F  F8  1  0.491811  0.797199  0.337755  1
  F  F9  1  0.748073  0.515014  0.505713  1
  F  F10  1  0.251927  0.484986  0.494287  1
  F  F11  1  0.508189  0.202801  0.662245  1
  F  F12  1  0.990418  0.218339  0.716140  1
  F  F13  1  0.011744  0.716666  0.781239  1
  F  F14  1  0.489197  0.661544  0.797931  1
  F  F15  1  0.760394  0.968021  0.001496  1
