# generated using pymatgen
data_K(PPd3)2
_symmetry_space_group_name_H-M   'P 1'
_cell_length_a   8.57962700
_cell_length_b   8.57962700
_cell_length_c   8.57962700
_cell_angle_alpha   90.00000000
_cell_angle_beta   90.00000000
_cell_angle_gamma   90.00000000
_symmetry_Int_Tables_number   1
_chemical_formula_structural   K(PPd3)2
_chemical_formula_sum   'K4 P8 Pd24'
_cell_volume   631.54633883
_cell_formula_units_Z   4
loop_
 _symmetry_equiv_pos_site_id
 _symmetry_equiv_pos_as_xyz
  1  'x, y, z'
loop_
 _atom_site_type_symbol
 _atom_site_label
 _atom_site_symmetry_multiplicity
 _atom_site_fract_x
 _atom_site_fract_y
 _atom_site_fract_z
 _atom_site_occupancy
  K  K0  1  0.500000  0.500000  0.000000  1
  K  K1  1  0.500000  0.000000  0.500000  1
  K  K2  1  0.000000  0.500000  0.500000  1
  K  K3  1  0.000000  0.000000  0.000000  1
  P  P4  1  0.807090  0.307090  0.192910  1
  P  P5  1  0.192910  0.807090  0.307090  1
  P  P6  1  0.692910  0.692910  0.692910  1
  P  P7  1  0.307090  0.192910  0.807090  1
  P  P8  1  0.192910  0.692910  0.807090  1
  P  P9  1  0.807090  0.192910  0.692910  1
  P  P10  1  0.307090  0.307090  0.307090  1
  P  P11  1  0.692910  0.807090  0.192910  1
  Pd  Pd12  1  0.421319  0.848144  0.161621  1
  Pd  Pd13  1  0.578681  0.348144  0.338379  1
  Pd  Pd14  1  0.078681  0.151856  0.661621  1
  Pd  Pd15  1  0.921319  0.651856  0.838379  1
  Pd  Pd16  1  0.161621  0.421319  0.848144  1
  Pd  Pd17  1  0.338379  0.578681  0.348144  1
  Pd  Pd18  1  0.661621  0.078681  0.151856  1
  Pd  Pd19  1  0.838379  0.921319  0.651856  1
  Pd  Pd20  1  0.848144  0.161621  0.421319  1
  Pd  Pd21  1  0.348144  0.338379  0.578681  1
  Pd  Pd22  1  0.151856  0.661621  0.078681  1
  Pd  Pd23  1  0.651856  0.838379  0.921319  1
  Pd  Pd24  1  0.578681  0.151856  0.838379  1
  Pd  Pd25  1  0.421319  0.651856  0.661621  1
  Pd  Pd26  1  0.921319  0.848144  0.338379  1
  Pd  Pd27  1  0.078681  0.348144  0.161621  1
  Pd  Pd28  1  0.838379  0.578681  0.151856  1
  Pd  Pd29  1  0.661621  0.421319  0.651856  1
  Pd  Pd30  1  0.338379  0.921319  0.848144  1
  Pd  Pd31  1  0.161621  0.078681  0.348144  1
  Pd  Pd32  1  0.151856  0.838379  0.578681  1
  Pd  Pd33  1  0.651856  0.661621  0.421319  1
  Pd  Pd34  1  0.848144  0.338379  0.921319  1
  Pd  Pd35  1  0.348144  0.161621  0.078681  1
