# generated using pymatgen
data_Dy5Fe2Ni5(PRu)12
_symmetry_space_group_name_H-M   'P 1'
_cell_length_a   12.38993586
_cell_length_b   12.32625593
_cell_length_c   3.86296200
_cell_angle_alpha   90.00000000
_cell_angle_beta   90.00000000
_cell_angle_gamma   120.26799320
_symmetry_Int_Tables_number   1
_chemical_formula_structural   Dy5Fe2Ni5(PRu)12
_chemical_formula_sum   'Dy5 Fe2 Ni5 P12 Ru12'
_cell_volume   509.53281464
_cell_formula_units_Z   1
loop_
 _symmetry_equiv_pos_site_id
 _symmetry_equiv_pos_as_xyz
  1  'x, y, z'
loop_
 _atom_site_type_symbol
 _atom_site_label
 _atom_site_symmetry_multiplicity
 _atom_site_fract_x
 _atom_site_fract_y
 _atom_site_fract_z
 _atom_site_occupancy
  Dy  Dy0  1  0.668504  0.333114  0.000000  1
  Dy  Dy1  1  0.335607  0.670516  0.000000  1
  Dy  Dy2  1  0.813528  0.998609  0.500000  1
  Dy  Dy3  1  0.181372  0.182566  0.500000  1
  Dy  Dy4  1  0.995378  0.816176  0.500000  1
  Fe  Fe5  1  0.626372  0.798730  0.000000  1
  Fe  Fe6  1  0.874169  0.519966  0.500000  1
  Ni  Ni7  1  0.182200  0.373606  0.000000  1
  Ni  Ni8  1  0.368498  0.175045  0.000000  1
  Ni  Ni9  1  0.188611  0.823546  0.000000  1
  Ni  Ni10  1  0.806473  0.623148  0.000000  1
  Ni  Ni11  1  0.998187  0.999672  0.000000  1
  P  P12  1  0.634386  0.994425  0.000000  1
  P  P13  1  0.366794  0.366025  0.000000  1
  P  P14  1  0.993819  0.632017  0.000000  1
  P  P15  1  0.688325  0.513682  0.500000  1
  P  P16  1  0.836813  0.320315  0.500000  1
  P  P17  1  0.319602  0.837838  0.500000  1
  P  P18  1  0.523227  0.687009  0.500000  1
  P  P19  1  0.171703  0.999591  0.000000  1
  P  P20  1  0.818582  0.825431  0.000000  1
  P  P21  1  0.000311  0.176975  0.000000  1
  P  P22  1  0.481405  0.162478  0.500000  1
  P  P23  1  0.168396  0.489889  0.500000  1
  Ru  Ru24  1  0.480798  0.350418  0.500000  1
  Ru  Ru25  1  0.641860  0.127491  0.500000  1
  Ru  Ru26  1  0.125738  0.651399  0.500000  1
  Ru  Ru27  1  0.354232  0.482312  0.500000  1
  Ru  Ru28  1  0.518237  0.871529  0.500000  1
  Ru  Ru29  1  0.720719  0.713163  0.500000  1
  Ru  Ru30  1  0.009826  0.288712  0.500000  1
  Ru  Ru31  1  0.444040  0.995503  0.000000  1
  Ru  Ru32  1  0.554756  0.548594  0.000000  1
  Ru  Ru33  1  0.005117  0.453922  0.000000  1
  Ru  Ru34  1  0.823727  0.197137  0.000000  1
  Ru  Ru35  1  0.278683  0.999452  0.500000  1
