# generated using pymatgen
data_Tm5In2Bi
_symmetry_space_group_name_H-M   'P 1'
_cell_length_a   6.53327900
_cell_length_b   8.93383324
_cell_length_c   8.90416796
_cell_angle_alpha   119.88814712
_cell_angle_beta   89.99970303
_cell_angle_gamma   89.99996362
_symmetry_Int_Tables_number   1
_chemical_formula_structural   Tm5In2Bi
_chemical_formula_sum   'Tm10 In4 Bi2'
_cell_volume   450.58985954
_cell_formula_units_Z   2
loop_
 _symmetry_equiv_pos_site_id
 _symmetry_equiv_pos_as_xyz
  1  'x, y, z'
loop_
 _atom_site_type_symbol
 _atom_site_label
 _atom_site_symmetry_multiplicity
 _atom_site_fract_x
 _atom_site_fract_y
 _atom_site_fract_z
 _atom_site_occupancy
  Tm  Tm0  1  0.492902  0.328844  0.667137  1
  Tm  Tm1  1  0.492887  0.671166  0.338292  1
  Tm  Tm2  1  0.007111  0.671160  0.338288  1
  Tm  Tm3  1  0.007096  0.328844  0.667139  1
  Tm  Tm4  1  0.749999  0.228298  0.991035  1
  Tm  Tm5  1  0.749998  0.771554  0.762691  1
  Tm  Tm6  1  0.749999  0.999973  0.239826  1
  Tm  Tm7  1  0.250001  0.764897  0.000135  1
  Tm  Tm8  1  0.249999  0.235255  0.235326  1
  Tm  Tm9  1  0.249998  0.000051  0.763110  1
  In  In10  1  0.750004  0.999950  0.595533  1
  In  In11  1  0.250013  0.397849  0.003037  1
  In  In12  1  0.249998  0.602164  0.605184  1
  In  In13  1  0.249993  0.000064  0.398046  1
  Bi  Bi14  1  0.750001  0.603852  0.999584  1
  Bi  Bi15  1  0.749999  0.396079  0.395639  1
