# generated using pymatgen
data_TbSm8Tm11Sn16
_symmetry_space_group_name_H-M   'P 1'
_cell_length_a   8.03527571
_cell_length_b   8.18260569
_cell_length_c   15.44637530
_cell_angle_alpha   89.98593389
_cell_angle_beta   89.98220337
_cell_angle_gamma   89.95518092
_symmetry_Int_Tables_number   1
_chemical_formula_structural   TbSm8Tm11Sn16
_chemical_formula_sum   'Tb1 Sm8 Tm11 Sn16'
_cell_volume   1015.59095051
_cell_formula_units_Z   1
loop_
 _symmetry_equiv_pos_site_id
 _symmetry_equiv_pos_as_xyz
  1  'x, y, z'
loop_
 _atom_site_type_symbol
 _atom_site_label
 _atom_site_symmetry_multiplicity
 _atom_site_fract_x
 _atom_site_fract_y
 _atom_site_fract_z
 _atom_site_occupancy
  Tb  Tb0  1  0.365255  0.835673  0.877695  1
  Sm  Sm1  1  0.518900  0.321203  0.902785  1
  Sm  Sm2  1  0.018784  0.179183  0.597064  1
  Sm  Sm3  1  0.481037  0.678996  0.402765  1
  Sm  Sm4  1  0.981411  0.821174  0.097168  1
  Sm  Sm5  1  0.481241  0.678812  0.097715  1
  Sm  Sm6  1  0.981062  0.820960  0.402814  1
  Sm  Sm7  1  0.518950  0.320973  0.596955  1
  Sm  Sm8  1  0.018605  0.179260  0.902904  1
  Tm  Tm9  1  0.865244  0.663767  0.622468  1
  Tm  Tm10  1  0.635055  0.163902  0.377260  1
  Tm  Tm11  1  0.134856  0.336217  0.123231  1
  Tm  Tm12  1  0.634936  0.163731  0.122664  1
  Tm  Tm13  1  0.134995  0.336211  0.377280  1
  Tm  Tm14  1  0.364967  0.836241  0.622621  1
  Tm  Tm15  1  0.864734  0.663991  0.877084  1
  Tm  Tm16  1  0.196641  0.503691  0.749574  1
  Tm  Tm17  1  0.697277  0.996052  0.749706  1
  Tm  Tm18  1  0.802866  0.495736  0.250013  1
  Tm  Tm19  1  0.302909  0.004278  0.250176  1
  Sn  Sn20  1  0.297687  0.039852  0.042949  1
  Sn  Sn21  1  0.797940  0.461216  0.457986  1
  Sn  Sn22  1  0.701971  0.961262  0.541878  1
  Sn  Sn23  1  0.200777  0.536941  0.958419  1
  Sn  Sn24  1  0.703986  0.961682  0.958337  1
  Sn  Sn25  1  0.202086  0.538747  0.541903  1
  Sn  Sn26  1  0.297943  0.038781  0.458082  1
  Sn  Sn27  1  0.798105  0.461229  0.041928  1
  Sn  Sn28  1  0.564005  0.621939  0.749381  1
  Sn  Sn29  1  0.062275  0.877157  0.749418  1
  Sn  Sn30  1  0.437013  0.377033  0.250098  1
  Sn  Sn31  1  0.936823  0.122947  0.250129  1
  Sn  Sn32  1  0.327428  0.145539  0.749575  1
  Sn  Sn33  1  0.827607  0.355393  0.749953  1
  Sn  Sn34  1  0.672279  0.855342  0.250024  1
  Sn  Sn35  1  0.172349  0.644891  0.250001  1
