# generated using pymatgen
data_Pr4GeI6
_symmetry_space_group_name_H-M   'P 1'
_cell_length_a   4.39295900
_cell_length_b   14.59100400
_cell_length_c   15.38734000
_cell_angle_alpha   90.00000000
_cell_angle_beta   90.00000000
_cell_angle_gamma   90.00000000
_symmetry_Int_Tables_number   1
_chemical_formula_structural   Pr4GeI6
_chemical_formula_sum   'Pr8 Ge2 I12'
_cell_volume   986.29283139
_cell_formula_units_Z   2
loop_
 _symmetry_equiv_pos_site_id
 _symmetry_equiv_pos_as_xyz
  1  'x, y, z'
loop_
 _atom_site_type_symbol
 _atom_site_label
 _atom_site_symmetry_multiplicity
 _atom_site_fract_x
 _atom_site_fract_y
 _atom_site_fract_z
 _atom_site_occupancy
  Pr  Pr0  1  0.500000  0.115479  0.345381  1
  Pr  Pr1  1  0.500000  0.884521  0.654619  1
  Pr  Pr2  1  0.500000  0.615479  0.154619  1
  Pr  Pr3  1  0.500000  0.384521  0.845381  1
  Pr  Pr4  1  0.000000  0.114117  0.576297  1
  Pr  Pr5  1  0.000000  0.885883  0.423703  1
  Pr  Pr6  1  0.000000  0.614117  0.923703  1
  Pr  Pr7  1  0.000000  0.385883  0.076297  1
  Ge  Ge8  1  0.500000  0.000000  0.500000  1
  Ge  Ge9  1  0.500000  0.500000  0.000000  1
  I  I10  1  0.500000  0.244186  0.161686  1
  I  I11  1  0.500000  0.755814  0.838314  1
  I  I12  1  0.500000  0.744186  0.338314  1
  I  I13  1  0.500000  0.255814  0.661686  1
  I  I14  1  0.000000  0.258267  0.413927  1
  I  I15  1  0.000000  0.741733  0.586073  1
  I  I16  1  0.000000  0.758267  0.086073  1
  I  I17  1  0.000000  0.241733  0.913927  1
  I  I18  1  0.000000  0.998777  0.240716  1
  I  I19  1  0.000000  0.001223  0.759284  1
  I  I20  1  0.000000  0.498777  0.259284  1
  I  I21  1  0.000000  0.501223  0.740716  1
