# generated using pymatgen
data_Y3Tm5(C2Br3)2
_symmetry_space_group_name_H-M   'P 1'
_cell_length_a   3.64507500
_cell_length_b   10.58131106
_cell_length_c   20.23372700
_cell_angle_alpha   90.00597253
_cell_angle_beta   90.00000000
_cell_angle_gamma   90.00000000
_symmetry_Int_Tables_number   1
_chemical_formula_structural   Y3Tm5(C2Br3)2
_chemical_formula_sum   'Y6 Tm10 C8 Br12'
_cell_volume   780.40821764
_cell_formula_units_Z   2
loop_
 _symmetry_equiv_pos_site_id
 _symmetry_equiv_pos_as_xyz
  1  'x, y, z'
loop_
 _atom_site_type_symbol
 _atom_site_label
 _atom_site_symmetry_multiplicity
 _atom_site_fract_x
 _atom_site_fract_y
 _atom_site_fract_z
 _atom_site_occupancy
  Y  Y0  1  0.250000  0.866275  0.579308  1
  Y  Y1  1  0.750000  0.133725  0.420692  1
  Y  Y2  1  0.750000  0.633523  0.080007  1
  Y  Y3  1  0.250000  0.366477  0.919993  1
  Y  Y4  1  0.250000  0.866398  0.745343  1
  Y  Y5  1  0.750000  0.133602  0.254657  1
  Tm  Tm6  1  0.750000  0.633633  0.244236  1
  Tm  Tm7  1  0.250000  0.366367  0.755764  1
  Tm  Tm8  1  0.250000  0.865765  0.169811  1
  Tm  Tm9  1  0.750000  0.134235  0.830189  1
  Tm  Tm10  1  0.750000  0.633068  0.669575  1
  Tm  Tm11  1  0.250000  0.366932  0.330425  1
  Tm  Tm12  1  0.250000  0.899774  0.327448  1
  Tm  Tm13  1  0.750000  0.100226  0.672552  1
  Tm  Tm14  1  0.750000  0.598999  0.827258  1
  Tm  Tm15  1  0.250000  0.401001  0.172742  1
  C  C16  1  0.250000  0.612936  0.750242  1
  C  C17  1  0.750000  0.387064  0.249758  1
  C  C18  1  0.750000  0.881537  0.250416  1
  C  C19  1  0.250000  0.118463  0.749584  1
  C  C20  1  0.250000  0.632189  0.158155  1
  C  C21  1  0.750000  0.367811  0.841845  1
  C  C22  1  0.750000  0.867873  0.656540  1
  C  C23  1  0.250000  0.132127  0.343460  1
  Br  Br24  1  0.250000  0.608171  0.556532  1
  Br  Br25  1  0.750000  0.391829  0.443468  1
  Br  Br26  1  0.750000  0.890987  0.056579  1
  Br  Br27  1  0.250000  0.109013  0.943421  1
  Br  Br28  1  0.250000  0.631904  0.952351  1
  Br  Br29  1  0.750000  0.368096  0.047649  1
  Br  Br30  1  0.750000  0.867507  0.452100  1
  Br  Br31  1  0.250000  0.132493  0.547900  1
  Br  Br32  1  0.250000  0.635570  0.356461  1
  Br  Br33  1  0.750000  0.364430  0.643539  1
  Br  Br34  1  0.750000  0.864288  0.859044  1
  Br  Br35  1  0.250000  0.135712  0.140956  1
