# generated using pymatgen
data_DyTm7(CdRu)2
_symmetry_space_group_name_H-M   'P 1'
_cell_length_a   9.50711301
_cell_length_b   9.50711334
_cell_length_c   9.49864500
_cell_angle_alpha   60.02945750
_cell_angle_beta   60.02945634
_cell_angle_gamma   59.94107785
_symmetry_Int_Tables_number   1
_chemical_formula_structural   DyTm7(CdRu)2
_chemical_formula_sum   'Dy2 Tm14 Cd4 Ru4'
_cell_volume   607.07628915
_cell_formula_units_Z   2
loop_
 _symmetry_equiv_pos_site_id
 _symmetry_equiv_pos_as_xyz
  1  'x, y, z'
loop_
 _atom_site_type_symbol
 _atom_site_label
 _atom_site_symmetry_multiplicity
 _atom_site_fract_x
 _atom_site_fract_y
 _atom_site_fract_z
 _atom_site_occupancy
  Dy  Dy0  1  0.561636  0.561636  0.938364  1
  Dy  Dy1  1  0.938364  0.938364  0.561635  1
  Tm  Tm2  1  0.347249  0.347249  0.346576  1
  Tm  Tm3  1  0.347249  0.347249  0.958926  1
  Tm  Tm4  1  0.346576  0.958926  0.347249  1
  Tm  Tm5  1  0.958926  0.346576  0.347249  1
  Tm  Tm6  1  0.811702  0.188298  0.188298  1
  Tm  Tm7  1  0.188298  0.811702  0.811702  1
  Tm  Tm8  1  0.188298  0.811702  0.188298  1
  Tm  Tm9  1  0.811702  0.188298  0.811702  1
  Tm  Tm10  1  0.188889  0.188889  0.811111  1
  Tm  Tm11  1  0.811111  0.811111  0.188889  1
  Tm  Tm12  1  0.940583  0.559417  0.559417  1
  Tm  Tm13  1  0.559417  0.940583  0.940583  1
  Tm  Tm14  1  0.559417  0.940583  0.559417  1
  Tm  Tm15  1  0.940583  0.559416  0.940583  1
  Cd  Cd16  1  0.580919  0.580919  0.580113  1
  Cd  Cd17  1  0.580919  0.580919  0.258048  1
  Cd  Cd18  1  0.580113  0.258048  0.580919  1
  Cd  Cd19  1  0.258048  0.580113  0.580919  1
  Ru  Ru20  1  0.140885  0.140885  0.138500  1
  Ru  Ru21  1  0.140885  0.140885  0.579730  1
  Ru  Ru22  1  0.138500  0.579730  0.140885  1
  Ru  Ru23  1  0.579730  0.138500  0.140885  1
