# generated using pymatgen
data_Hf18FeRe5NiMo3
_symmetry_space_group_name_H-M   'P 1'
_cell_length_a   8.47014300
_cell_length_b   8.64210923
_cell_length_c   8.63239960
_cell_angle_alpha   120.03750692
_cell_angle_beta   90.00000000
_cell_angle_gamma   90.00000000
_symmetry_Int_Tables_number   1
_chemical_formula_structural   Hf18FeRe5NiMo3
_chemical_formula_sum   'Hf18 Fe1 Re5 Ni1 Mo3'
_cell_volume   547.02654069
_cell_formula_units_Z   1
loop_
 _symmetry_equiv_pos_site_id
 _symmetry_equiv_pos_as_xyz
  1  'x, y, z'
loop_
 _atom_site_type_symbol
 _atom_site_label
 _atom_site_symmetry_multiplicity
 _atom_site_fract_x
 _atom_site_fract_y
 _atom_site_fract_z
 _atom_site_occupancy
  Hf  Hf0  1  0.557667  0.801545  0.603092  1
  Hf  Hf1  1  0.556275  0.800427  0.198720  1
  Hf  Hf2  1  0.556273  0.398281  0.198714  1
  Hf  Hf3  1  0.439698  0.201381  0.402758  1
  Hf  Hf4  1  0.440408  0.201150  0.798572  1
  Hf  Hf5  1  0.440413  0.597442  0.798584  1
  Hf  Hf6  1  0.060302  0.201381  0.402758  1
  Hf  Hf7  1  0.059592  0.201150  0.798572  1
  Hf  Hf8  1  0.059587  0.597442  0.798584  1
  Hf  Hf9  1  0.942333  0.801545  0.603092  1
  Hf  Hf10  1  0.943725  0.800427  0.198720  1
  Hf  Hf11  1  0.943727  0.398281  0.198714  1
  Hf  Hf12  1  0.750000  0.458299  0.916608  1
  Hf  Hf13  1  0.750000  0.459845  0.543137  1
  Hf  Hf14  1  0.750000  0.083281  0.543139  1
  Hf  Hf15  1  0.250000  0.540995  0.081985  1
  Hf  Hf16  1  0.250000  0.541812  0.459249  1
  Hf  Hf17  1  0.250000  0.917446  0.459248  1
  Fe  Fe18  1  0.250000  0.333936  0.667857  1
  Re  Re19  1  0.750000  0.111718  0.886369  1
  Re  Re20  1  0.750000  0.774641  0.886369  1
  Re  Re21  1  0.250000  0.888677  0.777347  1
  Re  Re22  1  0.250000  0.887988  0.111819  1
  Re  Re23  1  0.250000  0.223851  0.111850  1
  Ni  Ni24  1  0.750000  0.666501  0.333017  1
  Mo  Mo25  1  0.750000  0.110935  0.221881  1
  Mo  Mo26  1  0.499754  0.999811  0.999624  1
  Mo  Mo27  1  0.000246  0.999811  0.999624  1
