# generated using pymatgen
data_Tb16TlHg3Pd4
_symmetry_space_group_name_H-M   'P 1'
_cell_length_a   9.72018758
_cell_length_b   9.73131454
_cell_length_c   9.73131500
_cell_angle_alpha   60.00000183
_cell_angle_beta   59.96212734
_cell_angle_gamma   59.96212504
_symmetry_Int_Tables_number   1
_chemical_formula_structural   Tb16TlHg3Pd4
_chemical_formula_sum   'Tb16 Tl1 Hg3 Pd4'
_cell_volume   650.50979521
_cell_formula_units_Z   1
loop_
 _symmetry_equiv_pos_site_id
 _symmetry_equiv_pos_as_xyz
  1  'x, y, z'
loop_
 _atom_site_type_symbol
 _atom_site_label
 _atom_site_symmetry_multiplicity
 _atom_site_fract_x
 _atom_site_fract_y
 _atom_site_fract_z
 _atom_site_occupancy
  Tb  Tb0  1  0.356594  0.355485  0.355485  1
  Tb  Tb1  1  0.356594  0.355485  0.932437  1
  Tb  Tb2  1  0.356594  0.932437  0.355485  1
  Tb  Tb3  1  0.929890  0.356703  0.356703  1
  Tb  Tb4  1  0.811794  0.188104  0.188104  1
  Tb  Tb5  1  0.187993  0.811776  0.811776  1
  Tb  Tb6  1  0.187993  0.811776  0.188456  1
  Tb  Tb7  1  0.811794  0.188104  0.811996  1
  Tb  Tb8  1  0.187993  0.188456  0.811776  1
  Tb  Tb9  1  0.811794  0.811996  0.188104  1
  Tb  Tb10  1  0.931896  0.565305  0.565305  1
  Tb  Tb11  1  0.563802  0.935307  0.935307  1
  Tb  Tb12  1  0.563802  0.935307  0.565583  1
  Tb  Tb13  1  0.931896  0.565305  0.937495  1
  Tb  Tb14  1  0.563802  0.565583  0.935307  1
  Tb  Tb15  1  0.931896  0.937495  0.565305  1
  Tl  Tl16  1  0.247925  0.584024  0.584024  1
  Hg  Hg17  1  0.588985  0.587481  0.587481  1
  Hg  Hg18  1  0.588985  0.587481  0.236051  1
  Hg  Hg19  1  0.588985  0.236051  0.587481  1
  Pd  Pd20  1  0.145076  0.145857  0.145857  1
  Pd  Pd21  1  0.145076  0.145857  0.563210  1
  Pd  Pd22  1  0.145076  0.563210  0.145857  1
  Pd  Pd23  1  0.563766  0.145411  0.145411  1
