# generated using pymatgen
data_LaMgIn3Ir
_symmetry_space_group_name_H-M   'P 1'
_cell_length_a   4.44739200
_cell_length_b   7.59203600
_cell_length_c   8.30367700
_cell_angle_alpha   90.00000000
_cell_angle_beta   90.00000000
_cell_angle_gamma   90.00000000
_symmetry_Int_Tables_number   1
_chemical_formula_structural   LaMgIn3Ir
_chemical_formula_sum   'La2 Mg2 In6 Ir2'
_cell_volume   280.37166244
_cell_formula_units_Z   2
loop_
 _symmetry_equiv_pos_site_id
 _symmetry_equiv_pos_as_xyz
  1  'x, y, z'
loop_
 _atom_site_type_symbol
 _atom_site_label
 _atom_site_symmetry_multiplicity
 _atom_site_fract_x
 _atom_site_fract_y
 _atom_site_fract_z
 _atom_site_occupancy
  La  La0  1  0.000000  0.397871  0.250000  1
  La  La1  1  0.000000  0.602129  0.750000  1
  Mg  Mg2  1  0.000000  0.000000  0.000000  1
  Mg  Mg3  1  0.000000  0.000000  0.500000  1
  In  In4  1  0.500000  0.305678  0.557051  1
  In  In5  1  0.500000  0.052344  0.250000  1
  In  In6  1  0.500000  0.947656  0.750000  1
  In  In7  1  0.500000  0.305678  0.942949  1
  In  In8  1  0.500000  0.694322  0.057051  1
  In  In9  1  0.500000  0.694322  0.442949  1
  Ir  Ir10  1  0.000000  0.786657  0.250000  1
  Ir  Ir11  1  0.000000  0.213343  0.750000  1
