# generated using pymatgen
data_Cs2VCuTe4
_symmetry_space_group_name_H-M   'P 1'
_cell_length_a   15.81985755
_cell_length_b   14.07423660
_cell_length_c   8.39495294
_cell_angle_alpha   85.56050685
_cell_angle_beta   62.49704681
_cell_angle_gamma   31.94243694
_symmetry_Int_Tables_number   1
_chemical_formula_structural   Cs2VCuTe4
_chemical_formula_sum   'Cs4 V2 Cu2 Te8'
_cell_volume   651.07971663
_cell_formula_units_Z   2
loop_
 _symmetry_equiv_pos_site_id
 _symmetry_equiv_pos_as_xyz
  1  'x, y, z'
loop_
 _atom_site_type_symbol
 _atom_site_label
 _atom_site_symmetry_multiplicity
 _atom_site_fract_x
 _atom_site_fract_y
 _atom_site_fract_z
 _atom_site_occupancy
  Cs  Cs0  1  0.680163  0.680163  0.319837  1
  Cs  Cs1  1  0.319837  0.319837  0.680163  1
  Cs  Cs2  1  0.569837  0.569837  0.930163  1
  Cs  Cs3  1  0.930163  0.930163  0.569837  1
  V  V4  1  0.500000  0.500000  0.500000  1
  V  V5  1  0.750000  0.750000  0.750000  1
  Cu  Cu6  1  0.000000  0.000000  0.000000  1
  Cu  Cu7  1  0.250000  0.250000  0.250000  1
  Te  Te8  1  0.363528  0.029130  0.950625  1
  Te  Te9  1  0.656717  0.950625  0.029130  1
  Te  Te10  1  0.950625  0.656717  0.363528  1
  Te  Te11  1  0.029130  0.363528  0.656717  1
  Te  Te12  1  0.886472  0.220870  0.299375  1
  Te  Te13  1  0.593283  0.299375  0.220870  1
  Te  Te14  1  0.299375  0.593283  0.886472  1
  Te  Te15  1  0.220870  0.886472  0.593283  1
