# generated using pymatgen
data_CsLaTiSe4
_symmetry_space_group_name_H-M   'P 1'
_cell_length_a   7.24374400
_cell_length_b   7.09210271
_cell_length_c   20.08247409
_cell_angle_alpha   70.81449937
_cell_angle_beta   90.00000000
_cell_angle_gamma   90.00000000
_symmetry_Int_Tables_number   1
_chemical_formula_structural   CsLaTiSe4
_chemical_formula_sum   'Cs4 La4 Ti4 Se16'
_cell_volume   974.40318297
_cell_formula_units_Z   4
loop_
 _symmetry_equiv_pos_site_id
 _symmetry_equiv_pos_as_xyz
  1  'x, y, z'
loop_
 _atom_site_type_symbol
 _atom_site_label
 _atom_site_symmetry_multiplicity
 _atom_site_fract_x
 _atom_site_fract_y
 _atom_site_fract_z
 _atom_site_occupancy
  Cs  Cs0  1  0.753543  0.716361  0.034075  1
  Cs  Cs1  1  0.246457  0.283639  0.965925  1
  Cs  Cs2  1  0.746457  0.716361  0.534075  1
  Cs  Cs3  1  0.253543  0.283639  0.465925  1
  La  La4  1  0.232018  0.227480  0.226860  1
  La  La5  1  0.732018  0.772520  0.273140  1
  La  La6  1  0.767982  0.772520  0.773140  1
  La  La7  1  0.267982  0.227480  0.726860  1
  Ti  Ti8  1  0.731314  0.212211  0.835347  1
  Ti  Ti9  1  0.768686  0.212211  0.335347  1
  Ti  Ti10  1  0.231314  0.787789  0.664653  1
  Ti  Ti11  1  0.268686  0.787789  0.164653  1
  Se  Se12  1  0.507328  0.033384  0.143249  1
  Se  Se13  1  0.760109  0.413882  0.409580  1
  Se  Se14  1  0.003011  0.006746  0.846391  1
  Se  Se15  1  0.829463  0.424117  0.218411  1
  Se  Se16  1  0.992672  0.033384  0.643249  1
  Se  Se17  1  0.260109  0.586118  0.090420  1
  Se  Se18  1  0.739891  0.413882  0.909580  1
  Se  Se19  1  0.329463  0.575883  0.281589  1
  Se  Se20  1  0.239891  0.586118  0.590420  1
  Se  Se21  1  0.492672  0.966616  0.856751  1
  Se  Se22  1  0.670537  0.424117  0.718411  1
  Se  Se23  1  0.170537  0.575883  0.781589  1
  Se  Se24  1  0.007328  0.966616  0.356751  1
  Se  Se25  1  0.996989  0.993254  0.153609  1
  Se  Se26  1  0.496989  0.006746  0.346391  1
  Se  Se27  1  0.503011  0.993254  0.653609  1
