# generated using pymatgen
data_Er4Ga6PdRh6
_symmetry_space_group_name_H-M   'P 1'
_cell_length_a   7.31018662
_cell_length_b   7.31018716
_cell_length_c   7.31018700
_cell_angle_alpha   109.47122020
_cell_angle_beta   109.47122168
_cell_angle_gamma   109.47121811
_symmetry_Int_Tables_number   1
_chemical_formula_structural   Er4Ga6PdRh6
_chemical_formula_sum   'Er4 Ga6 Pd1 Rh6'
_cell_volume   300.72086822
_cell_formula_units_Z   1
loop_
 _symmetry_equiv_pos_site_id
 _symmetry_equiv_pos_as_xyz
  1  'x, y, z'
loop_
 _atom_site_type_symbol
 _atom_site_label
 _atom_site_symmetry_multiplicity
 _atom_site_fract_x
 _atom_site_fract_y
 _atom_site_fract_z
 _atom_site_occupancy
  Er  Er0  1  0.000000  0.000000  0.500000  1
  Er  Er1  1  0.000000  0.500000  0.000000  1
  Er  Er2  1  0.500000  0.000000  0.000000  1
  Er  Er3  1  0.500000  0.500000  0.500000  1
  Ga  Ga4  1  0.679522  0.679522  0.000000  1
  Ga  Ga5  1  0.320478  0.000000  0.320478  1
  Ga  Ga6  1  0.000000  0.320478  0.320478  1
  Ga  Ga7  1  0.320478  0.320478  0.000000  1
  Ga  Ga8  1  0.679522  0.000000  0.679522  1
  Ga  Ga9  1  0.000000  0.679522  0.679522  1
  Pd  Pd10  1  0.000000  0.000000  0.000000  1
  Rh  Rh11  1  0.750000  0.250000  0.500000  1
  Rh  Rh12  1  0.750000  0.500000  0.250000  1
  Rh  Rh13  1  0.500000  0.250000  0.750000  1
  Rh  Rh14  1  0.250000  0.500000  0.750000  1
  Rh  Rh15  1  0.250000  0.750000  0.500000  1
  Rh  Rh16  1  0.500000  0.750000  0.250000  1
