# generated using pymatgen
data_Ho3ErTcBr4
_symmetry_space_group_name_H-M   'P 1'
_cell_length_a   8.96089524
_cell_length_b   8.94258893
_cell_length_c   6.57578328
_cell_angle_alpha   89.41447959
_cell_angle_beta   89.54447615
_cell_angle_gamma   89.34610477
_symmetry_Int_Tables_number   1
_chemical_formula_structural   Ho3ErTcBr4
_chemical_formula_sum   'Ho6 Er2 Tc2 Br8'
_cell_volume   526.86320445
_cell_formula_units_Z   2
loop_
 _symmetry_equiv_pos_site_id
 _symmetry_equiv_pos_as_xyz
  1  'x, y, z'
loop_
 _atom_site_type_symbol
 _atom_site_label
 _atom_site_symmetry_multiplicity
 _atom_site_fract_x
 _atom_site_fract_y
 _atom_site_fract_z
 _atom_site_occupancy
  Ho  Ho0  1  0.247229  0.901610  0.010936  1
  Ho  Ho1  1  0.752771  0.098390  0.989064  1
  Ho  Ho2  1  0.098062  0.752151  0.489325  1
  Ho  Ho3  1  0.901938  0.247849  0.510675  1
  Ho  Ho4  1  0.753258  0.902952  0.507489  1
  Ho  Ho5  1  0.246742  0.097048  0.492511  1
  Er  Er6  1  0.096328  0.246121  0.992203  1
  Er  Er7  1  0.903672  0.753879  0.007797  1
  Tc  Tc8  1  0.994437  0.005762  0.249757  1
  Tc  Tc9  1  0.005563  0.994238  0.750243  1
  Br  Br10  1  0.418652  0.817253  0.409143  1
  Br  Br11  1  0.581348  0.182747  0.590857  1
  Br  Br12  1  0.181170  0.580305  0.091488  1
  Br  Br13  1  0.818830  0.419695  0.908512  1
  Br  Br14  1  0.413399  0.190769  0.092530  1
  Br  Br15  1  0.586601  0.809231  0.907470  1
  Br  Br16  1  0.809902  0.585567  0.405081  1
  Br  Br17  1  0.190098  0.414433  0.594919  1
