# generated using pymatgen
data_Tb14Nd2Cd4IrPd3
_symmetry_space_group_name_H-M   'P 1'
_cell_length_a   9.77779413
_cell_length_b   9.74226725
_cell_length_c   9.73349000
_cell_angle_alpha   60.02979856
_cell_angle_beta   60.14977462
_cell_angle_gamma   60.02679778
_symmetry_Int_Tables_number   1
_chemical_formula_structural   Tb14Nd2Cd4IrPd3
_chemical_formula_sum   'Tb14 Nd2 Cd4 Ir1 Pd3'
_cell_volume   656.64363965
_cell_formula_units_Z   1
loop_
 _symmetry_equiv_pos_site_id
 _symmetry_equiv_pos_as_xyz
  1  'x, y, z'
loop_
 _atom_site_type_symbol
 _atom_site_label
 _atom_site_symmetry_multiplicity
 _atom_site_fract_x
 _atom_site_fract_y
 _atom_site_fract_z
 _atom_site_occupancy
  Tb  Tb0  1  0.354961  0.349402  0.346668  1
  Tb  Tb1  1  0.354961  0.349402  0.948968  1
  Tb  Tb2  1  0.356948  0.943157  0.349948  1
  Tb  Tb3  1  0.933370  0.356576  0.355026  1
  Tb  Tb4  1  0.807208  0.188896  0.188862  1
  Tb  Tb5  1  0.191686  0.810533  0.808754  1
  Tb  Tb6  1  0.191686  0.810533  0.189026  1
  Tb  Tb7  1  0.807208  0.188896  0.815033  1
  Tb  Tb8  1  0.193139  0.189369  0.808745  1
  Tb  Tb9  1  0.807604  0.815529  0.188433  1
  Tb  Tb10  1  0.939295  0.561324  0.563266  1
  Tb  Tb11  1  0.564403  0.938742  0.937586  1
  Tb  Tb12  1  0.564403  0.938742  0.559269  1
  Tb  Tb13  1  0.939295  0.561324  0.936116  1
  Nd  Nd14  1  0.569409  0.565302  0.932645  1
  Nd  Nd15  1  0.935506  0.933519  0.565487  1
  Cd  Cd16  1  0.580630  0.582477  0.579912  1
  Cd  Cd17  1  0.580630  0.582477  0.256978  1
  Cd  Cd18  1  0.577268  0.255272  0.583729  1
  Cd  Cd19  1  0.257557  0.577599  0.582421  1
  Ir  Ir20  1  0.571078  0.139564  0.144679  1
  Pd  Pd21  1  0.141641  0.146356  0.145136  1
  Pd  Pd22  1  0.141641  0.146356  0.566865  1
  Pd  Pd23  1  0.138467  0.568647  0.146442  1
