# generated using pymatgen
data_Ho6Er2Ti12Si15Ir
_symmetry_space_group_name_H-M   'P 1'
_cell_length_a   7.04215381
_cell_length_b   7.02672310
_cell_length_c   12.94644307
_cell_angle_alpha   89.89136173
_cell_angle_beta   89.81085997
_cell_angle_gamma   90.01855477
_symmetry_Int_Tables_number   1
_chemical_formula_structural   Ho6Er2Ti12Si15Ir
_chemical_formula_sum   'Ho6 Er2 Ti12 Si15 Ir1'
_cell_volume   640.62759418
_cell_formula_units_Z   1
loop_
 _symmetry_equiv_pos_site_id
 _symmetry_equiv_pos_as_xyz
  1  'x, y, z'
loop_
 _atom_site_type_symbol
 _atom_site_label
 _atom_site_symmetry_multiplicity
 _atom_site_fract_x
 _atom_site_fract_y
 _atom_site_fract_z
 _atom_site_occupancy
  Ho  Ho0  1  0.501383  0.159742  0.216809  1
  Ho  Ho1  1  0.840970  0.497358  0.283453  1
  Ho  Ho2  1  0.157423  0.502579  0.783077  1
  Ho  Ho3  1  0.660592  0.997873  0.967316  1
  Ho  Ho4  1  0.002874  0.338711  0.535041  1
  Ho  Ho5  1  0.999138  0.659297  0.033280  1
  Er  Er6  1  0.338435  0.001633  0.466680  1
  Er  Er7  1  0.499202  0.841765  0.717101  1
  Ti  Ti8  1  0.327388  0.326315  0.001270  1
  Ti  Ti9  1  0.172741  0.827611  0.249930  1
  Ti  Ti10  1  0.833418  0.171323  0.747396  1
  Ti  Ti11  1  0.672179  0.671662  0.498922  1
  Ti  Ti12  1  0.157887  0.010191  0.874689  1
  Ti  Ti13  1  0.491844  0.652443  0.126087  1
  Ti  Ti14  1  0.499007  0.342135  0.626971  1
  Ti  Ti15  1  0.656169  0.496643  0.874951  1
  Ti  Ti16  1  0.348049  0.506332  0.373543  1
  Ti  Ti17  1  0.846515  0.992180  0.374818  1
  Ti  Ti18  1  0.007998  0.152042  0.125758  1
  Ti  Ti19  1  0.992638  0.850456  0.619807  1
  Si  Si20  1  0.370612  0.702243  0.934909  1
  Si  Si21  1  0.631322  0.296666  0.434142  1
  Si  Si22  1  0.703687  0.369467  0.066520  1
  Si  Si23  1  0.301177  0.630948  0.563972  1
  Si  Si24  1  0.796039  0.868929  0.182639  1
  Si  Si25  1  0.130551  0.202696  0.315955  1
  Si  Si26  1  0.867736  0.799154  0.815602  1
  Si  Si27  1  0.292401  0.953603  0.065771  1
  Si  Si28  1  0.545933  0.790999  0.314836  1
  Si  Si29  1  0.458246  0.214595  0.817020  1
  Si  Si30  1  0.787077  0.549128  0.685226  1
  Si  Si31  1  0.208185  0.453730  0.185269  1
  Si  Si32  1  0.704865  0.044751  0.561868  1
  Si  Si33  1  0.952749  0.291140  0.937707  1
  Si  Si34  1  0.046725  0.707880  0.433398  1
  Ir  Ir35  1  0.196845  0.125781  0.688270  1
