# generated using pymatgen
data_Lu10InGaSb4
_symmetry_space_group_name_H-M   'P 1'
_cell_length_a   8.72118900
_cell_length_b   8.71356632
_cell_length_c   6.27645800
_cell_angle_alpha   90.00000000
_cell_angle_beta   90.00000000
_cell_angle_gamma   119.97110518
_symmetry_Int_Tables_number   1
_chemical_formula_structural   Lu10InGaSb4
_chemical_formula_sum   'Lu10 In1 Ga1 Sb4'
_cell_volume   413.18379016
_cell_formula_units_Z   1
loop_
 _symmetry_equiv_pos_site_id
 _symmetry_equiv_pos_as_xyz
  1  'x, y, z'
loop_
 _atom_site_type_symbol
 _atom_site_label
 _atom_site_symmetry_multiplicity
 _atom_site_fract_x
 _atom_site_fract_y
 _atom_site_fract_z
 _atom_site_occupancy
  Lu  Lu0  1  0.677072  0.335905  0.002879  1
  Lu  Lu1  1  0.322928  0.658834  0.002879  1
  Lu  Lu2  1  0.322928  0.658834  0.497121  1
  Lu  Lu3  1  0.677072  0.335905  0.497121  1
  Lu  Lu4  1  0.763436  0.759206  0.750000  1
  Lu  Lu5  1  0.236564  0.995771  0.750000  1
  Lu  Lu6  1  0.000000  0.238758  0.750000  1
  Lu  Lu7  1  0.230313  0.244530  0.250000  1
  Lu  Lu8  1  0.769687  0.014218  0.250000  1
  Lu  Lu9  1  0.000000  0.755824  0.250000  1
  In  In10  1  0.000000  0.604198  0.750000  1
  Ga  Ga11  1  0.000000  0.396859  0.250000  1
  Sb  Sb12  1  0.395473  0.390644  0.750000  1
  Sb  Sb13  1  0.604527  0.995168  0.750000  1
  Sb  Sb14  1  0.608139  0.611744  0.250000  1
  Sb  Sb15  1  0.391861  0.003605  0.250000  1
