# generated using pymatgen
data_Tb4YbRu2
_symmetry_space_group_name_H-M   'P 1'
_cell_length_a   6.40755736
_cell_length_b   7.29115662
_cell_length_c   8.56532887
_cell_angle_alpha   96.72473347
_cell_angle_beta   111.96500586
_cell_angle_gamma   90.00000531
_symmetry_Int_Tables_number   1
_chemical_formula_structural   Tb4YbRu2
_chemical_formula_sum   'Tb8 Yb2 Ru4'
_cell_volume   368.14260609
_cell_formula_units_Z   2
loop_
 _symmetry_equiv_pos_site_id
 _symmetry_equiv_pos_as_xyz
  1  'x, y, z'
loop_
 _atom_site_type_symbol
 _atom_site_label
 _atom_site_symmetry_multiplicity
 _atom_site_fract_x
 _atom_site_fract_y
 _atom_site_fract_z
 _atom_site_occupancy
  Tb  Tb0  1  0.019871  0.084106  0.814028  1
  Tb  Tb1  1  0.205843  0.415894  0.185972  1
  Tb  Tb2  1  0.635417  0.816938  0.433138  1
  Tb  Tb3  1  0.202280  0.683062  0.566862  1
  Tb  Tb4  1  0.356650  0.184986  0.566671  1
  Tb  Tb5  1  0.789979  0.315014  0.433329  1
  Tb  Tb6  1  0.430703  0.750000  0.000000  1
  Tb  Tb7  1  0.580957  0.250000  0.000000  1
  Yb  Yb8  1  0.982992  0.916485  0.184741  1
  Yb  Yb9  1  0.798252  0.583515  0.815259  1
  Ru  Ru10  1  0.824645  0.572211  0.233720  1
  Ru  Ru11  1  0.590924  0.927789  0.766280  1
  Ru  Ru12  1  0.182803  0.421887  0.784117  1
  Ru  Ru13  1  0.398686  0.078113  0.215883  1
