# generated using pymatgen
data_Er2Lu3Zn2Sb
_symmetry_space_group_name_H-M   'P 1'
_cell_length_a   8.43428437
_cell_length_b   8.43428344
_cell_length_c   8.43428443
_cell_angle_alpha   123.84301710
_cell_angle_beta   123.84301772
_cell_angle_gamma   83.46335908
_symmetry_Int_Tables_number   1
_chemical_formula_structural   Er2Lu3Zn2Sb
_chemical_formula_sum   'Er4 Lu6 Zn4 Sb2'
_cell_volume   396.78347557
_cell_formula_units_Z   2
loop_
 _symmetry_equiv_pos_site_id
 _symmetry_equiv_pos_as_xyz
  1  'x, y, z'
loop_
 _atom_site_type_symbol
 _atom_site_label
 _atom_site_symmetry_multiplicity
 _atom_site_fract_x
 _atom_site_fract_y
 _atom_site_fract_z
 _atom_site_occupancy
  Er  Er0  1  0.989705  0.489705  0.190185  1
  Er  Er1  1  0.299521  0.799521  0.809815  1
  Er  Er2  1  0.489705  0.299521  0.500000  1
  Er  Er3  1  0.799521  0.989705  0.500000  1
  Lu  Lu4  1  0.999381  0.999381  0.000000  1
  Lu  Lu5  1  0.499381  0.499381  0.000000  1
  Lu  Lu6  1  0.010955  0.510955  0.808686  1
  Lu  Lu7  1  0.702269  0.202269  0.191314  1
  Lu  Lu8  1  0.510955  0.702269  0.500000  1
  Lu  Lu9  1  0.202269  0.010955  0.500000  1
  Zn  Zn10  1  0.635507  0.135507  0.772897  1
  Zn  Zn11  1  0.362609  0.862609  0.227103  1
  Zn  Zn12  1  0.135507  0.362609  0.500000  1
  Zn  Zn13  1  0.862609  0.635507  0.500000  1
  Sb  Sb14  1  0.750052  0.750052  0.000000  1
  Sb  Sb15  1  0.250052  0.250052  0.000000  1
