# generated using pymatgen
data_HoNp3(B6W)2
_symmetry_space_group_name_H-M   'P 1'
_cell_length_a   3.63100900
_cell_length_b   9.32800613
_cell_length_c   11.38351817
_cell_angle_alpha   89.98050438
_cell_angle_beta   90.00000000
_cell_angle_gamma   90.00000000
_symmetry_Int_Tables_number   1
_chemical_formula_structural   HoNp3(B6W)2
_chemical_formula_sum   'Ho2 Np6 B24 W4'
_cell_volume   385.56058290
_cell_formula_units_Z   2
loop_
 _symmetry_equiv_pos_site_id
 _symmetry_equiv_pos_as_xyz
  1  'x, y, z'
loop_
 _atom_site_type_symbol
 _atom_site_label
 _atom_site_symmetry_multiplicity
 _atom_site_fract_x
 _atom_site_fract_y
 _atom_site_fract_z
 _atom_site_occupancy
  Ho  Ho0  1  0.000000  0.337755  0.407692  1
  Ho  Ho1  1  0.000000  0.662245  0.592308  1
  Np  Np2  1  0.000000  0.837931  0.092990  1
  Np  Np3  1  0.000000  0.162069  0.907010  1
  Np  Np4  1  0.000000  0.959119  0.400242  1
  Np  Np5  1  0.000000  0.040881  0.599758  1
  Np  Np6  1  0.000000  0.458648  0.099562  1
  Np  Np7  1  0.000000  0.541352  0.900438  1
  B  B8  1  0.500000  0.551697  0.432106  1
  B  B9  1  0.500000  0.448303  0.567894  1
  B  B10  1  0.500000  0.051372  0.067372  1
  B  B11  1  0.500000  0.948628  0.932628  1
  B  B12  1  0.500000  0.745518  0.424368  1
  B  B13  1  0.500000  0.254482  0.575632  1
  B  B14  1  0.500000  0.245540  0.075531  1
  B  B15  1  0.500000  0.754460  0.924469  1
  B  B16  1  0.500000  0.806956  0.274046  1
  B  B17  1  0.500000  0.193044  0.725954  1
  B  B18  1  0.500000  0.305934  0.224865  1
  B  B19  1  0.500000  0.694066  0.775135  1
  B  B20  1  0.500000  0.645576  0.186414  1
  B  B21  1  0.500000  0.354424  0.813586  1
  B  B22  1  0.500000  0.145104  0.313118  1
  B  B23  1  0.500000  0.854896  0.686882  1
  B  B24  1  0.500000  0.987207  0.221317  1
  B  B25  1  0.500000  0.012793  0.778683  1
  B  B26  1  0.500000  0.487853  0.278777  1
  B  B27  1  0.500000  0.512147  0.721223  1
  B  B28  1  0.500000  0.641454  0.039179  1
  B  B29  1  0.500000  0.358546  0.960821  1
  B  B30  1  0.500000  0.138968  0.461338  1
  B  B31  1  0.500000  0.861032  0.538662  1
  W  W32  1  0.000000  0.649161  0.316208  1
  W  W33  1  0.000000  0.350839  0.683792  1
  W  W34  1  0.000000  0.145047  0.178868  1
  W  W35  1  0.000000  0.854953  0.821132  1
