# generated using pymatgen
data_NaLiHgSe2
_symmetry_space_group_name_H-M   'P 1'
_cell_length_a   4.36288500
_cell_length_b   4.36288454
_cell_length_c   7.36195800
_cell_angle_alpha   90.00000000
_cell_angle_beta   90.00000000
_cell_angle_gamma   119.99999591
_symmetry_Int_Tables_number   1
_chemical_formula_structural   NaLiHgSe2
_chemical_formula_sum   'Na1 Li1 Hg1 Se2'
_cell_volume   121.35885506
_cell_formula_units_Z   1
loop_
 _symmetry_equiv_pos_site_id
 _symmetry_equiv_pos_as_xyz
  1  'x, y, z'
loop_
 _atom_site_type_symbol
 _atom_site_label
 _atom_site_symmetry_multiplicity
 _atom_site_fract_x
 _atom_site_fract_y
 _atom_site_fract_z
 _atom_site_occupancy
  Na  Na0  1  0.333333  0.666667  0.972870  1
  Li  Li1  1  0.666667  0.333333  0.657018  1
  Hg  Hg2  1  0.000000  0.000000  0.386114  1
  Se  Se3  1  0.666667  0.333333  0.236084  1
  Se  Se4  1  0.000000  0.000000  0.747917  1
