# generated using pymatgen
data_Y8Cd2OsPt
_symmetry_space_group_name_H-M   'P 1'
_cell_length_a   9.69520563
_cell_length_b   9.69522887
_cell_length_c   9.73808902
_cell_angle_alpha   59.85949280
_cell_angle_beta   59.85944016
_cell_angle_gamma   59.64665234
_symmetry_Int_Tables_number   1
_chemical_formula_structural   Y8Cd2OsPt
_chemical_formula_sum   'Y16 Cd4 Os2 Pt2'
_cell_volume   644.13927646
_cell_formula_units_Z   2
loop_
 _symmetry_equiv_pos_site_id
 _symmetry_equiv_pos_as_xyz
  1  'x, y, z'
loop_
 _atom_site_type_symbol
 _atom_site_label
 _atom_site_symmetry_multiplicity
 _atom_site_fract_x
 _atom_site_fract_y
 _atom_site_fract_z
 _atom_site_occupancy
  Y  Y0  1  0.349261  0.349260  0.354426  1
  Y  Y1  1  0.349214  0.349213  0.947129  1
  Y  Y2  1  0.346769  0.953866  0.349656  1
  Y  Y3  1  0.953868  0.346768  0.349655  1
  Y  Y4  1  0.815152  0.188985  0.189431  1
  Y  Y5  1  0.188957  0.815095  0.806472  1
  Y  Y6  1  0.188983  0.815153  0.189431  1
  Y  Y7  1  0.815095  0.188958  0.806472  1
  Y  Y8  1  0.188361  0.188362  0.811663  1
  Y  Y9  1  0.809137  0.809138  0.190818  1
  Y  Y10  1  0.936726  0.558338  0.567143  1
  Y  Y11  1  0.558331  0.936723  0.937824  1
  Y  Y12  1  0.558338  0.936726  0.567143  1
  Y  Y13  1  0.936724  0.558328  0.937824  1
  Y  Y14  1  0.564077  0.564077  0.935930  1
  Y  Y15  1  0.938932  0.938932  0.561069  1
  Cd  Cd16  1  0.580170  0.580170  0.580257  1
  Cd  Cd17  1  0.580164  0.580165  0.259399  1
  Cd  Cd18  1  0.580462  0.257603  0.580969  1
  Cd  Cd19  1  0.257603  0.580462  0.580969  1
  Os  Os20  1  0.142844  0.142846  0.139859  1
  Os  Os21  1  0.142850  0.142850  0.574443  1
  Pt  Pt22  1  0.144278  0.573706  0.141010  1
  Pt  Pt23  1  0.573705  0.144278  0.141010  1
