# generated using pymatgen
data_ErGaSnI6
_symmetry_space_group_name_H-M   'P 1'
_cell_length_a   8.67985729
_cell_length_b   8.67996201
_cell_length_c   8.67977800
_cell_angle_alpha   54.52900222
_cell_angle_beta   54.53039011
_cell_angle_gamma   54.52889243
_symmetry_Int_Tables_number   1
_chemical_formula_structural   ErGaSnI6
_chemical_formula_sum   'Er1 Ga1 Sn1 I6'
_cell_volume   403.43902923
_cell_formula_units_Z   1
loop_
 _symmetry_equiv_pos_site_id
 _symmetry_equiv_pos_as_xyz
  1  'x, y, z'
loop_
 _atom_site_type_symbol
 _atom_site_label
 _atom_site_symmetry_multiplicity
 _atom_site_fract_x
 _atom_site_fract_y
 _atom_site_fract_z
 _atom_site_occupancy
  Er  Er0  1  0.999665  0.999702  0.999726  1
  Ga  Ga1  1  0.669202  0.669198  0.669198  1
  Sn  Sn2  1  0.331502  0.331500  0.331496  1
  I  I3  1  0.229147  0.609673  0.922613  1
  I  I4  1  0.609673  0.922616  0.229141  1
  I  I5  1  0.922626  0.229149  0.609656  1
  I  I6  1  0.761903  0.380698  0.095574  1
  I  I7  1  0.380706  0.095565  0.761902  1
  I  I8  1  0.095579  0.761900  0.380697  1
