# generated using pymatgen
data_Ac5PaSe10
_symmetry_space_group_name_H-M   'P 1'
_cell_length_a   8.16222000
_cell_length_b   8.93232700
_cell_length_c   12.91769200
_cell_angle_alpha   90.00000000
_cell_angle_beta   90.00000000
_cell_angle_gamma   90.00000000
_symmetry_Int_Tables_number   1
_chemical_formula_structural   Ac5PaSe10
_chemical_formula_sum   'Ac10 Pa2 Se20'
_cell_volume   941.79815489
_cell_formula_units_Z   2
loop_
 _symmetry_equiv_pos_site_id
 _symmetry_equiv_pos_as_xyz
  1  'x, y, z'
loop_
 _atom_site_type_symbol
 _atom_site_label
 _atom_site_symmetry_multiplicity
 _atom_site_fract_x
 _atom_site_fract_y
 _atom_site_fract_z
 _atom_site_occupancy
  Ac  Ac0  1  0.531350  0.501840  0.324721  1
  Ac  Ac1  1  0.968650  0.998160  0.824721  1
  Ac  Ac2  1  0.473708  0.000997  0.675987  1
  Ac  Ac3  1  0.026292  0.499003  0.175987  1
  Ac  Ac4  1  0.473708  0.499003  0.675987  1
  Ac  Ac5  1  0.026292  0.000997  0.175987  1
  Ac  Ac6  1  0.531350  0.998160  0.324721  1
  Ac  Ac7  1  0.968650  0.501840  0.824721  1
  Ac  Ac8  1  0.075075  0.750000  0.489118  1
  Ac  Ac9  1  0.424925  0.750000  0.989118  1
  Pa  Pa10  1  0.944718  0.250000  0.503977  1
  Pa  Pa11  1  0.555282  0.250000  0.003977  1
  Se  Se12  1  0.838320  0.981132  0.592370  1
  Se  Se13  1  0.661680  0.518868  0.092370  1
  Se  Se14  1  0.168472  0.443689  0.406876  1
  Se  Se15  1  0.331528  0.056311  0.906876  1
  Se  Se16  1  0.168472  0.056311  0.406876  1
  Se  Se17  1  0.331528  0.443689  0.906876  1
  Se  Se18  1  0.838320  0.518868  0.592370  1
  Se  Se19  1  0.661680  0.981132  0.092370  1
  Se  Se20  1  0.825388  0.750000  0.303452  1
  Se  Se21  1  0.674612  0.750000  0.803452  1
  Se  Se22  1  0.160377  0.250000  0.681607  1
  Se  Se23  1  0.339623  0.250000  0.181607  1
  Se  Se24  1  0.467243  0.750000  0.500145  1
  Se  Se25  1  0.032757  0.750000  0.000145  1
  Se  Se26  1  0.558637  0.250000  0.503402  1
  Se  Se27  1  0.941363  0.250000  0.003402  1
  Se  Se28  1  0.198430  0.750000  0.723553  1
  Se  Se29  1  0.301570  0.750000  0.223553  1
  Se  Se30  1  0.816138  0.250000  0.294839  1
  Se  Se31  1  0.683862  0.250000  0.794839  1
