# generated using pymatgen
data_FeICl6
_symmetry_space_group_name_H-M   'P 1'
_cell_length_a   11.95368900
_cell_length_b   6.39729184
_cell_length_c   7.41447242
_cell_angle_alpha   81.62205775
_cell_angle_beta   90.00000000
_cell_angle_gamma   90.00000000
_symmetry_Int_Tables_number   1
_chemical_formula_structural   FeICl6
_chemical_formula_sum   'Fe2 I2 Cl12'
_cell_volume   560.94320225
_cell_formula_units_Z   2
loop_
 _symmetry_equiv_pos_site_id
 _symmetry_equiv_pos_as_xyz
  1  'x, y, z'
loop_
 _atom_site_type_symbol
 _atom_site_label
 _atom_site_symmetry_multiplicity
 _atom_site_fract_x
 _atom_site_fract_y
 _atom_site_fract_z
 _atom_site_occupancy
  Fe  Fe0  1  0.092981  0.414383  0.509434  1
  Fe  Fe1  1  0.592981  0.585617  0.490566  1
  I  I2  1  0.741931  0.006192  0.795652  1
  I  I3  1  0.241931  0.993808  0.204348  1
  Cl  Cl4  1  0.764244  0.715294  0.551011  1
  Cl  Cl5  1  0.264244  0.284706  0.448989  1
  Cl  Cl6  1  0.210977  0.735593  0.009857  1
  Cl  Cl7  1  0.710977  0.264407  0.990143  1
  Cl  Cl8  1  0.362560  0.206898  0.000126  1
  Cl  Cl9  1  0.862560  0.793102  0.999874  1
  Cl  Cl10  1  0.051946  0.315792  0.793115  1
  Cl  Cl11  1  0.551946  0.684208  0.206885  1
  Cl  Cl12  1  0.105134  0.772475  0.473515  1
  Cl  Cl13  1  0.605134  0.227525  0.526485  1
  Cl  Cl14  1  0.471230  0.682564  0.677755  1
  Cl  Cl15  1  0.971230  0.317436  0.322245  1
