# generated using pymatgen
data_Ce3DyEr4(ReB6)4
_symmetry_space_group_name_H-M   'P 1'
_cell_length_a   3.70786600
_cell_length_b   9.17543809
_cell_length_c   11.56937401
_cell_angle_alpha   90.07353616
_cell_angle_beta   90.00000000
_cell_angle_gamma   90.00000000
_symmetry_Int_Tables_number   1
_chemical_formula_structural   Ce3DyEr4(ReB6)4
_chemical_formula_sum   'Ce3 Dy1 Er4 Re4 B24'
_cell_volume   393.60476127
_cell_formula_units_Z   1
loop_
 _symmetry_equiv_pos_site_id
 _symmetry_equiv_pos_as_xyz
  1  'x, y, z'
loop_
 _atom_site_type_symbol
 _atom_site_label
 _atom_site_symmetry_multiplicity
 _atom_site_fract_x
 _atom_site_fract_y
 _atom_site_fract_z
 _atom_site_occupancy
  Ce  Ce0  1  0.000000  0.321611  0.414448  1
  Ce  Ce1  1  0.000000  0.678103  0.586400  1
  Ce  Ce2  1  0.000000  0.823501  0.085485  1
  Dy  Dy3  1  0.000000  0.177523  0.913806  1
  Er  Er4  1  0.000000  0.944698  0.372394  1
  Er  Er5  1  0.000000  0.056066  0.628468  1
  Er  Er6  1  0.000000  0.442962  0.127748  1
  Er  Er7  1  0.000000  0.555816  0.871681  1
  Re  Re8  1  0.000000  0.638683  0.320590  1
  Re  Re9  1  0.000000  0.362238  0.678799  1
  Re  Re10  1  0.000000  0.138745  0.179641  1
  Re  Re11  1  0.000000  0.860809  0.820677  1
  B  B12  1  0.500000  0.554514  0.431492  1
  B  B13  1  0.500000  0.445367  0.568669  1
  B  B14  1  0.500000  0.054383  0.067294  1
  B  B15  1  0.500000  0.946306  0.932211  1
  B  B16  1  0.500000  0.749509  0.418201  1
  B  B17  1  0.500000  0.250208  0.582436  1
  B  B18  1  0.500000  0.249193  0.080528  1
  B  B19  1  0.500000  0.751255  0.918148  1
  B  B20  1  0.500000  0.791699  0.265748  1
  B  B21  1  0.500000  0.207515  0.734992  1
  B  B22  1  0.500000  0.291454  0.233209  1
  B  B23  1  0.500000  0.708604  0.766110  1
  B  B24  1  0.500000  0.630730  0.185373  1
  B  B25  1  0.500000  0.368446  0.815192  1
  B  B26  1  0.500000  0.131183  0.314069  1
  B  B27  1  0.500000  0.869620  0.686213  1
  B  B28  1  0.500000  0.983810  0.212335  1
  B  B29  1  0.500000  0.018025  0.787521  1
  B  B30  1  0.500000  0.483191  0.286649  1
  B  B31  1  0.500000  0.516302  0.713593  1
  B  B32  1  0.500000  0.601574  0.028174  1
  B  B33  1  0.500000  0.396186  0.971029  1
  B  B34  1  0.500000  0.104272  0.471449  1
  B  B35  1  0.500000  0.895896  0.529227  1
