# generated using pymatgen
data_Nd2Eu2Zr3TaO14
_symmetry_space_group_name_H-M   'P 1'
_cell_length_a   7.65401249
_cell_length_b   7.63120458
_cell_length_c   7.63120242
_cell_angle_alpha   59.48542447
_cell_angle_beta   59.73692813
_cell_angle_gamma   59.73693176
_symmetry_Int_Tables_number   1
_chemical_formula_structural   Nd2Eu2Zr3TaO14
_chemical_formula_sum   'Nd2 Eu2 Zr3 Ta1 O14'
_cell_volume   312.69278239
_cell_formula_units_Z   1
loop_
 _symmetry_equiv_pos_site_id
 _symmetry_equiv_pos_as_xyz
  1  'x, y, z'
loop_
 _atom_site_type_symbol
 _atom_site_label
 _atom_site_symmetry_multiplicity
 _atom_site_fract_x
 _atom_site_fract_y
 _atom_site_fract_z
 _atom_site_occupancy
  Nd  Nd0  1  0.125000  0.625000  0.625000  1
  Nd  Nd1  1  0.625000  0.625000  0.625000  1
  Eu  Eu2  1  0.625000  0.125000  0.625000  1
  Eu  Eu3  1  0.625000  0.625000  0.125000  1
  Zr  Zr4  1  0.625000  0.125000  0.125000  1
  Zr  Zr5  1  0.125000  0.125000  0.625000  1
  Zr  Zr6  1  0.125000  0.625000  0.125000  1
  Ta  Ta7  1  0.125000  0.125000  0.125000  1
  O  O8  1  0.205340  0.787744  0.787744  1
  O  O9  1  0.790402  0.788463  0.207331  1
  O  O10  1  0.790402  0.207331  0.788463  1
  O  O11  1  0.195862  0.809246  0.201099  1
  O  O12  1  0.195862  0.201099  0.809246  1
  O  O13  1  0.812853  0.195931  0.195931  1
  O  O14  1  0.437147  0.054069  0.054069  1
  O  O15  1  0.054138  0.048901  0.440754  1
  O  O16  1  0.054138  0.440754  0.048901  1
  O  O17  1  0.459598  0.042669  0.461537  1
  O  O18  1  0.753042  0.749228  0.749228  1
  O  O19  1  0.459598  0.461537  0.042669  1
  O  O20  1  0.044660  0.462256  0.462256  1
  O  O21  1  0.496958  0.500772  0.500772  1
