# generated using pymatgen
data_Nd2DyGaSi2Ag3
_symmetry_space_group_name_H-M   'P 1'
_cell_length_a   7.22194610
_cell_length_b   7.22194625
_cell_length_c   4.28353900
_cell_angle_alpha   90.00000000
_cell_angle_beta   90.00000000
_cell_angle_gamma   119.47397483
_symmetry_Int_Tables_number   1
_chemical_formula_structural   Nd2DyGaSi2Ag3
_chemical_formula_sum   'Nd2 Dy1 Ga1 Si2 Ag3'
_cell_volume   194.49997274
_cell_formula_units_Z   1
loop_
 _symmetry_equiv_pos_site_id
 _symmetry_equiv_pos_as_xyz
  1  'x, y, z'
loop_
 _atom_site_type_symbol
 _atom_site_label
 _atom_site_symmetry_multiplicity
 _atom_site_fract_x
 _atom_site_fract_y
 _atom_site_fract_z
 _atom_site_occupancy
  Nd  Nd0  1  0.998627  0.578664  0.000000  1
  Nd  Nd1  1  0.578664  0.998627  0.000000  1
  Dy  Dy2  1  0.420285  0.420285  0.000000  1
  Ga  Ga3  1  0.005866  0.005866  0.000000  1
  Si  Si4  1  0.661612  0.335313  0.500000  1
  Si  Si5  1  0.335313  0.661612  0.500000  1
  Ag  Ag6  1  0.745254  0.745254  0.500000  1
  Ag  Ag7  1  0.251371  0.003007  0.500000  1
  Ag  Ag8  1  0.003007  0.251371  0.500000  1
