# generated using pymatgen
data_Th4IrPd6Pt5
_symmetry_space_group_name_H-M   'P 1'
_cell_length_a   5.97348060
_cell_length_b   5.95088593
_cell_length_c   9.79816191
_cell_angle_alpha   90.00000024
_cell_angle_beta   89.25261502
_cell_angle_gamma   119.87496361
_symmetry_Int_Tables_number   1
_chemical_formula_structural   Th4IrPd6Pt5
_chemical_formula_sum   'Th4 Ir1 Pd6 Pt5'
_cell_volume   301.98195668
_cell_formula_units_Z   1
loop_
 _symmetry_equiv_pos_site_id
 _symmetry_equiv_pos_as_xyz
  1  'x, y, z'
loop_
 _atom_site_type_symbol
 _atom_site_label
 _atom_site_symmetry_multiplicity
 _atom_site_fract_x
 _atom_site_fract_y
 _atom_site_fract_z
 _atom_site_occupancy
  Th  Th0  1  0.000000  0.000000  0.500000  1
  Th  Th1  1  0.000000  0.000000  0.000000  1
  Th  Th2  1  0.325172  0.662586  0.254489  1
  Th  Th3  1  0.674828  0.337414  0.745511  1
  Ir  Ir4  1  0.000000  0.500000  0.500000  1
  Pd  Pd5  1  0.820805  0.648333  0.248957  1
  Pd  Pd6  1  0.348522  0.174260  0.247409  1
  Pd  Pd7  1  0.820805  0.172473  0.248957  1
  Pd  Pd8  1  0.179195  0.351667  0.751043  1
  Pd  Pd9  1  0.651478  0.825740  0.752591  1
  Pd  Pd10  1  0.179195  0.827527  0.751043  1
  Pt  Pt11  1  0.500000  0.500000  0.500000  1
  Pt  Pt12  1  0.500000  0.000000  0.500000  1
  Pt  Pt13  1  0.500000  0.500000  0.000000  1
  Pt  Pt14  1  0.500000  0.000000  0.000000  1
  Pt  Pt15  1  0.000000  0.500000  0.000000  1
