# generated using pymatgen
data_Er5GaGeB8
_symmetry_space_group_name_H-M   'P 1'
_cell_length_a   7.21386100
_cell_length_b   7.21386081
_cell_length_c   8.07008100
_cell_angle_alpha   90.00000000
_cell_angle_beta   90.00000000
_cell_angle_gamma   89.69874121
_symmetry_Int_Tables_number   1
_chemical_formula_structural   Er5GaGeB8
_chemical_formula_sum   'Er10 Ga2 Ge2 B16'
_cell_volume   419.95950834
_cell_formula_units_Z   2
loop_
 _symmetry_equiv_pos_site_id
 _symmetry_equiv_pos_as_xyz
  1  'x, y, z'
loop_
 _atom_site_type_symbol
 _atom_site_label
 _atom_site_symmetry_multiplicity
 _atom_site_fract_x
 _atom_site_fract_y
 _atom_site_fract_z
 _atom_site_occupancy
  Er  Er0  1  0.679956  0.179956  0.222441  1
  Er  Er1  1  0.320044  0.820044  0.777559  1
  Er  Er2  1  0.320044  0.820044  0.222441  1
  Er  Er3  1  0.816304  0.683696  0.218121  1
  Er  Er4  1  0.816304  0.683696  0.781879  1
  Er  Er5  1  0.679956  0.179956  0.777559  1
  Er  Er6  1  0.183696  0.316304  0.781879  1
  Er  Er7  1  0.183696  0.316304  0.218121  1
  Er  Er8  1  0.000000  0.000000  0.500000  1
  Er  Er9  1  0.500000  0.500000  0.500000  1
  Ga  Ga10  1  0.117873  0.617873  0.500000  1
  Ga  Ga11  1  0.882127  0.382127  0.500000  1
  Ge  Ge12  1  0.378518  0.121482  0.500000  1
  Ge  Ge13  1  0.621482  0.878518  0.500000  1
  B  B14  1  0.172025  0.039263  0.000000  1
  B  B15  1  0.827975  0.960737  0.000000  1
  B  B16  1  0.959445  0.172223  0.000000  1
  B  B17  1  0.327777  0.540555  0.000000  1
  B  B18  1  0.040555  0.827777  0.000000  1
  B  B19  1  0.672223  0.459445  0.000000  1
  B  B20  1  0.539263  0.672025  0.000000  1
  B  B21  1  0.460737  0.327975  0.000000  1
  B  B22  1  0.090425  0.590425  0.000000  1
  B  B23  1  0.909575  0.409575  0.000000  1
  B  B24  1  0.408929  0.091071  0.000000  1
  B  B25  1  0.591071  0.908929  0.000000  1
  B  B26  1  0.000000  0.000000  0.163967  1
  B  B27  1  0.000000  0.000000  0.836033  1
  B  B28  1  0.500000  0.500000  0.836033  1
  B  B29  1  0.500000  0.500000  0.163967  1
