# generated using pymatgen
data_BeV24S7
_symmetry_space_group_name_H-M   'P 1'
_cell_length_a   9.31896400
_cell_length_b   9.27655101
_cell_length_c   4.65056336
_cell_angle_alpha   89.88270856
_cell_angle_beta   90.00000000
_cell_angle_gamma   90.00000000
_symmetry_Int_Tables_number   1
_chemical_formula_structural   BeV24S7
_chemical_formula_sum   'Be1 V24 S7'
_cell_volume   402.03033783
_cell_formula_units_Z   1
loop_
 _symmetry_equiv_pos_site_id
 _symmetry_equiv_pos_as_xyz
  1  'x, y, z'
loop_
 _atom_site_type_symbol
 _atom_site_label
 _atom_site_symmetry_multiplicity
 _atom_site_fract_x
 _atom_site_fract_y
 _atom_site_fract_z
 _atom_site_occupancy
  Be  Be0  1  0.202610  0.000000  0.250000  1
  V  V1  1  0.589264  0.090292  0.500299  1
  V  V2  1  0.911012  0.409499  0.999178  1
  V  V3  1  0.295738  0.801385  0.998019  1
  V  V4  1  0.203074  0.708460  0.491454  1
  V  V5  1  0.853742  0.000000  0.750000  1
  V  V6  1  0.152464  0.000000  0.750000  1
  V  V7  1  0.911012  0.590501  0.500822  1
  V  V8  1  0.589264  0.909708  0.999701  1
  V  V9  1  0.701792  0.796962  0.499771  1
  V  V10  1  0.797937  0.296669  0.500770  1
  V  V11  1  0.354011  0.500000  0.750000  1
  V  V12  1  0.090171  0.588417  0.997569  1
  V  V13  1  0.647865  0.500000  0.750000  1
  V  V14  1  0.409090  0.913989  0.496794  1
  V  V15  1  0.998077  0.148320  0.245231  1
  V  V16  1  0.090171  0.411583  0.502431  1
  V  V17  1  0.203074  0.291540  0.008546  1
  V  V18  1  0.409090  0.086011  0.003206  1
  V  V19  1  0.500388  0.352882  0.251621  1
  V  V20  1  0.998077  0.851680  0.254769  1
  V  V21  1  0.701792  0.203038  0.000229  1
  V  V22  1  0.797937  0.703331  0.999230  1
  V  V23  1  0.500388  0.647118  0.248379  1
  V  V24  1  0.295738  0.198615  0.501981  1
  S  S25  1  0.791038  0.000000  0.250000  1
  S  S26  1  0.710222  0.500000  0.250000  1
  S  S27  1  0.290379  0.500000  0.250000  1
  S  S28  1  0.498462  0.290275  0.751495  1
  S  S29  1  0.003831  0.207422  0.745575  1
  S  S30  1  0.498462  0.709725  0.748505  1
  S  S31  1  0.003831  0.792578  0.754425  1
