# generated using pymatgen
data_Pr2Sc3S7
_symmetry_space_group_name_H-M   'P 1'
_cell_length_a   6.41452989
_cell_length_b   6.41453092
_cell_length_c   11.44899800
_cell_angle_alpha   75.71800904
_cell_angle_beta   75.71800670
_cell_angle_gamma   34.46056260
_symmetry_Int_Tables_number   1
_chemical_formula_structural   Pr2Sc3S7
_chemical_formula_sum   'Pr2 Sc3 S7'
_cell_volume   257.51226516
_cell_formula_units_Z   1
loop_
 _symmetry_equiv_pos_site_id
 _symmetry_equiv_pos_as_xyz
  1  'x, y, z'
loop_
 _atom_site_type_symbol
 _atom_site_label
 _atom_site_symmetry_multiplicity
 _atom_site_fract_x
 _atom_site_fract_y
 _atom_site_fract_z
 _atom_site_occupancy
  Pr  Pr0  1  0.302461  0.302461  0.802297  1
  Pr  Pr1  1  0.697539  0.697539  0.197703  1
  Sc  Sc2  1  0.111388  0.111388  0.572373  1
  Sc  Sc3  1  0.888612  0.888612  0.427627  1
  Sc  Sc4  1  0.000000  0.000000  0.000000  1
  S  S5  1  0.264595  0.264595  0.365788  1
  S  S6  1  0.735405  0.735405  0.634212  1
  S  S7  1  0.979582  0.979582  0.782786  1
  S  S8  1  0.020418  0.020418  0.217214  1
  S  S9  1  0.650049  0.650049  0.952940  1
  S  S10  1  0.500000  0.500000  0.500000  1
  S  S11  1  0.349951  0.349951  0.047060  1
