# generated using pymatgen
data_Ca5Nd7(GaIr)8
_symmetry_space_group_name_H-M   'P 1'
_cell_length_a   5.77943064
_cell_length_b   7.95529281
_cell_length_c   13.83218652
_cell_angle_alpha   89.97703946
_cell_angle_beta   90.09988994
_cell_angle_gamma   90.04552640
_symmetry_Int_Tables_number   1
_chemical_formula_structural   Ca5Nd7(GaIr)8
_chemical_formula_sum   'Ca5 Nd7 Ga8 Ir8'
_cell_volume   635.96209331
_cell_formula_units_Z   1
loop_
 _symmetry_equiv_pos_site_id
 _symmetry_equiv_pos_as_xyz
  1  'x, y, z'
loop_
 _atom_site_type_symbol
 _atom_site_label
 _atom_site_symmetry_multiplicity
 _atom_site_fract_x
 _atom_site_fract_y
 _atom_site_fract_z
 _atom_site_occupancy
  Ca  Ca0  1  0.854799  0.393993  0.901661  1
  Ca  Ca1  1  0.856714  0.108569  0.096859  1
  Ca  Ca2  1  0.143963  0.889719  0.599065  1
  Ca  Ca3  1  0.143234  0.608540  0.401992  1
  Ca  Ca4  1  0.628394  0.748559  0.749600  1
  Nd  Nd5  1  0.140262  0.605072  0.095226  1
  Nd  Nd6  1  0.144751  0.893306  0.903954  1
  Nd  Nd7  1  0.858800  0.104394  0.406077  1
  Nd  Nd8  1  0.853544  0.399745  0.595349  1
  Nd  Nd9  1  0.379832  0.251223  0.248671  1
  Nd  Nd10  1  0.379005  0.246078  0.751388  1
  Nd  Nd11  1  0.618334  0.751579  0.251156  1
  Ga  Ga12  1  0.387413  0.249886  0.001366  1
  Ga  Ga13  1  0.608777  0.749997  0.501426  1
  Ga  Ga14  1  0.624648  0.750462  0.998352  1
  Ga  Ga15  1  0.374407  0.250357  0.498439  1
  Ga  Ga16  1  0.871552  0.403867  0.250816  1
  Ga  Ga17  1  0.866182  0.092420  0.749566  1
  Ga  Ga18  1  0.127896  0.905350  0.249106  1
  Ga  Ga19  1  0.144912  0.595276  0.750654  1
  Ir  Ir20  1  0.634012  0.474255  0.097200  1
  Ir  Ir21  1  0.633390  0.031230  0.904981  1
  Ir  Ir22  1  0.366182  0.971905  0.403039  1
  Ir  Ir23  1  0.362065  0.523692  0.594636  1
  Ir  Ir24  1  0.352923  0.530603  0.909419  1
  Ir  Ir25  1  0.355421  0.965733  0.092535  1
  Ir  Ir26  1  0.643834  0.036838  0.590910  1
  Ir  Ir27  1  0.644753  0.467353  0.406557  1
