# generated using pymatgen
data_Ce2Nd6Zn3Si12Rh
_symmetry_space_group_name_H-M   'P 1'
_cell_length_a   8.19866100
_cell_length_b   8.19866151
_cell_length_c   8.48768200
_cell_angle_alpha   90.00000000
_cell_angle_beta   90.00000000
_cell_angle_gamma   120.00000199
_symmetry_Int_Tables_number   1
_chemical_formula_structural   Ce2Nd6Zn3Si12Rh
_chemical_formula_sum   'Ce2 Nd6 Zn3 Si12 Rh1'
_cell_volume   494.08948182
_cell_formula_units_Z   1
loop_
 _symmetry_equiv_pos_site_id
 _symmetry_equiv_pos_as_xyz
  1  'x, y, z'
loop_
 _atom_site_type_symbol
 _atom_site_label
 _atom_site_symmetry_multiplicity
 _atom_site_fract_x
 _atom_site_fract_y
 _atom_site_fract_z
 _atom_site_occupancy
  Ce  Ce0  1  0.000000  0.000000  0.749785  1
  Ce  Ce1  1  0.000000  0.000000  0.250290  1
  Nd  Nd2  1  0.498490  0.501510  0.750869  1
  Nd  Nd3  1  0.498490  0.996981  0.750869  1
  Nd  Nd4  1  0.003019  0.501510  0.750869  1
  Nd  Nd5  1  0.500206  0.499794  0.249174  1
  Nd  Nd6  1  0.999589  0.499794  0.249174  1
  Nd  Nd7  1  0.500206  0.000411  0.249174  1
  Zn  Zn8  1  0.666667  0.333333  0.996550  1
  Zn  Zn9  1  0.666667  0.333333  0.503997  1
  Zn  Zn10  1  0.333333  0.666667  0.495608  1
  Si  Si11  1  0.838240  0.161760  0.999309  1
  Si  Si12  1  0.838240  0.676480  0.999309  1
  Si  Si13  1  0.323520  0.161760  0.999309  1
  Si  Si14  1  0.835035  0.164965  0.500518  1
  Si  Si15  1  0.835035  0.670069  0.500518  1
  Si  Si16  1  0.329931  0.164965  0.500518  1
  Si  Si17  1  0.165711  0.834289  0.499582  1
  Si  Si18  1  0.668578  0.834289  0.499582  1
  Si  Si19  1  0.165711  0.331422  0.499582  1
  Si  Si20  1  0.168984  0.831016  0.000910  1
  Si  Si21  1  0.662033  0.831016  0.000910  1
  Si  Si22  1  0.168984  0.337967  0.000910  1
  Rh  Rh23  1  0.333333  0.666667  0.002682  1
