# generated using pymatgen
data_Tb5Si3P9Ir19
_symmetry_space_group_name_H-M   'P 1'
_cell_length_a   12.81847800
_cell_length_b   12.72127997
_cell_length_c   3.97054000
_cell_angle_alpha   90.00000000
_cell_angle_beta   90.00000000
_cell_angle_gamma   119.87767653
_symmetry_Int_Tables_number   1
_chemical_formula_structural   Tb5Si3P9Ir19
_chemical_formula_sum   'Tb5 Si3 P9 Ir19'
_cell_volume   561.41172487
_cell_formula_units_Z   1
loop_
 _symmetry_equiv_pos_site_id
 _symmetry_equiv_pos_as_xyz
  1  'x, y, z'
loop_
 _atom_site_type_symbol
 _atom_site_label
 _atom_site_symmetry_multiplicity
 _atom_site_fract_x
 _atom_site_fract_y
 _atom_site_fract_z
 _atom_site_occupancy
  Tb  Tb0  1  0.662869  0.332654  0.000000  1
  Tb  Tb1  1  0.335034  0.667406  0.000000  1
  Tb  Tb2  1  0.819105  0.817018  0.500000  1
  Tb  Tb3  1  0.181598  0.999390  0.500000  1
  Tb  Tb4  1  0.997629  0.183604  0.500000  1
  Si  Si5  1  0.677982  0.162151  0.500000  1
  Si  Si6  1  0.640520  0.639336  0.000000  1
  Si  Si7  1  0.361116  0.999053  0.000000  1
  P  P8  1  0.832698  0.516964  0.500000  1
  P  P9  1  0.480854  0.321236  0.500000  1
  P  P10  1  0.180671  0.695980  0.500000  1
  P  P11  1  0.517690  0.823365  0.500000  1
  P  P12  1  0.307166  0.483288  0.500000  1
  P  P13  1  0.997868  0.356995  0.000000  1
  P  P14  1  0.173929  0.180914  0.000000  1
  P  P15  1  0.819422  0.996356  0.000000  1
  P  P16  1  0.003264  0.821588  0.000000  1
  Ir  Ir17  1  0.810188  0.179807  0.000000  1
  Ir  Ir18  1  0.825078  0.626986  0.000000  1
  Ir  Ir19  1  0.361643  0.188132  0.000000  1
  Ir  Ir20  1  0.180219  0.797430  0.000000  1
  Ir  Ir21  1  0.619880  0.818241  0.000000  1
  Ir  Ir22  1  0.191385  0.378687  0.000000  1
  Ir  Ir23  1  0.469746  0.442785  0.000000  1
  Ir  Ir24  1  0.559043  0.026802  0.000000  1
  Ir  Ir25  1  0.991510  0.533176  0.000000  1
  Ir  Ir26  1  0.283381  0.287399  0.500000  1
  Ir  Ir27  1  0.716365  0.996641  0.500000  1
  Ir  Ir28  1  0.002075  0.715010  0.500000  1
  Ir  Ir29  1  0.863088  0.355550  0.500000  1
  Ir  Ir30  1  0.648595  0.514593  0.500000  1
  Ir  Ir31  1  0.481863  0.137317  0.500000  1
  Ir  Ir32  1  0.370609  0.878563  0.500000  1
  Ir  Ir33  1  0.507210  0.629724  0.500000  1
  Ir  Ir34  1  0.129311  0.496840  0.500000  1
  Ir  Ir35  1  0.999398  0.999021  0.000000  1
