# generated using pymatgen
data_HoMgB6Os
_symmetry_space_group_name_H-M   'P 1'
_cell_length_a   3.56757900
_cell_length_b   8.89628800
_cell_length_c   11.25698000
_cell_angle_alpha   90.00000000
_cell_angle_beta   90.00000000
_cell_angle_gamma   90.00000000
_symmetry_Int_Tables_number   1
_chemical_formula_structural   HoMgB6Os
_chemical_formula_sum   'Ho4 Mg4 B24 Os4'
_cell_volume   357.27639798
_cell_formula_units_Z   4
loop_
 _symmetry_equiv_pos_site_id
 _symmetry_equiv_pos_as_xyz
  1  'x, y, z'
loop_
 _atom_site_type_symbol
 _atom_site_label
 _atom_site_symmetry_multiplicity
 _atom_site_fract_x
 _atom_site_fract_y
 _atom_site_fract_z
 _atom_site_occupancy
  Ho  Ho0  1  0.000000  0.323463  0.413449  1
  Ho  Ho1  1  0.000000  0.676537  0.586551  1
  Ho  Ho2  1  0.000000  0.823463  0.086551  1
  Ho  Ho3  1  0.000000  0.176537  0.913449  1
  Mg  Mg4  1  0.000000  0.944001  0.372055  1
  Mg  Mg5  1  0.000000  0.055999  0.627945  1
  Mg  Mg6  1  0.000000  0.444001  0.127945  1
  Mg  Mg7  1  0.000000  0.555999  0.872055  1
  B  B8  1  0.500000  0.555576  0.432448  1
  B  B9  1  0.500000  0.444424  0.567552  1
  B  B10  1  0.500000  0.055576  0.067552  1
  B  B11  1  0.500000  0.944424  0.932448  1
  B  B12  1  0.500000  0.755253  0.418369  1
  B  B13  1  0.500000  0.244747  0.581631  1
  B  B14  1  0.500000  0.255253  0.081631  1
  B  B15  1  0.500000  0.744747  0.918369  1
  B  B16  1  0.500000  0.793502  0.263364  1
  B  B17  1  0.500000  0.206498  0.736635  1
  B  B18  1  0.500000  0.293502  0.236636  1
  B  B19  1  0.500000  0.706498  0.763365  1
  B  B20  1  0.500000  0.627760  0.182370  1
  B  B21  1  0.500000  0.372240  0.817630  1
  B  B22  1  0.500000  0.127760  0.317630  1
  B  B23  1  0.500000  0.872240  0.682370  1
  B  B24  1  0.500000  0.980814  0.213355  1
  B  B25  1  0.500000  0.019186  0.786645  1
  B  B26  1  0.500000  0.480814  0.286645  1
  B  B27  1  0.500000  0.519186  0.713355  1
  B  B28  1  0.500000  0.592789  0.025525  1
  B  B29  1  0.500000  0.407211  0.974475  1
  B  B30  1  0.500000  0.092789  0.474475  1
  B  B31  1  0.500000  0.907211  0.525525  1
  Os  Os32  1  0.000000  0.640566  0.318494  1
  Os  Os33  1  0.000000  0.359434  0.681506  1
  Os  Os34  1  0.000000  0.140566  0.181506  1
  Os  Os35  1  0.000000  0.859434  0.818494  1
