# generated using pymatgen
data_NaCaDyBr6
_symmetry_space_group_name_H-M   'P 1'
_cell_length_a   8.01812150
_cell_length_b   8.01826264
_cell_length_c   8.01815700
_cell_angle_alpha   54.25540823
_cell_angle_beta   54.25624067
_cell_angle_gamma   54.25634892
_symmetry_Int_Tables_number   1
_chemical_formula_structural   NaCaDyBr6
_chemical_formula_sum   'Na1 Ca1 Dy1 Br6'
_cell_volume   315.65411941
_cell_formula_units_Z   1
loop_
 _symmetry_equiv_pos_site_id
 _symmetry_equiv_pos_as_xyz
  1  'x, y, z'
loop_
 _atom_site_type_symbol
 _atom_site_label
 _atom_site_symmetry_multiplicity
 _atom_site_fract_x
 _atom_site_fract_y
 _atom_site_fract_z
 _atom_site_occupancy
  Na  Na0  1  0.669587  0.669581  0.669587  1
  Ca  Ca1  1  0.331135  0.331139  0.331133  1
  Dy  Dy2  1  0.999768  0.999767  0.999766  1
  Br  Br3  1  0.237598  0.602595  0.925490  1
  Br  Br4  1  0.602589  0.925492  0.237598  1
  Br  Br5  1  0.925492  0.237597  0.602589  1
  Br  Br6  1  0.753735  0.388018  0.092076  1
  Br  Br7  1  0.388021  0.092084  0.753733  1
  Br  Br8  1  0.092077  0.753729  0.388026  1
