# generated using pymatgen
data_TaMn4Nb3Ge4
_symmetry_space_group_name_H-M   'P 1'
_cell_length_a   3.61639800
_cell_length_b   6.48453979
_cell_length_c   7.65385901
_cell_angle_alpha   90.07323329
_cell_angle_beta   90.00000000
_cell_angle_gamma   90.00000000
_symmetry_Int_Tables_number   1
_chemical_formula_structural   TaMn4Nb3Ge4
_chemical_formula_sum   'Ta1 Mn4 Nb3 Ge4'
_cell_volume   179.48802687
_cell_formula_units_Z   1
loop_
 _symmetry_equiv_pos_site_id
 _symmetry_equiv_pos_as_xyz
  1  'x, y, z'
loop_
 _atom_site_type_symbol
 _atom_site_label
 _atom_site_symmetry_multiplicity
 _atom_site_fract_x
 _atom_site_fract_y
 _atom_site_fract_z
 _atom_site_occupancy
  Ta  Ta0  1  0.250000  0.461142  0.173837  1
  Mn  Mn1  1  0.250000  0.864136  0.938163  1
  Mn  Mn2  1  0.250000  0.364293  0.561207  1
  Mn  Mn3  1  0.750000  0.635056  0.436912  1
  Mn  Mn4  1  0.750000  0.137763  0.062497  1
  Nb  Nb5  1  0.750000  0.538383  0.827274  1
  Nb  Nb6  1  0.250000  0.961145  0.326050  1
  Nb  Nb7  1  0.750000  0.038562  0.674144  1
  Ge  Ge8  1  0.250000  0.240097  0.869670  1
  Ge  Ge9  1  0.250000  0.739735  0.630052  1
  Ge  Ge10  1  0.750000  0.760193  0.130389  1
  Ge  Ge11  1  0.750000  0.259496  0.369805  1
