# generated using pymatgen
data_TeI35
_symmetry_space_group_name_H-M   'P 1'
_cell_length_a   17.58017498
_cell_length_b   12.54030950
_cell_length_c   11.87107100
_cell_angle_alpha   88.81408644
_cell_angle_beta   66.02770740
_cell_angle_gamma   92.31545562
_symmetry_Int_Tables_number   1
_chemical_formula_structural   TeI35
_chemical_formula_sum   'Te1 I35'
_cell_volume   2387.43274716
_cell_formula_units_Z   1
loop_
 _symmetry_equiv_pos_site_id
 _symmetry_equiv_pos_as_xyz
  1  'x, y, z'
loop_
 _atom_site_type_symbol
 _atom_site_label
 _atom_site_symmetry_multiplicity
 _atom_site_fract_x
 _atom_site_fract_y
 _atom_site_fract_z
 _atom_site_occupancy
  Te  Te0  1  0.217660  0.451224  0.483001  1
  I  I1  1  0.513612  0.258745  0.526562  1
  I  I2  1  0.769641  0.582118  0.554898  1
  I  I3  1  0.492102  0.676767  0.747537  1
  I  I4  1  0.055120  0.887015  0.869122  1
  I  I5  1  0.891686  0.149771  0.000395  1
  I  I6  1  0.660208  0.310037  0.280009  1
  I  I7  1  0.618984  0.357485  0.846874  1
  I  I8  1  0.354819  0.738076  0.688053  1
  I  I9  1  0.357157  0.565490  0.218721  1
  I  I10  1  0.634551  0.140440  0.803938  1
  I  I11  1  0.907429  0.544980  0.331266  1
  I  I12  1  0.056000  0.962011  0.635222  1
  I  I13  1  0.894444  0.090630  0.245871  1
  I  I14  1  0.880651  0.211865  0.775244  1
  I  I15  1  0.662366  0.049007  0.246796  1
  I  I16  1  0.028458  0.809302  0.118971  1
  I  I17  1  0.362443  0.963981  0.726937  1
  I  I18  1  0.901411  0.313005  0.301919  1
  I  I19  1  0.869082  0.931389  0.713980  1
  I  I20  1  0.887105  0.674277  0.805312  1
  I  I21  1  0.329282  0.055287  0.255759  1
  I  I22  1  0.345347  0.311638  0.241686  1
  I  I23  1  0.634097  0.617100  0.805766  1
  I  I24  1  0.105702  0.423701  0.364511  1
  I  I25  1  0.693526  0.902705  0.796725  1
  I  I26  1  0.881285  0.452152  0.789988  1
  I  I27  1  0.499452  0.044737  0.254010  1
  I  I28  1  0.141673  0.286969  0.658657  1
  I  I29  1  0.666244  0.778433  0.274037  1
  I  I30  1  0.846942  0.797845  0.198547  1
  I  I31  1  0.373851  0.205883  0.749609  1
  I  I32  1  0.355811  0.487395  0.572713  1
  I  I33  1  0.652900  0.539610  0.252234  1
  I  I34  1  0.138158  0.626059  0.611307  1
  I  I35  1  0.320798  0.802871  0.253825  1
