# generated using pymatgen
data_V2Ga3AsO12
_symmetry_space_group_name_H-M   'P 1'
_cell_length_a   5.25774376
_cell_length_b   5.25774375
_cell_length_c   11.77242793
_cell_angle_alpha   90.21612447
_cell_angle_beta   89.78387685
_cell_angle_gamma   118.93848227
_symmetry_Int_Tables_number   1
_chemical_formula_structural   V2Ga3AsO12
_chemical_formula_sum   'V2 Ga3 As1 O12'
_cell_volume   284.79877171
_cell_formula_units_Z   1
loop_
 _symmetry_equiv_pos_site_id
 _symmetry_equiv_pos_as_xyz
  1  'x, y, z'
loop_
 _atom_site_type_symbol
 _atom_site_label
 _atom_site_symmetry_multiplicity
 _atom_site_fract_x
 _atom_site_fract_y
 _atom_site_fract_z
 _atom_site_occupancy
  V  V0  1  0.453705  0.000264  0.829863  1
  V  V1  1  0.000264  0.453705  0.170137  1
  Ga  Ga2  1  0.456305  0.998222  0.338757  1
  Ga  Ga3  1  0.998222  0.456305  0.661243  1
  Ga  Ga4  1  0.542289  0.542289  0.000000  1
  As  As5  1  0.540490  0.540490  0.500000  1
  O  O6  1  0.283440  0.402648  0.120265  1
  O  O7  1  0.590562  0.876518  0.461784  1
  O  O8  1  0.125517  0.722816  0.779350  1
  O  O9  1  0.876518  0.590562  0.538216  1
  O  O10  1  0.722816  0.125517  0.220650  1
  O  O11  1  0.402648  0.283440  0.879735  1
  O  O12  1  0.404511  0.308829  0.385786  1
  O  O13  1  0.708066  0.115423  0.720116  1
  O  O14  1  0.885443  0.584952  0.056984  1
  O  O15  1  0.115423  0.708066  0.279884  1
  O  O16  1  0.584952  0.885443  0.943016  1
  O  O17  1  0.308829  0.404511  0.614214  1
