# generated using pymatgen
data_Ca3LuHgPb11
_symmetry_space_group_name_H-M   'P 1'
_cell_length_a   9.83633600
_cell_length_b   6.84038689
_cell_length_c   6.85053100
_cell_angle_alpha   89.73368087
_cell_angle_beta   90.00000000
_cell_angle_gamma   90.00000000
_symmetry_Int_Tables_number   1
_chemical_formula_structural   Ca3LuHgPb11
_chemical_formula_sum   'Ca3 Lu1 Hg1 Pb11'
_cell_volume   460.92850414
_cell_formula_units_Z   1
loop_
 _symmetry_equiv_pos_site_id
 _symmetry_equiv_pos_as_xyz
  1  'x, y, z'
loop_
 _atom_site_type_symbol
 _atom_site_label
 _atom_site_symmetry_multiplicity
 _atom_site_fract_x
 _atom_site_fract_y
 _atom_site_fract_z
 _atom_site_occupancy
  Ca  Ca0  1  0.250000  0.495709  0.502479  1
  Ca  Ca1  1  0.750000  0.996849  0.001457  1
  Ca  Ca2  1  0.750000  0.505076  0.499823  1
  Lu  Lu3  1  0.250000  0.008694  0.001496  1
  Hg  Hg4  1  0.750000  0.494498  0.996383  1
  Pb  Pb5  1  0.002193  0.241340  0.751022  1
  Pb  Pb6  1  0.497482  0.249776  0.245712  1
  Pb  Pb7  1  0.494404  0.754978  0.244592  1
  Pb  Pb8  1  0.003659  0.750134  0.757029  1
  Pb  Pb9  1  0.005596  0.754978  0.244592  1
  Pb  Pb10  1  0.496341  0.750134  0.757029  1
  Pb  Pb11  1  0.497807  0.241340  0.751022  1
  Pb  Pb12  1  0.002518  0.249776  0.245712  1
  Pb  Pb13  1  0.250000  0.997773  0.501657  1
  Pb  Pb14  1  0.250000  0.506049  0.000892  1
  Pb  Pb15  1  0.750000  0.002892  0.499102  1
