# generated using pymatgen
data_Hf6Zn5CuC2
_symmetry_space_group_name_H-M   'P 1'
_cell_length_a   8.55425935
_cell_length_b   8.55425884
_cell_length_c   8.55913500
_cell_angle_alpha   59.98114573
_cell_angle_beta   59.98114771
_cell_angle_gamma   59.85711455
_symmetry_Int_Tables_number   1
_chemical_formula_structural   Hf6Zn5CuC2
_chemical_formula_sum   'Hf12 Zn10 Cu2 C4'
_cell_volume   442.26742838
_cell_formula_units_Z   2
loop_
 _symmetry_equiv_pos_site_id
 _symmetry_equiv_pos_as_xyz
  1  'x, y, z'
loop_
 _atom_site_type_symbol
 _atom_site_label
 _atom_site_symmetry_multiplicity
 _atom_site_fract_x
 _atom_site_fract_y
 _atom_site_fract_z
 _atom_site_occupancy
  Hf  Hf0  1  0.440205  0.440205  0.059795  1
  Hf  Hf1  1  0.058812  0.439588  0.062682  1
  Hf  Hf2  1  0.439588  0.058812  0.062682  1
  Hf  Hf3  1  0.060879  0.060879  0.439121  1
  Hf  Hf4  1  0.439588  0.058812  0.438918  1
  Hf  Hf5  1  0.058812  0.439588  0.438918  1
  Hf  Hf6  1  0.809795  0.809795  0.190205  1
  Hf  Hf7  1  0.191188  0.810412  0.187318  1
  Hf  Hf8  1  0.810412  0.191188  0.187318  1
  Hf  Hf9  1  0.189121  0.189121  0.810879  1
  Hf  Hf10  1  0.810412  0.191188  0.811082  1
  Hf  Hf11  1  0.191188  0.810412  0.811082  1
  Zn  Zn12  1  0.829266  0.829266  0.505832  1
  Zn  Zn13  1  0.827152  0.507670  0.832589  1
  Zn  Zn14  1  0.507670  0.827152  0.832589  1
  Zn  Zn15  1  0.829266  0.829266  0.835635  1
  Zn  Zn16  1  0.420734  0.420734  0.744168  1
  Zn  Zn17  1  0.422848  0.742330  0.417411  1
  Zn  Zn18  1  0.742330  0.422848  0.417411  1
  Zn  Zn19  1  0.420734  0.420734  0.414365  1
  Zn  Zn20  1  0.625000  0.125000  0.625000  1
  Zn  Zn21  1  0.125000  0.625000  0.625000  1
  Cu  Cu22  1  0.625000  0.625000  0.125000  1
  Cu  Cu23  1  0.625000  0.625000  0.625000  1
  C  C24  1  0.125000  0.125000  0.625000  1
  C  C25  1  0.125000  0.625000  0.125000  1
  C  C26  1  0.625000  0.125000  0.125000  1
  C  C27  1  0.125000  0.125000  0.125000  1
