# generated using pymatgen
data_TbHo19(IrRh3)3
_symmetry_space_group_name_H-M   'P 1'
_cell_length_a   10.84627514
_cell_length_b   10.84537671
_cell_length_c   6.34153803
_cell_angle_alpha   89.99187477
_cell_angle_beta   90.00502140
_cell_angle_gamma   89.92786723
_symmetry_Int_Tables_number   1
_chemical_formula_structural   TbHo19(IrRh3)3
_chemical_formula_sum   'Tb1 Ho19 Ir3 Rh9'
_cell_volume   745.96681736
_cell_formula_units_Z   1
loop_
 _symmetry_equiv_pos_site_id
 _symmetry_equiv_pos_as_xyz
  1  'x, y, z'
loop_
 _atom_site_type_symbol
 _atom_site_label
 _atom_site_symmetry_multiplicity
 _atom_site_fract_x
 _atom_site_fract_y
 _atom_site_fract_z
 _atom_site_occupancy
  Tb  Tb0  1  0.290762  0.089712  0.378318  1
  Ho  Ho1  1  0.291329  0.909783  0.878262  1
  Ho  Ho2  1  0.708896  0.088260  0.878264  1
  Ho  Ho3  1  0.708616  0.910070  0.378204  1
  Ho  Ho4  1  0.587463  0.789749  0.879434  1
  Ho  Ho5  1  0.587361  0.209489  0.378056  1
  Ho  Ho6  1  0.412540  0.789847  0.378891  1
  Ho  Ho7  1  0.410958  0.209494  0.879507  1
  Ho  Ho8  1  0.210242  0.412619  0.620584  1
  Ho  Ho9  1  0.209970  0.587532  0.121146  1
  Ho  Ho10  1  0.790587  0.412917  0.121914  1
  Ho  Ho11  1  0.790607  0.589196  0.620426  1
  Ho  Ho12  1  0.910273  0.708855  0.121506  1
  Ho  Ho13  1  0.911733  0.291070  0.621708  1
  Ho  Ho14  1  0.090023  0.708675  0.621695  1
  Ho  Ho15  1  0.089726  0.291523  0.121620  1
  Ho  Ho16  1  0.999562  0.999820  0.499987  1
  Ho  Ho17  1  0.000045  0.000166  0.000117  1
  Ho  Ho18  1  0.499730  0.499922  0.999901  1
  Ho  Ho19  1  0.500115  0.500292  0.500172  1
  Ir  Ir20  1  0.654617  0.653967  0.250005  1
  Ir  Ir21  1  0.346139  0.345806  0.249779  1
  Ir  Ir22  1  0.345320  0.654681  0.749993  1
  Rh  Rh23  1  0.845954  0.154062  0.250009  1
  Rh  Rh24  1  0.846415  0.846947  0.750238  1
  Rh  Rh25  1  0.152874  0.153741  0.750307  1
  Rh  Rh26  1  0.153230  0.846380  0.249846  1
  Rh  Rh27  1  0.654979  0.345037  0.750005  1
  Rh  Rh28  1  0.500511  0.000353  0.122417  1
  Rh  Rh29  1  0.500668  0.000624  0.623651  1
  Rh  Rh30  1  0.999262  0.499638  0.876706  1
  Rh  Rh31  1  0.999498  0.499770  0.377333  1
