# generated using pymatgen
data_Pr5TcRuO12
_symmetry_space_group_name_H-M   'P 1'
_cell_length_a   7.13439592
_cell_length_b   7.13439608
_cell_length_c   7.87402368
_cell_angle_alpha   73.82653345
_cell_angle_beta   73.82653488
_cell_angle_gamma   48.10378183
_symmetry_Int_Tables_number   1
_chemical_formula_structural   Pr5TcRuO12
_chemical_formula_sum   'Pr5 Tc1 Ru1 O12'
_cell_volume   284.10892730
_cell_formula_units_Z   1
loop_
 _symmetry_equiv_pos_site_id
 _symmetry_equiv_pos_as_xyz
  1  'x, y, z'
loop_
 _atom_site_type_symbol
 _atom_site_label
 _atom_site_symmetry_multiplicity
 _atom_site_fract_x
 _atom_site_fract_y
 _atom_site_fract_z
 _atom_site_occupancy
  Pr  Pr0  1  0.299384  0.315379  0.353857  1
  Pr  Pr1  1  0.684621  0.700616  0.646143  1
  Pr  Pr2  1  0.682964  0.688711  0.168651  1
  Pr  Pr3  1  0.311289  0.317036  0.831349  1
  Pr  Pr4  1  0.996432  0.003568  0.500000  1
  Tc  Tc5  1  0.793193  0.206807  0.000000  1
  Ru  Ru6  1  0.224034  0.775966  0.000000  1
  O  O7  1  0.091202  0.595566  0.578864  1
  O  O8  1  0.998120  0.000912  0.194238  1
  O  O9  1  0.404434  0.908798  0.421136  1
  O  O10  1  0.504464  0.493318  0.164255  1
  O  O11  1  0.086136  0.585918  0.079601  1
  O  O12  1  0.898528  0.407135  0.425697  1
  O  O13  1  0.999088  0.001880  0.805762  1
  O  O14  1  0.592865  0.101471  0.574303  1
  O  O15  1  0.506682  0.495536  0.835745  1
  O  O16  1  0.601644  0.089163  0.077462  1
  O  O17  1  0.414082  0.913864  0.920399  1
  O  O18  1  0.910837  0.398356  0.922538  1
