# generated using pymatgen
data_Rb5In3P6Se19
_symmetry_space_group_name_H-M   'P 1'
_cell_length_a   7.89838751
_cell_length_b   13.54156570
_cell_length_c   18.84881300
_cell_angle_alpha   86.73318849
_cell_angle_beta   88.42486157
_cell_angle_gamma   81.78960490
_symmetry_Int_Tables_number   1
_chemical_formula_structural   Rb5In3P6Se19
_chemical_formula_sum   'Rb10 In6 P12 Se38'
_cell_volume   1991.71592043
_cell_formula_units_Z   2
loop_
 _symmetry_equiv_pos_site_id
 _symmetry_equiv_pos_as_xyz
  1  'x, y, z'
loop_
 _atom_site_type_symbol
 _atom_site_label
 _atom_site_symmetry_multiplicity
 _atom_site_fract_x
 _atom_site_fract_y
 _atom_site_fract_z
 _atom_site_occupancy
  Rb  Rb0  1  0.730692  0.406484  0.078831  1
  Rb  Rb1  1  0.269308  0.593516  0.921169  1
  Rb  Rb2  1  0.950884  0.152575  0.442105  1
  Rb  Rb3  1  0.049116  0.847425  0.557895  1
  Rb  Rb4  1  0.751104  0.780893  0.210639  1
  Rb  Rb5  1  0.248896  0.219107  0.789361  1
  Rb  Rb6  1  0.567668  0.651531  0.389487  1
  Rb  Rb7  1  0.432332  0.348469  0.610513  1
  Rb  Rb8  1  0.236352  0.885499  0.088864  1
  Rb  Rb9  1  0.763648  0.114501  0.911136  1
  In  In10  1  0.507349  0.099559  0.330606  1
  In  In11  1  0.492651  0.900441  0.669394  1
  In  In12  1  0.243342  0.262585  0.159806  1
  In  In13  1  0.756658  0.737415  0.840194  1
  In  In14  1  0.183073  0.435061  0.323321  1
  In  In15  1  0.816927  0.564939  0.676679  1
  P  P16  1  0.638491  0.058801  0.134382  1
  P  P17  1  0.361509  0.941199  0.865618  1
  P  P18  1  0.859259  0.101013  0.198372  1
  P  P19  1  0.140741  0.898987  0.801628  1
  P  P20  1  0.123199  0.566504  0.142585  1
  P  P21  1  0.876801  0.433496  0.857415  1
  P  P22  1  0.369330  0.608934  0.186716  1
  P  P23  1  0.630670  0.391066  0.813284  1
  P  P24  1  0.911746  0.440151  0.506270  1
  P  P25  1  0.088254  0.559849  0.493730  1
  P  P26  1  0.506757  0.934829  0.464211  1
  P  P27  1  0.493243  0.065171  0.535789  1
  Se  Se28  1  0.216075  0.240532  0.296320  1
  Se  Se29  1  0.783925  0.759468  0.703680  1
  Se  Se30  1  0.458050  0.001110  0.213553  1
  Se  Se31  1  0.541950  0.998890  0.786447  1
  Se  Se32  1  0.511368  0.200526  0.078375  1
  Se  Se33  1  0.488632  0.799474  0.921625  1
  Se  Se34  1  0.736623  0.948900  0.060273  1
  Se  Se35  1  0.263377  0.051100  0.939727  1
  Se  Se36  1  0.735302  0.216138  0.270260  1
  Se  Se37  1  0.264698  0.783862  0.729740  1
  Se  Se38  1  0.001714  0.167378  0.106338  1
  Se  Se39  1  0.998286  0.832622  0.893662  1
  Se  Se40  1  0.996543  0.969104  0.250492  1
  Se  Se41  1  0.003457  0.030896  0.749508  1
  Se  Se42  1  0.186535  0.431004  0.077269  1
  Se  Se43  1  0.813465  0.568996  0.922731  1
  Se  Se44  1  0.951710  0.531629  0.235394  1
  Se  Se45  1  0.048290  0.468371  0.764606  1
  Se  Se46  1  0.005321  0.685249  0.071497  1
  Se  Se47  1  0.994679  0.314751  0.928503  1
  Se  Se48  1  0.474858  0.464940  0.244644  1
  Se  Se49  1  0.525142  0.535060  0.755356  1
  Se  Se50  1  0.291668  0.732477  0.254090  1
  Se  Se51  1  0.708332  0.267523  0.745910  1
  Se  Se52  1  0.524553  0.643070  0.094348  1
  Se  Se53  1  0.475447  0.356930  0.905652  1
  Se  Se54  1  0.848714  0.414289  0.395841  1
  Se  Se55  1  0.151286  0.585711  0.604159  1
  Se  Se56  1  0.016010  0.311684  0.571137  1
  Se  Se57  1  0.983990  0.688316  0.428863  1
  Se  Se58  1  0.678116  0.527866  0.556252  1
  Se  Se59  1  0.321884  0.472134  0.443748  1
  Se  Se60  1  0.282064  0.963012  0.395008  1
  Se  Se61  1  0.717936  0.036988  0.604992  1
  Se  Se62  1  0.736811  0.939963  0.392619  1
  Se  Se63  1  0.263189  0.060037  0.607381  1
  Se  Se64  1  0.515969  0.803296  0.539663  1
  Se  Se65  1  0.484031  0.196704  0.460337  1
