# generated using pymatgen
data_Ho19InRh12
_symmetry_space_group_name_H-M   'P 1'
_cell_length_a   10.82725500
_cell_length_b   10.82725500
_cell_length_c   6.28801200
_cell_angle_alpha   90.00000000
_cell_angle_beta   90.00000000
_cell_angle_gamma   90.00000000
_symmetry_Int_Tables_number   1
_chemical_formula_structural   Ho19InRh12
_chemical_formula_sum   'Ho19 In1 Rh12'
_cell_volume   737.14019360
_cell_formula_units_Z   1
loop_
 _symmetry_equiv_pos_site_id
 _symmetry_equiv_pos_as_xyz
  1  'x, y, z'
loop_
 _atom_site_type_symbol
 _atom_site_label
 _atom_site_symmetry_multiplicity
 _atom_site_fract_x
 _atom_site_fract_y
 _atom_site_fract_z
 _atom_site_occupancy
  Ho  Ho0  1  0.283461  0.085307  0.379184  1
  Ho  Ho1  1  0.290420  0.911147  0.879686  1
  Ho  Ho2  1  0.709580  0.088853  0.879686  1
  Ho  Ho3  1  0.716539  0.914693  0.379184  1
  Ho  Ho4  1  0.588792  0.791286  0.880920  1
  Ho  Ho5  1  0.588318  0.208525  0.377431  1
  Ho  Ho6  1  0.411682  0.791475  0.377431  1
  Ho  Ho7  1  0.411208  0.208714  0.880920  1
  Ho  Ho8  1  0.208525  0.411682  0.622569  1
  Ho  Ho9  1  0.208714  0.588792  0.119080  1
  Ho  Ho10  1  0.791286  0.411208  0.119080  1
  Ho  Ho11  1  0.791475  0.588318  0.622569  1
  Ho  Ho12  1  0.911147  0.709580  0.120314  1
  Ho  Ho13  1  0.914693  0.283461  0.620816  1
  Ho  Ho14  1  0.085307  0.716539  0.620816  1
  Ho  Ho15  1  0.088853  0.290420  0.120314  1
  Ho  Ho16  1  0.000000  0.000000  0.000000  1
  Ho  Ho17  1  0.500000  0.500000  0.000000  1
  Ho  Ho18  1  0.500000  0.500000  0.500000  1
  In  In19  1  0.000000  0.000000  0.500000  1
  Rh  Rh20  1  0.845494  0.156228  0.245457  1
  Rh  Rh21  1  0.843772  0.845494  0.754543  1
  Rh  Rh22  1  0.156228  0.154506  0.754543  1
  Rh  Rh23  1  0.154506  0.843772  0.245457  1
  Rh  Rh24  1  0.654824  0.346317  0.747232  1
  Rh  Rh25  1  0.653683  0.654824  0.252768  1
  Rh  Rh26  1  0.346317  0.345176  0.252768  1
  Rh  Rh27  1  0.345176  0.653683  0.747232  1
  Rh  Rh28  1  0.500000  0.000000  0.124738  1
  Rh  Rh29  1  0.500000  0.000000  0.620668  1
  Rh  Rh30  1  0.000000  0.500000  0.875262  1
  Rh  Rh31  1  0.000000  0.500000  0.379332  1
