# generated using pymatgen
data_SmNbCrB6
_symmetry_space_group_name_H-M   'P 1'
_cell_length_a   3.45253900
_cell_length_b   8.97755900
_cell_length_c   11.38358600
_cell_angle_alpha   90.00000000
_cell_angle_beta   90.00000000
_cell_angle_gamma   90.00000000
_symmetry_Int_Tables_number   1
_chemical_formula_structural   SmNbCrB6
_chemical_formula_sum   'Sm4 Nb4 Cr4 B24'
_cell_volume   352.83848928
_cell_formula_units_Z   4
loop_
 _symmetry_equiv_pos_site_id
 _symmetry_equiv_pos_as_xyz
  1  'x, y, z'
loop_
 _atom_site_type_symbol
 _atom_site_label
 _atom_site_symmetry_multiplicity
 _atom_site_fract_x
 _atom_site_fract_y
 _atom_site_fract_z
 _atom_site_occupancy
  Sm  Sm0  1  0.000000  0.822404  0.085477  1
  Sm  Sm1  1  0.000000  0.177596  0.914523  1
  Sm  Sm2  1  0.000000  0.322404  0.414523  1
  Sm  Sm3  1  0.000000  0.677596  0.585477  1
  Nb  Nb4  1  0.000000  0.445081  0.127898  1
  Nb  Nb5  1  0.000000  0.554919  0.872102  1
  Nb  Nb6  1  0.000000  0.945081  0.372102  1
  Nb  Nb7  1  0.000000  0.054919  0.627898  1
  Cr  Cr8  1  0.000000  0.144124  0.184402  1
  Cr  Cr9  1  0.000000  0.855876  0.815598  1
  Cr  Cr10  1  0.000000  0.644124  0.315598  1
  Cr  Cr11  1  0.000000  0.355876  0.684402  1
  B  B12  1  0.500000  0.055614  0.069280  1
  B  B13  1  0.500000  0.944386  0.930720  1
  B  B14  1  0.500000  0.555614  0.430720  1
  B  B15  1  0.500000  0.444386  0.569280  1
  B  B16  1  0.500000  0.254289  0.084118  1
  B  B17  1  0.500000  0.745711  0.915882  1
  B  B18  1  0.500000  0.754289  0.415882  1
  B  B19  1  0.500000  0.245711  0.584118  1
  B  B20  1  0.500000  0.296648  0.235512  1
  B  B21  1  0.500000  0.703352  0.764488  1
  B  B22  1  0.500000  0.796648  0.264488  1
  B  B23  1  0.500000  0.203352  0.735512  1
  B  B24  1  0.500000  0.129345  0.317152  1
  B  B25  1  0.500000  0.870655  0.682848  1
  B  B26  1  0.500000  0.629345  0.182848  1
  B  B27  1  0.500000  0.370655  0.817152  1
  B  B28  1  0.500000  0.483155  0.285492  1
  B  B29  1  0.500000  0.516845  0.714508  1
  B  B30  1  0.500000  0.983155  0.214508  1
  B  B31  1  0.500000  0.016845  0.785492  1
  B  B32  1  0.500000  0.097801  0.474355  1
  B  B33  1  0.500000  0.902199  0.525645  1
  B  B34  1  0.500000  0.597801  0.025645  1
  B  B35  1  0.500000  0.402199  0.974355  1
