# generated using pymatgen
data_Nd4Sm6C4Br15
_symmetry_space_group_name_H-M   'P 1'
_cell_length_a   9.16742565
_cell_length_b   10.11628462
_cell_length_c   11.11076173
_cell_angle_alpha   70.19849723
_cell_angle_beta   66.07152612
_cell_angle_gamma   70.72486453
_symmetry_Int_Tables_number   1
_chemical_formula_structural   Nd4Sm6C4Br15
_chemical_formula_sum   'Nd4 Sm6 C4 Br15'
_cell_volume   863.63057483
_cell_formula_units_Z   1
loop_
 _symmetry_equiv_pos_site_id
 _symmetry_equiv_pos_as_xyz
  1  'x, y, z'
loop_
 _atom_site_type_symbol
 _atom_site_label
 _atom_site_symmetry_multiplicity
 _atom_site_fract_x
 _atom_site_fract_y
 _atom_site_fract_z
 _atom_site_occupancy
  Nd  Nd0  1  0.333667  0.750360  0.831707  1
  Nd  Nd1  1  0.666333  0.249640  0.168293  1
  Nd  Nd2  1  0.169379  0.430853  0.045286  1
  Nd  Nd3  1  0.830621  0.569147  0.954714  1
  Sm  Sm4  1  0.077043  0.178487  0.891117  1
  Sm  Sm5  1  0.922957  0.821513  0.108883  1
  Sm  Sm6  1  0.246485  0.541760  0.647223  1
  Sm  Sm7  1  0.753515  0.458240  0.352777  1
  Sm  Sm8  1  0.025219  0.107629  0.262534  1
  Sm  Sm9  1  0.974781  0.892371  0.737466  1
  C  C10  1  0.879713  0.359437  0.171831  1
  C  C11  1  0.120287  0.640563  0.828169  1
  C  C12  1  0.957326  0.294167  0.061203  1
  C  C13  1  0.042674  0.705833  0.938797  1
  Br  Br14  1  0.500000  0.500000  0.000000  1
  Br  Br15  1  0.130614  0.813307  0.472753  1
  Br  Br16  1  0.869386  0.186693  0.527247  1
  Br  Br17  1  0.251752  0.027709  0.648632  1
  Br  Br18  1  0.748248  0.972291  0.351368  1
  Br  Br19  1  0.331137  0.165199  0.221949  1
  Br  Br20  1  0.668863  0.834801  0.778051  1
  Br  Br21  1  0.453207  0.371106  0.414348  1
  Br  Br22  1  0.546793  0.628894  0.585652  1
  Br  Br23  1  0.955301  0.439092  0.702937  1
  Br  Br24  1  0.044699  0.560908  0.297063  1
  Br  Br25  1  0.229219  0.909329  0.063044  1
  Br  Br26  1  0.770781  0.090671  0.936956  1
  Br  Br27  1  0.383059  0.270453  0.814744  1
  Br  Br28  1  0.616941  0.729547  0.185256  1
