# generated using pymatgen
data_K2Pt3O7
_symmetry_space_group_name_H-M   'P 1'
_cell_length_a   7.38449178
_cell_length_b   7.69034075
_cell_length_c   8.34995795
_cell_angle_alpha   106.29955604
_cell_angle_beta   105.88002287
_cell_angle_gamma   112.36635841
_symmetry_Int_Tables_number   1
_chemical_formula_structural   K2Pt3O7
_chemical_formula_sum   'K4 Pt6 O14'
_cell_volume   380.27208151
_cell_formula_units_Z   2
loop_
 _symmetry_equiv_pos_site_id
 _symmetry_equiv_pos_as_xyz
  1  'x, y, z'
loop_
 _atom_site_type_symbol
 _atom_site_label
 _atom_site_symmetry_multiplicity
 _atom_site_fract_x
 _atom_site_fract_y
 _atom_site_fract_z
 _atom_site_occupancy
  K  K0  1  0.329142  0.817296  0.074515  1
  K  K1  1  0.257647  0.686592  0.494527  1
  K  K2  1  0.742352  0.313408  0.505472  1
  K  K3  1  0.670857  0.182704  0.925485  1
  Pt  Pt4  1  0.357780  0.357013  0.075060  1
  Pt  Pt5  1  0.071720  0.073970  0.217349  1
  Pt  Pt6  1  0.782778  0.785348  0.356832  1
  Pt  Pt7  1  0.217223  0.214652  0.643167  1
  Pt  Pt8  1  0.928281  0.926030  0.782650  1
  Pt  Pt9  1  0.642220  0.642987  0.924939  1
  O  O10  1  0.039075  0.194057  0.026773  1
  O  O11  1  0.678072  0.522575  0.123289  1
  O  O12  1  0.744924  0.910311  0.163394  1
  O  O13  1  0.379385  0.209148  0.239078  1
  O  O14  1  0.460771  0.633442  0.286704  1
  O  O15  1  0.110828  0.953048  0.407569  1
  O  O16  1  0.138164  0.310496  0.445930  1
  O  O17  1  0.861836  0.689503  0.554069  1
  O  O18  1  0.889172  0.046952  0.592430  1
  O  O19  1  0.539229  0.366558  0.713295  1
  O  O20  1  0.620616  0.790852  0.760921  1
  O  O21  1  0.255077  0.089689  0.836605  1
  O  O22  1  0.321928  0.477425  0.876712  1
  O  O23  1  0.960926  0.805943  0.973227  1
