# generated using pymatgen
data_Eu8Mn2PdN8
_symmetry_space_group_name_H-M   'P 1'
_cell_length_a   9.55084220
_cell_length_b   5.12618293
_cell_length_c   7.31090516
_cell_angle_alpha   90.00001366
_cell_angle_beta   74.47575685
_cell_angle_gamma   74.43312797
_symmetry_Int_Tables_number   1
_chemical_formula_structural   Eu8Mn2PdN8
_chemical_formula_sum   'Eu8 Mn2 Pd1 N8'
_cell_volume   331.23161742
_cell_formula_units_Z   1
loop_
 _symmetry_equiv_pos_site_id
 _symmetry_equiv_pos_as_xyz
  1  'x, y, z'
loop_
 _atom_site_type_symbol
 _atom_site_label
 _atom_site_symmetry_multiplicity
 _atom_site_fract_x
 _atom_site_fract_y
 _atom_site_fract_z
 _atom_site_occupancy
  Eu  Eu0  1  0.058999  0.970501  0.737894  1
  Eu  Eu1  1  0.941001  0.029499  0.262106  1
  Eu  Eu2  1  0.669209  0.665395  0.467393  1
  Eu  Eu3  1  0.330791  0.334605  0.532607  1
  Eu  Eu4  1  0.816782  0.591609  0.970669  1
  Eu  Eu5  1  0.183218  0.408391  0.029331  1
  Eu  Eu6  1  0.399961  0.800019  0.190265  1
  Eu  Eu7  1  0.600039  0.199981  0.809735  1
  Mn  Mn8  1  0.374645  0.812677  0.791861  1
  Mn  Mn9  1  0.625355  0.187323  0.208139  1
  Pd  Pd10  1  0.000000  0.500000  0.500000  1
  N  N11  1  0.210349  0.894825  0.991854  1
  N  N12  1  0.789651  0.105175  0.008146  1
  N  N13  1  0.354110  0.822946  0.559764  1
  N  N14  1  0.645890  0.177054  0.440236  1
  N  N15  1  0.556285  0.721857  0.829517  1
  N  N16  1  0.443715  0.278143  0.170483  1
  N  N17  1  0.932966  0.533516  0.242986  1
  N  N18  1  0.067034  0.466484  0.757014  1
