# generated using pymatgen
data_Gd2Ho3Er3(WO6)4
_symmetry_space_group_name_H-M   'P 1'
_cell_length_a   5.40121104
_cell_length_b   7.71015371
_cell_length_c   11.46627588
_cell_angle_alpha   75.43857189
_cell_angle_beta   89.99655237
_cell_angle_gamma   89.98645029
_symmetry_Int_Tables_number   1
_chemical_formula_structural   Gd2Ho3Er3(WO6)4
_chemical_formula_sum   'Gd2 Ho3 Er3 W4 O24'
_cell_volume   462.16543917
_cell_formula_units_Z   1
loop_
 _symmetry_equiv_pos_site_id
 _symmetry_equiv_pos_as_xyz
  1  'x, y, z'
loop_
 _atom_site_type_symbol
 _atom_site_label
 _atom_site_symmetry_multiplicity
 _atom_site_fract_x
 _atom_site_fract_y
 _atom_site_fract_z
 _atom_site_occupancy
  Gd  Gd0  1  0.684622  0.500212  0.249827  1
  Gd  Gd1  1  0.315493  0.500083  0.750021  1
  Ho  Ho2  1  0.184280  0.204626  0.422481  1
  Ho  Ho3  1  0.741570  0.999840  0.249749  1
  Ho  Ho4  1  0.258469  0.999849  0.750203  1
  Er  Er5  1  0.184100  0.795109  0.077766  1
  Er  Er6  1  0.815695  0.794916  0.577833  1
  Er  Er7  1  0.815852  0.204831  0.922311  1
  W  W8  1  0.255476  0.274483  0.115010  1
  W  W9  1  0.255392  0.725724  0.384785  1
  W  W10  1  0.744678  0.725614  0.884829  1
  W  W11  1  0.744790  0.274546  0.615412  1
  O  O12  1  0.457141  0.206563  0.273253  1
  O  O13  1  0.456351  0.793793  0.226197  1
  O  O14  1  0.543551  0.793611  0.726284  1
  O  O15  1  0.543612  0.206483  0.773918  1
  O  O16  1  0.044321  0.058957  0.103894  1
  O  O17  1  0.043322  0.940284  0.396040  1
  O  O18  1  0.955775  0.940982  0.896103  1
  O  O19  1  0.955558  0.058783  0.604207  1
  O  O20  1  0.982500  0.285230  0.229424  1
  O  O21  1  0.982846  0.714721  0.269985  1
  O  O22  1  0.017220  0.714896  0.770140  1
  O  O23  1  0.017454  0.285104  0.729934  1
  O  O24  1  0.850846  0.363206  0.452633  1
  O  O25  1  0.851983  0.637306  0.047431  1
  O  O26  1  0.148102  0.637198  0.547495  1
  O  O27  1  0.148005  0.362785  0.952426  1
  O  O28  1  0.644560  0.509727  0.613829  1
  O  O29  1  0.644784  0.490481  0.886339  1
  O  O30  1  0.355988  0.490844  0.386276  1
  O  O31  1  0.355184  0.509586  0.113652  1
  O  O32  1  0.464327  0.153888  0.569760  1
  O  O33  1  0.463631  0.845570  0.930811  1
  O  O34  1  0.536141  0.845850  0.430808  1
  O  O35  1  0.536381  0.154318  0.068933  1
