# generated using pymatgen
data_La4Pr2TcI10
_symmetry_space_group_name_H-M   'P 1'
_cell_length_a   8.10573832
_cell_length_b   10.06231393
_cell_length_c   10.32724438
_cell_angle_alpha   107.93382656
_cell_angle_beta   98.14252098
_cell_angle_gamma   104.96195727
_symmetry_Int_Tables_number   1
_chemical_formula_structural   La4Pr2TcI10
_chemical_formula_sum   'La4 Pr2 Tc1 I10'
_cell_volume   751.48081858
_cell_formula_units_Z   1
loop_
 _symmetry_equiv_pos_site_id
 _symmetry_equiv_pos_as_xyz
  1  'x, y, z'
loop_
 _atom_site_type_symbol
 _atom_site_label
 _atom_site_symmetry_multiplicity
 _atom_site_fract_x
 _atom_site_fract_y
 _atom_site_fract_z
 _atom_site_occupancy
  La  La0  1  0.532492  0.225727  0.419887  1
  La  La1  1  0.467508  0.774273  0.580113  1
  La  La2  1  0.147348  0.370478  0.328469  1
  La  La3  1  0.852652  0.629522  0.671531  1
  Pr  Pr4  1  0.620643  0.544659  0.248385  1
  Pr  Pr5  1  0.379357  0.455341  0.751615  1
  Tc  Tc6  1  0.500000  0.500000  0.500000  1
  I  I7  1  0.147010  0.042645  0.225645  1
  I  I8  1  0.852990  0.957355  0.774355  1
  I  I9  1  0.239907  0.410935  0.040583  1
  I  I10  1  0.760093  0.589065  0.959417  1
  I  I11  1  0.707247  0.240566  0.152254  1
  I  I12  1  0.292753  0.759434  0.847746  1
  I  I13  1  0.045213  0.683942  0.412011  1
  I  I14  1  0.954787  0.316058  0.587989  1
  I  I15  1  0.412990  0.131998  0.677908  1
  I  I16  1  0.587010  0.868002  0.322092  1
