# generated using pymatgen
data_Tb11Dy2Ho3(InRh)4
_symmetry_space_group_name_H-M   'P 1'
_cell_length_a   9.68385250
_cell_length_b   9.68473295
_cell_length_c   9.68964304
_cell_angle_alpha   60.01675706
_cell_angle_beta   60.00489501
_cell_angle_gamma   59.99699153
_symmetry_Int_Tables_number   1
_chemical_formula_structural   Tb11Dy2Ho3(InRh)4
_chemical_formula_sum   'Tb11 Dy2 Ho3 In4 Rh4'
_cell_volume   642.67255600
_cell_formula_units_Z   1
loop_
 _symmetry_equiv_pos_site_id
 _symmetry_equiv_pos_as_xyz
  1  'x, y, z'
loop_
 _atom_site_type_symbol
 _atom_site_label
 _atom_site_symmetry_multiplicity
 _atom_site_fract_x
 _atom_site_fract_y
 _atom_site_fract_z
 _atom_site_occupancy
  Tb  Tb0  1  0.937410  0.938661  0.561531  1
  Tb  Tb1  1  0.148926  0.150602  0.549870  1
  Tb  Tb2  1  0.561890  0.938485  0.561140  1
  Tb  Tb3  1  0.149754  0.151277  0.150483  1
  Tb  Tb4  1  0.311718  0.310479  0.689044  1
  Tb  Tb5  1  0.937410  0.562399  0.561531  1
  Tb  Tb6  1  0.561617  0.561678  0.938416  1
  Tb  Tb7  1  0.561617  0.938289  0.938416  1
  Tb  Tb8  1  0.937148  0.562201  0.938449  1
  Tb  Tb9  1  0.149754  0.548485  0.150483  1
  Tb  Tb10  1  0.311718  0.688759  0.689044  1
  Dy  Dy11  1  0.689421  0.310917  0.688746  1
  Dy  Dy12  1  0.550102  0.150339  0.149220  1
  Ho  Ho13  1  0.689460  0.310920  0.311126  1
  Ho  Ho14  1  0.689460  0.688494  0.311126  1
  Ho  Ho15  1  0.311559  0.688983  0.310475  1
  In  In16  1  0.917274  0.917209  0.248307  1
  In  In17  1  0.248168  0.917134  0.917564  1
  In  In18  1  0.917104  0.248354  0.917422  1
  In  In19  1  0.917104  0.917120  0.917422  1
  Rh  Rh20  1  0.358444  0.357625  0.357348  1
  Rh  Rh21  1  0.925970  0.357925  0.358182  1
  Rh  Rh22  1  0.358528  0.357082  0.927310  1
  Rh  Rh23  1  0.358444  0.926585  0.357348  1
