# generated using pymatgen
data_Ac3Pr(NCl3)2
_symmetry_space_group_name_H-M   'P 1'
_cell_length_a   8.56349092
_cell_length_b   8.59691203
_cell_length_c   8.59691252
_cell_angle_alpha   136.75876899
_cell_angle_beta   130.92157334
_cell_angle_gamma   67.51500145
_symmetry_Int_Tables_number   1
_chemical_formula_structural   Ac3Pr(NCl3)2
_chemical_formula_sum   'Ac3 Pr1 N2 Cl6'
_cell_volume   322.08544875
_cell_formula_units_Z   1
loop_
 _symmetry_equiv_pos_site_id
 _symmetry_equiv_pos_as_xyz
  1  'x, y, z'
loop_
 _atom_site_type_symbol
 _atom_site_label
 _atom_site_symmetry_multiplicity
 _atom_site_fract_x
 _atom_site_fract_y
 _atom_site_fract_z
 _atom_site_occupancy
  Ac  Ac0  1  0.079193  0.902722  0.176471  1
  Ac  Ac1  1  0.914506  0.094724  0.819782  1
  Ac  Ac2  1  0.280478  0.595530  0.684947  1
  Pr  Pr3  1  0.744984  0.412510  0.332473  1
  N  N4  1  0.000399  0.747662  0.747740  1
  N  N5  1  0.000399  0.252659  0.252736  1
  Cl  Cl6  1  0.382416  0.204716  0.177701  1
  Cl  Cl7  1  0.617353  0.801670  0.815682  1
  Cl  Cl8  1  0.499595  0.247016  0.756638  1
  Cl  Cl9  1  0.499595  0.742957  0.252579  1
  Cl  Cl10  1  0.011915  0.696479  0.315436  1
  Cl  Cl11  1  0.969168  0.301353  0.667814  1
