# generated using pymatgen
data_Y9Th(Sn3N)2
_symmetry_space_group_name_H-M   'P 1'
_cell_length_a   8.97890732
_cell_length_b   8.97890822
_cell_length_c   6.46644300
_cell_angle_alpha   90.00000000
_cell_angle_beta   90.00000000
_cell_angle_gamma   120.31681062
_symmetry_Int_Tables_number   1
_chemical_formula_structural   Y9Th(Sn3N)2
_chemical_formula_sum   'Y9 Th1 Sn6 N2'
_cell_volume   450.03656011
_cell_formula_units_Z   1
loop_
 _symmetry_equiv_pos_site_id
 _symmetry_equiv_pos_as_xyz
  1  'x, y, z'
loop_
 _atom_site_type_symbol
 _atom_site_label
 _atom_site_symmetry_multiplicity
 _atom_site_fract_x
 _atom_site_fract_y
 _atom_site_fract_z
 _atom_site_occupancy
  Y  Y0  1  0.666283  0.333455  0.000844  1
  Y  Y1  1  0.333455  0.666283  0.000844  1
  Y  Y2  1  0.333455  0.666283  0.499156  1
  Y  Y3  1  0.666283  0.333455  0.499156  1
  Y  Y4  1  0.222193  0.003032  0.750000  1
  Y  Y5  1  0.003032  0.222193  0.750000  1
  Y  Y6  1  0.216057  0.216057  0.250000  1
  Y  Y7  1  0.783790  0.000597  0.250000  1
  Y  Y8  1  0.000597  0.783790  0.250000  1
  Th  Th9  1  0.787238  0.787238  0.750000  1
  Sn  Sn10  1  0.401959  0.401959  0.750000  1
  Sn  Sn11  1  0.594749  0.002873  0.750000  1
  Sn  Sn12  1  0.002873  0.594749  0.750000  1
  Sn  Sn13  1  0.596626  0.596626  0.250000  1
  Sn  Sn14  1  0.401443  0.999645  0.250000  1
  Sn  Sn15  1  0.999645  0.401443  0.250000  1
  N  N16  1  0.995162  0.995162  0.997338  1
  N  N17  1  0.995162  0.995162  0.502662  1
