# generated using pymatgen
data_Ca3Tb2Sn3Ge
_symmetry_space_group_name_H-M   'P 1'
_cell_length_a   7.59334100
_cell_length_b   8.41650200
_cell_length_c   16.00625600
_cell_angle_alpha   90.00000000
_cell_angle_beta   90.00000000
_cell_angle_gamma   90.00000000
_symmetry_Int_Tables_number   1
_chemical_formula_structural   Ca3Tb2Sn3Ge
_chemical_formula_sum   'Ca12 Tb8 Sn12 Ge4'
_cell_volume   1022.94973243
_cell_formula_units_Z   4
loop_
 _symmetry_equiv_pos_site_id
 _symmetry_equiv_pos_as_xyz
  1  'x, y, z'
loop_
 _atom_site_type_symbol
 _atom_site_label
 _atom_site_symmetry_multiplicity
 _atom_site_fract_x
 _atom_site_fract_y
 _atom_site_fract_z
 _atom_site_occupancy
  Ca  Ca0  1  0.501509  0.688380  0.592096  1
  Ca  Ca1  1  0.001509  0.811620  0.907904  1
  Ca  Ca2  1  0.498491  0.311620  0.092096  1
  Ca  Ca3  1  0.998491  0.188380  0.407904  1
  Ca  Ca4  1  0.498491  0.311620  0.407904  1
  Ca  Ca5  1  0.998491  0.188380  0.092096  1
  Ca  Ca6  1  0.501509  0.688380  0.907904  1
  Ca  Ca7  1  0.001509  0.811620  0.592096  1
  Ca  Ca8  1  0.821262  0.509596  0.750000  1
  Ca  Ca9  1  0.321262  0.990404  0.750000  1
  Ca  Ca10  1  0.178738  0.490404  0.250000  1
  Ca  Ca11  1  0.678738  0.009596  0.250000  1
  Tb  Tb12  1  0.673773  0.172280  0.626771  1
  Tb  Tb13  1  0.173773  0.327720  0.873229  1
  Tb  Tb14  1  0.326227  0.827720  0.126771  1
  Tb  Tb15  1  0.826227  0.672280  0.373229  1
  Tb  Tb16  1  0.326227  0.827720  0.373229  1
  Tb  Tb17  1  0.826227  0.672280  0.126771  1
  Tb  Tb18  1  0.673773  0.172280  0.873229  1
  Tb  Tb19  1  0.173773  0.327720  0.626771  1
  Sn  Sn20  1  0.673142  0.964256  0.461482  1
  Sn  Sn21  1  0.173142  0.535744  0.038518  1
  Sn  Sn22  1  0.326858  0.035744  0.961482  1
  Sn  Sn23  1  0.826858  0.464256  0.538518  1
  Sn  Sn24  1  0.326858  0.035744  0.538518  1
  Sn  Sn25  1  0.826858  0.464256  0.961482  1
  Sn  Sn26  1  0.673142  0.964256  0.038518  1
  Sn  Sn27  1  0.173142  0.535744  0.461482  1
  Sn  Sn28  1  0.728623  0.880390  0.750000  1
  Sn  Sn29  1  0.228623  0.619610  0.750000  1
  Sn  Sn30  1  0.271377  0.119610  0.250000  1
  Sn  Sn31  1  0.771377  0.380390  0.250000  1
  Ge  Ge32  1  0.464593  0.362179  0.750000  1
  Ge  Ge33  1  0.964593  0.137821  0.750000  1
  Ge  Ge34  1  0.535407  0.637821  0.250000  1
  Ge  Ge35  1  0.035407  0.862179  0.250000  1
