# generated using pymatgen
data_Dy4Y12Cd4Pt3Rh
_symmetry_space_group_name_H-M   'P 1'
_cell_length_a   9.71808314
_cell_length_b   9.71808218
_cell_length_c   9.71808314
_cell_angle_alpha   59.80024523
_cell_angle_beta   59.80025097
_cell_angle_gamma   59.80024212
_symmetry_Int_Tables_number   1
_chemical_formula_structural   Dy4Y12Cd4Pt3Rh
_chemical_formula_sum   'Dy4 Y12 Cd4 Pt3 Rh1'
_cell_volume   646.03042094
_cell_formula_units_Z   1
loop_
 _symmetry_equiv_pos_site_id
 _symmetry_equiv_pos_as_xyz
  1  'x, y, z'
loop_
 _atom_site_type_symbol
 _atom_site_label
 _atom_site_symmetry_multiplicity
 _atom_site_fract_x
 _atom_site_fract_y
 _atom_site_fract_z
 _atom_site_occupancy
  Dy  Dy0  1  0.350710  0.350710  0.350710  1
  Dy  Dy1  1  0.351844  0.351844  0.944625  1
  Dy  Dy2  1  0.351844  0.944625  0.351844  1
  Dy  Dy3  1  0.944625  0.351844  0.351844  1
  Y  Y4  1  0.813227  0.189873  0.189873  1
  Y  Y5  1  0.188713  0.810533  0.810533  1
  Y  Y6  1  0.189873  0.813227  0.189873  1
  Y  Y7  1  0.810533  0.188713  0.810533  1
  Y  Y8  1  0.189873  0.189873  0.813227  1
  Y  Y9  1  0.810533  0.810533  0.188713  1
  Y  Y10  1  0.936240  0.564723  0.564723  1
  Y  Y11  1  0.562475  0.936546  0.936546  1
  Y  Y12  1  0.564723  0.936240  0.564723  1
  Y  Y13  1  0.936546  0.562475  0.936546  1
  Y  Y14  1  0.564723  0.564723  0.936240  1
  Y  Y15  1  0.936546  0.936546  0.562475  1
  Cd  Cd16  1  0.581121  0.581121  0.581121  1
  Cd  Cd17  1  0.581062  0.581062  0.254203  1
  Cd  Cd18  1  0.581062  0.254203  0.581062  1
  Cd  Cd19  1  0.254203  0.581062  0.581062  1
  Pt  Pt20  1  0.142859  0.142859  0.569391  1
  Pt  Pt21  1  0.142859  0.569391  0.142859  1
  Pt  Pt22  1  0.569391  0.142859  0.142859  1
  Rh  Rh23  1  0.144415  0.144415  0.144415  1
