# generated using pymatgen
data_Sb2AuI2F11
_symmetry_space_group_name_H-M   'P 1'
_cell_length_a   8.23794007
_cell_length_b   9.47810140
_cell_length_c   18.27272900
_cell_angle_alpha   91.90595682
_cell_angle_beta   95.17931581
_cell_angle_gamma   96.09550454
_symmetry_Int_Tables_number   1
_chemical_formula_structural   Sb2AuI2F11
_chemical_formula_sum   'Sb8 Au4 I8 F44'
_cell_volume   1411.55356085
_cell_formula_units_Z   4
loop_
 _symmetry_equiv_pos_site_id
 _symmetry_equiv_pos_as_xyz
  1  'x, y, z'
loop_
 _atom_site_type_symbol
 _atom_site_label
 _atom_site_symmetry_multiplicity
 _atom_site_fract_x
 _atom_site_fract_y
 _atom_site_fract_z
 _atom_site_occupancy
  Sb  Sb0  1  0.324086  0.750178  0.399727  1
  Sb  Sb1  1  0.218033  0.362976  0.911596  1
  Sb  Sb2  1  0.675914  0.249822  0.600273  1
  Sb  Sb3  1  0.781967  0.637024  0.088404  1
  Sb  Sb4  1  0.415053  0.864051  0.127538  1
  Sb  Sb5  1  0.860835  0.539517  0.360392  1
  Sb  Sb6  1  0.584947  0.135949  0.872462  1
  Sb  Sb7  1  0.139165  0.460483  0.639608  1
  Au  Au8  1  0.762349  0.743129  0.721832  1
  Au  Au9  1  0.061186  0.903130  0.756423  1
  Au  Au10  1  0.237651  0.256871  0.278168  1
  Au  Au11  1  0.938814  0.096870  0.243577  1
  I  I12  1  0.937929  0.167758  0.109197  1
  I  I13  1  0.920717  0.040470  0.379403  1
  I  I14  1  0.079283  0.959530  0.620597  1
  I  I15  1  0.754746  0.670156  0.855509  1
  I  I16  1  0.767241  0.800759  0.585905  1
  I  I17  1  0.232759  0.199241  0.414095  1
  I  I18  1  0.062071  0.832242  0.890803  1
  I  I19  1  0.245254  0.329844  0.144491  1
  F  F20  1  0.963815  0.529640  0.094946  1
  F  F21  1  0.438409  0.118635  0.785163  1
  F  F22  1  0.870877  0.772572  0.163739  1
  F  F23  1  0.843573  0.704046  0.305535  1
  F  F24  1  0.785605  0.639356  0.440587  1
  F  F25  1  0.256747  0.967803  0.168238  1
  F  F26  1  0.030312  0.544593  0.715261  1
  F  F27  1  0.653467  0.442343  0.325827  1
  F  F28  1  0.470246  0.135323  0.598352  1
  F  F29  1  0.323651  0.682763  0.153943  1
  F  F30  1  0.339589  0.475637  0.846768  1
  F  F31  1  0.241903  0.873619  0.469541  1
  F  F32  1  0.368298  0.607615  0.331384  1
  F  F33  1  0.156427  0.295954  0.694465  1
  F  F34  1  0.529754  0.864677  0.401648  1
  F  F35  1  0.464002  0.969968  0.905211  1
  F  F36  1  0.226751  0.852289  0.322599  1
  F  F37  1  0.631702  0.392385  0.668616  1
  F  F38  1  0.676349  0.317237  0.846057  1
  F  F39  1  0.127395  0.234804  0.980208  1
  F  F40  1  0.416158  0.244857  0.923280  1
  F  F41  1  0.872605  0.765196  0.019792  1
  F  F42  1  0.600046  0.357591  0.520607  1
  F  F43  1  0.709699  0.160754  0.966082  1
  F  F44  1  0.914747  0.392049  0.423314  1
  F  F45  1  0.129123  0.227428  0.836261  1
  F  F46  1  0.758097  0.126381  0.530459  1
  F  F47  1  0.036185  0.470360  0.905054  1
  F  F48  1  0.095806  0.634256  0.400976  1
  F  F49  1  0.085253  0.607951  0.576686  1
  F  F50  1  0.583842  0.755143  0.076720  1
  F  F51  1  0.290301  0.839246  0.033918  1
  F  F52  1  0.561591  0.881365  0.214837  1
  F  F53  1  0.535998  0.030032  0.094789  1
  F  F54  1  0.214395  0.360644  0.559413  1
  F  F55  1  0.399954  0.642409  0.479393  1
  F  F56  1  0.324919  0.475077  0.993789  1
  F  F57  1  0.743253  0.032197  0.831762  1
  F  F58  1  0.660411  0.524363  0.153232  1
  F  F59  1  0.346533  0.557657  0.674173  1
  F  F60  1  0.675081  0.524923  0.006211  1
  F  F61  1  0.969688  0.455407  0.284739  1
  F  F62  1  0.773249  0.147711  0.677401  1
  F  F63  1  0.904194  0.365744  0.599024  1
