# generated using pymatgen
data_Dy3In3Te2WO18
_symmetry_space_group_name_H-M   'P 1'
_cell_length_a   9.07730400
_cell_length_b   9.07730462
_cell_length_c   5.10491800
_cell_angle_alpha   90.00000000
_cell_angle_beta   90.00000000
_cell_angle_gamma   120.00000503
_symmetry_Int_Tables_number   1
_chemical_formula_structural   Dy3In3Te2WO18
_chemical_formula_sum   'Dy3 In3 Te2 W1 O18'
_cell_volume   364.27819022
_cell_formula_units_Z   1
loop_
 _symmetry_equiv_pos_site_id
 _symmetry_equiv_pos_as_xyz
  1  'x, y, z'
loop_
 _atom_site_type_symbol
 _atom_site_label
 _atom_site_symmetry_multiplicity
 _atom_site_fract_x
 _atom_site_fract_y
 _atom_site_fract_z
 _atom_site_occupancy
  Dy  Dy0  1  0.624822  0.000000  0.000000  1
  Dy  Dy1  1  0.000000  0.624822  0.000000  1
  Dy  Dy2  1  0.375178  0.375178  0.000000  1
  In  In3  1  0.290871  0.000000  0.500000  1
  In  In4  1  0.000000  0.290871  0.500000  1
  In  In5  1  0.709129  0.709129  0.500000  1
  Te  Te6  1  0.333333  0.666667  0.502662  1
  Te  Te7  1  0.666667  0.333333  0.497338  1
  W  W8  1  0.000000  0.000000  0.000000  1
  O  O9  1  0.088979  0.884386  0.784751  1
  O  O10  1  0.115614  0.204594  0.784751  1
  O  O11  1  0.795406  0.911021  0.784751  1
  O  O12  1  0.204594  0.115614  0.215249  1
  O  O13  1  0.911021  0.795406  0.215249  1
  O  O14  1  0.884386  0.088979  0.215249  1
  O  O15  1  0.460184  0.592092  0.719545  1
  O  O16  1  0.407908  0.868091  0.719545  1
  O  O17  1  0.131909  0.539816  0.719545  1
  O  O18  1  0.868091  0.407908  0.280455  1
  O  O19  1  0.539816  0.131909  0.280455  1
  O  O20  1  0.592092  0.460184  0.280455  1
  O  O21  1  0.226222  0.764935  0.284688  1
  O  O22  1  0.235065  0.461286  0.284688  1
  O  O23  1  0.538714  0.773778  0.284688  1
  O  O24  1  0.461286  0.235065  0.715312  1
  O  O25  1  0.773778  0.538714  0.715312  1
  O  O26  1  0.764935  0.226222  0.715312  1
