# generated using pymatgen
data_Na4TaV7O20
_symmetry_space_group_name_H-M   'P 1'
_cell_length_a   5.66330504
_cell_length_b   7.75221610
_cell_length_c   10.32350300
_cell_angle_alpha   75.17448661
_cell_angle_beta   91.48225842
_cell_angle_gamma   72.44014947
_symmetry_Int_Tables_number   1
_chemical_formula_structural   Na4TaV7O20
_chemical_formula_sum   'Na4 Ta1 V7 O20'
_cell_volume   415.10940343
_cell_formula_units_Z   1
loop_
 _symmetry_equiv_pos_site_id
 _symmetry_equiv_pos_as_xyz
  1  'x, y, z'
loop_
 _atom_site_type_symbol
 _atom_site_label
 _atom_site_symmetry_multiplicity
 _atom_site_fract_x
 _atom_site_fract_y
 _atom_site_fract_z
 _atom_site_occupancy
  Na  Na0  1  0.144482  0.532406  0.212818  1
  Na  Na1  1  0.632069  0.052511  0.725698  1
  Na  Na2  1  0.867928  0.447458  0.774301  1
  Na  Na3  1  0.355518  0.967633  0.287206  1
  Ta  Ta4  1  0.249973  0.749989  0.750001  1
  V  V5  1  0.495009  0.500125  0.493308  1
  V  V6  1  0.005001  0.999871  0.006706  1
  V  V7  1  0.750028  0.250015  0.250009  1
  V  V8  1  0.605602  0.714608  0.037826  1
  V  V9  1  0.097836  0.221938  0.534043  1
  V  V10  1  0.402185  0.278028  0.965958  1
  V  V11  1  0.894369  0.785398  0.462168  1
  O  O12  1  0.532334  0.406929  0.352904  1
  O  O13  1  0.033335  0.904142  0.850272  1
  O  O14  1  0.466655  0.595841  0.649727  1
  O  O15  1  0.967713  0.093075  0.147104  1
  O  O16  1  0.793386  0.836304  0.077191  1
  O  O17  1  0.281904  0.344769  0.577661  1
  O  O18  1  0.218173  0.155143  0.922357  1
  O  O19  1  0.706526  0.663776  0.422795  1
  O  O20  1  0.765503  0.480276  0.113537  1
  O  O21  1  0.265563  0.981663  0.614218  1
  O  O22  1  0.234410  0.518296  0.885766  1
  O  O23  1  0.734508  0.019794  0.386446  1
  O  O24  1  0.553386  0.749539  0.860518  1
  O  O25  1  0.059319  0.252247  0.362552  1
  O  O26  1  0.440723  0.247772  0.137441  1
  O  O27  1  0.946575  0.750474  0.639466  1
  O  O28  1  0.318818  0.783607  0.098933  1
  O  O29  1  0.811770  0.290286  0.596642  1
  O  O30  1  0.688262  0.209722  0.903363  1
  O  O31  1  0.181137  0.716370  0.401066  1
