# generated using pymatgen
data_CaEu15(InRh)4
_symmetry_space_group_name_H-M   'P 1'
_cell_length_a   10.15574757
_cell_length_b   10.19613368
_cell_length_c   10.19613500
_cell_angle_alpha   59.99999898
_cell_angle_beta   59.86836418
_cell_angle_gamma   59.86836107
_symmetry_Int_Tables_number   1
_chemical_formula_structural   CaEu15(InRh)4
_chemical_formula_sum   'Ca1 Eu15 In4 Rh4'
_cell_volume   745.07674352
_cell_formula_units_Z   1
loop_
 _symmetry_equiv_pos_site_id
 _symmetry_equiv_pos_as_xyz
  1  'x, y, z'
loop_
 _atom_site_type_symbol
 _atom_site_label
 _atom_site_symmetry_multiplicity
 _atom_site_fract_x
 _atom_site_fract_y
 _atom_site_fract_z
 _atom_site_occupancy
  Ca  Ca0  1  0.541266  0.152911  0.152911  1
  Eu  Eu1  1  0.694274  0.305946  0.305946  1
  Eu  Eu2  1  0.694274  0.693834  0.305946  1
  Eu  Eu3  1  0.306072  0.693009  0.307908  1
  Eu  Eu4  1  0.941690  0.944354  0.556978  1
  Eu  Eu5  1  0.155486  0.154431  0.535651  1
  Eu  Eu6  1  0.553470  0.945546  0.555439  1
  Eu  Eu7  1  0.155486  0.154431  0.154431  1
  Eu  Eu8  1  0.306072  0.307908  0.693009  1
  Eu  Eu9  1  0.941690  0.556978  0.556978  1
  Eu  Eu10  1  0.553470  0.555439  0.945546  1
  Eu  Eu11  1  0.553470  0.945546  0.945546  1
  Eu  Eu12  1  0.941690  0.556978  0.944354  1
  Eu  Eu13  1  0.155486  0.535651  0.154431  1
  Eu  Eu14  1  0.306072  0.693009  0.693009  1
  Eu  Eu15  1  0.694274  0.305946  0.693834  1
  In  In16  1  0.920195  0.920811  0.238183  1
  In  In17  1  0.237333  0.920889  0.920889  1
  In  In18  1  0.920195  0.238183  0.920811  1
  In  In19  1  0.920195  0.920811  0.920811  1
  Rh  Rh20  1  0.364274  0.361284  0.361284  1
  Rh  Rh21  1  0.915017  0.361661  0.361661  1
  Rh  Rh22  1  0.364274  0.361284  0.913160  1
  Rh  Rh23  1  0.364274  0.913160  0.361284  1
