# generated using pymatgen
data_Ca11Er(SiIr)8
_symmetry_space_group_name_H-M   'P 1'
_cell_length_a   5.82258800
_cell_length_b   7.65550199
_cell_length_c   13.37088500
_cell_angle_alpha   90.00000000
_cell_angle_beta   90.00000000
_cell_angle_gamma   90.05060110
_symmetry_Int_Tables_number   1
_chemical_formula_structural   Ca11Er(SiIr)8
_chemical_formula_sum   'Ca11 Er1 Si8 Ir8'
_cell_volume   596.00474681
_cell_formula_units_Z   1
loop_
 _symmetry_equiv_pos_site_id
 _symmetry_equiv_pos_as_xyz
  1  'x, y, z'
loop_
 _atom_site_type_symbol
 _atom_site_label
 _atom_site_symmetry_multiplicity
 _atom_site_fract_x
 _atom_site_fract_y
 _atom_site_fract_z
 _atom_site_occupancy
  Ca  Ca0  1  0.131840  0.609716  0.100773  1
  Ca  Ca1  1  0.131603  0.893084  0.900011  1
  Ca  Ca2  1  0.869031  0.109299  0.398355  1
  Ca  Ca3  1  0.870851  0.386723  0.600775  1
  Ca  Ca4  1  0.870851  0.386723  0.899225  1
  Ca  Ca5  1  0.869031  0.109299  0.101645  1
  Ca  Ca6  1  0.131603  0.893084  0.599989  1
  Ca  Ca7  1  0.131840  0.609716  0.399227  1
  Ca  Ca8  1  0.367458  0.274088  0.250000  1
  Ca  Ca9  1  0.368266  0.231746  0.750000  1
  Ca  Ca10  1  0.633005  0.773646  0.250000  1
  Er  Er11  1  0.621810  0.727079  0.750000  1
  Si  Si12  1  0.838150  0.425273  0.250000  1
  Si  Si13  1  0.836880  0.072893  0.750000  1
  Si  Si14  1  0.163164  0.924292  0.250000  1
  Si  Si15  1  0.150052  0.584971  0.750000  1
  Si  Si16  1  0.420613  0.249204  0.998127  1
  Si  Si17  1  0.580250  0.748778  0.499879  1
  Si  Si18  1  0.580250  0.748778  0.000121  1
  Si  Si19  1  0.420613  0.249204  0.501873  1
  Ir  Ir20  1  0.637897  0.475046  0.089972  1
  Ir  Ir21  1  0.637957  0.018082  0.907262  1
  Ir  Ir22  1  0.364344  0.976081  0.408828  1
  Ir  Ir23  1  0.366221  0.526995  0.593877  1
  Ir  Ir24  1  0.366221  0.526995  0.906123  1
  Ir  Ir25  1  0.364344  0.976081  0.091172  1
  Ir  Ir26  1  0.637957  0.018082  0.592738  1
  Ir  Ir27  1  0.637897  0.475046  0.410028  1
