# generated using pymatgen
data_Ca20Zn7Cd5
_symmetry_space_group_name_H-M   'P 1'
_cell_length_a   8.06738340
_cell_length_b   8.06743240
_cell_length_c   15.15821101
_cell_angle_alpha   89.99774768
_cell_angle_beta   90.00322505
_cell_angle_gamma   90.27000906
_symmetry_Int_Tables_number   1
_chemical_formula_structural   Ca20Zn7Cd5
_chemical_formula_sum   'Ca20 Zn7 Cd5'
_cell_volume   986.53195406
_cell_formula_units_Z   1
loop_
 _symmetry_equiv_pos_site_id
 _symmetry_equiv_pos_as_xyz
  1  'x, y, z'
loop_
 _atom_site_type_symbol
 _atom_site_label
 _atom_site_symmetry_multiplicity
 _atom_site_fract_x
 _atom_site_fract_y
 _atom_site_fract_z
 _atom_site_occupancy
  Ca  Ca0  1  0.667893  0.169985  0.102303  1
  Ca  Ca1  1  0.167260  0.666017  0.606008  1
  Ca  Ca2  1  0.329015  0.833221  0.102376  1
  Ca  Ca3  1  0.833072  0.333604  0.606002  1
  Ca  Ca4  1  0.837580  0.663454  0.102428  1
  Ca  Ca5  1  0.333364  0.167539  0.605473  1
  Ca  Ca6  1  0.165800  0.333056  0.103878  1
  Ca  Ca7  1  0.666212  0.832905  0.605438  1
  Ca  Ca8  1  0.834377  0.332916  0.894742  1
  Ca  Ca9  1  0.329646  0.831935  0.396896  1
  Ca  Ca10  1  0.166023  0.666738  0.894748  1
  Ca  Ca11  1  0.667181  0.171192  0.396821  1
  Ca  Ca12  1  0.666917  0.834160  0.895385  1
  Ca  Ca13  1  0.167121  0.333821  0.395302  1
  Ca  Ca14  1  0.332636  0.166294  0.895306  1
  Ca  Ca15  1  0.836414  0.662761  0.396817  1
  Ca  Ca16  1  0.499927  0.500003  0.751918  1
  Ca  Ca17  1  0.004277  0.001543  0.250155  1
  Ca  Ca18  1  0.000000  0.000074  0.749862  1
  Ca  Ca19  1  0.498455  0.495722  0.248020  1
  Zn  Zn20  1  0.620989  0.121147  0.750560  1
  Zn  Zn21  1  0.121166  0.621294  0.249443  1
  Zn  Zn22  1  0.878600  0.378967  0.249432  1
  Zn  Zn23  1  0.378960  0.878898  0.750554  1
  Zn  Zn24  1  0.878706  0.621178  0.750550  1
  Zn  Zn25  1  0.373748  0.126309  0.249384  1
  Zn  Zn26  1  0.121290  0.378823  0.750545  1
  Cd  Cd27  1  0.499779  0.500357  0.500319  1
  Cd  Cd28  1  0.499755  0.500364  0.999676  1
  Cd  Cd29  1  0.999660  0.000243  0.500375  1
  Cd  Cd30  1  0.624574  0.875227  0.249562  1
  Cd  Cd31  1  0.999602  0.000253  0.999722  1
