# generated using pymatgen
data_Tm2(PaAl5)3
_symmetry_space_group_name_H-M   'P 1'
_cell_length_a   12.59365097
_cell_length_b   12.59364885
_cell_length_c   12.59364267
_cell_angle_alpha   28.05329497
_cell_angle_beta   28.05325550
_cell_angle_gamma   28.05326318
_symmetry_Int_Tables_number   1
_chemical_formula_structural   Tm2(PaAl5)3
_chemical_formula_sum   'Tm2 Pa3 Al15'
_cell_volume   390.21333438
_cell_formula_units_Z   1
loop_
 _symmetry_equiv_pos_site_id
 _symmetry_equiv_pos_as_xyz
  1  'x, y, z'
loop_
 _atom_site_type_symbol
 _atom_site_label
 _atom_site_symmetry_multiplicity
 _atom_site_fract_x
 _atom_site_fract_y
 _atom_site_fract_z
 _atom_site_occupancy
  Tm  Tm0  1  0.000315  0.000315  0.000316  1
  Tm  Tm1  1  0.400576  0.400576  0.400576  1
  Pa  Pa2  1  0.869350  0.869350  0.869349  1
  Pa  Pa3  1  0.130705  0.130705  0.130705  1
  Pa  Pa4  1  0.598953  0.598953  0.598955  1
  Al  Al5  1  0.502330  0.502330  0.997261  1
  Al  Al6  1  0.997260  0.502330  0.502329  1
  Al  Al7  1  0.502330  0.997261  0.502329  1
  Al  Al8  1  0.364265  0.867916  0.364264  1
  Al  Al9  1  0.364265  0.364264  0.867915  1
  Al  Al10  1  0.867916  0.364265  0.364265  1
  Al  Al11  1  0.635699  0.127429  0.635699  1
  Al  Al12  1  0.635699  0.635699  0.127429  1
  Al  Al13  1  0.127429  0.635699  0.635699  1
  Al  Al14  1  0.116480  0.571858  0.116481  1
  Al  Al15  1  0.116481  0.116481  0.571858  1
  Al  Al16  1  0.571858  0.116480  0.116481  1
  Al  Al17  1  0.883869  0.430353  0.883869  1
  Al  Al18  1  0.883869  0.883869  0.430352  1
  Al  Al19  1  0.430353  0.883869  0.883869  1
