# generated using pymatgen
data_LiMgTa3CrN6
_symmetry_space_group_name_H-M   'P 1'
_cell_length_a   5.12669209
_cell_length_b   5.12669053
_cell_length_c   10.33567100
_cell_angle_alpha   90.00000000
_cell_angle_beta   90.00000000
_cell_angle_gamma   119.83857043
_symmetry_Int_Tables_number   1
_chemical_formula_structural   LiMgTa3CrN6
_chemical_formula_sum   'Li2 Mg2 Ta6 Cr2 N12'
_cell_volume   235.63934323
_cell_formula_units_Z   2
loop_
 _symmetry_equiv_pos_site_id
 _symmetry_equiv_pos_as_xyz
  1  'x, y, z'
loop_
 _atom_site_type_symbol
 _atom_site_label
 _atom_site_symmetry_multiplicity
 _atom_site_fract_x
 _atom_site_fract_y
 _atom_site_fract_z
 _atom_site_occupancy
  Li  Li0  1  0.333101  0.666899  0.000000  1
  Li  Li1  1  0.333101  0.666899  0.500000  1
  Mg  Mg2  1  0.668051  0.331949  0.500000  1
  Mg  Mg3  1  0.668051  0.331949  0.000000  1
  Ta  Ta4  1  0.340534  0.342118  0.750000  1
  Ta  Ta5  1  0.998650  0.001350  0.500000  1
  Ta  Ta6  1  0.998650  0.001350  0.000000  1
  Ta  Ta7  1  0.657882  0.659466  0.250000  1
  Ta  Ta8  1  0.336052  0.994809  0.250000  1
  Ta  Ta9  1  0.005191  0.663948  0.750000  1
  Cr  Cr10  1  0.002228  0.338116  0.250000  1
  Cr  Cr11  1  0.661884  0.997772  0.750000  1
  N  N12  1  0.673667  0.674754  0.624266  1
  N  N13  1  0.673667  0.674754  0.875734  1
  N  N14  1  0.325246  0.326333  0.124266  1
  N  N15  1  0.325246  0.326333  0.375734  1
  N  N16  1  0.330771  0.002646  0.875919  1
  N  N17  1  0.330771  0.002646  0.624081  1
  N  N18  1  0.997354  0.669229  0.375919  1
  N  N19  1  0.997354  0.669229  0.124081  1
  N  N20  1  0.676236  0.004960  0.124380  1
  N  N21  1  0.676236  0.004960  0.375620  1
  N  N22  1  0.995040  0.323764  0.875620  1
  N  N23  1  0.995040  0.323764  0.624380  1
