# generated using pymatgen
data_Zr10Sn4Ge2BiSb
_symmetry_space_group_name_H-M   'P 1'
_cell_length_a   8.74693401
_cell_length_b   8.74132074
_cell_length_c   5.93100900
_cell_angle_alpha   90.00000000
_cell_angle_beta   90.00000000
_cell_angle_gamma   119.99820603
_symmetry_Int_Tables_number   1
_chemical_formula_structural   Zr10Sn4Ge2BiSb
_chemical_formula_sum   'Zr10 Sn4 Ge2 Bi1 Sb1'
_cell_volume   392.73532962
_cell_formula_units_Z   1
loop_
 _symmetry_equiv_pos_site_id
 _symmetry_equiv_pos_as_xyz
  1  'x, y, z'
loop_
 _atom_site_type_symbol
 _atom_site_label
 _atom_site_symmetry_multiplicity
 _atom_site_fract_x
 _atom_site_fract_y
 _atom_site_fract_z
 _atom_site_occupancy
  Zr  Zr0  1  0.669844  0.335949  0.997938  1
  Zr  Zr1  1  0.331709  0.663556  0.997988  1
  Zr  Zr2  1  0.331709  0.663556  0.502012  1
  Zr  Zr3  1  0.669844  0.335949  0.502062  1
  Zr  Zr4  1  0.735890  0.735605  0.750000  1
  Zr  Zr5  1  0.263455  0.000281  0.750000  1
  Zr  Zr6  1  0.000575  0.264998  0.750000  1
  Zr  Zr7  1  0.258939  0.264483  0.250000  1
  Zr  Zr8  1  0.741634  0.000264  0.250000  1
  Zr  Zr9  1  0.994607  0.734546  0.250000  1
  Sn  Sn10  1  0.393856  0.392393  0.750000  1
  Sn  Sn11  1  0.608247  0.999275  0.750000  1
  Sn  Sn12  1  0.000774  0.609526  0.750000  1
  Sn  Sn13  1  0.604455  0.605023  0.250000  1
  Ge  Ge14  1  0.000303  0.999459  0.997594  1
  Ge  Ge15  1  0.000303  0.999459  0.502406  1
  Bi  Bi16  1  0.394324  0.000033  0.250000  1
  Sb  Sb17  1  0.999533  0.395645  0.250000  1
