# generated using pymatgen
data_Ho4In2Hg3Rh
_symmetry_space_group_name_H-M   'P 1'
_cell_length_a   8.12701905
_cell_length_b   8.12701912
_cell_length_c   3.72605300
_cell_angle_alpha   90.00000000
_cell_angle_beta   90.00000000
_cell_angle_gamma   89.34647881
_symmetry_Int_Tables_number   1
_chemical_formula_structural   Ho4In2Hg3Rh
_chemical_formula_sum   'Ho4 In2 Hg3 Rh1'
_cell_volume   246.08397654
_cell_formula_units_Z   1
loop_
 _symmetry_equiv_pos_site_id
 _symmetry_equiv_pos_as_xyz
  1  'x, y, z'
loop_
 _atom_site_type_symbol
 _atom_site_label
 _atom_site_symmetry_multiplicity
 _atom_site_fract_x
 _atom_site_fract_y
 _atom_site_fract_z
 _atom_site_occupancy
  Ho  Ho0  1  0.137323  0.317982  0.500000  1
  Ho  Ho1  1  0.694719  0.194719  0.500000  1
  Ho  Ho2  1  0.817982  0.637323  0.500000  1
  Ho  Ho3  1  0.331693  0.831693  0.500000  1
  In  In4  1  0.997440  0.004209  0.000000  1
  In  In5  1  0.504209  0.497440  0.000000  1
  Hg  Hg6  1  0.126076  0.626076  0.000000  1
  Hg  Hg7  1  0.637753  0.878767  0.000000  1
  Hg  Hg8  1  0.378767  0.137753  0.000000  1
  Rh  Rh9  1  0.874038  0.374038  0.000000  1
