# generated using pymatgen
data_DyLu2Mg3Ga2Ag
_symmetry_space_group_name_H-M   'P 1'
_cell_length_a   7.33822745
_cell_length_b   7.33822706
_cell_length_c   4.31219600
_cell_angle_alpha   90.00000000
_cell_angle_beta   90.00000000
_cell_angle_gamma   120.16328715
_symmetry_Int_Tables_number   1
_chemical_formula_structural   DyLu2Mg3Ga2Ag
_chemical_formula_sum   'Dy1 Lu2 Mg3 Ga2 Ag1'
_cell_volume   200.76800357
_cell_formula_units_Z   1
loop_
 _symmetry_equiv_pos_site_id
 _symmetry_equiv_pos_as_xyz
  1  'x, y, z'
loop_
 _atom_site_type_symbol
 _atom_site_label
 _atom_site_symmetry_multiplicity
 _atom_site_fract_x
 _atom_site_fract_y
 _atom_site_fract_z
 _atom_site_occupancy
  Dy  Dy0  1  0.424281  0.424281  0.000000  1
  Lu  Lu1  1  0.577059  0.000187  0.000000  1
  Lu  Lu2  1  0.000187  0.577059  0.000000  1
  Mg  Mg3  1  0.247468  0.999478  0.500000  1
  Mg  Mg4  1  0.999478  0.247468  0.500000  1
  Mg  Mg5  1  0.753090  0.753090  0.500000  1
  Ga  Ga6  1  0.332536  0.667823  0.500000  1
  Ga  Ga7  1  0.667823  0.332536  0.500000  1
  Ag  Ag8  1  0.998077  0.998077  0.000000  1
