# generated using pymatgen
data_Rb12InGeAs6
_symmetry_space_group_name_H-M   'P 1'
_cell_length_a   13.38502802
_cell_length_b   5.58166100
_cell_length_c   13.32208825
_cell_angle_alpha   90.00000000
_cell_angle_beta   119.33075325
_cell_angle_gamma   90.00000000
_symmetry_Int_Tables_number   1
_chemical_formula_structural   Rb12InGeAs6
_chemical_formula_sum   'Rb12 In1 Ge1 As6'
_cell_volume   867.71106674
_cell_formula_units_Z   1
loop_
 _symmetry_equiv_pos_site_id
 _symmetry_equiv_pos_as_xyz
  1  'x, y, z'
loop_
 _atom_site_type_symbol
 _atom_site_label
 _atom_site_symmetry_multiplicity
 _atom_site_fract_x
 _atom_site_fract_y
 _atom_site_fract_z
 _atom_site_occupancy
  Rb  Rb0  1  0.390827  0.250000  0.014500  1
  Rb  Rb1  1  0.966153  0.750001  0.223074  1
  Rb  Rb2  1  0.121299  0.250000  0.110010  1
  Rb  Rb3  1  0.719031  0.250000  0.252632  1
  Rb  Rb4  1  0.483908  0.250000  0.380193  1
  Rb  Rb5  1  0.759057  0.750001  0.529287  1
  Rb  Rb6  1  0.241434  0.250000  0.471976  1
  Rb  Rb7  1  0.515949  0.750001  0.621379  1
  Rb  Rb8  1  0.281525  0.750001  0.746699  1
  Rb  Rb9  1  0.877036  0.750001  0.887998  1
  Rb  Rb10  1  0.033351  0.250000  0.777030  1
  Rb  Rb11  1  0.610878  0.750001  0.985857  1
  In  In12  1  0.331119  0.750001  0.168820  1
  Ge  Ge13  1  0.668438  0.250000  0.831166  1
  As  As14  1  0.174788  0.750001  0.945069  1
  As  As15  1  0.553487  0.750001  0.231018  1
  As  As16  1  0.266875  0.750001  0.329187  1
  As  As17  1  0.725821  0.250000  0.684123  1
  As  As18  1  0.466290  0.250000  0.776029  1
  As  As19  1  0.812736  0.250000  0.033954  1
