# generated using pymatgen
data_La5Pr5Si6
_symmetry_space_group_name_H-M   'P 1'
_cell_length_a   7.93050171
_cell_length_b   7.93050135
_cell_length_c   8.94748239
_cell_angle_alpha   63.69470476
_cell_angle_beta   63.69470267
_cell_angle_gamma   89.98672933
_symmetry_Int_Tables_number   1
_chemical_formula_structural   La5Pr5Si6
_chemical_formula_sum   'La5 Pr5 Si6'
_cell_volume   438.54171179
_cell_formula_units_Z   1
loop_
 _symmetry_equiv_pos_site_id
 _symmetry_equiv_pos_as_xyz
  1  'x, y, z'
loop_
 _atom_site_type_symbol
 _atom_site_label
 _atom_site_symmetry_multiplicity
 _atom_site_fract_x
 _atom_site_fract_y
 _atom_site_fract_z
 _atom_site_occupancy
  La  La0  1  0.489727  0.486665  0.022147  1
  La  La1  1  0.986665  0.989727  0.022147  1
  La  La2  1  0.676222  0.536232  0.288905  1
  La  La3  1  0.036232  0.176222  0.288905  1
  La  La4  1  0.534139  0.034139  0.290173  1
  Pr  Pr5  1  0.176893  0.676893  0.290338  1
  Pr  Pr6  1  0.327237  0.466058  0.706642  1
  Pr  Pr7  1  0.966058  0.827237  0.706642  1
  Pr  Pr8  1  0.466452  0.966452  0.705848  1
  Pr  Pr9  1  0.825277  0.325277  0.708489  1
  Si  Si10  1  0.614444  0.889646  0.992328  1
  Si  Si11  1  0.389646  0.114444  0.992328  1
  Si  Si12  1  0.893349  0.393349  0.990579  1
  Si  Si13  1  0.118637  0.618637  0.991896  1
  Si  Si14  1  0.248363  0.250659  0.501316  1
  Si  Si15  1  0.750659  0.748363  0.501316  1
