# generated using pymatgen
data_YHoReB6
_symmetry_space_group_name_H-M   'P 1'
_cell_length_a   3.67843300
_cell_length_b   9.17007000
_cell_length_c   11.55761800
_cell_angle_alpha   90.00000000
_cell_angle_beta   90.00000000
_cell_angle_gamma   90.00000000
_symmetry_Int_Tables_number   1
_chemical_formula_structural   YHoReB6
_chemical_formula_sum   'Y4 Ho4 Re4 B24'
_cell_volume   389.85565403
_cell_formula_units_Z   4
loop_
 _symmetry_equiv_pos_site_id
 _symmetry_equiv_pos_as_xyz
  1  'x, y, z'
loop_
 _atom_site_type_symbol
 _atom_site_label
 _atom_site_symmetry_multiplicity
 _atom_site_fract_x
 _atom_site_fract_y
 _atom_site_fract_z
 _atom_site_occupancy
  Y  Y0  1  0.000000  0.323483  0.413963  1
  Y  Y1  1  0.000000  0.676517  0.586037  1
  Y  Y2  1  0.000000  0.823483  0.086037  1
  Y  Y3  1  0.000000  0.176517  0.913963  1
  Ho  Ho4  1  0.000000  0.943464  0.370265  1
  Ho  Ho5  1  0.000000  0.056536  0.629735  1
  Ho  Ho6  1  0.000000  0.443464  0.129735  1
  Ho  Ho7  1  0.000000  0.556536  0.870265  1
  Re  Re8  1  0.000000  0.638963  0.320539  1
  Re  Re9  1  0.000000  0.361037  0.679461  1
  Re  Re10  1  0.000000  0.138963  0.179461  1
  Re  Re11  1  0.000000  0.861037  0.820539  1
  B  B12  1  0.500000  0.553612  0.432655  1
  B  B13  1  0.500000  0.446388  0.567345  1
  B  B14  1  0.500000  0.053612  0.067345  1
  B  B15  1  0.500000  0.946388  0.932655  1
  B  B16  1  0.500000  0.749238  0.418344  1
  B  B17  1  0.500000  0.250762  0.581656  1
  B  B18  1  0.500000  0.249238  0.081656  1
  B  B19  1  0.500000  0.750762  0.918344  1
  B  B20  1  0.500000  0.792252  0.265839  1
  B  B21  1  0.500000  0.207748  0.734161  1
  B  B22  1  0.500000  0.292252  0.234161  1
  B  B23  1  0.500000  0.707748  0.765839  1
  B  B24  1  0.500000  0.630744  0.185830  1
  B  B25  1  0.500000  0.369256  0.814170  1
  B  B26  1  0.500000  0.130744  0.314170  1
  B  B27  1  0.500000  0.869256  0.685830  1
  B  B28  1  0.500000  0.982608  0.212150  1
  B  B29  1  0.500000  0.017392  0.787850  1
  B  B30  1  0.500000  0.482608  0.287850  1
  B  B31  1  0.500000  0.517392  0.712150  1
  B  B32  1  0.500000  0.599825  0.027928  1
  B  B33  1  0.500000  0.400175  0.972072  1
  B  B34  1  0.500000  0.099825  0.472072  1
  B  B35  1  0.500000  0.900175  0.527928  1
