# generated using pymatgen
data_Y11HoGaCo4Pb
_symmetry_space_group_name_H-M   'P 1'
_cell_length_a   8.37395066
_cell_length_b   8.37395129
_cell_length_c   8.38859063
_cell_angle_alpha   111.82685859
_cell_angle_beta   109.21148289
_cell_angle_gamma   107.33246858
_symmetry_Int_Tables_number   1
_chemical_formula_structural   Y11HoGaCo4Pb
_chemical_formula_sum   'Y11 Ho1 Ga1 Co4 Pb1'
_cell_volume   452.53266671
_cell_formula_units_Z   1
loop_
 _symmetry_equiv_pos_site_id
 _symmetry_equiv_pos_as_xyz
  1  'x, y, z'
loop_
 _atom_site_type_symbol
 _atom_site_label
 _atom_site_symmetry_multiplicity
 _atom_site_fract_x
 _atom_site_fract_y
 _atom_site_fract_z
 _atom_site_occupancy
  Y  Y0  1  0.968708  0.267923  0.701278  1
  Y  Y1  1  0.031085  0.731572  0.298872  1
  Y  Y2  1  0.674953  0.860394  0.185152  1
  Y  Y3  1  0.324758  0.510201  0.185152  1
  Y  Y4  1  0.325494  0.139860  0.814872  1
  Y  Y5  1  0.675012  0.489378  0.814872  1
  Y  Y6  1  0.567300  0.267788  0.298872  1
  Y  Y7  1  0.433355  0.732569  0.701278  1
  Y  Y8  1  0.179288  0.780325  0.959613  1
  Y  Y9  1  0.820674  0.780376  0.601051  1
  Y  Y10  1  0.178988  0.219830  0.398817  1
  Ho  Ho11  1  0.821323  0.219541  0.040864  1
  Ga  Ga12  1  0.999860  0.499681  0.499541  1
  Co  Co13  1  0.112059  0.113129  0.000013  1
  Co  Co14  1  0.886883  0.887953  0.000013  1
  Co  Co15  1  0.661426  0.499584  0.161010  1
  Co  Co16  1  0.338908  0.499964  0.838872  1
  Pb  Pb17  1  0.499926  0.999933  0.499859  1
