# generated using pymatgen
data_AcLa10Pr(Si7Br3)2
_symmetry_space_group_name_H-M   'P 1'
_cell_length_a   4.16002800
_cell_length_b   11.97559600
_cell_length_c   16.92983600
_cell_angle_alpha   90.00000000
_cell_angle_beta   90.00000000
_cell_angle_gamma   90.00000000
_symmetry_Int_Tables_number   1
_chemical_formula_structural   AcLa10Pr(Si7Br3)2
_chemical_formula_sum   'Ac1 La10 Pr1 Si14 Br6'
_cell_volume   843.42436219
_cell_formula_units_Z   1
loop_
 _symmetry_equiv_pos_site_id
 _symmetry_equiv_pos_as_xyz
  1  'x, y, z'
loop_
 _atom_site_type_symbol
 _atom_site_label
 _atom_site_symmetry_multiplicity
 _atom_site_fract_x
 _atom_site_fract_y
 _atom_site_fract_z
 _atom_site_occupancy
  Ac  Ac0  1  0.500000  0.337544  0.500000  1
  La  La1  1  0.000000  0.657067  0.000000  1
  La  La2  1  0.500000  0.358597  0.757270  1
  La  La3  1  0.000000  0.642843  0.745030  1
  La  La4  1  0.500000  0.358597  0.242730  1
  La  La5  1  0.000000  0.642843  0.254970  1
  La  La6  1  0.500000  0.066790  0.881191  1
  La  La7  1  0.000000  0.932349  0.619920  1
  La  La8  1  0.500000  0.066790  0.118809  1
  La  La9  1  0.000000  0.932349  0.380080  1
  La  La10  1  0.000000  0.642379  0.500000  1
  Pr  Pr11  1  0.500000  0.357579  0.000000  1
  Si  Si12  1  0.000000  0.153915  0.000000  1
  Si  Si13  1  0.500000  0.846931  0.500000  1
  Si  Si14  1  0.500000  0.563605  0.878007  1
  Si  Si15  1  0.000000  0.438426  0.625519  1
  Si  Si16  1  0.500000  0.563605  0.121993  1
  Si  Si17  1  0.000000  0.438426  0.374481  1
  Si  Si18  1  0.000000  0.255243  0.875956  1
  Si  Si19  1  0.500000  0.745465  0.624825  1
  Si  Si20  1  0.000000  0.255243  0.124044  1
  Si  Si21  1  0.500000  0.745465  0.375175  1
  Si  Si22  1  0.000000  0.457581  0.876745  1
  Si  Si23  1  0.500000  0.544089  0.625402  1
  Si  Si24  1  0.500000  0.544089  0.374598  1
  Si  Si25  1  0.000000  0.457581  0.123255  1
  Br  Br26  1  0.500000  0.108031  0.692220  1
  Br  Br27  1  0.000000  0.892848  0.807715  1
  Br  Br28  1  0.000000  0.131528  0.500000  1
  Br  Br29  1  0.500000  0.861321  0.000000  1
  Br  Br30  1  0.500000  0.108031  0.307780  1
  Br  Br31  1  0.000000  0.892848  0.192285  1
