# generated using pymatgen
data_YHo3Sn6Ir7
_symmetry_space_group_name_H-M   'P 1'
_cell_length_a   7.59887629
_cell_length_b   7.59067996
_cell_length_c   7.59887555
_cell_angle_alpha   109.44937725
_cell_angle_beta   109.49305715
_cell_angle_gamma   109.44937752
_symmetry_Int_Tables_number   1
_chemical_formula_structural   YHo3Sn6Ir7
_chemical_formula_sum   'Y1 Ho3 Sn6 Ir7'
_cell_volume   337.50055308
_cell_formula_units_Z   1
loop_
 _symmetry_equiv_pos_site_id
 _symmetry_equiv_pos_as_xyz
  1  'x, y, z'
loop_
 _atom_site_type_symbol
 _atom_site_label
 _atom_site_symmetry_multiplicity
 _atom_site_fract_x
 _atom_site_fract_y
 _atom_site_fract_z
 _atom_site_occupancy
  Y  Y0  1  0.000000  0.500000  0.000000  1
  Ho  Ho1  1  0.000000  0.000000  0.500000  1
  Ho  Ho2  1  0.500000  0.000000  0.000000  1
  Ho  Ho3  1  0.500000  0.500000  0.500000  1
  Sn  Sn4  1  0.686088  0.686318  0.000000  1
  Sn  Sn5  1  0.313912  0.000230  0.313912  1
  Sn  Sn6  1  0.000000  0.313682  0.313912  1
  Sn  Sn7  1  0.313912  0.313682  0.000000  1
  Sn  Sn8  1  0.686088  0.999770  0.686088  1
  Sn  Sn9  1  0.000000  0.686318  0.686088  1
  Ir  Ir10  1  0.749842  0.249842  0.499683  1
  Ir  Ir11  1  0.749842  0.500000  0.250158  1
  Ir  Ir12  1  0.499683  0.249842  0.749842  1
  Ir  Ir13  1  0.250158  0.500000  0.749842  1
  Ir  Ir14  1  0.250158  0.750158  0.500317  1
  Ir  Ir15  1  0.500317  0.750158  0.250158  1
  Ir  Ir16  1  0.000000  0.000000  0.000000  1
