# generated using pymatgen
data_TbDy2Al3Zn2Au
_symmetry_space_group_name_H-M   'P 1'
_cell_length_a   7.04342744
_cell_length_b   7.04342670
_cell_length_c   4.31861000
_cell_angle_alpha   90.00000000
_cell_angle_beta   90.00000000
_cell_angle_gamma   120.13662239
_symmetry_Int_Tables_number   1
_chemical_formula_structural   TbDy2Al3Zn2Au
_chemical_formula_sum   'Tb1 Dy2 Al3 Zn2 Au1'
_cell_volume   185.28622017
_cell_formula_units_Z   1
loop_
 _symmetry_equiv_pos_site_id
 _symmetry_equiv_pos_as_xyz
  1  'x, y, z'
loop_
 _atom_site_type_symbol
 _atom_site_label
 _atom_site_symmetry_multiplicity
 _atom_site_fract_x
 _atom_site_fract_y
 _atom_site_fract_z
 _atom_site_occupancy
  Tb  Tb0  1  0.421942  0.421942  0.500000  1
  Dy  Dy1  1  0.578168  0.000469  0.500000  1
  Dy  Dy2  1  0.000469  0.578168  0.500000  1
  Al  Al3  1  0.758457  0.758457  0.000000  1
  Al  Al4  1  0.241314  0.000322  0.000000  1
  Al  Al5  1  0.000322  0.241314  0.000000  1
  Zn  Zn6  1  0.667896  0.333069  0.000000  1
  Zn  Zn7  1  0.333069  0.667896  0.000000  1
  Au  Au8  1  0.998363  0.998363  0.500000  1
