# generated using pymatgen
data_YEr3(Si2Tc)2
_symmetry_space_group_name_H-M   'P 1'
_cell_length_a   5.77336281
_cell_length_b   5.77336322
_cell_length_c   10.04947087
_cell_angle_alpha   63.69961003
_cell_angle_beta   63.69960823
_cell_angle_gamma   42.17949797
_symmetry_Int_Tables_number   1
_chemical_formula_structural   YEr3(Si2Tc)2
_chemical_formula_sum   'Y1 Er3 Si4 Tc2'
_cell_volume   197.93569550
_cell_formula_units_Z   1
loop_
 _symmetry_equiv_pos_site_id
 _symmetry_equiv_pos_as_xyz
  1  'x, y, z'
loop_
 _atom_site_type_symbol
 _atom_site_label
 _atom_site_symmetry_multiplicity
 _atom_site_fract_x
 _atom_site_fract_y
 _atom_site_fract_z
 _atom_site_occupancy
  Y  Y0  1  0.811604  0.811604  0.109333  1
  Er  Er1  1  0.004231  0.004231  0.323864  1
  Er  Er2  1  0.187493  0.187493  0.888581  1
  Er  Er3  1  0.995220  0.995220  0.676652  1
  Si  Si4  1  0.358970  0.358970  0.560536  1
  Si  Si5  1  0.497314  0.497314  0.878157  1
  Si  Si6  1  0.641153  0.641153  0.440474  1
  Si  Si7  1  0.503752  0.503752  0.121075  1
  Tc  Tc8  1  0.726975  0.726975  0.630505  1
  Tc  Tc9  1  0.273285  0.273285  0.370822  1
