# generated using pymatgen
data_HoTm15In4Ir3Pt
_symmetry_space_group_name_H-M   'P 1'
_cell_length_a   9.55087248
_cell_length_b   9.54334062
_cell_length_c   9.55456220
_cell_angle_alpha   60.03884271
_cell_angle_beta   60.01026038
_cell_angle_gamma   60.02608990
_symmetry_Int_Tables_number   1
_chemical_formula_structural   HoTm15In4Ir3Pt
_chemical_formula_sum   'Ho1 Tm15 In4 Ir3 Pt1'
_cell_volume   616.14921433
_cell_formula_units_Z   1
loop_
 _symmetry_equiv_pos_site_id
 _symmetry_equiv_pos_as_xyz
  1  'x, y, z'
loop_
 _atom_site_type_symbol
 _atom_site_label
 _atom_site_symmetry_multiplicity
 _atom_site_fract_x
 _atom_site_fract_y
 _atom_site_fract_z
 _atom_site_occupancy
  Ho  Ho0  1  0.439677  0.062133  0.436057  1
  Tm  Tm1  1  0.440472  0.437829  0.060670  1
  Tm  Tm2  1  0.652450  0.648794  0.049964  1
  Tm  Tm3  1  0.188085  0.808692  0.194532  1
  Tm  Tm4  1  0.060470  0.439835  0.059860  1
  Tm  Tm5  1  0.188264  0.808517  0.809393  1
  Tm  Tm6  1  0.060195  0.440319  0.439349  1
  Tm  Tm7  1  0.810353  0.190146  0.190830  1
  Tm  Tm8  1  0.653010  0.649853  0.648826  1
  Tm  Tm9  1  0.810060  0.190416  0.809108  1
  Tm  Tm10  1  0.188264  0.193827  0.809393  1
  Tm  Tm11  1  0.046529  0.651432  0.650608  1
  Tm  Tm12  1  0.440472  0.061029  0.060670  1
  Tm  Tm13  1  0.060195  0.060137  0.439349  1
  Tm  Tm14  1  0.653010  0.048313  0.648826  1
  Tm  Tm15  1  0.810353  0.808672  0.190830  1
  In  In16  1  0.416464  0.417462  0.416749  1
  In  In17  1  0.416475  0.416729  0.750069  1
  In  In18  1  0.416464  0.749327  0.416749  1
  In  In19  1  0.749570  0.416936  0.416558  1
  Ir  Ir20  1  0.857945  0.858589  0.858933  1
  Ir  Ir21  1  0.857945  0.424532  0.858933  1
  Ir  Ir22  1  0.858390  0.858573  0.424464  1
  Pt  Pt23  1  0.424887  0.857914  0.859283  1
