# generated using pymatgen
data_Pr3NdTe4(W2O13)2
_symmetry_space_group_name_H-M   'P 1'
_cell_length_a   6.76980749
_cell_length_b   6.99803227
_cell_length_c   11.81711257
_cell_angle_alpha   90.44295426
_cell_angle_beta   98.41738044
_cell_angle_gamma   93.35380727
_symmetry_Int_Tables_number   1
_chemical_formula_structural   Pr3NdTe4(W2O13)2
_chemical_formula_sum   'Pr3 Nd1 Te4 W4 O26'
_cell_volume   552.78525104
_cell_formula_units_Z   1
loop_
 _symmetry_equiv_pos_site_id
 _symmetry_equiv_pos_as_xyz
  1  'x, y, z'
loop_
 _atom_site_type_symbol
 _atom_site_label
 _atom_site_symmetry_multiplicity
 _atom_site_fract_x
 _atom_site_fract_y
 _atom_site_fract_z
 _atom_site_occupancy
  Pr  Pr0  1  0.230824  0.130006  0.118774  1
  Pr  Pr1  1  0.633849  0.369655  0.368411  1
  Pr  Pr2  1  0.366482  0.630841  0.632070  1
  Nd  Nd3  1  0.768896  0.871447  0.881600  1
  Te  Te4  1  0.750495  0.387131  0.050888  1
  Te  Te5  1  0.173423  0.178081  0.443002  1
  Te  Te6  1  0.827205  0.822299  0.558254  1
  Te  Te7  1  0.248968  0.613994  0.948310  1
  W  W8  1  0.753431  0.879892  0.186301  1
  W  W9  1  0.108942  0.620851  0.296668  1
  W  W10  1  0.890706  0.378828  0.703545  1
  W  W11  1  0.246667  0.119840  0.813329  1
  O  O12  1  0.726987  0.667877  0.047717  1
  O  O13  1  0.840706  0.046016  0.068941  1
  O  O14  1  0.008463  0.411910  0.146041  1
  O  O15  1  0.486992  0.896890  0.147384  1
  O  O16  1  0.577527  0.319579  0.157385  1
  O  O17  1  0.074383  0.829323  0.195156  1
  O  O18  1  0.345972  0.536751  0.275360  1
  O  O19  1  0.798546  0.650390  0.280099  1
  O  O20  1  0.797747  0.044912  0.309328  1
  O  O21  1  0.322979  0.142106  0.322183  1
  O  O22  1  0.011986  0.385682  0.378534  1
  O  O23  1  0.178529  0.749480  0.432821  1
  O  O24  1  0.616898  0.656974  0.486491  1
  O  O25  1  0.383376  0.344145  0.514228  1
  O  O26  1  0.821172  0.250357  0.567238  1
  O  O27  1  0.988103  0.613845  0.621463  1
  O  O28  1  0.678975  0.856665  0.679897  1
  O  O29  1  0.202860  0.955793  0.689726  1
  O  O30  1  0.201066  0.349253  0.719619  1
  O  O31  1  0.653232  0.461532  0.724776  1
  O  O32  1  0.925373  0.170088  0.804950  1
  O  O33  1  0.423288  0.681706  0.842488  1
  O  O34  1  0.512901  0.100795  0.852995  1
  O  O35  1  0.990597  0.588982  0.853354  1
  O  O36  1  0.157564  0.952969  0.929734  1
  O  O37  1  0.273887  0.333113  0.950937  1
