# generated using pymatgen
data_Ba4FeRuO8
_symmetry_space_group_name_H-M   'P 1'
_cell_length_a   7.28862873
_cell_length_b   7.28862871
_cell_length_c   5.79987800
_cell_angle_alpha   90.00000000
_cell_angle_beta   90.00000000
_cell_angle_gamma   133.09400411
_symmetry_Int_Tables_number   1
_chemical_formula_structural   Ba4FeRuO8
_chemical_formula_sum   'Ba4 Fe1 Ru1 O8'
_cell_volume   224.99477396
_cell_formula_units_Z   1
loop_
 _symmetry_equiv_pos_site_id
 _symmetry_equiv_pos_as_xyz
  1  'x, y, z'
loop_
 _atom_site_type_symbol
 _atom_site_label
 _atom_site_symmetry_multiplicity
 _atom_site_fract_x
 _atom_site_fract_y
 _atom_site_fract_z
 _atom_site_occupancy
  Ba  Ba0  1  0.642916  0.357084  0.000000  1
  Ba  Ba1  1  0.144466  0.855534  0.500000  1
  Ba  Ba2  1  0.855534  0.144466  0.500000  1
  Ba  Ba3  1  0.357084  0.642916  0.000000  1
  Fe  Fe4  1  0.500000  0.500000  0.500000  1
  Ru  Ru5  1  0.000000  0.000000  0.000000  1
  O  O6  1  0.756677  0.756677  0.757256  1
  O  O7  1  0.243323  0.243323  0.242744  1
  O  O8  1  0.243323  0.243323  0.757256  1
  O  O9  1  0.756677  0.756677  0.242744  1
  O  O10  1  0.848071  0.151929  0.000000  1
  O  O11  1  0.349790  0.650210  0.500000  1
  O  O12  1  0.650210  0.349790  0.500000  1
  O  O13  1  0.151929  0.848071  0.000000  1
