# generated using pymatgen
data_HgPd2Pt2Pb3O14
_symmetry_space_group_name_H-M   'P 1'
_cell_length_a   7.42810027
_cell_length_b   7.30633756
_cell_length_c   7.42809886
_cell_angle_alpha   59.43381323
_cell_angle_beta   59.94528441
_cell_angle_gamma   59.43381214
_symmetry_Int_Tables_number   1
_chemical_formula_structural   HgPd2Pt2Pb3O14
_chemical_formula_sum   'Hg1 Pd2 Pt2 Pb3 O14'
_cell_volume   282.48360160
_cell_formula_units_Z   1
loop_
 _symmetry_equiv_pos_site_id
 _symmetry_equiv_pos_as_xyz
  1  'x, y, z'
loop_
 _atom_site_type_symbol
 _atom_site_label
 _atom_site_symmetry_multiplicity
 _atom_site_fract_x
 _atom_site_fract_y
 _atom_site_fract_z
 _atom_site_occupancy
  Hg  Hg0  1  0.125000  0.625000  0.125000  1
  Pd  Pd1  1  0.625000  0.625000  0.625000  1
  Pd  Pd2  1  0.625000  0.125000  0.625000  1
  Pt  Pt3  1  0.625000  0.625000  0.125000  1
  Pt  Pt4  1  0.125000  0.625000  0.625000  1
  Pb  Pb5  1  0.125000  0.125000  0.125000  1
  Pb  Pb6  1  0.625000  0.125000  0.125000  1
  Pb  Pb7  1  0.125000  0.125000  0.625000  1
  O  O8  1  0.708182  0.291705  0.291806  1
  O  O9  1  0.708394  0.290027  0.708394  1
  O  O10  1  0.995121  0.012403  0.995121  1
  O  O11  1  0.293748  0.708195  0.293748  1
  O  O12  1  0.704237  0.708619  0.291655  1
  O  O13  1  0.958345  0.541381  0.545763  1
  O  O14  1  0.291655  0.708619  0.704237  1
  O  O15  1  0.254879  0.237597  0.254879  1
  O  O16  1  0.956252  0.541805  0.956252  1
  O  O17  1  0.541606  0.959973  0.541606  1
  O  O18  1  0.545763  0.541381  0.958345  1
  O  O19  1  0.958194  0.958295  0.541818  1
  O  O20  1  0.541818  0.958295  0.958194  1
  O  O21  1  0.291806  0.291705  0.708182  1
