# generated using pymatgen
data_Ac3TbAu4
_symmetry_space_group_name_H-M   'P 1'
_cell_length_a   4.90646600
_cell_length_b   6.06576588
_cell_length_c   7.85826108
_cell_angle_alpha   87.52797434
_cell_angle_beta   90.00000000
_cell_angle_gamma   90.00000000
_symmetry_Int_Tables_number   1
_chemical_formula_structural   Ac3TbAu4
_chemical_formula_sum   'Ac3 Tb1 Au4'
_cell_volume   233.65579061
_cell_formula_units_Z   1
loop_
 _symmetry_equiv_pos_site_id
 _symmetry_equiv_pos_as_xyz
  1  'x, y, z'
loop_
 _atom_site_type_symbol
 _atom_site_label
 _atom_site_symmetry_multiplicity
 _atom_site_fract_x
 _atom_site_fract_y
 _atom_site_fract_z
 _atom_site_occupancy
  Ac  Ac0  1  0.250000  0.347556  0.689560  1
  Ac  Ac1  1  0.250000  0.145440  0.182333  1
  Ac  Ac2  1  0.750000  0.647376  0.311455  1
  Tb  Tb3  1  0.750000  0.853926  0.815782  1
  Au  Au4  1  0.250000  0.847179  0.565785  1
  Au  Au5  1  0.250000  0.669374  0.017218  1
  Au  Au6  1  0.750000  0.141263  0.465829  1
  Au  Au7  1  0.750000  0.347886  0.952038  1
