# generated using pymatgen
data_Pr6Ho10CdHg3Ir4
_symmetry_space_group_name_H-M   'P 1'
_cell_length_a   9.73853188
_cell_length_b   9.74004284
_cell_length_c   9.74004300
_cell_angle_alpha   60.00000286
_cell_angle_beta   59.99487030
_cell_angle_gamma   59.99487017
_symmetry_Int_Tables_number   1
_chemical_formula_structural   Pr6Ho10CdHg3Ir4
_chemical_formula_sum   'Pr6 Ho10 Cd1 Hg3 Ir4'
_cell_volume   653.23066694
_cell_formula_units_Z   1
loop_
 _symmetry_equiv_pos_site_id
 _symmetry_equiv_pos_as_xyz
  1  'x, y, z'
loop_
 _atom_site_type_symbol
 _atom_site_label
 _atom_site_symmetry_multiplicity
 _atom_site_fract_x
 _atom_site_fract_y
 _atom_site_fract_z
 _atom_site_occupancy
  Pr  Pr0  1  0.940827  0.558616  0.558616  1
  Pr  Pr1  1  0.558143  0.941708  0.941708  1
  Pr  Pr2  1  0.558143  0.941708  0.558442  1
  Pr  Pr3  1  0.940827  0.558616  0.941941  1
  Pr  Pr4  1  0.558143  0.558442  0.941708  1
  Pr  Pr5  1  0.940827  0.941941  0.558616  1
  Ho  Ho6  1  0.347821  0.347573  0.347573  1
  Ho  Ho7  1  0.347821  0.347573  0.957031  1
  Ho  Ho8  1  0.347821  0.957031  0.347573  1
  Ho  Ho9  1  0.955896  0.348034  0.348034  1
  Ho  Ho10  1  0.812250  0.187589  0.187589  1
  Ho  Ho11  1  0.186876  0.812884  0.812884  1
  Ho  Ho12  1  0.186876  0.812884  0.187357  1
  Ho  Ho13  1  0.812250  0.187589  0.812573  1
  Ho  Ho14  1  0.186876  0.187357  0.812884  1
  Ho  Ho15  1  0.812250  0.812573  0.187589  1
  Cd  Cd16  1  0.263401  0.578866  0.578866  1
  Hg  Hg17  1  0.581035  0.582554  0.582554  1
  Hg  Hg18  1  0.581035  0.582554  0.253855  1
  Hg  Hg19  1  0.581035  0.253855  0.582554  1
  Ir  Ir20  1  0.141238  0.141340  0.141340  1
  Ir  Ir21  1  0.141238  0.141340  0.576082  1
  Ir  Ir22  1  0.141238  0.576082  0.141340  1
  Ir  Ir23  1  0.576128  0.141291  0.141291  1
