# generated using pymatgen
data_Pr2HoBe2(PPd5)4
_symmetry_space_group_name_H-M   'P 1'
_cell_length_a   8.71360070
_cell_length_b   8.63176396
_cell_length_c   8.63176324
_cell_angle_alpha   60.62824967
_cell_angle_beta   59.68587842
_cell_angle_gamma   59.68588229
_symmetry_Int_Tables_number   1
_chemical_formula_structural   Pr2HoBe2(PPd5)4
_chemical_formula_sum   'Pr2 Ho1 Be2 P4 Pd20'
_cell_volume   458.98969471
_cell_formula_units_Z   1
loop_
 _symmetry_equiv_pos_site_id
 _symmetry_equiv_pos_as_xyz
  1  'x, y, z'
loop_
 _atom_site_type_symbol
 _atom_site_label
 _atom_site_symmetry_multiplicity
 _atom_site_fract_x
 _atom_site_fract_y
 _atom_site_fract_z
 _atom_site_occupancy
  Pr  Pr0  1  0.250000  0.250000  0.250000  1
  Pr  Pr1  1  0.750000  0.750000  0.750000  1
  Ho  Ho2  1  0.000000  0.000000  0.000000  1
  Be  Be3  1  0.733445  0.266555  0.266555  1
  Be  Be4  1  0.266555  0.733445  0.733445  1
  P  P5  1  0.265828  0.734172  0.265828  1
  P  P6  1  0.734172  0.265828  0.734172  1
  P  P7  1  0.265828  0.265828  0.734172  1
  P  P8  1  0.734172  0.734172  0.265828  1
  Pd  Pd9  1  0.389341  0.383975  0.383975  1
  Pd  Pd10  1  0.610659  0.616025  0.616025  1
  Pd  Pd11  1  0.383975  0.389341  0.842710  1
  Pd  Pd12  1  0.383975  0.842710  0.389341  1
  Pd  Pd13  1  0.616025  0.610659  0.157290  1
  Pd  Pd14  1  0.616025  0.157290  0.610659  1
  Pd  Pd15  1  0.842710  0.383975  0.383975  1
  Pd  Pd16  1  0.157290  0.616025  0.616025  1
  Pd  Pd17  1  0.343765  0.000000  0.000000  1
  Pd  Pd18  1  0.656235  0.000000  0.000000  1
  Pd  Pd19  1  0.000000  0.343765  0.656235  1
  Pd  Pd20  1  0.000000  0.656235  0.343765  1
  Pd  Pd21  1  0.997070  0.342929  0.002930  1
  Pd  Pd22  1  0.657071  0.002930  0.342929  1
  Pd  Pd23  1  0.002930  0.657071  0.997070  1
  Pd  Pd24  1  0.342929  0.997070  0.657071  1
  Pd  Pd25  1  0.997070  0.002930  0.342929  1
  Pd  Pd26  1  0.002930  0.997070  0.657071  1
  Pd  Pd27  1  0.657071  0.342929  0.002930  1
  Pd  Pd28  1  0.342929  0.657071  0.997070  1
