# generated using pymatgen
data_NpScFeB6
_symmetry_space_group_name_H-M   'P 1'
_cell_length_a   3.41510300
_cell_length_b   8.90102200
_cell_length_c   11.24916800
_cell_angle_alpha   90.00000000
_cell_angle_beta   90.00000000
_cell_angle_gamma   90.00000000
_symmetry_Int_Tables_number   1
_chemical_formula_structural   NpScFeB6
_chemical_formula_sum   'Np4 Sc4 Fe4 B24'
_cell_volume   341.95116196
_cell_formula_units_Z   4
loop_
 _symmetry_equiv_pos_site_id
 _symmetry_equiv_pos_as_xyz
  1  'x, y, z'
loop_
 _atom_site_type_symbol
 _atom_site_label
 _atom_site_symmetry_multiplicity
 _atom_site_fract_x
 _atom_site_fract_y
 _atom_site_fract_z
 _atom_site_occupancy
  Np  Np0  1  0.000000  0.325168  0.415264  1
  Np  Np1  1  0.000000  0.674832  0.584736  1
  Np  Np2  1  0.000000  0.825168  0.084736  1
  Np  Np3  1  0.000000  0.174832  0.915264  1
  Sc  Sc4  1  0.000000  0.944751  0.372258  1
  Sc  Sc5  1  0.000000  0.055249  0.627742  1
  Sc  Sc6  1  0.000000  0.444751  0.127742  1
  Sc  Sc7  1  0.000000  0.555249  0.872258  1
  Fe  Fe8  1  0.000000  0.640696  0.319453  1
  Fe  Fe9  1  0.000000  0.359304  0.680547  1
  Fe  Fe10  1  0.000000  0.140696  0.180547  1
  Fe  Fe11  1  0.000000  0.859304  0.819453  1
  B  B12  1  0.500000  0.553113  0.433182  1
  B  B13  1  0.500000  0.446887  0.566818  1
  B  B14  1  0.500000  0.053113  0.066818  1
  B  B15  1  0.500000  0.946887  0.933182  1
  B  B16  1  0.500000  0.750739  0.419219  1
  B  B17  1  0.500000  0.249261  0.580781  1
  B  B18  1  0.500000  0.250739  0.080781  1
  B  B19  1  0.500000  0.749261  0.919219  1
  B  B20  1  0.500000  0.794712  0.265191  1
  B  B21  1  0.500000  0.205288  0.734809  1
  B  B22  1  0.500000  0.294712  0.234809  1
  B  B23  1  0.500000  0.705288  0.765191  1
  B  B24  1  0.500000  0.632710  0.182895  1
  B  B25  1  0.500000  0.367290  0.817105  1
  B  B26  1  0.500000  0.132710  0.317105  1
  B  B27  1  0.500000  0.867290  0.682895  1
  B  B28  1  0.500000  0.982989  0.213276  1
  B  B29  1  0.500000  0.017011  0.786724  1
  B  B30  1  0.500000  0.482989  0.286724  1
  B  B31  1  0.500000  0.517011  0.713276  1
  B  B32  1  0.500000  0.603252  0.027811  1
  B  B33  1  0.500000  0.396748  0.972189  1
  B  B34  1  0.500000  0.103252  0.472189  1
  B  B35  1  0.500000  0.896748  0.527811  1
