# generated using pymatgen
data_Pr4GdDyNb2O14
_symmetry_space_group_name_H-M   'P 1'
_cell_length_a   6.67336559
_cell_length_b   6.65090083
_cell_length_c   7.73483000
_cell_angle_alpha   90.00000000
_cell_angle_beta   90.00000000
_cell_angle_gamma   108.75730712
_symmetry_Int_Tables_number   1
_chemical_formula_structural   Pr4GdDyNb2O14
_chemical_formula_sum   'Pr4 Gd1 Dy1 Nb2 O14'
_cell_volume   325.06880359
_cell_formula_units_Z   1
loop_
 _symmetry_equiv_pos_site_id
 _symmetry_equiv_pos_as_xyz
  1  'x, y, z'
loop_
 _atom_site_type_symbol
 _atom_site_label
 _atom_site_symmetry_multiplicity
 _atom_site_fract_x
 _atom_site_fract_y
 _atom_site_fract_z
 _atom_site_occupancy
  Pr  Pr0  1  0.468138  0.469647  0.500711  1
  Pr  Pr1  1  0.468138  0.469647  0.999289  1
  Pr  Pr2  1  0.536603  0.995245  0.750000  1
  Pr  Pr3  1  0.994779  0.535978  0.250000  1
  Gd  Gd4  1  0.465996  0.996941  0.250000  1
  Dy  Dy5  1  0.997176  0.464276  0.750000  1
  Nb  Nb6  1  0.996990  0.996395  0.500809  1
  Nb  Nb7  1  0.996990  0.996395  0.999191  1
  O  O8  1  0.694766  0.943450  0.460441  1
  O  O9  1  0.951548  0.696658  0.544075  1
  O  O10  1  0.694766  0.943450  0.039559  1
  O  O11  1  0.951548  0.696658  0.955925  1
  O  O12  1  0.323541  0.077976  0.522854  1
  O  O13  1  0.075528  0.324687  0.479452  1
  O  O14  1  0.323541  0.077976  0.977146  1
  O  O15  1  0.075528  0.324687  0.020548  1
  O  O16  1  0.355049  0.622464  0.750000  1
  O  O17  1  0.624589  0.359528  0.250000  1
  O  O18  1  0.645382  0.364864  0.750000  1
  O  O19  1  0.362709  0.640912  0.250000  1
  O  O20  1  0.937388  0.064441  0.750000  1
  O  O21  1  0.059309  0.937728  0.250000  1
