# generated using pymatgen
data_PmPr(CuGe)2
_symmetry_space_group_name_H-M   'P 1'
_cell_length_a   5.98987035
_cell_length_b   5.98987030
_cell_length_c   5.98987000
_cell_angle_alpha   138.81102749
_cell_angle_beta   104.88881433
_cell_angle_gamma   89.45649605
_symmetry_Int_Tables_number   1
_chemical_formula_structural   PmPr(CuGe)2
_chemical_formula_sum   'Pm1 Pr1 Cu2 Ge2'
_cell_volume   130.94204377
_cell_formula_units_Z   1
loop_
 _symmetry_equiv_pos_site_id
 _symmetry_equiv_pos_as_xyz
  1  'x, y, z'
loop_
 _atom_site_type_symbol
 _atom_site_label
 _atom_site_symmetry_multiplicity
 _atom_site_fract_x
 _atom_site_fract_y
 _atom_site_fract_z
 _atom_site_occupancy
  Pm  Pm0  1  0.999828  0.000000  0.999828  1
  Pr  Pr1  1  0.499838  0.500000  0.999838  1
  Cu  Cu2  1  0.584771  0.250813  0.333959  1
  Cu  Cu3  1  0.083145  0.749186  0.333959  1
  Ge  Ge4  1  0.917034  0.250826  0.666208  1
  Ge  Ge5  1  0.415381  0.749173  0.666207  1
