# generated using pymatgen
data_La2Sm3YCoI10
_symmetry_space_group_name_H-M   'P 1'
_cell_length_a   7.90323710
_cell_length_b   9.96440593
_cell_length_c   9.84566711
_cell_angle_alpha   106.95926151
_cell_angle_beta   95.92453435
_cell_angle_gamma   105.53514463
_symmetry_Int_Tables_number   1
_chemical_formula_structural   La2Sm3YCoI10
_chemical_formula_sum   'La2 Sm3 Y1 Co1 I10'
_cell_volume   700.57321208
_cell_formula_units_Z   1
loop_
 _symmetry_equiv_pos_site_id
 _symmetry_equiv_pos_as_xyz
  1  'x, y, z'
loop_
 _atom_site_type_symbol
 _atom_site_label
 _atom_site_symmetry_multiplicity
 _atom_site_fract_x
 _atom_site_fract_y
 _atom_site_fract_z
 _atom_site_occupancy
  La  La0  1  0.888170  0.959132  0.230698  1
  La  La1  1  0.114650  0.041919  0.770359  1
  Sm  Sm2  1  0.030938  0.714476  0.914071  1
  Sm  Sm3  1  0.971232  0.286159  0.087063  1
  Sm  Sm4  1  0.651362  0.874578  0.835526  1
  Y  Y5  1  0.345202  0.124345  0.162854  1
  Co  Co6  1  0.000666  0.000294  0.000128  1
  I  I7  1  0.649305  0.550131  0.729316  1
  I  I8  1  0.353389  0.446096  0.270611  1
  I  I9  1  0.734354  0.911669  0.540070  1
  I  I10  1  0.268644  0.089673  0.457081  1
  I  I11  1  0.083438  0.374990  0.820310  1
  I  I12  1  0.916440  0.624749  0.179840  1
  I  I13  1  0.447370  0.820061  0.093049  1
  I  I14  1  0.551186  0.183723  0.911918  1
  I  I15  1  0.224414  0.738674  0.654261  1
  I  I16  1  0.769238  0.259332  0.342846  1
