# generated using pymatgen
data_LiNd2Y14Cd3Ni4
_symmetry_space_group_name_H-M   'P 1'
_cell_length_a   9.61910867
_cell_length_b   9.61910955
_cell_length_c   9.62275007
_cell_angle_alpha   59.86243254
_cell_angle_beta   59.86242853
_cell_angle_gamma   59.95516159
_symmetry_Int_Tables_number   1
_chemical_formula_structural   LiNd2Y14Cd3Ni4
_chemical_formula_sum   'Li1 Nd2 Y14 Cd3 Ni4'
_cell_volume   628.05973139
_cell_formula_units_Z   1
loop_
 _symmetry_equiv_pos_site_id
 _symmetry_equiv_pos_as_xyz
  1  'x, y, z'
loop_
 _atom_site_type_symbol
 _atom_site_label
 _atom_site_symmetry_multiplicity
 _atom_site_fract_x
 _atom_site_fract_y
 _atom_site_fract_z
 _atom_site_occupancy
  Li  Li0  1  0.821209  0.821209  0.819525  1
  Nd  Nd1  1  0.597461  0.597461  0.599455  1
  Nd  Nd2  1  0.599052  0.599052  0.200935  1
  Y  Y3  1  0.599084  0.201109  0.599959  1
  Y  Y4  1  0.201109  0.599084  0.599959  1
  Y  Y5  1  0.062256  0.441243  0.440086  1
  Y  Y6  1  0.436946  0.065097  0.063900  1
  Y  Y7  1  0.441243  0.062256  0.440086  1
  Y  Y8  1  0.065097  0.436946  0.063900  1
  Y  Y9  1  0.439921  0.439921  0.063513  1
  Y  Y10  1  0.064001  0.064001  0.436913  1
  Y  Y11  1  0.187137  0.814701  0.814301  1
  Y  Y12  1  0.814172  0.186577  0.186300  1
  Y  Y13  1  0.814701  0.187137  0.814301  1
  Y  Y14  1  0.186577  0.814172  0.186300  1
  Y  Y15  1  0.814389  0.814389  0.185991  1
  Y  Y16  1  0.186688  0.186688  0.813930  1
  Cd  Cd17  1  0.832608  0.832608  0.505634  1
  Cd  Cd18  1  0.833720  0.504724  0.830723  1
  Cd  Cd19  1  0.504724  0.833720  0.830723  1
  Ni  Ni20  1  0.392573  0.392573  0.394871  1
  Ni  Ni21  1  0.390779  0.390779  0.823814  1
  Ni  Ni22  1  0.389451  0.825099  0.392439  1
  Ni  Ni23  1  0.825099  0.389451  0.392439  1
