# generated using pymatgen
data_Ba8UInSe12
_symmetry_space_group_name_H-M   'P 1'
_cell_length_a   9.01995727
_cell_length_b   9.01995714
_cell_length_c   9.01995815
_cell_angle_alpha   89.59539697
_cell_angle_beta   89.59539717
_cell_angle_gamma   89.59540570
_symmetry_Int_Tables_number   1
_chemical_formula_structural   Ba8UInSe12
_chemical_formula_sum   'Ba8 U1 In1 Se12'
_cell_volume   733.80580434
_cell_formula_units_Z   1
loop_
 _symmetry_equiv_pos_site_id
 _symmetry_equiv_pos_as_xyz
  1  'x, y, z'
loop_
 _atom_site_type_symbol
 _atom_site_label
 _atom_site_symmetry_multiplicity
 _atom_site_fract_x
 _atom_site_fract_y
 _atom_site_fract_z
 _atom_site_occupancy
  Ba  Ba0  1  0.868816  0.621883  0.256665  1
  Ba  Ba1  1  0.256665  0.868816  0.621883  1
  Ba  Ba2  1  0.621883  0.256665  0.868816  1
  Ba  Ba3  1  0.743335  0.131184  0.378117  1
  Ba  Ba4  1  0.378117  0.743335  0.131184  1
  Ba  Ba5  1  0.131184  0.378117  0.743335  1
  Ba  Ba6  1  0.257650  0.257650  0.257650  1
  Ba  Ba7  1  0.742350  0.742350  0.742350  1
  U  U8  1  0.000000  0.000000  0.000000  1
  In  In9  1  0.500000  0.500000  0.500000  1
  Se  Se10  1  0.200473  0.564330  0.424105  1
  Se  Se11  1  0.424105  0.200473  0.564330  1
  Se  Se12  1  0.564330  0.424105  0.200473  1
  Se  Se13  1  0.926935  0.058578  0.707322  1
  Se  Se14  1  0.707322  0.926935  0.058578  1
  Se  Se15  1  0.058578  0.707322  0.926935  1
  Se  Se16  1  0.799527  0.435670  0.575895  1
  Se  Se17  1  0.575895  0.799527  0.435670  1
  Se  Se18  1  0.435670  0.575895  0.799527  1
  Se  Se19  1  0.073065  0.941422  0.292678  1
  Se  Se20  1  0.292678  0.073065  0.941422  1
  Se  Se21  1  0.941422  0.292678  0.073065  1
