# generated using pymatgen
data_Nb5Fe2Sn(BRu2)4
_symmetry_space_group_name_H-M   'P 1'
_cell_length_a   9.33871700
_cell_length_b   9.33871700
_cell_length_c   3.02438000
_cell_angle_alpha   90.00000000
_cell_angle_beta   90.00000000
_cell_angle_gamma   90.00000000
_symmetry_Int_Tables_number   1
_chemical_formula_structural   Nb5Fe2Sn(BRu2)4
_chemical_formula_sum   'Nb5 Fe2 Sn1 B4 Ru8'
_cell_volume   263.76112528
_cell_formula_units_Z   1
loop_
 _symmetry_equiv_pos_site_id
 _symmetry_equiv_pos_as_xyz
  1  'x, y, z'
loop_
 _atom_site_type_symbol
 _atom_site_label
 _atom_site_symmetry_multiplicity
 _atom_site_fract_x
 _atom_site_fract_y
 _atom_site_fract_z
 _atom_site_occupancy
  Nb  Nb0  1  0.827395  0.672440  0.000000  1
  Nb  Nb1  1  0.172605  0.327560  0.000000  1
  Nb  Nb2  1  0.327560  0.827395  0.000000  1
  Nb  Nb3  1  0.672440  0.172605  0.000000  1
  Nb  Nb4  1  0.000000  0.000000  0.000000  1
  Fe  Fe5  1  0.500000  0.000000  0.500000  1
  Fe  Fe6  1  0.000000  0.500000  0.500000  1
  Sn  Sn7  1  0.500000  0.500000  0.000000  1
  B  B8  1  0.610503  0.886943  0.000000  1
  B  B9  1  0.389497  0.113057  0.000000  1
  B  B10  1  0.113057  0.610503  0.000000  1
  B  B11  1  0.886943  0.389497  0.000000  1
  Ru  Ru12  1  0.570109  0.726182  0.500000  1
  Ru  Ru13  1  0.429891  0.273818  0.500000  1
  Ru  Ru14  1  0.065316  0.777098  0.500000  1
  Ru  Ru15  1  0.934684  0.222902  0.500000  1
  Ru  Ru16  1  0.273818  0.570109  0.500000  1
  Ru  Ru17  1  0.726182  0.429891  0.500000  1
  Ru  Ru18  1  0.222902  0.065316  0.500000  1
  Ru  Ru19  1  0.777098  0.934684  0.500000  1
