# generated using pymatgen
data_LiPr8Co2Ag
_symmetry_space_group_name_H-M   'P 1'
_cell_length_a   9.89044218
_cell_length_b   9.90326756
_cell_length_c   9.89044164
_cell_angle_alpha   59.95709330
_cell_angle_beta   60.35931575
_cell_angle_gamma   59.95709474
_symmetry_Int_Tables_number   1
_chemical_formula_structural   LiPr8Co2Ag
_chemical_formula_sum   'Li2 Pr16 Co4 Ag2'
_cell_volume   686.39938510
_cell_formula_units_Z   2
loop_
 _symmetry_equiv_pos_site_id
 _symmetry_equiv_pos_as_xyz
  1  'x, y, z'
loop_
 _atom_site_type_symbol
 _atom_site_label
 _atom_site_symmetry_multiplicity
 _atom_site_fract_x
 _atom_site_fract_y
 _atom_site_fract_z
 _atom_site_occupancy
  Li  Li0  1  0.670707  0.687662  0.953968  1
  Li  Li1  1  0.953968  0.687662  0.670707  1
  Pr  Pr2  1  0.288893  0.903244  0.904621  1
  Pr  Pr3  1  0.690046  0.687264  0.311859  1
  Pr  Pr4  1  0.904621  0.903244  0.288893  1
  Pr  Pr5  1  0.310408  0.689592  0.310408  1
  Pr  Pr6  1  0.690046  0.310831  0.311859  1
  Pr  Pr7  1  0.062955  0.434352  0.441682  1
  Pr  Pr8  1  0.441682  0.061011  0.062955  1
  Pr  Pr9  1  0.062955  0.061011  0.441682  1
  Pr  Pr10  1  0.311859  0.310831  0.690046  1
  Pr  Pr11  1  0.446142  0.053858  0.446142  1
  Pr  Pr12  1  0.906785  0.903938  0.906785  1
  Pr  Pr13  1  0.441682  0.434352  0.062955  1
  Pr  Pr14  1  0.311859  0.687264  0.690046  1
  Pr  Pr15  1  0.688943  0.311057  0.688943  1
  Pr  Pr16  1  0.065976  0.434024  0.065976  1
  Pr  Pr17  1  0.906785  0.282493  0.906785  1
  Co  Co18  1  0.112845  0.106384  0.112845  1
  Co  Co19  1  0.109230  0.106784  0.677202  1
  Co  Co20  1  0.677202  0.106784  0.109230  1
  Co  Co21  1  0.112845  0.667926  0.112845  1
  Ag  Ag22  1  0.665784  0.002091  0.665784  1
  Ag  Ag23  1  0.665784  0.666341  0.665784  1
