# generated using pymatgen
data_Be3Co4P
_symmetry_space_group_name_H-M   'P 1'
_cell_length_a   6.42589790
_cell_length_b   6.42589762
_cell_length_c   6.42589729
_cell_angle_alpha   33.56232587
_cell_angle_beta   33.56233328
_cell_angle_gamma   33.56232983
_symmetry_Int_Tables_number   1
_chemical_formula_structural   Be3Co4P
_chemical_formula_sum   'Be3 Co4 P1'
_cell_volume   72.23585510
_cell_formula_units_Z   1
loop_
 _symmetry_equiv_pos_site_id
 _symmetry_equiv_pos_as_xyz
  1  'x, y, z'
loop_
 _atom_site_type_symbol
 _atom_site_label
 _atom_site_symmetry_multiplicity
 _atom_site_fract_x
 _atom_site_fract_y
 _atom_site_fract_z
 _atom_site_occupancy
  Be  Be0  1  0.256719  0.256719  0.256719  1
  Be  Be1  1  0.743281  0.743281  0.743281  1
  Be  Be2  1  0.000000  0.000000  0.000000  1
  Co  Co3  1  0.873129  0.873129  0.873129  1
  Co  Co4  1  0.377048  0.377048  0.377048  1
  Co  Co5  1  0.126871  0.126871  0.126871  1
  Co  Co6  1  0.622952  0.622952  0.622952  1
  P  P7  1  0.500000  0.500000  0.500000  1
