# generated using pymatgen
data_Nd6SiBCl6
_symmetry_space_group_name_H-M   'P 1'
_cell_length_a   10.03816972
_cell_length_b   10.03816991
_cell_length_c   9.90151400
_cell_angle_alpha   109.44227506
_cell_angle_beta   109.44228150
_cell_angle_gamma   110.08102033
_symmetry_Int_Tables_number   1
_chemical_formula_structural   Nd6SiBCl6
_chemical_formula_sum   'Nd12 Si2 B2 Cl12'
_cell_volume   762.74876454
_cell_formula_units_Z   2
loop_
 _symmetry_equiv_pos_site_id
 _symmetry_equiv_pos_as_xyz
  1  'x, y, z'
loop_
 _atom_site_type_symbol
 _atom_site_label
 _atom_site_symmetry_multiplicity
 _atom_site_fract_x
 _atom_site_fract_y
 _atom_site_fract_z
 _atom_site_occupancy
  Nd  Nd0  1  0.253638  0.003638  0.007279  1
  Nd  Nd1  1  0.018786  0.264967  0.999857  1
  Nd  Nd2  1  0.481074  0.734891  0.999857  1
  Nd  Nd3  1  0.767463  0.247672  0.269483  1
  Nd  Nd4  1  0.002019  0.021810  0.269484  1
  Nd  Nd5  1  0.015277  0.484723  0.750000  1
  Nd  Nd6  1  0.234724  0.265276  0.750000  1
  Nd  Nd7  1  0.252328  0.732537  0.230517  1
  Nd  Nd8  1  0.235033  0.481214  0.500143  1
  Nd  Nd9  1  0.478190  0.497981  0.230516  1
  Nd  Nd10  1  0.765109  0.018926  0.500143  1
  Nd  Nd11  1  0.496362  0.246362  0.492721  1
  Si  Si12  1  0.500076  0.999924  0.250000  1
  Si  Si13  1  0.249924  0.250076  0.250000  1
  B  B14  1  0.999729  0.249729  0.499459  1
  B  B15  1  0.250271  0.500271  0.000541  1
  Cl  Cl16  1  0.753694  0.746306  0.250000  1
  Cl  Cl17  1  0.501790  0.250913  0.996202  1
  Cl  Cl18  1  0.249087  0.998210  0.503798  1
  Cl  Cl19  1  0.508981  0.504741  0.756095  1
  Cl  Cl20  1  0.995259  0.991019  0.743905  1
  Cl  Cl21  1  0.747937  0.997938  0.995872  1
  Cl  Cl22  1  0.502062  0.752063  0.504128  1
  Cl  Cl23  1  0.754710  0.505586  0.503797  1
  Cl  Cl24  1  0.996307  0.503693  0.250000  1
  Cl  Cl25  1  0.994414  0.745290  0.996203  1
  Cl  Cl26  1  0.248645  0.752886  0.743903  1
  Cl  Cl27  1  0.747114  0.251355  0.756097  1
