# generated using pymatgen
data_La5Nd(BiO7)2
_symmetry_space_group_name_H-M   'P 1'
_cell_length_a   6.83345937
_cell_length_b   6.85754288
_cell_length_c   8.05320030
_cell_angle_alpha   106.91545941
_cell_angle_beta   89.88643123
_cell_angle_gamma   98.32009244
_symmetry_Int_Tables_number   1
_chemical_formula_structural   La5Nd(BiO7)2
_chemical_formula_sum   'La5 Nd1 Bi2 O14'
_cell_volume   356.93065807
_cell_formula_units_Z   1
loop_
 _symmetry_equiv_pos_site_id
 _symmetry_equiv_pos_as_xyz
  1  'x, y, z'
loop_
 _atom_site_type_symbol
 _atom_site_label
 _atom_site_symmetry_multiplicity
 _atom_site_fract_x
 _atom_site_fract_y
 _atom_site_fract_z
 _atom_site_occupancy
  La  La0  1  0.533974  0.997261  0.746933  1
  La  La1  1  0.265772  0.532412  0.882193  1
  La  La2  1  0.733503  0.469092  0.119684  1
  La  La3  1  0.741030  0.484970  0.617473  1
  La  La4  1  0.259588  0.514368  0.380805  1
  Nd  Nd5  1  0.461608  0.003121  0.252739  1
  Bi  Bi6  1  0.999644  0.000115  0.499209  1
  Bi  Bi7  1  0.999317  0.999889  0.000947  1
  O  O8  1  0.441084  0.644778  0.166881  1
  O  O9  1  0.560255  0.357699  0.833744  1
  O  O10  1  0.294717  0.929241  0.957923  1
  O  O11  1  0.705715  0.069987  0.048758  1
  O  O12  1  0.290930  0.925961  0.507327  1
  O  O13  1  0.709402  0.073266  0.485717  1
  O  O14  1  0.545084  0.362011  0.344987  1
  O  O15  1  0.453254  0.637181  0.654599  1
  O  O16  1  0.922796  0.675400  0.953272  1
  O  O17  1  0.077202  0.324190  0.046625  1
  O  O18  1  0.075556  0.332787  0.613649  1
  O  O19  1  0.923541  0.666728  0.386698  1
  O  O20  1  0.894467  0.919376  0.729125  1
  O  O21  1  0.111561  0.080167  0.270712  1
