# generated using pymatgen
data_Lu10In3SnSb2
_symmetry_space_group_name_H-M   'P 1'
_cell_length_a   6.41094100
_cell_length_b   8.79922261
_cell_length_c   8.77398854
_cell_angle_alpha   119.97230510
_cell_angle_beta   90.00072149
_cell_angle_gamma   89.99909217
_symmetry_Int_Tables_number   1
_chemical_formula_structural   Lu10In3SnSb2
_chemical_formula_sum   'Lu10 In3 Sn1 Sb2'
_cell_volume   428.76064058
_cell_formula_units_Z   1
loop_
 _symmetry_equiv_pos_site_id
 _symmetry_equiv_pos_as_xyz
  1  'x, y, z'
loop_
 _atom_site_type_symbol
 _atom_site_label
 _atom_site_symmetry_multiplicity
 _atom_site_fract_x
 _atom_site_fract_y
 _atom_site_fract_z
 _atom_site_occupancy
  Lu  Lu0  1  0.497266  0.333197  0.666898  1
  Lu  Lu1  1  0.496980  0.667286  0.335701  1
  Lu  Lu2  1  0.003038  0.667302  0.335721  1
  Lu  Lu3  1  0.002707  0.333151  0.666879  1
  Lu  Lu4  1  0.750002  0.232940  0.994492  1
  Lu  Lu5  1  0.750004  0.767849  0.761724  1
  Lu  Lu6  1  0.750018  0.000538  0.237217  1
  Lu  Lu7  1  0.249991  0.764415  0.001259  1
  Lu  Lu8  1  0.250000  0.234911  0.238249  1
  Lu  Lu9  1  0.249985  0.998174  0.763195  1
  In  In10  1  0.749966  0.001133  0.598962  1
  In  In11  1  0.250028  0.603619  0.605642  1
  In  In12  1  0.250009  0.999678  0.398409  1
  Sn  Sn13  1  0.249998  0.395247  0.001819  1
  Sb  Sb14  1  0.750004  0.606272  0.000249  1
  Sb  Sb15  1  0.750003  0.394291  0.393583  1
