# generated using pymatgen
data_LiZr3Ir2N
_symmetry_space_group_name_H-M   'P 1'
_cell_length_a   8.49866990
_cell_length_b   8.49867090
_cell_length_c   8.49866900
_cell_angle_alpha   60.00000352
_cell_angle_beta   59.99999960
_cell_angle_gamma   60.00000140
_symmetry_Int_Tables_number   1
_chemical_formula_structural   LiZr3Ir2N
_chemical_formula_sum   'Li4 Zr12 Ir8 N4'
_cell_volume   434.04814557
_cell_formula_units_Z   4
loop_
 _symmetry_equiv_pos_site_id
 _symmetry_equiv_pos_as_xyz
  1  'x, y, z'
loop_
 _atom_site_type_symbol
 _atom_site_label
 _atom_site_symmetry_multiplicity
 _atom_site_fract_x
 _atom_site_fract_y
 _atom_site_fract_z
 _atom_site_occupancy
  Li  Li0  1  0.125000  0.625000  0.625000  1
  Li  Li1  1  0.625000  0.125000  0.625000  1
  Li  Li2  1  0.625000  0.625000  0.125000  1
  Li  Li3  1  0.625000  0.625000  0.625000  1
  Zr  Zr4  1  0.805957  0.805957  0.194043  1
  Zr  Zr5  1  0.194043  0.194043  0.805957  1
  Zr  Zr6  1  0.805957  0.194043  0.805957  1
  Zr  Zr7  1  0.194043  0.805957  0.194043  1
  Zr  Zr8  1  0.194043  0.805957  0.805957  1
  Zr  Zr9  1  0.805957  0.194043  0.194043  1
  Zr  Zr10  1  0.444043  0.444043  0.055957  1
  Zr  Zr11  1  0.055957  0.055957  0.444043  1
  Zr  Zr12  1  0.444043  0.055957  0.444043  1
  Zr  Zr13  1  0.055957  0.444043  0.055957  1
  Zr  Zr14  1  0.055957  0.444043  0.444043  1
  Zr  Zr15  1  0.444043  0.055957  0.055957  1
  Ir  Ir16  1  0.747194  0.417603  0.417603  1
  Ir  Ir17  1  0.417603  0.747194  0.417603  1
  Ir  Ir18  1  0.417603  0.417603  0.747194  1
  Ir  Ir19  1  0.417603  0.417603  0.417603  1
  Ir  Ir20  1  0.502806  0.832397  0.832397  1
  Ir  Ir21  1  0.832397  0.502806  0.832397  1
  Ir  Ir22  1  0.832397  0.832397  0.502806  1
  Ir  Ir23  1  0.832397  0.832397  0.832397  1
  N  N24  1  0.625000  0.125000  0.125000  1
  N  N25  1  0.125000  0.625000  0.125000  1
  N  N26  1  0.125000  0.125000  0.625000  1
  N  N27  1  0.125000  0.125000  0.125000  1
