# generated using pymatgen
data_CaSm2Zn3(GaNi)6
_symmetry_space_group_name_H-M   'P 1'
_cell_length_a   9.07789700
_cell_length_b   9.07789776
_cell_length_c   4.08391400
_cell_angle_alpha   90.00000000
_cell_angle_beta   90.00000000
_cell_angle_gamma   120.00000089
_symmetry_Int_Tables_number   1
_chemical_formula_structural   CaSm2Zn3(GaNi)6
_chemical_formula_sum   'Ca1 Sm2 Zn3 Ga6 Ni6'
_cell_volume   291.45919006
_cell_formula_units_Z   1
loop_
 _symmetry_equiv_pos_site_id
 _symmetry_equiv_pos_as_xyz
  1  'x, y, z'
loop_
 _atom_site_type_symbol
 _atom_site_label
 _atom_site_symmetry_multiplicity
 _atom_site_fract_x
 _atom_site_fract_y
 _atom_site_fract_z
 _atom_site_occupancy
  Ca  Ca0  1  0.000000  0.000000  0.000000  1
  Sm  Sm1  1  0.666667  0.333333  0.500000  1
  Sm  Sm2  1  0.333333  0.666667  0.500000  1
  Zn  Zn3  1  0.707925  0.707925  0.500000  1
  Zn  Zn4  1  0.292075  0.000000  0.500000  1
  Zn  Zn5  1  0.000000  0.292075  0.500000  1
  Ga  Ga6  1  0.289802  0.289802  0.500000  1
  Ga  Ga7  1  0.710198  0.000000  0.500000  1
  Ga  Ga8  1  0.000000  0.710198  0.500000  1
  Ga  Ga9  1  0.514361  0.514361  0.000000  1
  Ga  Ga10  1  0.485639  0.000000  0.000000  1
  Ga  Ga11  1  0.000000  0.485639  0.000000  1
  Ni  Ni12  1  0.803593  0.173661  0.000000  1
  Ni  Ni13  1  0.826339  0.629932  0.000000  1
  Ni  Ni14  1  0.370068  0.196407  0.000000  1
  Ni  Ni15  1  0.173661  0.803593  0.000000  1
  Ni  Ni16  1  0.629932  0.826339  0.000000  1
  Ni  Ni17  1  0.196407  0.370068  0.000000  1
