# generated using pymatgen
data_TiCo4Si2Tc3P2
_symmetry_space_group_name_H-M   'P 1'
_cell_length_a   3.69687800
_cell_length_b   5.80994063
_cell_length_c   6.78747477
_cell_angle_alpha   90.08662584
_cell_angle_beta   90.00000000
_cell_angle_gamma   90.00000000
_symmetry_Int_Tables_number   1
_chemical_formula_structural   TiCo4Si2Tc3P2
_chemical_formula_sum   'Ti1 Co4 Si2 Tc3 P2'
_cell_volume   145.78557211
_cell_formula_units_Z   1
loop_
 _symmetry_equiv_pos_site_id
 _symmetry_equiv_pos_as_xyz
  1  'x, y, z'
loop_
 _atom_site_type_symbol
 _atom_site_label
 _atom_site_symmetry_multiplicity
 _atom_site_fract_x
 _atom_site_fract_y
 _atom_site_fract_z
 _atom_site_occupancy
  Ti  Ti0  1  0.750000  0.975671  0.181790  1
  Co  Co1  1  0.250000  0.644055  0.067196  1
  Co  Co2  1  0.750000  0.355772  0.946280  1
  Co  Co3  1  0.250000  0.137054  0.426093  1
  Co  Co4  1  0.750000  0.852911  0.552877  1
  Si  Si5  1  0.750000  0.734388  0.869047  1
  Si  Si6  1  0.750000  0.235914  0.621010  1
  Tc  Tc7  1  0.250000  0.033241  0.827720  1
  Tc  Tc8  1  0.750000  0.476085  0.325814  1
  Tc  Tc9  1  0.250000  0.527728  0.676613  1
  P  P10  1  0.250000  0.753508  0.386556  1
  P  P11  1  0.250000  0.273670  0.119003  1
