# generated using pymatgen
data_Tb8Sc12ZnSi14Os
_symmetry_space_group_name_H-M   'P 1'
_cell_length_a   7.13837101
_cell_length_b   7.44492766
_cell_length_c   14.05721299
_cell_angle_alpha   89.72289135
_cell_angle_beta   89.79820792
_cell_angle_gamma   90.45498037
_symmetry_Int_Tables_number   1
_chemical_formula_structural   Tb8Sc12ZnSi14Os
_chemical_formula_sum   'Tb8 Sc12 Zn1 Si14 Os1'
_cell_volume   747.02871916
_cell_formula_units_Z   1
loop_
 _symmetry_equiv_pos_site_id
 _symmetry_equiv_pos_as_xyz
  1  'x, y, z'
loop_
 _atom_site_type_symbol
 _atom_site_label
 _atom_site_symmetry_multiplicity
 _atom_site_fract_x
 _atom_site_fract_y
 _atom_site_fract_z
 _atom_site_occupancy
  Tb  Tb0  1  0.012275  0.179420  0.096735  1
  Tb  Tb1  1  0.991127  0.828956  0.902579  1
  Tb  Tb2  1  0.488360  0.676655  0.904430  1
  Tb  Tb3  1  0.989863  0.828095  0.597339  1
  Tb  Tb4  1  0.511891  0.323930  0.096286  1
  Tb  Tb5  1  0.010449  0.176411  0.402259  1
  Tb  Tb6  1  0.512471  0.323218  0.401715  1
  Tb  Tb7  1  0.491293  0.676469  0.597470  1
  Sc  Sc8  1  0.155656  0.494392  0.752930  1
  Sc  Sc9  1  0.838174  0.496040  0.250781  1
  Sc  Sc10  1  0.338594  0.004265  0.249822  1
  Sc  Sc11  1  0.669150  0.998359  0.750028  1
  Sc  Sc12  1  0.325845  0.169704  0.628622  1
  Sc  Sc13  1  0.669539  0.825141  0.373957  1
  Sc  Sc14  1  0.170417  0.675400  0.372881  1
  Sc  Sc15  1  0.671911  0.825733  0.125713  1
  Sc  Sc16  1  0.830908  0.322156  0.627577  1
  Sc  Sc17  1  0.317447  0.171117  0.872606  1
  Sc  Sc18  1  0.838445  0.317957  0.872306  1
  Sc  Sc19  1  0.171814  0.678337  0.125084  1
  Zn  Zn20  1  0.160250  0.464841  0.538766  1
  Si  Si21  1  0.967873  0.883964  0.249576  1
  Si  Si22  1  0.468041  0.615762  0.249380  1
  Si  Si23  1  0.530047  0.390100  0.750852  1
  Si  Si24  1  0.286033  0.869047  0.750514  1
  Si  Si25  1  0.713709  0.127605  0.249270  1
  Si  Si26  1  0.215245  0.371823  0.249427  1
  Si  Si27  1  0.779059  0.626835  0.751501  1
  Si  Si28  1  0.842142  0.536695  0.460321  1
  Si  Si29  1  0.343861  0.963279  0.460413  1
  Si  Si30  1  0.844989  0.537097  0.038352  1
  Si  Si31  1  0.654336  0.033808  0.538175  1
  Si  Si32  1  0.157563  0.468683  0.963396  1
  Si  Si33  1  0.653260  0.034882  0.961632  1
  Si  Si34  1  0.346264  0.966077  0.039683  1
  Os  Os35  1  0.031695  0.117747  0.747624  1
