# generated using pymatgen
data_TbHo3Tc4F28
_symmetry_space_group_name_H-M   'P 1'
_cell_length_a   5.57528515
_cell_length_b   8.88700059
_cell_length_c   12.00895712
_cell_angle_alpha   62.63953843
_cell_angle_beta   89.97499536
_cell_angle_gamma   89.99646812
_symmetry_Int_Tables_number   1
_chemical_formula_structural   TbHo3Tc4F28
_chemical_formula_sum   'Tb1 Ho3 Tc4 F28'
_cell_volume   528.45185215
_cell_formula_units_Z   1
loop_
 _symmetry_equiv_pos_site_id
 _symmetry_equiv_pos_as_xyz
  1  'x, y, z'
loop_
 _atom_site_type_symbol
 _atom_site_label
 _atom_site_symmetry_multiplicity
 _atom_site_fract_x
 _atom_site_fract_y
 _atom_site_fract_z
 _atom_site_occupancy
  Tb  Tb0  1  0.758699  0.813920  0.764792  1
  Ho  Ho1  1  0.258819  0.187511  0.735200  1
  Ho  Ho2  1  0.241233  0.186143  0.235410  1
  Ho  Ho3  1  0.741281  0.814045  0.264612  1
  Tc  Tc4  1  0.757972  0.271951  0.957351  1
  Tc  Tc5  1  0.257763  0.726954  0.542236  1
  Tc  Tc6  1  0.242219  0.726909  0.043959  1
  Tc  Tc7  1  0.741866  0.273563  0.456449  1
  F  F8  1  0.441135  0.706152  0.917386  1
  F  F9  1  0.942082  0.293493  0.582889  1
  F  F10  1  0.557407  0.292996  0.083286  1
  F  F11  1  0.057240  0.706607  0.416214  1
  F  F12  1  0.444868  0.276236  0.545395  1
  F  F13  1  0.945260  0.723229  0.955887  1
  F  F14  1  0.555676  0.724107  0.454077  1
  F  F15  1  0.055046  0.275579  0.045857  1
  F  F16  1  0.775225  0.519667  0.859769  1
  F  F17  1  0.274911  0.478907  0.640355  1
  F  F18  1  0.225392  0.478606  0.140984  1
  F  F19  1  0.725097  0.521559  0.359172  1
  F  F20  1  0.755551  0.024984  0.053306  1
  F  F21  1  0.255420  0.974106  0.446759  1
  F  F22  1  0.244312  0.973897  0.947377  1
  F  F23  1  0.744511  0.026492  0.552034  1
  F  F24  1  0.972049  0.727380  0.637596  1
  F  F25  1  0.472206  0.271750  0.861705  1
  F  F26  1  0.027803  0.271867  0.361248  1
  F  F27  1  0.528393  0.728243  0.138866  1
  F  F28  1  0.047173  0.747114  0.173575  1
  F  F29  1  0.546892  0.253064  0.326767  1
  F  F30  1  0.952769  0.252633  0.827083  1
  F  F31  1  0.450517  0.746361  0.672718  1
  F  F32  1  0.418980  0.970966  0.232431  1
  F  F33  1  0.919189  0.029170  0.267571  1
  F  F34  1  0.580555  0.031728  0.767765  1
  F  F35  1  0.084487  0.972110  0.731918  1
