# generated using pymatgen
data_NdY3Al4(SiNi)6
_symmetry_space_group_name_H-M   'P 1'
_cell_length_a   8.06344710
_cell_length_b   8.06416676
_cell_length_c   8.06468565
_cell_angle_alpha   138.83750393
_cell_angle_beta   103.77071263
_cell_angle_gamma   90.51580027
_symmetry_Int_Tables_number   1
_chemical_formula_structural   NdY3Al4(SiNi)6
_chemical_formula_sum   'Nd1 Y3 Al4 Si6 Ni6'
_cell_volume   320.38327916
_cell_formula_units_Z   1
loop_
 _symmetry_equiv_pos_site_id
 _symmetry_equiv_pos_as_xyz
  1  'x, y, z'
loop_
 _atom_site_type_symbol
 _atom_site_label
 _atom_site_symmetry_multiplicity
 _atom_site_fract_x
 _atom_site_fract_y
 _atom_site_fract_z
 _atom_site_occupancy
  Nd  Nd0  1  0.890848  0.629018  0.261668  1
  Y  Y1  1  0.632945  0.871255  0.761653  1
  Y  Y2  1  0.366878  0.128718  0.238208  1
  Y  Y3  1  0.110558  0.372113  0.738582  1
  Al  Al4  1  0.261553  0.010917  0.750791  1
  Al  Al5  1  0.739561  0.990806  0.249738  1
  Al  Al6  1  0.739587  0.489832  0.748770  1
  Al  Al7  1  0.261528  0.510738  0.250607  1
  Si  Si8  1  0.457265  0.607274  0.850063  1
  Si  Si9  1  0.540855  0.391172  0.149610  1
  Si  Si10  1  0.755617  0.106927  0.648702  1
  Si  Si11  1  0.244743  0.894170  0.350557  1
  Si  Si12  1  0.999772  0.749184  0.750824  1
  Si  Si13  1  0.999822  0.248973  0.250602  1
  Ni  Ni14  1  0.244991  0.623664  0.621324  1
  Ni  Ni15  1  0.753600  0.375101  0.378509  1
  Ni  Ni16  1  0.002961  0.123657  0.879236  1
  Ni  Ni17  1  0.998427  0.876815  0.121652  1
  Ni  Ni18  1  0.499295  0.749152  0.248774  1
  Ni  Ni19  1  0.499193  0.250512  0.750130  1
