# generated using pymatgen
data_Dy15HoIn4(IrRh)2
_symmetry_space_group_name_H-M   'P 1'
_cell_length_a   9.66967285
_cell_length_b   9.65700399
_cell_length_c   9.65700272
_cell_angle_alpha   59.85946319
_cell_angle_beta   59.95658909
_cell_angle_gamma   59.95659222
_symmetry_Int_Tables_number   1
_chemical_formula_structural   Dy15HoIn4(IrRh)2
_chemical_formula_sum   'Dy15 Ho1 In4 Ir2 Rh2'
_cell_volume   636.55142528
_cell_formula_units_Z   1
loop_
 _symmetry_equiv_pos_site_id
 _symmetry_equiv_pos_as_xyz
  1  'x, y, z'
loop_
 _atom_site_type_symbol
 _atom_site_label
 _atom_site_symmetry_multiplicity
 _atom_site_fract_x
 _atom_site_fract_y
 _atom_site_fract_z
 _atom_site_occupancy
  Dy  Dy0  1  0.689803  0.689876  0.310942  1
  Dy  Dy1  1  0.309379  0.689876  0.310942  1
  Dy  Dy2  1  0.938181  0.939711  0.560670  1
  Dy  Dy3  1  0.150749  0.149383  0.549118  1
  Dy  Dy4  1  0.561437  0.939711  0.560670  1
  Dy  Dy5  1  0.151641  0.150693  0.150693  1
  Dy  Dy6  1  0.309379  0.310942  0.689876  1
  Dy  Dy7  1  0.940449  0.559551  0.559551  1
  Dy  Dy8  1  0.561437  0.560670  0.939711  1
  Dy  Dy9  1  0.562769  0.937231  0.937231  1
  Dy  Dy10  1  0.938181  0.560670  0.939711  1
  Dy  Dy11  1  0.150749  0.549118  0.149383  1
  Dy  Dy12  1  0.309926  0.690074  0.690074  1
  Dy  Dy13  1  0.689803  0.310942  0.689876  1
  Dy  Dy14  1  0.546973  0.150693  0.150693  1
  Ho  Ho15  1  0.689928  0.310072  0.310072  1
  In  In16  1  0.916866  0.917335  0.248933  1
  In  In17  1  0.249396  0.917109  0.917109  1
  In  In18  1  0.916866  0.248933  0.917335  1
  In  In19  1  0.916385  0.917109  0.917109  1
  Ir  Ir20  1  0.358257  0.358070  0.358070  1
  Ir  Ir21  1  0.925605  0.358070  0.358070  1
  Rh  Rh22  1  0.357920  0.358796  0.925364  1
  Rh  Rh23  1  0.357920  0.925364  0.358796  1
