# generated using pymatgen
data_TbHfMn12P7
_symmetry_space_group_name_H-M   'P 1'
_cell_length_a   9.23989500
_cell_length_b   9.23989406
_cell_length_c   3.57204800
_cell_angle_alpha   90.00000000
_cell_angle_beta   90.00000000
_cell_angle_gamma   119.99999979
_symmetry_Int_Tables_number   1
_chemical_formula_structural   TbHfMn12P7
_chemical_formula_sum   'Tb1 Hf1 Mn12 P7'
_cell_volume   264.10823725
_cell_formula_units_Z   1
loop_
 _symmetry_equiv_pos_site_id
 _symmetry_equiv_pos_as_xyz
  1  'x, y, z'
loop_
 _atom_site_type_symbol
 _atom_site_label
 _atom_site_symmetry_multiplicity
 _atom_site_fract_x
 _atom_site_fract_y
 _atom_site_fract_z
 _atom_site_occupancy
  Tb  Tb0  1  0.333333  0.666667  0.500000  1
  Hf  Hf1  1  0.666667  0.333333  0.000000  1
  Mn  Mn2  1  0.046077  0.621209  0.000000  1
  Mn  Mn3  1  0.575132  0.953923  0.000000  1
  Mn  Mn4  1  0.378791  0.424868  0.000000  1
  Mn  Mn5  1  0.279313  0.121786  0.000000  1
  Mn  Mn6  1  0.842473  0.720687  0.000000  1
  Mn  Mn7  1  0.878214  0.157527  0.000000  1
  Mn  Mn8  1  0.440807  0.049247  0.500000  1
  Mn  Mn9  1  0.608440  0.559193  0.500000  1
  Mn  Mn10  1  0.950753  0.391560  0.500000  1
  Mn  Mn11  1  0.103413  0.874977  0.500000  1
  Mn  Mn12  1  0.771563  0.896587  0.500000  1
  Mn  Mn13  1  0.125023  0.228437  0.500000  1
  P  P14  1  0.290072  0.880648  0.000000  1
  P  P15  1  0.590575  0.709928  0.000000  1
  P  P16  1  0.119352  0.409425  0.000000  1
  P  P17  1  0.413710  0.281802  0.500000  1
  P  P18  1  0.868092  0.586290  0.500000  1
  P  P19  1  0.718198  0.131908  0.500000  1
  P  P20  1  0.000000  0.000000  0.000000  1
