# generated using pymatgen
data_CaPrSn6(BRh6)2
_symmetry_space_group_name_H-M   'P 1'
_cell_length_a   5.78000400
_cell_length_b   5.78000424
_cell_length_c   13.62868300
_cell_angle_alpha   90.00000000
_cell_angle_beta   90.00000000
_cell_angle_gamma   120.00001006
_symmetry_Int_Tables_number   1
_chemical_formula_structural   CaPrSn6(BRh6)2
_chemical_formula_sum   'Ca1 Pr1 Sn6 B2 Rh12'
_cell_volume   394.31270801
_cell_formula_units_Z   1
loop_
 _symmetry_equiv_pos_site_id
 _symmetry_equiv_pos_as_xyz
  1  'x, y, z'
loop_
 _atom_site_type_symbol
 _atom_site_label
 _atom_site_symmetry_multiplicity
 _atom_site_fract_x
 _atom_site_fract_y
 _atom_site_fract_z
 _atom_site_occupancy
  Ca  Ca0  1  0.666667  0.333333  0.886758  1
  Pr  Pr1  1  0.333333  0.666667  0.392300  1
  Sn  Sn2  1  0.000000  0.000000  0.755736  1
  Sn  Sn3  1  0.000000  0.000000  0.250210  1
  Sn  Sn4  1  0.333333  0.666667  0.756684  1
  Sn  Sn5  1  0.666667  0.333333  0.254100  1
  Sn  Sn6  1  0.666667  0.333333  0.575136  1
  Sn  Sn7  1  0.333333  0.666667  0.076128  1
  B  B8  1  0.000000  0.000000  0.505692  1
  B  B9  1  0.000000  0.000000  0.003200  1
  Rh  Rh10  1  0.334328  0.167164  0.411270  1
  Rh  Rh11  1  0.832836  0.167164  0.411270  1
  Rh  Rh12  1  0.832836  0.665672  0.411270  1
  Rh  Rh13  1  0.168553  0.337105  0.912894  1
  Rh  Rh14  1  0.660906  0.830452  0.595955  1
  Rh  Rh15  1  0.662895  0.831447  0.912894  1
  Rh  Rh16  1  0.340609  0.170305  0.094567  1
  Rh  Rh17  1  0.169548  0.339094  0.595955  1
  Rh  Rh18  1  0.169548  0.830452  0.595955  1
  Rh  Rh19  1  0.829695  0.170305  0.094567  1
  Rh  Rh20  1  0.829695  0.659391  0.094567  1
  Rh  Rh21  1  0.168553  0.831447  0.912894  1
