# generated using pymatgen
data_DyTm15(In3Ir)2
_symmetry_space_group_name_H-M   'P 1'
_cell_length_a   10.28398400
_cell_length_b   10.28686010
_cell_length_c   6.97178800
_cell_angle_alpha   90.01225357
_cell_angle_beta   90.00000000
_cell_angle_gamma   119.99075169
_symmetry_Int_Tables_number   1
_chemical_formula_structural   DyTm15(In3Ir)2
_chemical_formula_sum   'Dy1 Tm15 In6 Ir2'
_cell_volume   638.79201962
_cell_formula_units_Z   1
loop_
 _symmetry_equiv_pos_site_id
 _symmetry_equiv_pos_as_xyz
  1  'x, y, z'
loop_
 _atom_site_type_symbol
 _atom_site_label
 _atom_site_symmetry_multiplicity
 _atom_site_fract_x
 _atom_site_fract_y
 _atom_site_fract_z
 _atom_site_occupancy
  Dy  Dy0  1  0.532341  0.064684  0.514630  1
  Tm  Tm1  1  0.934512  0.467307  0.514673  1
  Tm  Tm2  1  0.532795  0.467307  0.514673  1
  Tm  Tm3  1  0.467013  0.934026  0.014628  1
  Tm  Tm4  1  0.065664  0.532845  0.014639  1
  Tm  Tm5  1  0.467183  0.532845  0.014639  1
  Tm  Tm6  1  0.176689  0.353379  0.721641  1
  Tm  Tm7  1  0.646890  0.823074  0.721987  1
  Tm  Tm8  1  0.176182  0.823074  0.721987  1
  Tm  Tm9  1  0.823323  0.646644  0.221607  1
  Tm  Tm10  1  0.353144  0.176834  0.221253  1
  Tm  Tm11  1  0.823692  0.176834  0.221253  1
  Tm  Tm12  1  0.666900  0.333798  0.895215  1
  Tm  Tm13  1  0.333139  0.666278  0.394994  1
  Tm  Tm14  1  0.000011  0.000023  0.500244  1
  Tm  Tm15  1  0.000043  0.000086  0.000381  1
  In  In16  1  0.837070  0.674140  0.761241  1
  In  In17  1  0.325433  0.162940  0.761653  1
  In  In18  1  0.837506  0.162940  0.761653  1
  In  In19  1  0.162888  0.325775  0.261346  1
  In  In20  1  0.674217  0.837119  0.261138  1
  In  In21  1  0.162903  0.837119  0.261138  1
  Ir  Ir22  1  0.667130  0.334259  0.290414  1
  Ir  Ir23  1  0.333336  0.666671  0.790971  1
