# generated using pymatgen
data_Sr3YbNiO6
_symmetry_space_group_name_H-M   'P 1'
_cell_length_a   6.73590369
_cell_length_b   6.73588828
_cell_length_c   6.73588859
_cell_angle_alpha   91.85962462
_cell_angle_beta   91.85936522
_cell_angle_gamma   91.85939537
_symmetry_Int_Tables_number   1
_chemical_formula_structural   Sr3YbNiO6
_chemical_formula_sum   'Sr6 Yb2 Ni2 O12'
_cell_volume   305.12920926
_cell_formula_units_Z   2
loop_
 _symmetry_equiv_pos_site_id
 _symmetry_equiv_pos_as_xyz
  1  'x, y, z'
loop_
 _atom_site_type_symbol
 _atom_site_label
 _atom_site_symmetry_multiplicity
 _atom_site_fract_x
 _atom_site_fract_y
 _atom_site_fract_z
 _atom_site_occupancy
  Sr  Sr0  1  0.617796  0.882203  0.249997  1
  Sr  Sr1  1  0.882200  0.249992  0.617795  1
  Sr  Sr2  1  0.249994  0.617796  0.882201  1
  Sr  Sr3  1  0.117801  0.750009  0.382206  1
  Sr  Sr4  1  0.750008  0.382205  0.117802  1
  Sr  Sr5  1  0.382204  0.117797  0.750006  1
  Yb  Yb6  1  0.250001  0.250005  0.249997  1
  Yb  Yb7  1  0.749998  0.749993  0.750004  1
  Ni  Ni8  1  0.500015  0.500010  0.500021  1
  Ni  Ni9  1  0.999980  0.999994  0.999964  1
  O  O10  1  0.548648  0.223750  0.419966  1
  O  O11  1  0.223750  0.419969  0.548649  1
  O  O12  1  0.419968  0.548653  0.223752  1
  O  O13  1  0.048645  0.919962  0.723759  1
  O  O14  1  0.919968  0.723761  0.048651  1
  O  O15  1  0.723759  0.048645  0.919967  1
  O  O16  1  0.451354  0.776252  0.580039  1
  O  O17  1  0.776253  0.580031  0.451355  1
  O  O18  1  0.580034  0.451347  0.776253  1
  O  O19  1  0.951354  0.080036  0.276238  1
  O  O20  1  0.080031  0.276239  0.951348  1
  O  O21  1  0.276239  0.951354  0.080030  1
