# generated using pymatgen
data_Hf2ZrTa2Si3N
_symmetry_space_group_name_H-M   'P 1'
_cell_length_a   7.77959600
_cell_length_b   7.74649052
_cell_length_c   5.42372900
_cell_angle_alpha   90.00000000
_cell_angle_beta   90.00000000
_cell_angle_gamma   120.14147943
_symmetry_Int_Tables_number   1
_chemical_formula_structural   Hf2ZrTa2Si3N
_chemical_formula_sum   'Hf4 Zr2 Ta4 Si6 N2'
_cell_volume   282.66350268
_cell_formula_units_Z   2
loop_
 _symmetry_equiv_pos_site_id
 _symmetry_equiv_pos_as_xyz
  1  'x, y, z'
loop_
 _atom_site_type_symbol
 _atom_site_label
 _atom_site_symmetry_multiplicity
 _atom_site_fract_x
 _atom_site_fract_y
 _atom_site_fract_z
 _atom_site_occupancy
  Hf  Hf0  1  0.001416  0.235420  0.250000  1
  Hf  Hf1  1  0.998584  0.764580  0.750000  1
  Hf  Hf2  1  0.765996  0.764580  0.250000  1
  Hf  Hf3  1  0.234004  0.235420  0.750000  1
  Zr  Zr4  1  0.240830  0.000000  0.250000  1
  Zr  Zr5  1  0.759170  0.000000  0.750000  1
  Ta  Ta6  1  0.332964  0.665930  0.000000  1
  Ta  Ta7  1  0.667036  0.334070  0.000000  1
  Ta  Ta8  1  0.667036  0.334070  0.500000  1
  Ta  Ta9  1  0.332964  0.665930  0.500000  1
  Si  Si10  1  0.594116  0.000000  0.250000  1
  Si  Si11  1  0.405884  0.000000  0.750000  1
  Si  Si12  1  0.000011  0.589983  0.250000  1
  Si  Si13  1  0.999989  0.410017  0.750000  1
  Si  Si14  1  0.410028  0.410017  0.250000  1
  Si  Si15  1  0.589972  0.589983  0.750000  1
  N  N16  1  0.000000  0.000000  0.000000  1
  N  N17  1  0.000000  0.000000  0.500000  1
