# generated using pymatgen
data_Hf4Tc5
_symmetry_space_group_name_H-M   'P 1'
_cell_length_a   4.54732790
_cell_length_b   4.54423434
_cell_length_c   9.71860115
_cell_angle_alpha   103.41514244
_cell_angle_beta   62.29779038
_cell_angle_gamma   120.02436856
_symmetry_Int_Tables_number   1
_chemical_formula_structural   Hf4Tc5
_chemical_formula_sum   'Hf4 Tc5'
_cell_volume   153.94732563
_cell_formula_units_Z   1
loop_
 _symmetry_equiv_pos_site_id
 _symmetry_equiv_pos_as_xyz
  1  'x, y, z'
loop_
 _atom_site_type_symbol
 _atom_site_label
 _atom_site_symmetry_multiplicity
 _atom_site_fract_x
 _atom_site_fract_y
 _atom_site_fract_z
 _atom_site_occupancy
  Hf  Hf0  1  0.696873  0.872704  0.064287  1
  Hf  Hf1  1  0.579055  0.206407  0.848292  1
  Hf  Hf2  1  0.928397  0.206266  0.500894  1
  Hf  Hf3  1  0.810478  0.539936  0.284891  1
  Tc  Tc4  1  0.151824  0.538987  0.942613  1
  Tc  Tc5  1  0.461705  0.541613  0.632097  1
  Tc  Tc6  1  0.355621  0.873665  0.406539  1
  Tc  Tc7  1  0.045869  0.871062  0.717013  1
  Tc  Tc8  1  0.253669  0.206318  0.174583  1
