# generated using pymatgen
data_La8Si12Pt3Au
_symmetry_space_group_name_H-M   'P 1'
_cell_length_a   8.31625500
_cell_length_b   8.31625553
_cell_length_c   8.85494500
_cell_angle_alpha   90.00000000
_cell_angle_beta   90.00000000
_cell_angle_gamma   119.99999390
_symmetry_Int_Tables_number   1
_chemical_formula_structural   La8Si12Pt3Au
_chemical_formula_sum   'La8 Si12 Pt3 Au1'
_cell_volume   530.36169446
_cell_formula_units_Z   1
loop_
 _symmetry_equiv_pos_site_id
 _symmetry_equiv_pos_as_xyz
  1  'x, y, z'
loop_
 _atom_site_type_symbol
 _atom_site_label
 _atom_site_symmetry_multiplicity
 _atom_site_fract_x
 _atom_site_fract_y
 _atom_site_fract_z
 _atom_site_occupancy
  La  La0  1  0.000000  0.000000  0.249489  1
  La  La1  1  0.000000  0.000000  0.750698  1
  La  La2  1  0.501959  0.498041  0.247481  1
  La  La3  1  0.501959  0.003921  0.247481  1
  La  La4  1  0.996079  0.498041  0.247481  1
  La  La5  1  0.500741  0.499259  0.752442  1
  La  La6  1  0.500741  0.001480  0.752442  1
  La  La7  1  0.998520  0.499259  0.752442  1
  Si  Si8  1  0.162104  0.837896  0.500605  1
  Si  Si9  1  0.162104  0.324209  0.500605  1
  Si  Si10  1  0.675791  0.837896  0.500605  1
  Si  Si11  1  0.833245  0.166755  0.499617  1
  Si  Si12  1  0.833245  0.666488  0.499617  1
  Si  Si13  1  0.333512  0.166755  0.499617  1
  Si  Si14  1  0.834446  0.165554  0.000738  1
  Si  Si15  1  0.834446  0.668891  0.000738  1
  Si  Si16  1  0.331109  0.165554  0.000738  1
  Si  Si17  1  0.166002  0.833998  0.999199  1
  Si  Si18  1  0.166002  0.332005  0.999199  1
  Si  Si19  1  0.667995  0.833998  0.999199  1
  Pt  Pt20  1  0.666667  0.333333  0.501618  1
  Pt  Pt21  1  0.666667  0.333333  0.997321  1
  Pt  Pt22  1  0.333333  0.666667  0.002875  1
  Au  Au23  1  0.333333  0.666667  0.497749  1
