# generated using pymatgen
data_NdLu4(In2Pd)2
_symmetry_space_group_name_H-M   'P 1'
_cell_length_a   3.60704900
_cell_length_b   8.10361200
_cell_length_c   18.19915400
_cell_angle_alpha   90.00000000
_cell_angle_beta   90.00000000
_cell_angle_gamma   90.00000000
_symmetry_Int_Tables_number   1
_chemical_formula_structural   NdLu4(In2Pd)2
_chemical_formula_sum   'Nd2 Lu8 In8 Pd4'
_cell_volume   531.96355652
_cell_formula_units_Z   2
loop_
 _symmetry_equiv_pos_site_id
 _symmetry_equiv_pos_as_xyz
  1  'x, y, z'
loop_
 _atom_site_type_symbol
 _atom_site_label
 _atom_site_symmetry_multiplicity
 _atom_site_fract_x
 _atom_site_fract_y
 _atom_site_fract_z
 _atom_site_occupancy
  Nd  Nd0  1  0.000000  0.500000  0.500000  1
  Nd  Nd1  1  0.000000  0.000000  0.000000  1
  Lu  Lu2  1  0.000000  0.741204  0.281035  1
  Lu  Lu3  1  0.000000  0.258796  0.718965  1
  Lu  Lu4  1  0.000000  0.758796  0.781035  1
  Lu  Lu5  1  0.000000  0.241204  0.218965  1
  Lu  Lu6  1  0.000000  0.621494  0.085842  1
  Lu  Lu7  1  0.000000  0.378506  0.914158  1
  Lu  Lu8  1  0.000000  0.878506  0.585842  1
  Lu  Lu9  1  0.000000  0.121494  0.414158  1
  In  In10  1  0.500000  0.697918  0.932376  1
  In  In11  1  0.500000  0.302082  0.067624  1
  In  In12  1  0.500000  0.802082  0.432376  1
  In  In13  1  0.500000  0.197918  0.567624  1
  In  In14  1  0.500000  0.580720  0.653225  1
  In  In15  1  0.500000  0.419280  0.346775  1
  In  In16  1  0.500000  0.919280  0.153225  1
  In  In17  1  0.500000  0.080720  0.846775  1
  Pd  Pd18  1  0.500000  0.526474  0.195030  1
  Pd  Pd19  1  0.500000  0.473526  0.804970  1
  Pd  Pd20  1  0.500000  0.973526  0.695030  1
  Pd  Pd21  1  0.500000  0.026474  0.304970  1
