# generated using pymatgen
data_Sr4DySi12Ir19
_symmetry_space_group_name_H-M   'P 1'
_cell_length_a   12.92971000
_cell_length_b   12.92970972
_cell_length_c   4.05423800
_cell_angle_alpha   90.00000000
_cell_angle_beta   90.00000000
_cell_angle_gamma   120.00000072
_symmetry_Int_Tables_number   1
_chemical_formula_structural   Sr4DySi12Ir19
_chemical_formula_sum   'Sr4 Dy1 Si12 Ir19'
_cell_volume   586.97205767
_cell_formula_units_Z   1
loop_
 _symmetry_equiv_pos_site_id
 _symmetry_equiv_pos_as_xyz
  1  'x, y, z'
loop_
 _atom_site_type_symbol
 _atom_site_label
 _atom_site_symmetry_multiplicity
 _atom_site_fract_x
 _atom_site_fract_y
 _atom_site_fract_z
 _atom_site_occupancy
  Sr  Sr0  1  0.333333  0.666667  0.500000  1
  Sr  Sr1  1  0.999970  0.817293  0.000000  1
  Sr  Sr2  1  0.182707  0.182677  0.000000  1
  Sr  Sr3  1  0.817323  0.000030  0.000000  1
  Dy  Dy4  1  0.666667  0.333333  0.500000  1
  Si  Si5  1  0.000697  0.629354  0.500000  1
  Si  Si6  1  0.370646  0.371344  0.500000  1
  Si  Si7  1  0.628656  0.999303  0.500000  1
  Si  Si8  1  0.521316  0.688399  0.000000  1
  Si  Si9  1  0.311601  0.832917  0.000000  1
  Si  Si10  1  0.167083  0.478684  0.000000  1
  Si  Si11  1  0.480582  0.169920  0.000000  1
  Si  Si12  1  0.689338  0.519418  0.000000  1
  Si  Si13  1  0.830080  0.310662  0.000000  1
  Si  Si14  1  0.999342  0.185887  0.500000  1
  Si  Si15  1  0.814113  0.813455  0.500000  1
  Si  Si16  1  0.186545  0.000658  0.500000  1
  Ir  Ir17  1  0.515095  0.877346  0.000000  1
  Ir  Ir18  1  0.122654  0.637749  0.000000  1
  Ir  Ir19  1  0.362251  0.484905  0.000000  1
  Ir  Ir20  1  0.491016  0.362708  0.000000  1
  Ir  Ir21  1  0.871692  0.508984  0.000000  1
  Ir  Ir22  1  0.637292  0.128308  0.000000  1
  Ir  Ir23  1  0.998363  0.446746  0.500000  1
  Ir  Ir24  1  0.553254  0.551617  0.500000  1
  Ir  Ir25  1  0.448383  0.001637  0.500000  1
  Ir  Ir26  1  0.998625  0.286066  0.000000  1
  Ir  Ir27  1  0.713934  0.712560  0.000000  1
  Ir  Ir28  1  0.287440  0.001375  0.000000  1
  Ir  Ir29  1  0.620233  0.803075  0.500000  1
  Ir  Ir30  1  0.196925  0.817157  0.500000  1
  Ir  Ir31  1  0.182843  0.379767  0.500000  1
  Ir  Ir32  1  0.383056  0.185727  0.500000  1
  Ir  Ir33  1  0.802670  0.616944  0.500000  1
  Ir  Ir34  1  0.814273  0.197330  0.500000  1
  Ir  Ir35  1  0.000000  0.000000  0.500000  1
