# generated using pymatgen
data_Er9Lu3InCo4Pt
_symmetry_space_group_name_H-M   'P 1'
_cell_length_a   8.20460346
_cell_length_b   8.20481989
_cell_length_c   8.20460365
_cell_angle_alpha   111.12510155
_cell_angle_beta   110.69764841
_cell_angle_gamma   106.62706663
_symmetry_Int_Tables_number   1
_chemical_formula_structural   Er9Lu3InCo4Pt
_chemical_formula_sum   'Er9 Lu3 In1 Co4 Pt1'
_cell_volume   424.38832066
_cell_formula_units_Z   1
loop_
 _symmetry_equiv_pos_site_id
 _symmetry_equiv_pos_as_xyz
  1  'x, y, z'
loop_
 _atom_site_type_symbol
 _atom_site_label
 _atom_site_symmetry_multiplicity
 _atom_site_fract_x
 _atom_site_fract_y
 _atom_site_fract_z
 _atom_site_occupancy
  Er  Er0  1  0.418632  0.218743  0.199096  1
  Er  Er1  1  0.582148  0.781139  0.801825  1
  Er  Er2  1  0.019647  0.218743  0.800111  1
  Er  Er3  1  0.979314  0.781139  0.198991  1
  Er  Er4  1  0.186159  0.287606  0.474747  1
  Er  Er5  1  0.814436  0.712176  0.525893  1
  Er  Er6  1  0.186283  0.712176  0.897741  1
  Er  Er7  1  0.812859  0.287606  0.101446  1
  Er  Er8  1  0.315311  0.619896  0.304584  1
  Lu  Lu9  1  0.684112  0.378363  0.694251  1
  Lu  Lu10  1  0.316034  0.010682  0.694648  1
  Lu  Lu11  1  0.684482  0.990313  0.305832  1
  In  In12  1  0.500238  0.499759  0.999521  1
  Co  Co13  1  0.378307  0.000860  0.378277  1
  Co  Co14  1  0.622583  0.000860  0.622553  1
  Co  Co15  1  0.112396  0.612751  0.500355  1
  Co  Co16  1  0.886983  0.386957  0.499974  1
  Pt  Pt17  1  0.000074  0.000231  0.000157  1
