# generated using pymatgen
data_NdSm(Y2Rh9)2
_symmetry_space_group_name_H-M   'P 1'
_cell_length_a   5.30689000
_cell_length_b   5.30677310
_cell_length_c   17.53919000
_cell_angle_alpha   90.00000000
_cell_angle_beta   90.00000000
_cell_angle_gamma   120.00010395
_symmetry_Int_Tables_number   1
_chemical_formula_structural   NdSm(Y2Rh9)2
_chemical_formula_sum   'Nd1 Sm1 Y4 Rh18'
_cell_volume   427.76999050
_cell_formula_units_Z   1
loop_
 _symmetry_equiv_pos_site_id
 _symmetry_equiv_pos_as_xyz
  1  'x, y, z'
loop_
 _atom_site_type_symbol
 _atom_site_label
 _atom_site_symmetry_multiplicity
 _atom_site_fract_x
 _atom_site_fract_y
 _atom_site_fract_z
 _atom_site_occupancy
  Nd  Nd0  1  0.333333  0.666666  0.750000  1
  Sm  Sm1  1  0.666667  0.333333  0.250000  1
  Y  Y2  1  0.333333  0.666667  0.958488  1
  Y  Y3  1  0.666667  0.333334  0.042268  1
  Y  Y4  1  0.666667  0.333334  0.457732  1
  Y  Y5  1  0.333333  0.666667  0.541512  1
  Rh  Rh6  1  0.167177  0.832824  0.374180  1
  Rh  Rh7  1  0.167177  0.334354  0.374181  1
  Rh  Rh8  1  0.665646  0.832823  0.374181  1
  Rh  Rh9  1  0.832769  0.167231  0.625287  1
  Rh  Rh10  1  0.832768  0.665536  0.625287  1
  Rh  Rh11  1  0.334463  0.167232  0.625288  1
  Rh  Rh12  1  0.832769  0.167231  0.874713  1
  Rh  Rh13  1  0.832768  0.665536  0.874713  1
  Rh  Rh14  1  0.334463  0.167232  0.874712  1
  Rh  Rh15  1  0.167177  0.832824  0.125820  1
  Rh  Rh16  1  0.167177  0.334354  0.125819  1
  Rh  Rh17  1  0.665646  0.832823  0.125819  1
  Rh  Rh18  1  0.333333  0.666667  0.250000  1
  Rh  Rh19  1  0.666668  0.333335  0.750000  1
  Rh  Rh20  1  0.000001  0.000002  0.250000  1
  Rh  Rh21  1  0.999999  0.999999  0.750000  1
  Rh  Rh22  1  0.999999  0.999999  0.499611  1
  Rh  Rh23  1  0.999999  0.999999  0.000389  1
