# generated using pymatgen
data_Pr4HoIn3
_symmetry_space_group_name_H-M   'P 1'
_cell_length_a   6.23130190
_cell_length_b   9.43538358
_cell_length_c   9.43538297
_cell_angle_alpha   83.74012512
_cell_angle_beta   70.71852430
_cell_angle_gamma   70.71852828
_symmetry_Int_Tables_number   1
_chemical_formula_structural   Pr4HoIn3
_chemical_formula_sum   'Pr8 Ho2 In6'
_cell_volume   494.26175800
_cell_formula_units_Z   2
loop_
 _symmetry_equiv_pos_site_id
 _symmetry_equiv_pos_as_xyz
  1  'x, y, z'
loop_
 _atom_site_type_symbol
 _atom_site_label
 _atom_site_symmetry_multiplicity
 _atom_site_fract_x
 _atom_site_fract_y
 _atom_site_fract_z
 _atom_site_occupancy
  Pr  Pr0  1  0.722645  0.863144  0.691566  1
  Pr  Pr1  1  0.277355  0.136856  0.308434  1
  Pr  Pr2  1  0.777355  0.308434  0.136856  1
  Pr  Pr3  1  0.222645  0.691566  0.863144  1
  Pr  Pr4  1  0.585789  0.691566  0.136856  1
  Pr  Pr5  1  0.414211  0.308434  0.863144  1
  Pr  Pr6  1  0.085789  0.136856  0.691566  1
  Pr  Pr7  1  0.914211  0.863144  0.308434  1
  Ho  Ho8  1  0.750000  0.500000  0.500000  1
  Ho  Ho9  1  0.250000  0.500000  0.500000  1
  In  In10  1  0.156872  0.500000  0.186256  1
  In  In11  1  0.843128  0.500000  0.813744  1
  In  In12  1  0.343128  0.813744  0.500000  1
  In  In13  1  0.656872  0.186256  0.500000  1
  In  In14  1  0.250000  0.000000  0.000000  1
  In  In15  1  0.750000  0.000000  0.000000  1
