# generated using pymatgen
data_NbCdIr3S8
_symmetry_space_group_name_H-M   'P 1'
_cell_length_a   6.85048991
_cell_length_b   6.85049066
_cell_length_c   6.85049000
_cell_angle_alpha   64.16813724
_cell_angle_beta   64.16812492
_cell_angle_gamma   64.16812953
_symmetry_Int_Tables_number   1
_chemical_formula_structural   NbCdIr3S8
_chemical_formula_sum   'Nb1 Cd1 Ir3 S8'
_cell_volume   248.16538678
_cell_formula_units_Z   1
loop_
 _symmetry_equiv_pos_site_id
 _symmetry_equiv_pos_as_xyz
  1  'x, y, z'
loop_
 _atom_site_type_symbol
 _atom_site_label
 _atom_site_symmetry_multiplicity
 _atom_site_fract_x
 _atom_site_fract_y
 _atom_site_fract_z
 _atom_site_occupancy
  Nb  Nb0  1  0.407815  0.407815  0.407815  1
  Cd  Cd1  1  0.980195  0.980195  0.980195  1
  Ir  Ir2  1  0.863401  0.372765  0.372765  1
  Ir  Ir3  1  0.372765  0.863401  0.372765  1
  Ir  Ir4  1  0.372765  0.372765  0.863401  1
  S  S5  1  0.134070  0.134070  0.134070  1
  S  S6  1  0.566170  0.145404  0.145404  1
  S  S7  1  0.145404  0.566170  0.145404  1
  S  S8  1  0.145404  0.145404  0.566170  1
  S  S9  1  0.612297  0.612297  0.612297  1
  S  S10  1  0.124530  0.637593  0.637593  1
  S  S11  1  0.637593  0.124530  0.637593  1
  S  S12  1  0.637593  0.637593  0.124530  1
