# generated using pymatgen
data_SmMo3(PO4)4
_symmetry_space_group_name_H-M   'P 1'
_cell_length_a   4.88486903
_cell_length_b   7.10952541
_cell_length_c   9.10367118
_cell_angle_alpha   89.98258613
_cell_angle_beta   90.49439725
_cell_angle_gamma   89.77825920
_symmetry_Int_Tables_number   1
_chemical_formula_structural   SmMo3(PO4)4
_chemical_formula_sum   'Sm1 Mo3 P4 O16'
_cell_volume   316.14815535
_cell_formula_units_Z   1
loop_
 _symmetry_equiv_pos_site_id
 _symmetry_equiv_pos_as_xyz
  1  'x, y, z'
loop_
 _atom_site_type_symbol
 _atom_site_label
 _atom_site_symmetry_multiplicity
 _atom_site_fract_x
 _atom_site_fract_y
 _atom_site_fract_z
 _atom_site_occupancy
  Sm  Sm0  1  0.000000  0.000000  0.000000  1
  Mo  Mo1  1  0.500000  0.500000  0.500000  1
  Mo  Mo2  1  0.000000  0.500000  0.000000  1
  Mo  Mo3  1  0.500000  0.000000  0.500000  1
  P  P4  1  0.991349  0.744360  0.672966  1
  P  P5  1  0.495911  0.258240  0.817139  1
  P  P6  1  0.008651  0.255640  0.327034  1
  P  P7  1  0.504089  0.741760  0.182861  1
  O  O8  1  0.144984  0.434539  0.381413  1
  O  O9  1  0.656337  0.567655  0.129843  1
  O  O10  1  0.850024  0.929550  0.629684  1
  O  O11  1  0.383326  0.069881  0.869460  1
  O  O12  1  0.855016  0.565461  0.618587  1
  O  O13  1  0.343663  0.432345  0.870157  1
  O  O14  1  0.149976  0.070450  0.370316  1
  O  O15  1  0.616674  0.930119  0.130540  1
  O  O16  1  0.198486  0.728220  0.127452  1
  O  O17  1  0.704549  0.249807  0.386540  1
  O  O18  1  0.801514  0.271780  0.872548  1
  O  O19  1  0.295451  0.750193  0.613460  1
  O  O20  1  0.525739  0.746720  0.356697  1
  O  O21  1  0.011747  0.263530  0.153982  1
  O  O22  1  0.474261  0.253280  0.643303  1
  O  O23  1  0.988253  0.736470  0.846018  1
