# generated using pymatgen
data_K2V4NiO12
_symmetry_space_group_name_H-M   'P 1'
_cell_length_a   9.35129600
_cell_length_b   8.30841424
_cell_length_c   9.72071079
_cell_angle_alpha   56.12876733
_cell_angle_beta   90.00000000
_cell_angle_gamma   90.00000000
_symmetry_Int_Tables_number   1
_chemical_formula_structural   K2V4NiO12
_chemical_formula_sum   'K4 V8 Ni2 O24'
_cell_volume   627.07420202
_cell_formula_units_Z   2
loop_
 _symmetry_equiv_pos_site_id
 _symmetry_equiv_pos_as_xyz
  1  'x, y, z'
loop_
 _atom_site_type_symbol
 _atom_site_label
 _atom_site_symmetry_multiplicity
 _atom_site_fract_x
 _atom_site_fract_y
 _atom_site_fract_z
 _atom_site_occupancy
  K  K0  1  0.293163  0.272132  0.093803  1
  K  K1  1  0.793163  0.727868  0.406197  1
  K  K2  1  0.706837  0.727868  0.906197  1
  K  K3  1  0.206837  0.272132  0.593803  1
  V  V4  1  0.053614  0.537850  0.750753  1
  V  V5  1  0.553614  0.462150  0.749247  1
  V  V6  1  0.946386  0.462150  0.249247  1
  V  V7  1  0.446386  0.537850  0.250753  1
  V  V8  1  0.273914  0.792985  0.866531  1
  V  V9  1  0.773914  0.207015  0.633469  1
  V  V10  1  0.726086  0.207015  0.133469  1
  V  V11  1  0.226086  0.792985  0.366531  1
  Ni  Ni12  1  0.500000  0.000000  0.500000  1
  Ni  Ni13  1  0.000000  0.000000  0.000000  1
  O  O14  1  0.887308  0.605751  0.751002  1
  O  O15  1  0.387308  0.394249  0.748998  1
  O  O16  1  0.112692  0.394249  0.248998  1
  O  O17  1  0.612692  0.605751  0.251002  1
  O  O18  1  0.065705  0.292770  0.857773  1
  O  O19  1  0.565705  0.707230  0.642227  1
  O  O20  1  0.934295  0.707230  0.142227  1
  O  O21  1  0.434295  0.292770  0.357773  1
  O  O22  1  0.165369  0.928457  0.900900  1
  O  O23  1  0.665369  0.071543  0.599100  1
  O  O24  1  0.834631  0.071543  0.099100  1
  O  O25  1  0.334631  0.928457  0.400900  1
  O  O26  1  0.364912  0.946594  0.690431  1
  O  O27  1  0.864912  0.053406  0.809569  1
  O  O28  1  0.100286  0.646045  0.532531  1
  O  O29  1  0.600286  0.353955  0.967469  1
  O  O30  1  0.899714  0.353955  0.467469  1
  O  O31  1  0.399714  0.646045  0.032531  1
  O  O32  1  0.328523  0.625572  0.343843  1
  O  O33  1  0.828523  0.374428  0.156157  1
  O  O34  1  0.671477  0.374428  0.656157  1
  O  O35  1  0.171477  0.625572  0.843843  1
  O  O36  1  0.135088  0.946594  0.190431  1
  O  O37  1  0.635088  0.053406  0.309569  1
