# generated using pymatgen
data_SrYb(P2Pd7)3
_symmetry_space_group_name_H-M   'P 1'
_cell_length_a   8.66524362
_cell_length_b   8.66524407
_cell_length_c   8.66524300
_cell_angle_alpha   60.00000027
_cell_angle_beta   59.99999857
_cell_angle_gamma   59.99999634
_symmetry_Int_Tables_number   1
_chemical_formula_structural   SrYb(P2Pd7)3
_chemical_formula_sum   'Sr1 Yb1 P6 Pd21'
_cell_volume   460.07359628
_cell_formula_units_Z   1
loop_
 _symmetry_equiv_pos_site_id
 _symmetry_equiv_pos_as_xyz
  1  'x, y, z'
loop_
 _atom_site_type_symbol
 _atom_site_label
 _atom_site_symmetry_multiplicity
 _atom_site_fract_x
 _atom_site_fract_y
 _atom_site_fract_z
 _atom_site_occupancy
  Sr  Sr0  1  0.750000  0.750000  0.750000  1
  Yb  Yb1  1  0.250000  0.250000  0.250000  1
  P  P2  1  0.738212  0.738212  0.261788  1
  P  P3  1  0.261788  0.738212  0.261788  1
  P  P4  1  0.738212  0.261788  0.261788  1
  P  P5  1  0.261788  0.261788  0.738212  1
  P  P6  1  0.738212  0.261788  0.738212  1
  P  P7  1  0.261788  0.738212  0.738212  1
  Pd  Pd8  1  0.000000  0.000000  0.000000  1
  Pd  Pd9  1  0.610827  0.610827  0.167521  1
  Pd  Pd10  1  0.610827  0.167521  0.610827  1
  Pd  Pd11  1  0.167521  0.610827  0.610827  1
  Pd  Pd12  1  0.610827  0.610827  0.610827  1
  Pd  Pd13  1  0.383590  0.383590  0.849229  1
  Pd  Pd14  1  0.383590  0.849229  0.383590  1
  Pd  Pd15  1  0.849229  0.383590  0.383590  1
  Pd  Pd16  1  0.383590  0.383590  0.383590  1
  Pd  Pd17  1  0.002087  0.002087  0.341099  1
  Pd  Pd18  1  0.654727  0.002087  0.341099  1
  Pd  Pd19  1  0.002087  0.654727  0.341099  1
  Pd  Pd20  1  0.654727  0.341099  0.002087  1
  Pd  Pd21  1  0.002087  0.341099  0.002087  1
  Pd  Pd22  1  0.002087  0.341099  0.654727  1
  Pd  Pd23  1  0.341099  0.654727  0.002087  1
  Pd  Pd24  1  0.341099  0.002087  0.654727  1
  Pd  Pd25  1  0.341099  0.002087  0.002087  1
  Pd  Pd26  1  0.002087  0.002087  0.654727  1
  Pd  Pd27  1  0.002087  0.654727  0.002087  1
  Pd  Pd28  1  0.654727  0.002087  0.002087  1
