# generated using pymatgen
data_Tm20Ir7Pt2Au3
_symmetry_space_group_name_H-M   'P 1'
_cell_length_a   10.95742898
_cell_length_b   10.95742965
_cell_length_c   6.29328404
_cell_angle_alpha   89.90113181
_cell_angle_beta   89.90112376
_cell_angle_gamma   89.35117097
_symmetry_Int_Tables_number   1
_chemical_formula_structural   Tm20Ir7Pt2Au3
_chemical_formula_sum   'Tm20 Ir7 Pt2 Au3'
_cell_volume   755.55409447
_cell_formula_units_Z   1
loop_
 _symmetry_equiv_pos_site_id
 _symmetry_equiv_pos_as_xyz
  1  'x, y, z'
loop_
 _atom_site_type_symbol
 _atom_site_label
 _atom_site_symmetry_multiplicity
 _atom_site_fract_x
 _atom_site_fract_y
 _atom_site_fract_z
 _atom_site_occupancy
  Tm  Tm0  1  0.295623  0.091943  0.372155  1
  Tm  Tm1  1  0.299428  0.910947  0.862748  1
  Tm  Tm2  1  0.699688  0.076305  0.860199  1
  Tm  Tm3  1  0.701749  0.904767  0.369605  1
  Tm  Tm4  1  0.584082  0.788095  0.875365  1
  Tm  Tm5  1  0.574805  0.204886  0.361353  1
  Tm  Tm6  1  0.418967  0.790147  0.373736  1
  Tm  Tm7  1  0.407013  0.205239  0.877396  1
  Tm  Tm8  1  0.211905  0.415918  0.624635  1
  Tm  Tm9  1  0.209853  0.581033  0.126264  1
  Tm  Tm10  1  0.795114  0.425195  0.138647  1
  Tm  Tm11  1  0.794761  0.592987  0.622604  1
  Tm  Tm12  1  0.908057  0.704377  0.127845  1
  Tm  Tm13  1  0.923695  0.300312  0.639801  1
  Tm  Tm14  1  0.089053  0.700572  0.637252  1
  Tm  Tm15  1  0.095233  0.298251  0.130395  1
  Tm  Tm16  1  0.998328  0.999973  0.501515  1
  Tm  Tm17  1  0.000027  0.001672  0.998485  1
  Tm  Tm18  1  0.496120  0.502083  0.000997  1
  Tm  Tm19  1  0.497917  0.503880  0.499003  1
  Ir  Ir20  1  0.653589  0.651669  0.250385  1
  Ir  Ir21  1  0.348331  0.346411  0.249615  1
  Ir  Ir22  1  0.344740  0.655260  0.750000  1
  Ir  Ir23  1  0.499084  0.999159  0.115013  1
  Ir  Ir24  1  0.498906  0.999509  0.613071  1
  Ir  Ir25  1  0.000491  0.501094  0.886929  1
  Ir  Ir26  1  0.000841  0.500916  0.384987  1
  Pt  Pt27  1  0.846210  0.848604  0.751029  1
  Pt  Pt28  1  0.151396  0.153790  0.748971  1
  Au  Au29  1  0.840913  0.159087  0.250000  1
  Au  Au30  1  0.156599  0.843401  0.250000  1
  Au  Au31  1  0.657480  0.342520  0.750000  1
