# generated using pymatgen
data_Ca2SmSi2(AsPd5)4
_symmetry_space_group_name_H-M   'P 1'
_cell_length_a   8.89969169
_cell_length_b   8.82459113
_cell_length_c   8.82459065
_cell_angle_alpha   60.56383625
_cell_angle_beta   59.71807564
_cell_angle_gamma   59.71807948
_symmetry_Int_Tables_number   1
_chemical_formula_structural   Ca2SmSi2(AsPd5)4
_chemical_formula_sum   'Ca2 Sm1 Si2 As4 Pd20'
_cell_volume   489.98822424
_cell_formula_units_Z   1
loop_
 _symmetry_equiv_pos_site_id
 _symmetry_equiv_pos_as_xyz
  1  'x, y, z'
loop_
 _atom_site_type_symbol
 _atom_site_label
 _atom_site_symmetry_multiplicity
 _atom_site_fract_x
 _atom_site_fract_y
 _atom_site_fract_z
 _atom_site_occupancy
  Ca  Ca0  1  0.750000  0.750000  0.750000  1
  Ca  Ca1  1  0.000000  0.000000  0.000000  1
  Sm  Sm2  1  0.250000  0.250000  0.250000  1
  Si  Si3  1  0.266635  0.733365  0.733365  1
  Si  Si4  1  0.733365  0.266635  0.266635  1
  As  As5  1  0.736573  0.736573  0.263427  1
  As  As6  1  0.263427  0.263427  0.736573  1
  As  As7  1  0.736573  0.263427  0.736573  1
  As  As8  1  0.263427  0.736573  0.263427  1
  Pd  Pd9  1  0.610376  0.617434  0.617434  1
  Pd  Pd10  1  0.388452  0.382393  0.382393  1
  Pd  Pd11  1  0.154752  0.617434  0.617434  1
  Pd  Pd12  1  0.617434  0.154752  0.610376  1
  Pd  Pd13  1  0.846765  0.382393  0.382393  1
  Pd  Pd14  1  0.382393  0.846765  0.388452  1
  Pd  Pd15  1  0.617434  0.610376  0.154752  1
  Pd  Pd16  1  0.382393  0.388452  0.846765  1
  Pd  Pd17  1  0.009559  0.993162  0.650519  1
  Pd  Pd18  1  0.993162  0.009559  0.346760  1
  Pd  Pd19  1  0.346760  0.650519  0.993162  1
  Pd  Pd20  1  0.650519  0.346760  0.009559  1
  Pd  Pd21  1  0.009559  0.650519  0.993162  1
  Pd  Pd22  1  0.650519  0.009559  0.346760  1
  Pd  Pd23  1  0.993162  0.346760  0.009559  1
  Pd  Pd24  1  0.346760  0.993162  0.650519  1
  Pd  Pd25  1  0.649766  0.001497  0.001497  1
  Pd  Pd26  1  0.347241  0.001497  0.001497  1
  Pd  Pd27  1  0.001497  0.649766  0.347241  1
  Pd  Pd28  1  0.001497  0.347241  0.649766  1
