# generated using pymatgen
data_EuTh3(Ni12P5)2
_symmetry_space_group_name_H-M   'P 1'
_cell_length_a   3.70117800
_cell_length_b   10.84695580
_cell_length_c   13.14637500
_cell_angle_alpha   71.95194373
_cell_angle_beta   90.00000000
_cell_angle_gamma   90.00000000
_symmetry_Int_Tables_number   1
_chemical_formula_structural   EuTh3(Ni12P5)2
_chemical_formula_sum   'Eu1 Th3 Ni24 P10'
_cell_volume   501.81271368
_cell_formula_units_Z   1
loop_
 _symmetry_equiv_pos_site_id
 _symmetry_equiv_pos_as_xyz
  1  'x, y, z'
loop_
 _atom_site_type_symbol
 _atom_site_label
 _atom_site_symmetry_multiplicity
 _atom_site_fract_x
 _atom_site_fract_y
 _atom_site_fract_z
 _atom_site_occupancy
  Eu  Eu0  1  0.750000  0.752626  0.812759  1
  Th  Th1  1  0.250000  0.278995  0.682777  1
  Th  Th2  1  0.750000  0.720780  0.316876  1
  Th  Th3  1  0.250000  0.244925  0.188119  1
  Ni  Ni4  1  0.250000  0.837406  0.138961  1
  Ni  Ni5  1  0.750000  0.161794  0.861637  1
  Ni  Ni6  1  0.250000  0.285922  0.439100  1
  Ni  Ni7  1  0.750000  0.713972  0.560159  1
  Ni  Ni8  1  0.250000  0.070553  0.016664  1
  Ni  Ni9  1  0.750000  0.929808  0.984098  1
  Ni  Ni10  1  0.250000  0.064172  0.445705  1
  Ni  Ni11  1  0.750000  0.935655  0.553356  1
  Ni  Ni12  1  0.250000  0.596270  0.695130  1
  Ni  Ni13  1  0.750000  0.402687  0.303359  1
  Ni  Ni14  1  0.250000  0.581928  0.009237  1
  Ni  Ni15  1  0.750000  0.417777  0.991337  1
  Ni  Ni16  1  0.250000  0.580181  0.508090  1
  Ni  Ni17  1  0.750000  0.420357  0.491302  1
  Ni  Ni18  1  0.250000  0.299108  0.918753  1
  Ni  Ni19  1  0.750000  0.702584  0.082411  1
  Ni  Ni20  1  0.250000  0.994955  0.659126  1
  Ni  Ni21  1  0.750000  0.006193  0.339885  1
  Ni  Ni22  1  0.250000  0.839620  0.436889  1
  Ni  Ni23  1  0.750000  0.160262  0.563361  1
  Ni  Ni24  1  0.250000  0.989601  0.849421  1
  Ni  Ni25  1  0.750000  0.010917  0.151495  1
  Ni  Ni26  1  0.250000  0.564614  0.203740  1
  Ni  Ni27  1  0.750000  0.434643  0.796486  1
  P  P28  1  0.250000  0.510163  0.870748  1
  P  P29  1  0.750000  0.491871  0.128367  1
  P  P30  1  0.250000  0.799965  0.984106  1
  P  P31  1  0.750000  0.199845  0.016747  1
  P  P32  1  0.250000  0.493162  0.377979  1
  P  P33  1  0.750000  0.506713  0.622033  1
  P  P34  1  0.250000  0.812601  0.610731  1
  P  P35  1  0.750000  0.187463  0.388929  1
  P  P36  1  0.250000  0.952576  0.258029  1
  P  P37  1  0.750000  0.047341  0.742095  1
