# generated using pymatgen
data_Zr2TiVAs2
_symmetry_space_group_name_H-M   'P 1'
_cell_length_a   3.61762200
_cell_length_b   6.87743800
_cell_length_c   8.32240400
_cell_angle_alpha   90.00000000
_cell_angle_beta   90.00000000
_cell_angle_gamma   90.00000000
_symmetry_Int_Tables_number   1
_chemical_formula_structural   Zr2TiVAs2
_chemical_formula_sum   'Zr4 Ti2 V2 As4'
_cell_volume   207.06117027
_cell_formula_units_Z   2
loop_
 _symmetry_equiv_pos_site_id
 _symmetry_equiv_pos_as_xyz
  1  'x, y, z'
loop_
 _atom_site_type_symbol
 _atom_site_label
 _atom_site_symmetry_multiplicity
 _atom_site_fract_x
 _atom_site_fract_y
 _atom_site_fract_z
 _atom_site_occupancy
  Zr  Zr0  1  0.250000  0.045404  0.833801  1
  Zr  Zr1  1  0.250000  0.545404  0.666199  1
  Zr  Zr2  1  0.750000  0.958806  0.168824  1
  Zr  Zr3  1  0.750000  0.458806  0.331176  1
  Ti  Ti4  1  0.250000  0.128082  0.442117  1
  Ti  Ti5  1  0.250000  0.628082  0.057883  1
  V  V6  1  0.750000  0.868149  0.559743  1
  V  V7  1  0.750000  0.368149  0.940257  1
  As  As8  1  0.250000  0.758571  0.364883  1
  As  As9  1  0.250000  0.258571  0.135117  1
  As  As10  1  0.750000  0.240987  0.641014  1
  As  As11  1  0.750000  0.740987  0.858986  1
