# generated using pymatgen
data_Zr2FeAsPPd
_symmetry_space_group_name_H-M   'P 1'
_cell_length_a   3.82555100
_cell_length_b   6.56877252
_cell_length_c   7.50538691
_cell_angle_alpha   92.82071645
_cell_angle_beta   90.00000000
_cell_angle_gamma   90.00000000
_symmetry_Int_Tables_number   1
_chemical_formula_structural   Zr2FeAsPPd
_chemical_formula_sum   'Zr4 Fe2 As2 P2 Pd2'
_cell_volume   188.37566460
_cell_formula_units_Z   2
loop_
 _symmetry_equiv_pos_site_id
 _symmetry_equiv_pos_as_xyz
  1  'x, y, z'
loop_
 _atom_site_type_symbol
 _atom_site_label
 _atom_site_symmetry_multiplicity
 _atom_site_fract_x
 _atom_site_fract_y
 _atom_site_fract_z
 _atom_site_occupancy
  Zr  Zr0  1  0.250000  0.470397  0.199337  1
  Zr  Zr1  1  0.750000  0.529603  0.800663  1
  Zr  Zr2  1  0.750000  0.018470  0.667953  1
  Zr  Zr3  1  0.250000  0.981530  0.332047  1
  Fe  Fe4  1  0.750000  0.631931  0.449691  1
  Fe  Fe5  1  0.250000  0.368069  0.550309  1
  As  As6  1  0.750000  0.749281  0.142036  1
  As  As7  1  0.250000  0.250719  0.857964  1
  P  P8  1  0.250000  0.718107  0.593074  1
  P  P9  1  0.750000  0.281893  0.406926  1
  Pd  Pd10  1  0.250000  0.850579  0.926235  1
  Pd  Pd11  1  0.750000  0.149421  0.073765  1
