# generated using pymatgen
data_DyMg(ZnRu)2
_symmetry_space_group_name_H-M   'P 1'
_cell_length_a   5.27313170
_cell_length_b   5.27313236
_cell_length_c   5.27313228
_cell_angle_alpha   120.16211396
_cell_angle_beta   120.58205166
_cell_angle_gamma   89.35712134
_symmetry_Int_Tables_number   1
_chemical_formula_structural   DyMg(ZnRu)2
_chemical_formula_sum   'Dy1 Mg1 Zn2 Ru2'
_cell_volume   103.08715521
_cell_formula_units_Z   1
loop_
 _symmetry_equiv_pos_site_id
 _symmetry_equiv_pos_as_xyz
  1  'x, y, z'
loop_
 _atom_site_type_symbol
 _atom_site_label
 _atom_site_symmetry_multiplicity
 _atom_site_fract_x
 _atom_site_fract_y
 _atom_site_fract_z
 _atom_site_occupancy
  Dy  Dy0  1  0.009414  0.009414  0.000000  1
  Mg  Mg1  1  0.245627  0.745627  0.500000  1
  Zn  Zn2  1  0.623345  0.873973  0.250629  1
  Zn  Zn3  1  0.623345  0.372715  0.749371  1
  Ru  Ru4  1  0.126193  0.374136  0.752058  1
  Ru  Ru5  1  0.622077  0.374136  0.247942  1
