# generated using pymatgen
data_CsRb11(SiSe3)4
_symmetry_space_group_name_H-M   'P 1'
_cell_length_a   10.42044056
_cell_length_b   10.37636849
_cell_length_c   9.43599908
_cell_angle_alpha   86.24316858
_cell_angle_beta   84.65357755
_cell_angle_gamma   81.97782571
_symmetry_Int_Tables_number   1
_chemical_formula_structural   CsRb11(SiSe3)4
_chemical_formula_sum   'Cs1 Rb11 Si4 Se12'
_cell_volume   1004.47217654
_cell_formula_units_Z   1
loop_
 _symmetry_equiv_pos_site_id
 _symmetry_equiv_pos_as_xyz
  1  'x, y, z'
loop_
 _atom_site_type_symbol
 _atom_site_label
 _atom_site_symmetry_multiplicity
 _atom_site_fract_x
 _atom_site_fract_y
 _atom_site_fract_z
 _atom_site_occupancy
  Cs  Cs0  1  0.231860  0.249267  0.276406  1
  Rb  Rb1  1  0.749339  0.757934  0.239044  1
  Rb  Rb2  1  0.758347  0.749209  0.739269  1
  Rb  Rb3  1  0.251694  0.241513  0.765062  1
  Rb  Rb4  1  0.165967  0.652133  0.623465  1
  Rb  Rb5  1  0.349026  0.836211  0.878446  1
  Rb  Rb6  1  0.827616  0.356952  0.372346  1
  Rb  Rb7  1  0.654858  0.158478  0.123011  1
  Rb  Rb8  1  0.581581  0.417297  0.751844  1
  Rb  Rb9  1  0.418397  0.578763  0.248710  1
  Rb  Rb10  1  0.083263  0.916203  0.251336  1
  Rb  Rb11  1  0.918705  0.083590  0.745079  1
  Si  Si12  1  0.574617  0.070722  0.537745  1
  Si  Si13  1  0.926396  0.430639  0.958736  1
  Si  Si14  1  0.432606  0.922758  0.465787  1
  Si  Si15  1  0.069511  0.576144  0.033774  1
  Se  Se16  1  0.570357  0.064261  0.784183  1
  Se  Se17  1  0.939200  0.430792  0.711692  1
  Se  Se18  1  0.433632  0.928699  0.219302  1
  Se  Se19  1  0.057776  0.578071  0.280765  1
  Se  Se20  1  0.504519  0.282166  0.455636  1
  Se  Se21  1  0.713776  0.500319  0.044218  1
  Se  Se22  1  0.504311  0.711162  0.546791  1
  Se  Se23  1  0.282322  0.506528  0.949221  1
  Se  Se24  1  0.785625  0.010666  0.443083  1
  Se  Se25  1  0.986153  0.219896  0.048356  1
  Se  Se26  1  0.221774  0.983045  0.562700  1
  Se  Se27  1  0.006772  0.786580  0.943992  1
