# generated using pymatgen
data_Ba4TlRe2AgN8
_symmetry_space_group_name_H-M   'P 1'
_cell_length_a   6.12940300
_cell_length_b   6.67543264
_cell_length_c   8.07865872
_cell_angle_alpha   77.85224850
_cell_angle_beta   90.00000000
_cell_angle_gamma   90.00000000
_symmetry_Int_Tables_number   1
_chemical_formula_structural   Ba4TlRe2AgN8
_chemical_formula_sum   'Ba4 Tl1 Re2 Ag1 N8'
_cell_volume   323.14816230
_cell_formula_units_Z   1
loop_
 _symmetry_equiv_pos_site_id
 _symmetry_equiv_pos_as_xyz
  1  'x, y, z'
loop_
 _atom_site_type_symbol
 _atom_site_label
 _atom_site_symmetry_multiplicity
 _atom_site_fract_x
 _atom_site_fract_y
 _atom_site_fract_z
 _atom_site_occupancy
  Ba  Ba0  1  0.250000  0.289603  0.045548  1
  Ba  Ba1  1  0.750000  0.764748  0.960149  1
  Ba  Ba2  1  0.750000  0.747829  0.462003  1
  Ba  Ba3  1  0.250000  0.143832  0.618871  1
  Tl  Tl4  1  0.750000  0.279931  0.302381  1
  Re  Re5  1  0.250000  0.741836  0.207309  1
  Re  Re6  1  0.750000  0.285594  0.793289  1
  Ag  Ag7  1  0.250000  0.652061  0.601453  1
  N  N8  1  0.504641  0.444740  0.740528  1
  N  N9  1  0.006128  0.578553  0.230726  1
  N  N10  1  0.493872  0.578553  0.230726  1
  N  N11  1  0.995359  0.444740  0.740528  1
  N  N12  1  0.750000  0.072142  0.681540  1
  N  N13  1  0.250000  0.906369  0.370933  1
  N  N14  1  0.750000  0.170363  0.019807  1
  N  N15  1  0.250000  0.899107  0.994211  1
