# generated using pymatgen
data_Th4Zn4Co3Pt
_symmetry_space_group_name_H-M   'P 1'
_cell_length_a   4.01115100
_cell_length_b   6.98737619
_cell_length_c   8.30414267
_cell_angle_alpha   90.49644767
_cell_angle_beta   90.00000000
_cell_angle_gamma   90.00000000
_symmetry_Int_Tables_number   1
_chemical_formula_structural   Th4Zn4Co3Pt
_chemical_formula_sum   'Th4 Zn4 Co3 Pt1'
_cell_volume   232.73496596
_cell_formula_units_Z   1
loop_
 _symmetry_equiv_pos_site_id
 _symmetry_equiv_pos_as_xyz
  1  'x, y, z'
loop_
 _atom_site_type_symbol
 _atom_site_label
 _atom_site_symmetry_multiplicity
 _atom_site_fract_x
 _atom_site_fract_y
 _atom_site_fract_z
 _atom_site_occupancy
  Th  Th0  1  0.750000  0.458241  0.807648  1
  Th  Th1  1  0.250000  0.042160  0.329179  1
  Th  Th2  1  0.750000  0.950914  0.686748  1
  Th  Th3  1  0.250000  0.563045  0.186280  1
  Zn  Zn4  1  0.250000  0.626022  0.555525  1
  Zn  Zn5  1  0.250000  0.117261  0.937576  1
  Zn  Zn6  1  0.750000  0.379893  0.446596  1
  Zn  Zn7  1  0.750000  0.867595  0.055801  1
  Co  Co8  1  0.250000  0.738591  0.868525  1
  Co  Co9  1  0.250000  0.240204  0.628858  1
  Co  Co10  1  0.750000  0.759974  0.370168  1
  Pt  Pt11  1  0.750000  0.256099  0.127094  1
