# generated using pymatgen
data_Ho5Lu15Pt16
_symmetry_space_group_name_H-M   'P 1'
_cell_length_a   7.40687901
_cell_length_b   7.49015537
_cell_length_c   14.60109600
_cell_angle_alpha   90.02507499
_cell_angle_beta   90.00351191
_cell_angle_gamma   89.96194996
_symmetry_Int_Tables_number   1
_chemical_formula_structural   Ho5Lu15Pt16
_chemical_formula_sum   'Ho5 Lu15 Pt16'
_cell_volume   810.04919626
_cell_formula_units_Z   1
loop_
 _symmetry_equiv_pos_site_id
 _symmetry_equiv_pos_as_xyz
  1  'x, y, z'
loop_
 _atom_site_type_symbol
 _atom_site_label
 _atom_site_symmetry_multiplicity
 _atom_site_fract_x
 _atom_site_fract_y
 _atom_site_fract_z
 _atom_site_occupancy
  Ho  Ho0  1  0.998786  0.179406  0.406952  1
  Ho  Ho1  1  0.499138  0.321751  0.407572  1
  Ho  Ho2  1  0.998904  0.178488  0.092257  1
  Ho  Ho3  1  0.500834  0.678782  0.907703  1
  Ho  Ho4  1  0.001308  0.820474  0.592733  1
  Lu  Lu5  1  0.655811  0.167222  0.622842  1
  Lu  Lu6  1  0.155842  0.333005  0.877322  1
  Lu  Lu7  1  0.344206  0.832974  0.122564  1
  Lu  Lu8  1  0.844059  0.666996  0.377183  1
  Lu  Lu9  1  0.345206  0.831926  0.377637  1
  Lu  Lu10  1  0.844350  0.667507  0.121897  1
  Lu  Lu11  1  0.655730  0.167458  0.877852  1
  Lu  Lu12  1  0.156399  0.332881  0.622511  1
  Lu  Lu13  1  0.501812  0.680412  0.593196  1
  Lu  Lu14  1  0.001902  0.819570  0.906785  1
  Lu  Lu15  1  0.498145  0.319544  0.093063  1
  Lu  Lu16  1  0.818739  0.509822  0.750076  1
  Lu  Lu17  1  0.318697  0.990057  0.750151  1
  Lu  Lu18  1  0.181318  0.490326  0.249561  1
  Lu  Lu19  1  0.681163  0.009816  0.249634  1
  Pt  Pt20  1  0.682885  0.964485  0.458505  1
  Pt  Pt21  1  0.186359  0.533566  0.042100  1
  Pt  Pt22  1  0.313738  0.033422  0.958096  1
  Pt  Pt23  1  0.813844  0.467682  0.542413  1
  Pt  Pt24  1  0.317844  0.032175  0.542677  1
  Pt  Pt25  1  0.817258  0.466536  0.958021  1
  Pt  Pt26  1  0.682705  0.966860  0.042004  1
  Pt  Pt27  1  0.183569  0.535953  0.458847  1
  Pt  Pt28  1  0.453337  0.384622  0.749572  1
  Pt  Pt29  1  0.953203  0.115335  0.750620  1
  Pt  Pt30  1  0.546516  0.615782  0.249173  1
  Pt  Pt31  1  0.047268  0.883861  0.249998  1
  Pt  Pt32  1  0.679914  0.856358  0.749614  1
  Pt  Pt33  1  0.180033  0.643624  0.751017  1
  Pt  Pt34  1  0.320770  0.143696  0.248689  1
  Pt  Pt35  1  0.818408  0.357630  0.249159  1
