# generated using pymatgen
data_LuTaNbB6
_symmetry_space_group_name_H-M   'P 1'
_cell_length_a   3.12847900
_cell_length_b   3.12847763
_cell_length_c   10.42552300
_cell_angle_alpha   90.00000000
_cell_angle_beta   90.00000000
_cell_angle_gamma   120.00000388
_symmetry_Int_Tables_number   1
_chemical_formula_structural   LuTaNbB6
_chemical_formula_sum   'Lu1 Ta1 Nb1 B6'
_cell_volume   88.36794671
_cell_formula_units_Z   1
loop_
 _symmetry_equiv_pos_site_id
 _symmetry_equiv_pos_as_xyz
  1  'x, y, z'
loop_
 _atom_site_type_symbol
 _atom_site_label
 _atom_site_symmetry_multiplicity
 _atom_site_fract_x
 _atom_site_fract_y
 _atom_site_fract_z
 _atom_site_occupancy
  Lu  Lu0  1  0.000000  0.000000  0.999953  1
  Ta  Ta1  1  0.000000  0.000000  0.656492  1
  Nb  Nb2  1  0.000000  0.000000  0.343093  1
  B  B3  1  0.666667  0.333333  0.819397  1
  B  B4  1  0.666667  0.333333  0.501421  1
  B  B5  1  0.666667  0.333333  0.179413  1
  B  B6  1  0.333333  0.666667  0.819397  1
  B  B7  1  0.333333  0.666667  0.501421  1
  B  B8  1  0.333333  0.666667  0.179413  1
