# generated using pymatgen
data_Ta3In(AsO4)6
_symmetry_space_group_name_H-M   'P 1'
_cell_length_a   9.48173010
_cell_length_b   9.48172956
_cell_length_c   9.48172900
_cell_angle_alpha   56.80302870
_cell_angle_beta   56.80303081
_cell_angle_gamma   56.80303208
_symmetry_Int_Tables_number   1
_chemical_formula_structural   Ta3In(AsO4)6
_chemical_formula_sum   'Ta3 In1 As6 O24'
_cell_volume   558.28893230
_cell_formula_units_Z   1
loop_
 _symmetry_equiv_pos_site_id
 _symmetry_equiv_pos_as_xyz
  1  'x, y, z'
loop_
 _atom_site_type_symbol
 _atom_site_label
 _atom_site_symmetry_multiplicity
 _atom_site_fract_x
 _atom_site_fract_y
 _atom_site_fract_z
 _atom_site_occupancy
  Ta  Ta0  1  0.855656  0.855656  0.855656  1
  Ta  Ta1  1  0.642480  0.642480  0.642480  1
  Ta  Ta2  1  0.358759  0.358759  0.358759  1
  In  In3  1  0.143787  0.143787  0.143787  1
  As  As4  1  0.254313  0.525700  0.966609  1
  As  As5  1  0.966609  0.254313  0.525700  1
  As  As6  1  0.525700  0.966609  0.254313  1
  As  As7  1  0.472399  0.032030  0.748716  1
  As  As8  1  0.032030  0.748716  0.472399  1
  As  As9  1  0.748716  0.472399  0.032030  1
  O  O10  1  0.678219  0.518530  0.874273  1
  O  O11  1  0.518530  0.874273  0.678219  1
  O  O12  1  0.046208  0.693798  0.963241  1
  O  O13  1  0.874273  0.678219  0.518530  1
  O  O14  1  0.407493  0.611971  0.767902  1
  O  O15  1  0.289478  0.328933  0.972190  1
  O  O16  1  0.963241  0.046208  0.693798  1
  O  O17  1  0.767902  0.407493  0.611971  1
  O  O18  1  0.611971  0.767902  0.407493  1
  O  O19  1  0.672176  0.009697  0.735743  1
  O  O20  1  0.313895  0.004984  0.954979  1
  O  O21  1  0.009697  0.735743  0.672176  1
  O  O22  1  0.972190  0.289478  0.328933  1
  O  O23  1  0.693798  0.963241  0.046208  1
  O  O24  1  0.328933  0.972190  0.289478  1
  O  O25  1  0.410501  0.232767  0.582464  1
  O  O26  1  0.232767  0.582464  0.410501  1
  O  O27  1  0.004984  0.954979  0.313895  1
  O  O28  1  0.735743  0.672176  0.009697  1
  O  O29  1  0.582464  0.410501  0.232767  1
  O  O30  1  0.142759  0.284721  0.502628  1
  O  O31  1  0.954979  0.313895  0.004984  1
  O  O32  1  0.502628  0.142759  0.284721  1
  O  O33  1  0.284721  0.502628  0.142759  1
