# generated using pymatgen
data_La6Sm3DySn3Pb3Cl2
_symmetry_space_group_name_H-M   'P 1'
_cell_length_a   9.53903400
_cell_length_b   9.53903283
_cell_length_c   6.78799600
_cell_angle_alpha   90.00000000
_cell_angle_beta   90.00000000
_cell_angle_gamma   119.99999712
_symmetry_Int_Tables_number   1
_chemical_formula_structural   La6Sm3DySn3Pb3Cl2
_chemical_formula_sum   'La6 Sm3 Dy1 Sn3 Pb3 Cl2'
_cell_volume   534.91030221
_cell_formula_units_Z   1
loop_
 _symmetry_equiv_pos_site_id
 _symmetry_equiv_pos_as_xyz
  1  'x, y, z'
loop_
 _atom_site_type_symbol
 _atom_site_label
 _atom_site_symmetry_multiplicity
 _atom_site_fract_x
 _atom_site_fract_y
 _atom_site_fract_z
 _atom_site_occupancy
  La  La0  1  0.740288  0.002099  0.750440  1
  La  La1  1  0.738014  0.738265  0.249671  1
  La  La2  1  0.002472  0.261940  0.249621  1
  La  La3  1  0.002542  0.740513  0.750389  1
  La  La4  1  0.259503  0.259725  0.750416  1
  La  La5  1  0.261781  0.002060  0.249667  1
  Sm  Sm6  1  0.332195  0.665525  0.501332  1
  Sm  Sm7  1  0.665463  0.332145  0.501247  1
  Sm  Sm8  1  0.332098  0.665439  0.998634  1
  Dy  Dy9  1  0.665356  0.332007  0.998699  1
  Sn  Sn10  1  0.391610  0.001528  0.751207  1
  Sn  Sn11  1  0.998083  0.389918  0.751109  1
  Sn  Sn12  1  0.391782  0.389947  0.248710  1
  Pb  Pb13  1  0.610782  0.609009  0.751185  1
  Pb  Pb14  1  0.997912  0.608772  0.248835  1
  Pb  Pb15  1  0.610718  0.001756  0.248870  1
  Cl  Cl16  1  0.999677  0.999660  0.499721  1
  Cl  Cl17  1  0.999725  0.999691  0.000249  1
