# generated using pymatgen
data_MgZr6Zn(Ir2N)2
_symmetry_space_group_name_H-M   'P 1'
_cell_length_a   8.58553439
_cell_length_b   8.59792619
_cell_length_c   8.59792657
_cell_angle_alpha   60.07178395
_cell_angle_beta   60.04767070
_cell_angle_gamma   60.04766965
_symmetry_Int_Tables_number   1
_chemical_formula_structural   MgZr6Zn(Ir2N)2
_chemical_formula_sum   'Mg2 Zr12 Zn2 Ir8 N4'
_cell_volume   449.35307773
_cell_formula_units_Z   2
loop_
 _symmetry_equiv_pos_site_id
 _symmetry_equiv_pos_as_xyz
  1  'x, y, z'
loop_
 _atom_site_type_symbol
 _atom_site_label
 _atom_site_symmetry_multiplicity
 _atom_site_fract_x
 _atom_site_fract_y
 _atom_site_fract_z
 _atom_site_occupancy
  Mg  Mg0  1  0.625000  0.625000  0.625000  1
  Mg  Mg1  1  0.125000  0.625000  0.625000  1
  Zr  Zr2  1  0.808010  0.191990  0.191990  1
  Zr  Zr3  1  0.192541  0.808219  0.190375  1
  Zr  Zr4  1  0.808865  0.808219  0.190375  1
  Zr  Zr5  1  0.190930  0.809070  0.809070  1
  Zr  Zr6  1  0.808865  0.190375  0.808219  1
  Zr  Zr7  1  0.192541  0.190375  0.808219  1
  Zr  Zr8  1  0.441990  0.058010  0.058010  1
  Zr  Zr9  1  0.057459  0.441781  0.059625  1
  Zr  Zr10  1  0.441135  0.441781  0.059625  1
  Zr  Zr11  1  0.059070  0.440930  0.440930  1
  Zr  Zr12  1  0.441135  0.059625  0.441781  1
  Zr  Zr13  1  0.057459  0.059625  0.441781  1
  Zn  Zn14  1  0.625000  0.625000  0.125000  1
  Zn  Zn15  1  0.625000  0.125000  0.625000  1
  Ir  Ir16  1  0.415949  0.411196  0.756903  1
  Ir  Ir17  1  0.417690  0.413712  0.413712  1
  Ir  Ir18  1  0.754884  0.413712  0.413712  1
  Ir  Ir19  1  0.415949  0.756903  0.411196  1
  Ir  Ir20  1  0.834051  0.838804  0.493097  1
  Ir  Ir21  1  0.832310  0.836288  0.836288  1
  Ir  Ir22  1  0.495116  0.836288  0.836288  1
  Ir  Ir23  1  0.834051  0.493097  0.838804  1
  N  N24  1  0.125000  0.125000  0.625000  1
  N  N25  1  0.125000  0.125000  0.125000  1
  N  N26  1  0.625000  0.125000  0.125000  1
  N  N27  1  0.125000  0.625000  0.125000  1
