# generated using pymatgen
data_Y2Tm3Lu11(CdPt)4
_symmetry_space_group_name_H-M   'P 1'
_cell_length_a   9.53744993
_cell_length_b   9.52395560
_cell_length_c   9.51672928
_cell_angle_alpha   59.97925769
_cell_angle_beta   59.97811471
_cell_angle_gamma   59.90297083
_symmetry_Int_Tables_number   1
_chemical_formula_structural   Y2Tm3Lu11(CdPt)4
_chemical_formula_sum   'Y2 Tm3 Lu11 Cd4 Pt4'
_cell_volume   610.60884282
_cell_formula_units_Z   1
loop_
 _symmetry_equiv_pos_site_id
 _symmetry_equiv_pos_as_xyz
  1  'x, y, z'
loop_
 _atom_site_type_symbol
 _atom_site_label
 _atom_site_symmetry_multiplicity
 _atom_site_fract_x
 _atom_site_fract_y
 _atom_site_fract_z
 _atom_site_occupancy
  Y  Y0  1  0.566251  0.564919  0.933887  1
  Y  Y1  1  0.934943  0.933887  0.564919  1
  Tm  Tm2  1  0.561391  0.938609  0.938609  1
  Tm  Tm3  1  0.563475  0.936462  0.562351  1
  Tm  Tm4  1  0.937713  0.562351  0.936462  1
  Lu  Lu5  1  0.350283  0.352536  0.352861  1
  Lu  Lu6  1  0.352570  0.355235  0.939869  1
  Lu  Lu7  1  0.352328  0.939869  0.355235  1
  Lu  Lu8  1  0.944322  0.352861  0.352536  1
  Lu  Lu9  1  0.810191  0.189809  0.189809  1
  Lu  Lu10  1  0.188628  0.811372  0.811372  1
  Lu  Lu11  1  0.189122  0.810923  0.189313  1
  Lu  Lu12  1  0.810643  0.189313  0.810923  1
  Lu  Lu13  1  0.188974  0.189425  0.810722  1
  Lu  Lu14  1  0.810879  0.810722  0.189425  1
  Lu  Lu15  1  0.936628  0.563372  0.563372  1
  Cd  Cd16  1  0.583505  0.581973  0.580762  1
  Cd  Cd17  1  0.582386  0.581571  0.254246  1
  Cd  Cd18  1  0.581796  0.254246  0.581571  1
  Cd  Cd19  1  0.253761  0.580762  0.581973  1
  Pt  Pt20  1  0.143959  0.143474  0.142242  1
  Pt  Pt21  1  0.143086  0.143042  0.571028  1
  Pt  Pt22  1  0.142844  0.571028  0.143042  1
  Pt  Pt23  1  0.570324  0.142242  0.143474  1
