# generated using pymatgen
data_Dy3(GaRh)2
_symmetry_space_group_name_H-M   'P 1'
_cell_length_a   5.58147600
_cell_length_b   7.80006800
_cell_length_c   13.58421600
_cell_angle_alpha   90.00000000
_cell_angle_beta   90.00000000
_cell_angle_gamma   90.00000000
_symmetry_Int_Tables_number   1
_chemical_formula_structural   Dy3(GaRh)2
_chemical_formula_sum   'Dy12 Ga8 Rh8'
_cell_volume   591.40096530
_cell_formula_units_Z   4
loop_
 _symmetry_equiv_pos_site_id
 _symmetry_equiv_pos_as_xyz
  1  'x, y, z'
loop_
 _atom_site_type_symbol
 _atom_site_label
 _atom_site_symmetry_multiplicity
 _atom_site_fract_x
 _atom_site_fract_y
 _atom_site_fract_z
 _atom_site_occupancy
  Dy  Dy0  1  0.632050  0.263174  0.250000  1
  Dy  Dy1  1  0.367950  0.736826  0.750000  1
  Dy  Dy2  1  0.367950  0.763174  0.250000  1
  Dy  Dy3  1  0.632050  0.236826  0.750000  1
  Dy  Dy4  1  0.154250  0.400358  0.096934  1
  Dy  Dy5  1  0.845750  0.599642  0.903066  1
  Dy  Dy6  1  0.845750  0.599642  0.596934  1
  Dy  Dy7  1  0.845750  0.900358  0.403066  1
  Dy  Dy8  1  0.154250  0.400358  0.403066  1
  Dy  Dy9  1  0.154250  0.099642  0.596934  1
  Dy  Dy10  1  0.154250  0.099642  0.903066  1
  Dy  Dy11  1  0.845750  0.900358  0.096934  1
  Ga  Ga12  1  0.124748  0.109752  0.250000  1
  Ga  Ga13  1  0.875252  0.890248  0.750000  1
  Ga  Ga14  1  0.875252  0.609752  0.250000  1
  Ga  Ga15  1  0.124748  0.390248  0.750000  1
  Ga  Ga16  1  0.653987  0.250000  0.000000  1
  Ga  Ga17  1  0.346013  0.750000  0.000000  1
  Ga  Ga18  1  0.346013  0.750000  0.500000  1
  Ga  Ga19  1  0.653987  0.250000  0.500000  1
  Rh  Rh20  1  0.363210  0.039862  0.094436  1
  Rh  Rh21  1  0.636790  0.960138  0.905564  1
  Rh  Rh22  1  0.636790  0.960138  0.594436  1
  Rh  Rh23  1  0.636790  0.539862  0.405564  1
  Rh  Rh24  1  0.363210  0.039862  0.405564  1
  Rh  Rh25  1  0.363210  0.460138  0.594436  1
  Rh  Rh26  1  0.363210  0.460138  0.905564  1
  Rh  Rh27  1  0.636790  0.539862  0.094436  1
