# generated using pymatgen
data_Ho5Tm3Sc12(SiGe)8
_symmetry_space_group_name_H-M   'P 1'
_cell_length_a   7.13824715
_cell_length_b   7.38689791
_cell_length_c   14.02100018
_cell_angle_alpha   89.96132214
_cell_angle_beta   90.05077587
_cell_angle_gamma   89.95873032
_symmetry_Int_Tables_number   1
_chemical_formula_structural   Ho5Tm3Sc12(SiGe)8
_chemical_formula_sum   'Ho5 Tm3 Sc12 Si8 Ge8'
_cell_volume   739.31971980
_cell_formula_units_Z   1
loop_
 _symmetry_equiv_pos_site_id
 _symmetry_equiv_pos_as_xyz
  1  'x, y, z'
loop_
 _atom_site_type_symbol
 _atom_site_label
 _atom_site_symmetry_multiplicity
 _atom_site_fract_x
 _atom_site_fract_y
 _atom_site_fract_z
 _atom_site_occupancy
  Ho  Ho0  1  0.994329  0.822871  0.598877  1
  Ho  Ho1  1  0.505490  0.322654  0.097738  1
  Ho  Ho2  1  0.005688  0.177079  0.401662  1
  Ho  Ho3  1  0.505617  0.322743  0.401186  1
  Ho  Ho4  1  0.494494  0.677136  0.598880  1
  Tm  Tm5  1  0.005057  0.177226  0.098250  1
  Tm  Tm6  1  0.995336  0.822492  0.901429  1
  Tm  Tm7  1  0.494679  0.677837  0.901437  1
  Sc  Sc8  1  0.168429  0.501522  0.750761  1
  Sc  Sc9  1  0.831443  0.498320  0.249550  1
  Sc  Sc10  1  0.331135  0.001900  0.249412  1
  Sc  Sc11  1  0.668651  0.998227  0.750773  1
  Sc  Sc12  1  0.338444  0.172668  0.626871  1
  Sc  Sc13  1  0.661451  0.827576  0.373364  1
  Sc  Sc14  1  0.161375  0.672518  0.373260  1
  Sc  Sc15  1  0.660917  0.827810  0.125705  1
  Sc  Sc16  1  0.838381  0.327444  0.626994  1
  Sc  Sc17  1  0.338966  0.172181  0.873955  1
  Sc  Sc18  1  0.839200  0.327261  0.873768  1
  Sc  Sc19  1  0.160804  0.673012  0.125988  1
  Si  Si20  1  0.040437  0.116023  0.750392  1
  Si  Si21  1  0.959427  0.884007  0.249618  1
  Si  Si22  1  0.459675  0.616695  0.249535  1
  Si  Si23  1  0.540114  0.383787  0.750538  1
  Si  Si24  1  0.292539  0.870438  0.750841  1
  Si  Si25  1  0.708127  0.129034  0.249399  1
  Si  Si26  1  0.207132  0.370651  0.249414  1
  Si  Si27  1  0.792292  0.629611  0.750922  1
  Ge  Ge28  1  0.172095  0.461131  0.540784  1
  Ge  Ge29  1  0.827658  0.539157  0.459745  1
  Ge  Ge30  1  0.328067  0.960467  0.459561  1
  Ge  Ge31  1  0.826916  0.539167  0.040243  1
  Ge  Ge32  1  0.671931  0.039141  0.540843  1
  Ge  Ge33  1  0.173994  0.461597  0.959049  1
  Ge  Ge34  1  0.675900  0.038024  0.959089  1
  Ge  Ge35  1  0.323809  0.960595  0.040171  1
