# generated using pymatgen
data_Er2Pa2Ga12Ru
_symmetry_space_group_name_H-M   'P 1'
_cell_length_a   7.42869778
_cell_length_b   7.49361565
_cell_length_c   7.44029600
_cell_angle_alpha   109.39872850
_cell_angle_beta   109.36697906
_cell_angle_gamma   109.32938626
_symmetry_Int_Tables_number   1
_chemical_formula_structural   Er2Pa2Ga12Ru
_chemical_formula_sum   'Er2 Pa2 Ga12 Ru1'
_cell_volume   320.08703788
_cell_formula_units_Z   1
loop_
 _symmetry_equiv_pos_site_id
 _symmetry_equiv_pos_as_xyz
  1  'x, y, z'
loop_
 _atom_site_type_symbol
 _atom_site_label
 _atom_site_symmetry_multiplicity
 _atom_site_fract_x
 _atom_site_fract_y
 _atom_site_fract_z
 _atom_site_occupancy
  Er  Er0  1  0.500000  0.500000  0.500000  1
  Er  Er1  1  0.000000  0.500000  0.000000  1
  Pa  Pa2  1  0.000000  0.000000  0.500000  1
  Pa  Pa3  1  0.500000  0.000000  0.000000  1
  Ga  Ga4  1  0.749344  0.249878  0.500638  1
  Ga  Ga5  1  0.000699  0.709100  0.708177  1
  Ga  Ga6  1  0.291490  0.999996  0.291593  1
  Ga  Ga7  1  0.500538  0.249879  0.749238  1
  Ga  Ga8  1  0.750047  0.500096  0.250048  1
  Ga  Ga9  1  0.250656  0.750122  0.499362  1
  Ga  Ga10  1  0.249953  0.499904  0.749952  1
  Ga  Ga11  1  0.708510  0.000004  0.708407  1
  Ga  Ga12  1  0.499462  0.750121  0.250762  1
  Ga  Ga13  1  0.708435  0.709119  0.000934  1
  Ga  Ga14  1  0.291565  0.290881  0.999066  1
  Ga  Ga15  1  0.999301  0.290900  0.291823  1
  Ru  Ru16  1  0.000000  0.000000  0.000000  1
