# generated using pymatgen
data_Lu8B24Os3W
_symmetry_space_group_name_H-M   'P 1'
_cell_length_a   3.59003600
_cell_length_b   9.06753130
_cell_length_c   11.44254015
_cell_angle_alpha   89.90227943
_cell_angle_beta   90.00000000
_cell_angle_gamma   90.00000000
_symmetry_Int_Tables_number   1
_chemical_formula_structural   Lu8B24Os3W
_chemical_formula_sum   'Lu8 B24 Os3 W1'
_cell_volume   372.48576522
_cell_formula_units_Z   1
loop_
 _symmetry_equiv_pos_site_id
 _symmetry_equiv_pos_as_xyz
  1  'x, y, z'
loop_
 _atom_site_type_symbol
 _atom_site_label
 _atom_site_symmetry_multiplicity
 _atom_site_fract_x
 _atom_site_fract_y
 _atom_site_fract_z
 _atom_site_occupancy
  Lu  Lu0  1  0.000000  0.320951  0.413434  1
  Lu  Lu1  1  0.000000  0.678949  0.585548  1
  Lu  Lu2  1  0.000000  0.818872  0.087715  1
  Lu  Lu3  1  0.000000  0.179196  0.915146  1
  Lu  Lu4  1  0.000000  0.945693  0.373365  1
  Lu  Lu5  1  0.000000  0.057511  0.628482  1
  Lu  Lu6  1  0.000000  0.443184  0.125695  1
  Lu  Lu7  1  0.000000  0.556422  0.871758  1
  B  B8  1  0.500000  0.549938  0.436658  1
  B  B9  1  0.500000  0.446344  0.567684  1
  B  B10  1  0.500000  0.053087  0.065932  1
  B  B11  1  0.500000  0.946505  0.933988  1
  B  B12  1  0.500000  0.751997  0.422964  1
  B  B13  1  0.500000  0.251369  0.580330  1
  B  B14  1  0.500000  0.248909  0.079060  1
  B  B15  1  0.500000  0.750585  0.919871  1
  B  B16  1  0.500000  0.795689  0.263813  1
  B  B17  1  0.500000  0.208080  0.734854  1
  B  B18  1  0.500000  0.290940  0.233035  1
  B  B19  1  0.500000  0.708823  0.765259  1
  B  B20  1  0.500000  0.630679  0.181793  1
  B  B21  1  0.500000  0.369106  0.815778  1
  B  B22  1  0.500000  0.130980  0.314656  1
  B  B23  1  0.500000  0.870149  0.684698  1
  B  B24  1  0.500000  0.981775  0.212431  1
  B  B25  1  0.500000  0.018963  0.787859  1
  B  B26  1  0.500000  0.475921  0.286357  1
  B  B27  1  0.500000  0.518454  0.713046  1
  B  B28  1  0.500000  0.604473  0.027261  1
  B  B29  1  0.500000  0.394334  0.969971  1
  B  B30  1  0.500000  0.105963  0.471355  1
  B  B31  1  0.500000  0.897571  0.530222  1
  Os  Os32  1  0.000000  0.361550  0.680353  1
  Os  Os33  1  0.000000  0.137162  0.177778  1
  Os  Os34  1  0.000000  0.862615  0.820807  1
  W  W35  1  0.000000  0.637261  0.321044  1
