# generated using pymatgen
data_Ce2Dy7Y(Zn2Ru3)2
_symmetry_space_group_name_H-M   'P 1'
_cell_length_a   8.49970957
_cell_length_b   8.33973636
_cell_length_c   8.31554695
_cell_angle_alpha   109.96357919
_cell_angle_beta   109.60275793
_cell_angle_gamma   110.31319138
_symmetry_Int_Tables_number   1
_chemical_formula_structural   Ce2Dy7Y(Zn2Ru3)2
_chemical_formula_sum   'Ce2 Dy7 Y1 Zn4 Ru6'
_cell_volume   445.34847048
_cell_formula_units_Z   1
loop_
 _symmetry_equiv_pos_site_id
 _symmetry_equiv_pos_as_xyz
  1  'x, y, z'
loop_
 _atom_site_type_symbol
 _atom_site_label
 _atom_site_symmetry_multiplicity
 _atom_site_fract_x
 _atom_site_fract_y
 _atom_site_fract_z
 _atom_site_occupancy
  Ce  Ce0  1  0.942910  0.250297  0.194267  1
  Ce  Ce1  1  0.198118  0.942954  0.250906  1
  Dy  Dy2  1  0.775438  0.779576  0.773546  1
  Dy  Dy3  1  0.318311  0.566027  0.754028  1
  Dy  Dy4  1  0.750942  0.317058  0.567444  1
  Dy  Dy5  1  0.569852  0.750155  0.315422  1
  Dy  Dy6  1  0.726147  0.503960  0.998414  1
  Dy  Dy7  1  0.999937  0.726248  0.506338  1
  Dy  Dy8  1  0.500514  0.992022  0.721484  1
  Y  Y9  1  0.253654  0.187995  0.933348  1
  Zn  Zn10  1  0.420063  0.415790  0.413237  1
  Zn  Zn11  1  0.089065  0.491469  0.997366  1
  Zn  Zn12  1  0.999518  0.087878  0.502278  1
  Zn  Zn13  1  0.502201  0.010257  0.090760  1
  Ru  Ru14  1  0.857952  0.108664  0.735554  1
  Ru  Ru15  1  0.753507  0.897403  0.115420  1
  Ru  Ru16  1  0.122283  0.765556  0.905565  1
  Ru  Ru17  1  0.220602  0.590891  0.371628  1
  Ru  Ru18  1  0.365494  0.220834  0.599581  1
  Ru  Ru19  1  0.633488  0.394967  0.253409  1
