# generated using pymatgen
data_V4ZnCo3O14
_symmetry_space_group_name_H-M   'P 1'
_cell_length_a   5.71146638
_cell_length_b   5.71596104
_cell_length_c   10.27548778
_cell_angle_alpha   104.70099687
_cell_angle_beta   104.43517294
_cell_angle_gamma   93.78236096
_symmetry_Int_Tables_number   1
_chemical_formula_structural   V4ZnCo3O14
_chemical_formula_sum   'V4 Zn1 Co3 O14'
_cell_volume   311.22879746
_cell_formula_units_Z   1
loop_
 _symmetry_equiv_pos_site_id
 _symmetry_equiv_pos_as_xyz
  1  'x, y, z'
loop_
 _atom_site_type_symbol
 _atom_site_label
 _atom_site_symmetry_multiplicity
 _atom_site_fract_x
 _atom_site_fract_y
 _atom_site_fract_z
 _atom_site_occupancy
  V  V0  1  0.502424  0.034768  0.708526  1
  V  V1  1  0.965823  0.498517  0.792444  1
  V  V2  1  0.497097  0.962749  0.291014  1
  V  V3  1  0.036017  0.501245  0.207802  1
  Zn  Zn4  1  0.913423  0.758944  0.525722  1
  Co  Co5  1  0.246727  0.084550  0.971795  1
  Co  Co6  1  0.085364  0.251125  0.472871  1
  Co  Co7  1  0.751029  0.914204  0.027665  1
  O  O8  1  0.653742  0.835137  0.620703  1
  O  O9  1  0.160996  0.344725  0.880321  1
  O  O10  1  0.340950  0.155599  0.378774  1
  O  O11  1  0.841687  0.656975  0.121048  1
  O  O12  1  0.660157  0.340168  0.750687  1
  O  O13  1  0.343719  0.655051  0.248544  1
  O  O14  1  0.206999  0.020381  0.604725  1
  O  O15  1  0.983667  0.794937  0.897729  1
  O  O16  1  0.794559  0.986714  0.395902  1
  O  O17  1  0.014508  0.204616  0.102765  1
  O  O18  1  0.495139  0.965503  0.865406  1
  O  O19  1  0.036177  0.505198  0.635831  1
  O  O20  1  0.502566  0.033489  0.134426  1
  O  O21  1  0.967229  0.495407  0.365304  1
