# generated using pymatgen
data_Sr6Fe3Mo(IrO9)2
_symmetry_space_group_name_H-M   'P 1'
_cell_length_a   9.74335553
_cell_length_b   9.74335594
_cell_length_c   5.60398169
_cell_angle_alpha   73.24821001
_cell_angle_beta   73.24820483
_cell_angle_gamma   48.81881239
_symmetry_Int_Tables_number   1
_chemical_formula_structural   Sr6Fe3Mo(IrO9)2
_chemical_formula_sum   'Sr6 Fe3 Mo1 Ir2 O18'
_cell_volume   379.81574420
_cell_formula_units_Z   1
loop_
 _symmetry_equiv_pos_site_id
 _symmetry_equiv_pos_as_xyz
  1  'x, y, z'
loop_
 _atom_site_type_symbol
 _atom_site_label
 _atom_site_symmetry_multiplicity
 _atom_site_fract_x
 _atom_site_fract_y
 _atom_site_fract_z
 _atom_site_occupancy
  Sr  Sr0  1  0.915793  0.422710  0.829724  1
  Sr  Sr1  1  0.257022  0.742978  0.500000  1
  Sr  Sr2  1  0.577290  0.084207  0.170276  1
  Sr  Sr3  1  0.742978  0.257022  0.500000  1
  Sr  Sr4  1  0.084207  0.577290  0.170276  1
  Sr  Sr5  1  0.422710  0.915793  0.829724  1
  Fe  Fe6  1  0.500000  0.500000  0.000000  1
  Fe  Fe7  1  0.831812  0.831812  0.668637  1
  Fe  Fe8  1  0.168188  0.168188  0.331363  1
  Mo  Mo9  1  0.000000  0.000000  0.000000  1
  Ir  Ir10  1  0.333571  0.333571  0.667292  1
  Ir  Ir11  1  0.666429  0.666429  0.332708  1
  O  O12  1  0.415536  0.914494  0.335090  1
  O  O13  1  0.757672  0.242328  0.000000  1
  O  O14  1  0.085506  0.584464  0.664910  1
  O  O15  1  0.914494  0.415536  0.335090  1
  O  O16  1  0.242328  0.757672  0.000000  1
  O  O17  1  0.584464  0.085506  0.664910  1
  O  O18  1  0.068726  0.068726  0.210471  1
  O  O19  1  0.403684  0.403684  0.885833  1
  O  O20  1  0.737630  0.737630  0.546345  1
  O  O21  1  0.596316  0.596316  0.114167  1
  O  O22  1  0.931274  0.931274  0.789529  1
  O  O23  1  0.262370  0.262370  0.453655  1
  O  O24  1  0.570451  0.570451  0.641413  1
  O  O25  1  0.907515  0.907515  0.300843  1
  O  O26  1  0.237573  0.237573  0.973289  1
  O  O27  1  0.092485  0.092485  0.699157  1
  O  O28  1  0.429549  0.429549  0.358587  1
  O  O29  1  0.762427  0.762427  0.026711  1
