# generated using pymatgen
data_Sc2H6RuPt
_symmetry_space_group_name_H-M   'P 1'
_cell_length_a   5.70314335
_cell_length_b   5.70314332
_cell_length_c   4.48433100
_cell_angle_alpha   90.00000000
_cell_angle_beta   90.00000000
_cell_angle_gamma   142.09201559
_symmetry_Int_Tables_number   1
_chemical_formula_structural   Sc2H6RuPt
_chemical_formula_sum   'Sc2 H6 Ru1 Pt1'
_cell_volume   89.61361931
_cell_formula_units_Z   1
loop_
 _symmetry_equiv_pos_site_id
 _symmetry_equiv_pos_as_xyz
  1  'x, y, z'
loop_
 _atom_site_type_symbol
 _atom_site_label
 _atom_site_symmetry_multiplicity
 _atom_site_fract_x
 _atom_site_fract_y
 _atom_site_fract_z
 _atom_site_occupancy
  Sc  Sc0  1  0.371120  0.628878  0.250000  1
  Sc  Sc1  1  0.628540  0.371458  0.749999  1
  H  H2  1  0.807532  0.192467  0.016882  1
  H  H3  1  0.579741  0.420258  0.250000  1
  H  H4  1  0.807532  0.192467  0.483117  1
  H  H5  1  0.191742  0.808257  0.525465  1
  H  H6  1  0.420078  0.579921  0.749999  1
  H  H7  1  0.191742  0.808257  0.974536  1
  Ru  Ru8  1  0.917722  0.082276  0.749999  1
  Pt  Pt9  1  0.084244  0.915754  0.250000  1
