# generated using pymatgen
data_Tm10In8Ir3Pd
_symmetry_space_group_name_H-M   'P 1'
_cell_length_a   3.57117100
_cell_length_b   8.02608408
_cell_length_c   18.11489600
_cell_angle_alpha   89.99167628
_cell_angle_beta   90.00000000
_cell_angle_gamma   90.00000000
_symmetry_Int_Tables_number   1
_chemical_formula_structural   Tm10In8Ir3Pd
_chemical_formula_sum   'Tm10 In8 Ir3 Pd1'
_cell_volume   519.21854036
_cell_formula_units_Z   1
loop_
 _symmetry_equiv_pos_site_id
 _symmetry_equiv_pos_as_xyz
  1  'x, y, z'
loop_
 _atom_site_type_symbol
 _atom_site_label
 _atom_site_symmetry_multiplicity
 _atom_site_fract_x
 _atom_site_fract_y
 _atom_site_fract_z
 _atom_site_occupancy
  Tm  Tm0  1  0.000000  0.115737  0.413529  1
  Tm  Tm1  1  0.000000  0.883425  0.587729  1
  Tm  Tm2  1  0.000000  0.383070  0.912206  1
  Tm  Tm3  1  0.000000  0.617669  0.084921  1
  Tm  Tm4  1  0.000000  0.233685  0.222012  1
  Tm  Tm5  1  0.000000  0.756976  0.778409  1
  Tm  Tm6  1  0.000000  0.256457  0.721645  1
  Tm  Tm7  1  0.000000  0.753005  0.280412  1
  Tm  Tm8  1  0.000000  0.999802  0.999445  1
  Tm  Tm9  1  0.000000  0.499861  0.500598  1
  In  In10  1  0.500000  0.424752  0.351353  1
  In  In11  1  0.500000  0.573004  0.649026  1
  In  In12  1  0.500000  0.073448  0.850835  1
  In  In13  1  0.500000  0.925854  0.148357  1
  In  In14  1  0.500000  0.292521  0.066578  1
  In  In15  1  0.500000  0.706809  0.932776  1
  In  In16  1  0.500000  0.207259  0.567065  1
  In  In17  1  0.500000  0.791994  0.432790  1
  Ir  Ir18  1  0.500000  0.023596  0.303934  1
  Ir  Ir19  1  0.500000  0.978390  0.696293  1
  Ir  Ir20  1  0.500000  0.478703  0.803814  1
  Pd  Pd21  1  0.500000  0.523982  0.196270  1
