# generated using pymatgen
data_PrYSiPd14
_symmetry_space_group_name_H-M   'P 1'
_cell_length_a   8.96567700
_cell_length_b   8.96567700
_cell_length_c   7.14307400
_cell_angle_alpha   90.00000000
_cell_angle_beta   90.00000000
_cell_angle_gamma   90.00000000
_symmetry_Int_Tables_number   1
_chemical_formula_structural   PrYSiPd14
_chemical_formula_sum   'Pr2 Y2 Si2 Pd28'
_cell_volume   574.18431791
_cell_formula_units_Z   2
loop_
 _symmetry_equiv_pos_site_id
 _symmetry_equiv_pos_as_xyz
  1  'x, y, z'
loop_
 _atom_site_type_symbol
 _atom_site_label
 _atom_site_symmetry_multiplicity
 _atom_site_fract_x
 _atom_site_fract_y
 _atom_site_fract_z
 _atom_site_occupancy
  Pr  Pr0  1  0.500000  0.000000  0.936232  1
  Pr  Pr1  1  0.000000  0.500000  0.063768  1
  Y  Y2  1  0.000000  0.000000  0.500000  1
  Y  Y3  1  0.500000  0.500000  0.500000  1
  Si  Si4  1  0.500000  0.000000  0.448792  1
  Si  Si5  1  0.000000  0.500000  0.551208  1
  Pd  Pd6  1  0.333906  0.833906  0.614472  1
  Pd  Pd7  1  0.333906  0.166094  0.614472  1
  Pd  Pd8  1  0.666094  0.833906  0.614472  1
  Pd  Pd9  1  0.666094  0.166094  0.614472  1
  Pd  Pd10  1  0.166094  0.666094  0.385528  1
  Pd  Pd11  1  0.166094  0.333906  0.385528  1
  Pd  Pd12  1  0.833906  0.666094  0.385528  1
  Pd  Pd13  1  0.833906  0.333906  0.385528  1
  Pd  Pd14  1  0.500000  0.768669  0.259468  1
  Pd  Pd15  1  0.500000  0.231331  0.259468  1
  Pd  Pd16  1  0.268669  0.000000  0.259468  1
  Pd  Pd17  1  0.731331  0.000000  0.259468  1
  Pd  Pd18  1  0.000000  0.731331  0.740532  1
  Pd  Pd19  1  0.000000  0.268669  0.740532  1
  Pd  Pd20  1  0.231331  0.500000  0.740532  1
  Pd  Pd21  1  0.768669  0.500000  0.740532  1
  Pd  Pd22  1  0.500000  0.349803  0.853008  1
  Pd  Pd23  1  0.500000  0.650197  0.853008  1
  Pd  Pd24  1  0.849803  0.000000  0.853008  1
  Pd  Pd25  1  0.150197  0.000000  0.853008  1
  Pd  Pd26  1  0.000000  0.150197  0.146992  1
  Pd  Pd27  1  0.000000  0.849803  0.146992  1
  Pd  Pd28  1  0.650197  0.500000  0.146992  1
  Pd  Pd29  1  0.349803  0.500000  0.146992  1
  Pd  Pd30  1  0.250000  0.750000  0.000000  1
  Pd  Pd31  1  0.250000  0.250000  0.000000  1
  Pd  Pd32  1  0.750000  0.750000  0.000000  1
  Pd  Pd33  1  0.750000  0.250000  0.000000  1
