# generated using pymatgen
data_SmDy2Mg3AgSn2
_symmetry_space_group_name_H-M   'P 1'
_cell_length_a   7.56552047
_cell_length_b   7.56551901
_cell_length_c   4.55977400
_cell_angle_alpha   90.00000000
_cell_angle_beta   90.00000000
_cell_angle_gamma   120.51857539
_symmetry_Int_Tables_number   1
_chemical_formula_structural   SmDy2Mg3AgSn2
_chemical_formula_sum   'Sm1 Dy2 Mg3 Ag1 Sn2'
_cell_volume   224.83207897
_cell_formula_units_Z   1
loop_
 _symmetry_equiv_pos_site_id
 _symmetry_equiv_pos_as_xyz
  1  'x, y, z'
loop_
 _atom_site_type_symbol
 _atom_site_label
 _atom_site_symmetry_multiplicity
 _atom_site_fract_x
 _atom_site_fract_y
 _atom_site_fract_z
 _atom_site_occupancy
  Sm  Sm0  1  0.416228  0.416228  0.500000  1
  Dy  Dy1  1  0.585625  0.000951  0.500000  1
  Dy  Dy2  1  0.000951  0.585625  0.500000  1
  Mg  Mg3  1  0.763289  0.763289  0.000000  1
  Mg  Mg4  1  0.236926  0.999591  0.000000  1
  Mg  Mg5  1  0.999591  0.236926  0.000000  1
  Ag  Ag6  1  0.996158  0.996158  0.500000  1
  Sn  Sn7  1  0.669315  0.331916  0.000000  1
  Sn  Sn8  1  0.331916  0.669315  0.000000  1
