# generated using pymatgen
data_Y2TmLu(ReB6)2
_symmetry_space_group_name_H-M   'P 1'
_cell_length_a   3.65672400
_cell_length_b   9.13304905
_cell_length_c   11.52568807
_cell_angle_alpha   89.98754162
_cell_angle_beta   90.00000000
_cell_angle_gamma   90.00000000
_symmetry_Int_Tables_number   1
_chemical_formula_structural   Y2TmLu(ReB6)2
_chemical_formula_sum   'Y4 Tm2 Lu2 Re4 B24'
_cell_volume   384.92385252
_cell_formula_units_Z   2
loop_
 _symmetry_equiv_pos_site_id
 _symmetry_equiv_pos_as_xyz
  1  'x, y, z'
loop_
 _atom_site_type_symbol
 _atom_site_label
 _atom_site_symmetry_multiplicity
 _atom_site_fract_x
 _atom_site_fract_y
 _atom_site_fract_z
 _atom_site_occupancy
  Y  Y0  1  0.000000  0.322852  0.414104  1
  Y  Y1  1  0.000000  0.677148  0.585896  1
  Y  Y2  1  0.000000  0.823059  0.085978  1
  Y  Y3  1  0.000000  0.176941  0.914022  1
  Tm  Tm4  1  0.000000  0.443238  0.129799  1
  Tm  Tm5  1  0.000000  0.556762  0.870201  1
  Lu  Lu6  1  0.000000  0.943336  0.370317  1
  Lu  Lu7  1  0.000000  0.056664  0.629683  1
  Re  Re8  1  0.000000  0.639729  0.320198  1
  Re  Re9  1  0.000000  0.360271  0.679802  1
  Re  Re10  1  0.000000  0.138859  0.180267  1
  Re  Re11  1  0.000000  0.861141  0.819733  1
  B  B12  1  0.500000  0.553575  0.432599  1
  B  B13  1  0.500000  0.446425  0.567401  1
  B  B14  1  0.500000  0.053474  0.067469  1
  B  B15  1  0.500000  0.946526  0.932531  1
  B  B16  1  0.500000  0.750808  0.418237  1
  B  B17  1  0.500000  0.249192  0.581763  1
  B  B18  1  0.500000  0.250223  0.081788  1
  B  B19  1  0.500000  0.749777  0.918212  1
  B  B20  1  0.500000  0.793173  0.265579  1
  B  B21  1  0.500000  0.206827  0.734421  1
  B  B22  1  0.500000  0.292609  0.234600  1
  B  B23  1  0.500000  0.707391  0.765400  1
  B  B24  1  0.500000  0.630340  0.185129  1
  B  B25  1  0.500000  0.369660  0.814871  1
  B  B26  1  0.500000  0.129814  0.315196  1
  B  B27  1  0.500000  0.870186  0.684804  1
  B  B28  1  0.500000  0.981560  0.212865  1
  B  B29  1  0.500000  0.018440  0.787135  1
  B  B30  1  0.500000  0.481857  0.287473  1
  B  B31  1  0.500000  0.518143  0.712527  1
  B  B32  1  0.500000  0.598604  0.027404  1
  B  B33  1  0.500000  0.401396  0.972596  1
  B  B34  1  0.500000  0.097970  0.472752  1
  B  B35  1  0.500000  0.902030  0.527248  1
