# generated using pymatgen
data_Al(RhO3)2
_symmetry_space_group_name_H-M   'P 1'
_cell_length_a   4.50485900
_cell_length_b   4.50485900
_cell_length_c   9.12358300
_cell_angle_alpha   90.00000000
_cell_angle_beta   90.00000000
_cell_angle_gamma   90.00000000
_symmetry_Int_Tables_number   1
_chemical_formula_structural   Al(RhO3)2
_chemical_formula_sum   'Al2 Rh4 O12'
_cell_volume   185.15175456
_cell_formula_units_Z   2
loop_
 _symmetry_equiv_pos_site_id
 _symmetry_equiv_pos_as_xyz
  1  'x, y, z'
loop_
 _atom_site_type_symbol
 _atom_site_label
 _atom_site_symmetry_multiplicity
 _atom_site_fract_x
 _atom_site_fract_y
 _atom_site_fract_z
 _atom_site_occupancy
  Al  Al0  1  0.000000  0.000000  0.000000  1
  Al  Al1  1  0.500000  0.500000  0.500000  1
  Rh  Rh2  1  0.000000  0.000000  0.331411  1
  Rh  Rh3  1  0.000000  0.000000  0.668589  1
  Rh  Rh4  1  0.500000  0.500000  0.831411  1
  Rh  Rh5  1  0.500000  0.500000  0.168589  1
  O  O6  1  0.299340  0.299340  0.000000  1
  O  O7  1  0.700660  0.700660  0.000000  1
  O  O8  1  0.200660  0.799340  0.500000  1
  O  O9  1  0.799340  0.200660  0.500000  1
  O  O10  1  0.307691  0.307691  0.339573  1
  O  O11  1  0.692309  0.692309  0.660427  1
  O  O12  1  0.692309  0.692309  0.339573  1
  O  O13  1  0.192309  0.807691  0.839573  1
  O  O14  1  0.192309  0.807691  0.160427  1
  O  O15  1  0.307691  0.307691  0.660427  1
  O  O16  1  0.807691  0.192309  0.160427  1
  O  O17  1  0.807691  0.192309  0.839573  1
