# generated using pymatgen
data_Nd2ErSc7(Si5Ir2)4
_symmetry_space_group_name_H-M   'P 1'
_cell_length_a   12.48440705
_cell_length_b   12.48629985
_cell_length_c   4.16273500
_cell_angle_alpha   90.00000000
_cell_angle_beta   90.00000000
_cell_angle_gamma   89.96000572
_symmetry_Int_Tables_number   1
_chemical_formula_structural   Nd2ErSc7(Si5Ir2)4
_chemical_formula_sum   'Nd2 Er1 Sc7 Si20 Ir8'
_cell_volume   648.90383231
_cell_formula_units_Z   1
loop_
 _symmetry_equiv_pos_site_id
 _symmetry_equiv_pos_as_xyz
  1  'x, y, z'
loop_
 _atom_site_type_symbol
 _atom_site_label
 _atom_site_symmetry_multiplicity
 _atom_site_fract_x
 _atom_site_fract_y
 _atom_site_fract_z
 _atom_site_occupancy
  Nd  Nd0  1  0.115386  0.615389  0.500000  1
  Nd  Nd1  1  0.384418  0.115739  0.500000  1
  Er  Er2  1  0.616187  0.884008  0.500000  1
  Sc  Sc3  1  0.501006  0.500548  0.000000  1
  Sc  Sc4  1  0.999397  0.000864  0.000000  1
  Sc  Sc5  1  0.675335  0.174682  0.500000  1
  Sc  Sc6  1  0.326799  0.826081  0.500000  1
  Sc  Sc7  1  0.172276  0.326003  0.500000  1
  Sc  Sc8  1  0.825369  0.672961  0.500000  1
  Sc  Sc9  1  0.883608  0.383604  0.500000  1
  Si  Si10  1  0.569141  0.067796  0.000000  1
  Si  Si11  1  0.432749  0.931304  0.000000  1
  Si  Si12  1  0.066070  0.431198  0.000000  1
  Si  Si13  1  0.931084  0.566237  0.000000  1
  Si  Si14  1  0.666370  0.698681  0.000000  1
  Si  Si15  1  0.334326  0.301014  0.000000  1
  Si  Si16  1  0.165409  0.800988  0.000000  1
  Si  Si17  1  0.834438  0.200466  0.000000  1
  Si  Si18  1  0.302029  0.665714  0.000000  1
  Si  Si19  1  0.701614  0.334711  0.000000  1
  Si  Si20  1  0.197343  0.166168  0.000000  1
  Si  Si21  1  0.799609  0.834064  0.000000  1
  Si  Si22  1  0.652617  0.505855  0.500000  1
  Si  Si23  1  0.350028  0.491619  0.500000  1
  Si  Si24  1  0.149746  0.992322  0.500000  1
  Si  Si25  1  0.848914  0.007729  0.500000  1
  Si  Si26  1  0.493089  0.651000  0.500000  1
  Si  Si27  1  0.508352  0.350128  0.500000  1
  Si  Si28  1  0.005390  0.152574  0.500000  1
  Si  Si29  1  0.991299  0.849946  0.500000  1
  Ir  Ir30  1  0.745492  0.518952  0.000000  1
  Ir  Ir31  1  0.256849  0.478552  0.000000  1
  Ir  Ir32  1  0.242295  0.978820  0.000000  1
  Ir  Ir33  1  0.756261  0.020153  0.000000  1
  Ir  Ir34  1  0.481006  0.743916  0.000000  1
  Ir  Ir35  1  0.522463  0.257862  0.000000  1
  Ir  Ir36  1  0.018346  0.245517  0.000000  1
  Ir  Ir37  1  0.977885  0.756832  0.000000  1
