# generated using pymatgen
data_DyHo7Al8
_symmetry_space_group_name_H-M   'P 1'
_cell_length_a   5.60240400
_cell_length_b   5.83481106
_cell_length_c   11.38773712
_cell_angle_alpha   90.01639549
_cell_angle_beta   90.00000000
_cell_angle_gamma   90.00000000
_symmetry_Int_Tables_number   1
_chemical_formula_structural   DyHo7Al8
_chemical_formula_sum   'Dy1 Ho7 Al8'
_cell_volume   372.25336830
_cell_formula_units_Z   1
loop_
 _symmetry_equiv_pos_site_id
 _symmetry_equiv_pos_as_xyz
  1  'x, y, z'
loop_
 _atom_site_type_symbol
 _atom_site_label
 _atom_site_symmetry_multiplicity
 _atom_site_fract_x
 _atom_site_fract_y
 _atom_site_fract_z
 _atom_site_occupancy
  Dy  Dy0  1  0.750000  0.161236  0.484221  1
  Ho  Ho1  1  0.250000  0.838737  0.516056  1
  Ho  Ho2  1  0.250000  0.160876  0.015997  1
  Ho  Ho3  1  0.750000  0.839042  0.983930  1
  Ho  Ho4  1  0.750000  0.397008  0.168265  1
  Ho  Ho5  1  0.250000  0.603059  0.831685  1
  Ho  Ho6  1  0.250000  0.397100  0.331497  1
  Ho  Ho7  1  0.750000  0.602999  0.668433  1
  Al  Al8  1  0.500012  0.928430  0.249922  1
  Al  Al9  1  0.000082  0.071480  0.750077  1
  Al  Al10  1  0.499918  0.071480  0.750077  1
  Al  Al11  1  0.999988  0.928430  0.249922  1
  Al  Al12  1  0.750000  0.659125  0.401717  1
  Al  Al13  1  0.250000  0.340987  0.598196  1
  Al  Al14  1  0.250000  0.659125  0.098061  1
  Al  Al15  1  0.750000  0.340885  0.901945  1
