# generated using pymatgen
data_Ba8Ho3Lu(CoO5)4
_symmetry_space_group_name_H-M   'P 1'
_cell_length_a   6.14275906
_cell_length_b   7.94083511
_cell_length_c   12.46347951
_cell_angle_alpha   91.47406848
_cell_angle_beta   89.99337710
_cell_angle_gamma   89.98489880
_symmetry_Int_Tables_number   1
_chemical_formula_structural   Ba8Ho3Lu(CoO5)4
_chemical_formula_sum   'Ba8 Ho3 Lu1 Co4 O20'
_cell_volume   607.75032647
_cell_formula_units_Z   1
loop_
 _symmetry_equiv_pos_site_id
 _symmetry_equiv_pos_as_xyz
  1  'x, y, z'
loop_
 _atom_site_type_symbol
 _atom_site_label
 _atom_site_symmetry_multiplicity
 _atom_site_fract_x
 _atom_site_fract_y
 _atom_site_fract_z
 _atom_site_occupancy
  Ba  Ba0  1  0.756884  0.492809  0.361719  1
  Ba  Ba1  1  0.743634  0.994853  0.861910  1
  Ba  Ba2  1  0.243019  0.505615  0.639359  1
  Ba  Ba3  1  0.256200  0.007075  0.137023  1
  Ba  Ba4  1  0.752961  0.992874  0.383219  1
  Ba  Ba5  1  0.747337  0.491851  0.883115  1
  Ba  Ba6  1  0.246657  0.008020  0.618085  1
  Ba  Ba7  1  0.252562  0.506665  0.115415  1
  Ho  Ho8  1  0.748603  0.261834  0.630175  1
  Ho  Ho9  1  0.751536  0.761942  0.128802  1
  Ho  Ho10  1  0.251529  0.737880  0.370908  1
  Lu  Lu11  1  0.248476  0.238972  0.870460  1
  Co  Co12  1  0.741476  0.745905  0.592801  1
  Co  Co13  1  0.757694  0.245740  0.090367  1
  Co  Co14  1  0.257996  0.253827  0.407654  1
  Co  Co15  1  0.241690  0.753865  0.906985  1
  O  O16  1  0.755541  0.971184  0.634699  1
  O  O17  1  0.745072  0.470440  0.133329  1
  O  O18  1  0.244516  0.029044  0.365601  1
  O  O19  1  0.254838  0.526749  0.866697  1
  O  O20  1  0.738814  0.053758  0.168133  1
  O  O21  1  0.761654  0.552759  0.669813  1
  O  O22  1  0.260564  0.950606  0.833058  1
  O  O23  1  0.238364  0.446578  0.330406  1
  O  O24  1  0.539211  0.747080  0.269268  1
  O  O25  1  0.968625  0.246932  0.768652  1
  O  O26  1  0.463119  0.252633  0.734529  1
  O  O27  1  0.038433  0.753389  0.230801  1
  O  O28  1  0.524473  0.231417  0.986637  1
  O  O29  1  0.970299  0.730900  0.488004  1
  O  O30  1  0.470756  0.768490  0.011742  1
  O  O31  1  0.028669  0.268928  0.512491  1
  O  O32  1  0.028528  0.234063  0.013588  1
  O  O33  1  0.470775  0.734446  0.517815  1
  O  O34  1  0.971572  0.765168  0.982613  1
  O  O35  1  0.527922  0.265707  0.484128  1
