# generated using pymatgen
data_Er2LuMg3AgSn2
_symmetry_space_group_name_H-M   'P 1'
_cell_length_a   7.46844639
_cell_length_b   7.46844647
_cell_length_c   4.45785200
_cell_angle_alpha   90.00000000
_cell_angle_beta   90.00000000
_cell_angle_gamma   119.80883414
_symmetry_Int_Tables_number   1
_chemical_formula_structural   Er2LuMg3AgSn2
_chemical_formula_sum   'Er2 Lu1 Mg3 Ag1 Sn2'
_cell_volume   215.74969311
_cell_formula_units_Z   1
loop_
 _symmetry_equiv_pos_site_id
 _symmetry_equiv_pos_as_xyz
  1  'x, y, z'
loop_
 _atom_site_type_symbol
 _atom_site_label
 _atom_site_symmetry_multiplicity
 _atom_site_fract_x
 _atom_site_fract_y
 _atom_site_fract_z
 _atom_site_occupancy
  Er  Er0  1  0.582815  0.999435  0.500000  1
  Er  Er1  1  0.999435  0.582815  0.500000  1
  Lu  Lu2  1  0.415854  0.415854  0.500000  1
  Mg  Mg3  1  0.762904  0.762904  0.000000  1
  Mg  Mg4  1  0.237262  0.000491  0.000000  1
  Mg  Mg5  1  0.000491  0.237262  0.000000  1
  Ag  Ag6  1  0.001715  0.001715  0.500000  1
  Sn  Sn7  1  0.665462  0.334061  0.000000  1
  Sn  Sn8  1  0.334061  0.665462  0.000000  1
