# generated using pymatgen
data_Er2Zr2IrRh
_symmetry_space_group_name_H-M   'P 1'
_cell_length_a   4.58420900
_cell_length_b   7.05118221
_cell_length_c   8.25996943
_cell_angle_alpha   90.13811933
_cell_angle_beta   90.00000000
_cell_angle_gamma   90.00000000
_symmetry_Int_Tables_number   1
_chemical_formula_structural   Er2Zr2IrRh
_chemical_formula_sum   'Er4 Zr4 Ir2 Rh2'
_cell_volume   266.99524379
_cell_formula_units_Z   2
loop_
 _symmetry_equiv_pos_site_id
 _symmetry_equiv_pos_as_xyz
  1  'x, y, z'
loop_
 _atom_site_type_symbol
 _atom_site_label
 _atom_site_symmetry_multiplicity
 _atom_site_fract_x
 _atom_site_fract_y
 _atom_site_fract_z
 _atom_site_occupancy
  Er  Er0  1  0.250000  0.514031  0.174680  1
  Er  Er1  1  0.750000  0.485969  0.825320  1
  Er  Er2  1  0.750000  0.980908  0.677325  1
  Er  Er3  1  0.250000  0.019092  0.322675  1
  Zr  Zr4  1  0.250000  0.643626  0.576500  1
  Zr  Zr5  1  0.750000  0.356374  0.423500  1
  Zr  Zr6  1  0.750000  0.855740  0.075596  1
  Zr  Zr7  1  0.250000  0.144260  0.924404  1
  Ir  Ir8  1  0.250000  0.765740  0.906064  1
  Ir  Ir9  1  0.750000  0.234260  0.093936  1
  Rh  Rh10  1  0.750000  0.733852  0.409379  1
  Rh  Rh11  1  0.250000  0.266148  0.590621  1
