# generated using pymatgen
data_La3PrYIr3
_symmetry_space_group_name_H-M   'P 1'
_cell_length_a   11.38832100
_cell_length_b   11.36138500
_cell_length_c   6.55071600
_cell_angle_alpha   90.00000000
_cell_angle_beta   90.00000000
_cell_angle_gamma   90.00000000
_symmetry_Int_Tables_number   1
_chemical_formula_structural   La3PrYIr3
_chemical_formula_sum   'La12 Pr4 Y4 Ir12'
_cell_volume   847.57814213
_cell_formula_units_Z   4
loop_
 _symmetry_equiv_pos_site_id
 _symmetry_equiv_pos_as_xyz
  1  'x, y, z'
loop_
 _atom_site_type_symbol
 _atom_site_label
 _atom_site_symmetry_multiplicity
 _atom_site_fract_x
 _atom_site_fract_y
 _atom_site_fract_z
 _atom_site_occupancy
  La  La0  1  0.588192  0.789628  0.887920  1
  La  La1  1  0.588192  0.210372  0.387920  1
  La  La2  1  0.411808  0.789628  0.387920  1
  La  La3  1  0.411808  0.210372  0.887920  1
  La  La4  1  0.211998  0.410897  0.612318  1
  La  La5  1  0.211998  0.589103  0.112318  1
  La  La6  1  0.788002  0.410897  0.112318  1
  La  La7  1  0.788002  0.589103  0.612318  1
  La  La8  1  0.911713  0.712474  0.112993  1
  La  La9  1  0.911713  0.287526  0.612993  1
  La  La10  1  0.088287  0.712474  0.612993  1
  La  La11  1  0.088287  0.287526  0.112993  1
  Pr  Pr12  1  0.287825  0.087173  0.385763  1
  Pr  Pr13  1  0.287825  0.912827  0.885763  1
  Pr  Pr14  1  0.712175  0.087173  0.885763  1
  Pr  Pr15  1  0.712175  0.912827  0.385763  1
  Y  Y16  1  0.000000  0.000000  0.500590  1
  Y  Y17  1  0.000000  0.000000  0.000590  1
  Y  Y18  1  0.500000  0.500000  0.999107  1
  Y  Y19  1  0.500000  0.500000  0.499107  1
  Ir  Ir20  1  0.851285  0.150334  0.252289  1
  Ir  Ir21  1  0.851285  0.849666  0.752289  1
  Ir  Ir22  1  0.148715  0.150334  0.752289  1
  Ir  Ir23  1  0.148715  0.849666  0.252289  1
  Ir  Ir24  1  0.650008  0.350221  0.749706  1
  Ir  Ir25  1  0.650008  0.649779  0.249706  1
  Ir  Ir26  1  0.349992  0.350221  0.249706  1
  Ir  Ir27  1  0.349992  0.649779  0.749706  1
  Ir  Ir28  1  0.500000  0.000000  0.118485  1
  Ir  Ir29  1  0.500000  0.000000  0.618485  1
  Ir  Ir30  1  0.000000  0.500000  0.879839  1
  Ir  Ir31  1  0.000000  0.500000  0.379839  1
