# generated using pymatgen
data_Dy3Ho4Th3(Al2Ru3)2
_symmetry_space_group_name_H-M   'P 1'
_cell_length_a   8.42279443
_cell_length_b   8.42279374
_cell_length_c   8.42279391
_cell_angle_alpha   109.73020165
_cell_angle_beta   109.73019561
_cell_angle_gamma   109.73019579
_symmetry_Int_Tables_number   1
_chemical_formula_structural   Dy3Ho4Th3(Al2Ru3)2
_chemical_formula_sum   'Dy3 Ho4 Th3 Al4 Ru6'
_cell_volume   455.52425410
_cell_formula_units_Z   1
loop_
 _symmetry_equiv_pos_site_id
 _symmetry_equiv_pos_as_xyz
  1  'x, y, z'
loop_
 _atom_site_type_symbol
 _atom_site_label
 _atom_site_symmetry_multiplicity
 _atom_site_fract_x
 _atom_site_fract_y
 _atom_site_fract_z
 _atom_site_occupancy
  Dy  Dy0  1  0.717757  0.504371  0.995053  1
  Dy  Dy1  1  0.995053  0.717757  0.504371  1
  Dy  Dy2  1  0.504371  0.995053  0.717757  1
  Ho  Ho3  1  0.780271  0.780271  0.780271  1
  Ho  Ho4  1  0.314076  0.566641  0.749223  1
  Ho  Ho5  1  0.749223  0.314076  0.566641  1
  Ho  Ho6  1  0.566641  0.749223  0.314076  1
  Th  Th7  1  0.253763  0.194691  0.940921  1
  Th  Th8  1  0.940921  0.253763  0.194691  1
  Th  Th9  1  0.194691  0.940921  0.253763  1
  Al  Al10  1  0.414691  0.414691  0.414691  1
  Al  Al11  1  0.094171  0.499412  0.997015  1
  Al  Al12  1  0.997015  0.094171  0.499412  1
  Al  Al13  1  0.499412  0.997015  0.094171  1
  Ru  Ru14  1  0.888675  0.121035  0.753287  1
  Ru  Ru15  1  0.753287  0.888675  0.121035  1
  Ru  Ru16  1  0.121035  0.753287  0.888675  1
  Ru  Ru17  1  0.235859  0.611893  0.367193  1
  Ru  Ru18  1  0.367193  0.235859  0.611893  1
  Ru  Ru19  1  0.611893  0.367193  0.235859  1
