# generated using pymatgen
data_AcLa(Hg2Pd)2
_symmetry_space_group_name_H-M   'P 1'
_cell_length_a   5.65254500
_cell_length_b   5.65254519
_cell_length_c   8.56067300
_cell_angle_alpha   90.00000000
_cell_angle_beta   90.00000000
_cell_angle_gamma   134.03445101
_symmetry_Int_Tables_number   1
_chemical_formula_structural   AcLa(Hg2Pd)2
_chemical_formula_sum   'Ac1 La1 Hg4 Pd2'
_cell_volume   196.64266149
_cell_formula_units_Z   1
loop_
 _symmetry_equiv_pos_site_id
 _symmetry_equiv_pos_as_xyz
  1  'x, y, z'
loop_
 _atom_site_type_symbol
 _atom_site_label
 _atom_site_symmetry_multiplicity
 _atom_site_fract_x
 _atom_site_fract_y
 _atom_site_fract_z
 _atom_site_occupancy
  Ac  Ac0  1  0.067351  0.932649  0.250000  1
  La  La1  1  0.932632  0.067368  0.750000  1
  Hg  Hg2  1  0.641762  0.358238  0.554244  1
  Hg  Hg3  1  0.358549  0.641451  0.453359  1
  Hg  Hg4  1  0.641762  0.358238  0.945756  1
  Hg  Hg5  1  0.358549  0.641451  0.046641  1
  Pd  Pd6  1  0.221598  0.778402  0.750000  1
  Pd  Pd7  1  0.777797  0.222203  0.250000  1
