# generated using pymatgen
data_NaNd3(H6Pt)2
_symmetry_space_group_name_H-M   'P 1'
_cell_length_a   6.98595600
_cell_length_b   6.98585914
_cell_length_c   5.37633600
_cell_angle_alpha   90.00002461
_cell_angle_beta   90.00008202
_cell_angle_gamma   134.97783445
_symmetry_Int_Tables_number   1
_chemical_formula_structural   NaNd3(H6Pt)2
_chemical_formula_sum   'Na1 Nd3 H12 Pt2'
_cell_volume   185.60301301
_cell_formula_units_Z   1
loop_
 _symmetry_equiv_pos_site_id
 _symmetry_equiv_pos_as_xyz
  1  'x, y, z'
loop_
 _atom_site_type_symbol
 _atom_site_label
 _atom_site_symmetry_multiplicity
 _atom_site_fract_x
 _atom_site_fract_y
 _atom_site_fract_z
 _atom_site_occupancy
  Na  Na0  1  0.647320  0.352766  0.999921  1
  Nd  Nd1  1  0.356424  0.643588  0.000001  1
  Nd  Nd2  1  0.851322  0.148687  0.499989  1
  Nd  Nd3  1  0.142218  0.857811  0.499988  1
  H  H4  1  0.865745  0.134181  0.000025  1
  H  H5  1  0.128875  0.871069  0.000038  1
  H  H6  1  0.633045  0.366950  0.499999  1
  H  H7  1  0.368610  0.631395  0.500012  1
  H  H8  1  0.015737  0.507832  0.254844  1
  H  H9  1  0.015745  0.507837  0.745116  1
  H  H10  1  0.492212  0.984290  0.745127  1
  H  H11  1  0.492213  0.984295  0.254849  1
  H  H12  1  0.242490  0.245560  0.256596  1
  H  H13  1  0.754427  0.757480  0.743434  1
  H  H14  1  0.243236  0.246265  0.742725  1
  H  H15  1  0.753704  0.756720  0.257306  1
  Pt  Pt16  1  0.996680  0.003277  0.000018  1
  Pt  Pt17  1  0.499994  0.500002  0.500010  1
