# generated using pymatgen
data_Hf7Nb5Ga12
_symmetry_space_group_name_H-M   'P 1'
_cell_length_a   5.51243200
_cell_length_b   8.47815342
_cell_length_c   9.13486929
_cell_angle_alpha   89.82011609
_cell_angle_beta   90.00000000
_cell_angle_gamma   90.00000000
_symmetry_Int_Tables_number   1
_chemical_formula_structural   Hf7Nb5Ga12
_chemical_formula_sum   'Hf7 Nb5 Ga12'
_cell_volume   426.91824276
_cell_formula_units_Z   1
loop_
 _symmetry_equiv_pos_site_id
 _symmetry_equiv_pos_as_xyz
  1  'x, y, z'
loop_
 _atom_site_type_symbol
 _atom_site_label
 _atom_site_symmetry_multiplicity
 _atom_site_fract_x
 _atom_site_fract_y
 _atom_site_fract_z
 _atom_site_occupancy
  Hf  Hf0  1  0.250000  0.530493  0.378617  1
  Hf  Hf1  1  0.750000  0.968503  0.380307  1
  Hf  Hf2  1  0.250000  0.027270  0.620639  1
  Hf  Hf3  1  0.750000  0.366953  0.180327  1
  Hf  Hf4  1  0.250000  0.634696  0.818045  1
  Hf  Hf5  1  0.750000  0.869516  0.815268  1
  Hf  Hf6  1  0.250000  0.134766  0.186254  1
  Nb  Nb7  1  0.000168  0.748416  0.110872  1
  Nb  Nb8  1  0.499836  0.249483  0.888488  1
  Nb  Nb9  1  0.000164  0.249483  0.888488  1
  Nb  Nb10  1  0.499832  0.748416  0.110872  1
  Nb  Nb11  1  0.750000  0.471383  0.618249  1
  Ga  Ga12  1  0.997786  0.746745  0.573208  1
  Ga  Ga13  1  0.502283  0.252152  0.431196  1
  Ga  Ga14  1  0.997717  0.252152  0.431196  1
  Ga  Ga15  1  0.502214  0.746745  0.573208  1
  Ga  Ga16  1  0.750000  0.044335  0.079870  1
  Ga  Ga17  1  0.250000  0.955635  0.920954  1
  Ga  Ga18  1  0.750000  0.545178  0.914367  1
  Ga  Ga19  1  0.250000  0.453894  0.079234  1
  Ga  Ga20  1  0.750000  0.138304  0.651110  1
  Ga  Ga21  1  0.250000  0.866301  0.347902  1
  Ga  Ga22  1  0.750000  0.630081  0.348998  1
  Ga  Ga23  1  0.250000  0.369099  0.652331  1
