# generated using pymatgen
data_Np2Si5Ir3
_symmetry_space_group_name_H-M   'P 1'
_cell_length_a   8.16746601
_cell_length_b   8.16746632
_cell_length_c   8.16746660
_cell_angle_alpha   138.19794916
_cell_angle_beta   103.97060432
_cell_angle_gamma   90.75195771
_symmetry_Int_Tables_number   1
_chemical_formula_structural   Np2Si5Ir3
_chemical_formula_sum   'Np4 Si10 Ir6'
_cell_volume   336.35094909
_cell_formula_units_Z   2
loop_
 _symmetry_equiv_pos_site_id
 _symmetry_equiv_pos_as_xyz
  1  'x, y, z'
loop_
 _atom_site_type_symbol
 _atom_site_label
 _atom_site_symmetry_multiplicity
 _atom_site_fract_x
 _atom_site_fract_y
 _atom_site_fract_z
 _atom_site_occupancy
  Np  Np0  1  0.861162  0.630896  0.230267  1
  Np  Np1  1  0.138838  0.369104  0.769733  1
  Np  Np2  1  0.400629  0.130896  0.269733  1
  Np  Np3  1  0.599371  0.869104  0.730267  1
  Si  Si4  1  0.500000  0.750000  0.250000  1
  Si  Si5  1  0.500000  0.250000  0.750000  1
  Si  Si6  1  0.225417  0.975417  0.750000  1
  Si  Si7  1  0.774583  0.524583  0.750000  1
  Si  Si8  1  0.774583  0.024583  0.250000  1
  Si  Si9  1  0.225417  0.475417  0.250000  1
  Si  Si10  1  0.048616  0.893931  0.154685  1
  Si  Si11  1  0.951384  0.106069  0.845315  1
  Si  Si12  1  0.739244  0.393931  0.345315  1
  Si  Si13  1  0.260756  0.606069  0.654685  1
  Ir  Ir14  1  0.000000  0.750000  0.750000  1
  Ir  Ir15  1  0.000000  0.250000  0.250000  1
  Ir  Ir16  1  0.245933  0.860126  0.385807  1
  Ir  Ir17  1  0.754067  0.139874  0.614193  1
  Ir  Ir18  1  0.474318  0.360126  0.114193  1
  Ir  Ir19  1  0.525682  0.639874  0.885807  1
