# generated using pymatgen
data_Ho10(InSb)3
_symmetry_space_group_name_H-M   'P 1'
_cell_length_a   8.95507600
_cell_length_b   8.93288004
_cell_length_c   6.52432500
_cell_angle_alpha   90.00000000
_cell_angle_beta   90.00000000
_cell_angle_gamma   120.08222891
_symmetry_Int_Tables_number   1
_chemical_formula_structural   Ho10(InSb)3
_chemical_formula_sum   'Ho10 In3 Sb3'
_cell_volume   451.61311572
_cell_formula_units_Z   1
loop_
 _symmetry_equiv_pos_site_id
 _symmetry_equiv_pos_as_xyz
  1  'x, y, z'
loop_
 _atom_site_type_symbol
 _atom_site_label
 _atom_site_symmetry_multiplicity
 _atom_site_fract_x
 _atom_site_fract_y
 _atom_site_fract_z
 _atom_site_occupancy
  Ho  Ho0  1  0.331224  0.665986  0.000877  1
  Ho  Ho1  1  0.665239  0.334014  0.499123  1
  Ho  Ho2  1  0.665239  0.334014  0.000877  1
  Ho  Ho3  1  0.331224  0.665986  0.499123  1
  Ho  Ho4  1  0.760393  0.000000  0.750000  1
  Ho  Ho5  1  0.762652  0.759280  0.250000  1
  Ho  Ho6  1  0.003372  0.240720  0.250000  1
  Ho  Ho7  1  0.002229  0.762636  0.750000  1
  Ho  Ho8  1  0.239594  0.237364  0.750000  1
  Ho  Ho9  1  0.238200  0.000000  0.250000  1
  In  In10  1  0.395521  0.000000  0.750000  1
  In  In11  1  0.394294  0.395152  0.250000  1
  In  In12  1  0.999141  0.604848  0.250000  1
  Sb  Sb13  1  0.997973  0.392066  0.750000  1
  Sb  Sb14  1  0.605907  0.607934  0.750000  1
  Sb  Sb15  1  0.607796  0.000000  0.250000  1
