# generated using pymatgen
data_YEr3(Si5Pt3)2
_symmetry_space_group_name_H-M   'P 1'
_cell_length_a   8.13416386
_cell_length_b   8.14256134
_cell_length_c   8.14256285
_cell_angle_alpha   136.35133374
_cell_angle_beta   104.39432833
_cell_angle_gamma   91.61054023
_symmetry_Int_Tables_number   1
_chemical_formula_structural   YEr3(Si5Pt3)2
_chemical_formula_sum   'Y1 Er3 Si10 Pt6'
_cell_volume   342.67076214
_cell_formula_units_Z   1
loop_
 _symmetry_equiv_pos_site_id
 _symmetry_equiv_pos_as_xyz
  1  'x, y, z'
loop_
 _atom_site_type_symbol
 _atom_site_label
 _atom_site_symmetry_multiplicity
 _atom_site_fract_x
 _atom_site_fract_y
 _atom_site_fract_z
 _atom_site_occupancy
  Y  Y0  1  0.099788  0.870948  0.228840  1
  Er  Er1  1  0.900534  0.129510  0.771024  1
  Er  Er2  1  0.641144  0.370412  0.270732  1
  Er  Er3  1  0.358915  0.629425  0.729490  1
  Si  Si4  1  0.999984  0.749593  0.749051  1
  Si  Si5  1  0.999984  0.250933  0.250391  1
  Si  Si6  1  0.271314  0.020699  0.749898  1
  Si  Si7  1  0.728212  0.478157  0.749086  1
  Si  Si8  1  0.728212  0.979125  0.250054  1
  Si  Si9  1  0.271314  0.521417  0.250617  1
  Si  Si10  1  0.762702  0.611901  0.150801  1
  Si  Si11  1  0.236593  0.387423  0.849170  1
  Si  Si12  1  0.461930  0.112994  0.348936  1
  Si  Si13  1  0.539014  0.887605  0.651409  1
  Pt  Pt14  1  0.500247  0.750403  0.250858  1
  Pt  Pt15  1  0.500247  0.249390  0.749843  1
  Pt  Pt16  1  0.023087  0.637063  0.386024  1
  Pt  Pt17  1  0.976398  0.362738  0.613660  1
  Pt  Pt18  1  0.251054  0.137477  0.113577  1
  Pt  Pt19  1  0.749326  0.862787  0.886539  1
