# generated using pymatgen
data_GeBr35
_symmetry_space_group_name_H-M   'P 1'
_cell_length_a   15.98197694
_cell_length_b   11.40028128
_cell_length_c   10.79188300
_cell_angle_alpha   88.81408278
_cell_angle_beta   66.02770512
_cell_angle_gamma   92.31545406
_symmetry_Int_Tables_number   1
_chemical_formula_structural   GeBr35
_chemical_formula_sum   'Ge1 Br35'
_cell_volume   1793.71352310
_cell_formula_units_Z   1
loop_
 _symmetry_equiv_pos_site_id
 _symmetry_equiv_pos_as_xyz
  1  'x, y, z'
loop_
 _atom_site_type_symbol
 _atom_site_label
 _atom_site_symmetry_multiplicity
 _atom_site_fract_x
 _atom_site_fract_y
 _atom_site_fract_z
 _atom_site_occupancy
  Ge  Ge0  1  0.184063  0.440729  0.594192  1
  Br  Br1  1  0.515087  0.273751  0.542650  1
  Br  Br2  1  0.760017  0.589333  0.562806  1
  Br  Br3  1  0.475293  0.697881  0.716560  1
  Br  Br4  1  0.057252  0.891179  0.833068  1
  Br  Br5  1  0.889505  0.159525  0.048235  1
  Br  Br6  1  0.635723  0.330259  0.307918  1
  Br  Br7  1  0.630583  0.331199  0.831088  1
  Br  Br8  1  0.335518  0.782104  0.695703  1
  Br  Br9  1  0.370458  0.557158  0.073044  1
  Br  Br10  1  0.670023  0.130167  0.792451  1
  Br  Br11  1  0.917225  0.558500  0.381392  1
  Br  Br12  1  0.068600  0.936055  0.594385  1
  Br  Br13  1  0.915548  0.125676  0.268999  1
  Br  Br14  1  0.871867  0.203375  0.832391  1
  Br  Br15  1  0.654504  0.057105  0.182357  1
  Br  Br16  1  0.034123  0.841386  0.079240  1
  Br  Br17  1  0.359883  0.998300  0.740022  1
  Br  Br18  1  0.914483  0.339532  0.329934  1
  Br  Br19  1  0.890328  0.921924  0.663705  1
  Br  Br20  1  0.832774  0.643433  0.875012  1
  Br  Br21  1  0.315848  0.973184  0.218785  1
  Br  Br22  1  0.386933  0.365665  0.138177  1
  Br  Br23  1  0.605652  0.613118  0.765341  1
  Br  Br24  1  0.131333  0.439492  0.424403  1
  Br  Br25  1  0.720090  0.904326  0.751656  1
  Br  Br26  1  0.838068  0.435214  0.859571  1
  Br  Br27  1  0.501958  0.019447  0.205854  1
  Br  Br28  1  0.155427  0.256845  0.700031  1
  Br  Br29  1  0.684343  0.777212  0.278416  1
  Br  Br30  1  0.856767  0.809031  0.183027  1
  Br  Br31  1  0.389409  0.212158  0.779004  1
  Br  Br32  1  0.339709  0.488593  0.503079  1
  Br  Br33  1  0.657644  0.552973  0.297456  1
  Br  Br34  1  0.110191  0.579589  0.747197  1
  Br  Br35  1  0.323771  0.764582  0.202854  1
