# generated using pymatgen
data_La3(Al3Os)4
_symmetry_space_group_name_H-M   'P 1'
_cell_length_a   8.96309000
_cell_length_b   8.96309081
_cell_length_c   9.72007300
_cell_angle_alpha   90.00000000
_cell_angle_beta   90.00000000
_cell_angle_gamma   120.00000437
_symmetry_Int_Tables_number   1
_chemical_formula_structural   La3(Al3Os)4
_chemical_formula_sum   'La6 Al24 Os8'
_cell_volume   676.26310342
_cell_formula_units_Z   2
loop_
 _symmetry_equiv_pos_site_id
 _symmetry_equiv_pos_as_xyz
  1  'x, y, z'
loop_
 _atom_site_type_symbol
 _atom_site_label
 _atom_site_symmetry_multiplicity
 _atom_site_fract_x
 _atom_site_fract_y
 _atom_site_fract_z
 _atom_site_occupancy
  La  La0  1  0.192699  0.385397  0.250000  1
  La  La1  1  0.807301  0.614603  0.750000  1
  La  La2  1  0.614603  0.807301  0.250000  1
  La  La3  1  0.385397  0.192699  0.750000  1
  La  La4  1  0.192699  0.807301  0.250000  1
  La  La5  1  0.807301  0.192699  0.750000  1
  Al  Al6  1  0.333333  0.666667  0.001849  1
  Al  Al7  1  0.666667  0.333333  0.998151  1
  Al  Al8  1  0.666667  0.333333  0.501849  1
  Al  Al9  1  0.333333  0.666667  0.498151  1
  Al  Al10  1  0.162547  0.325094  0.575613  1
  Al  Al11  1  0.837453  0.674906  0.424387  1
  Al  Al12  1  0.674906  0.837453  0.575613  1
  Al  Al13  1  0.837453  0.674906  0.075613  1
  Al  Al14  1  0.325094  0.162547  0.424387  1
  Al  Al15  1  0.162547  0.325094  0.924387  1
  Al  Al16  1  0.162547  0.837453  0.575613  1
  Al  Al17  1  0.325094  0.162547  0.075613  1
  Al  Al18  1  0.837453  0.162547  0.424387  1
  Al  Al19  1  0.674906  0.837453  0.924387  1
  Al  Al20  1  0.837453  0.162547  0.075613  1
  Al  Al21  1  0.162547  0.837453  0.924387  1
  Al  Al22  1  0.563112  0.126223  0.250000  1
  Al  Al23  1  0.436888  0.873777  0.750000  1
  Al  Al24  1  0.873777  0.436888  0.250000  1
  Al  Al25  1  0.126223  0.563112  0.750000  1
  Al  Al26  1  0.563112  0.436888  0.250000  1
  Al  Al27  1  0.436888  0.563112  0.750000  1
  Al  Al28  1  0.000000  0.000000  0.250000  1
  Al  Al29  1  0.000000  0.000000  0.750000  1
  Os  Os30  1  0.500000  0.000000  0.000000  1
  Os  Os31  1  0.000000  0.500000  0.000000  1
  Os  Os32  1  0.500000  0.000000  0.500000  1
  Os  Os33  1  0.500000  0.500000  0.000000  1
  Os  Os34  1  0.000000  0.500000  0.500000  1
  Os  Os35  1  0.500000  0.500000  0.500000  1
  Os  Os36  1  0.000000  0.000000  0.000000  1
  Os  Os37  1  0.000000  0.000000  0.500000  1
