# generated using pymatgen
data_TbTm7Mg2(SiB4)4
_symmetry_space_group_name_H-M   'P 1'
_cell_length_a   7.11925302
_cell_length_b   7.11925302
_cell_length_c   7.73771301
_cell_angle_alpha   89.99662175
_cell_angle_beta   90.00337825
_cell_angle_gamma   89.99253150
_symmetry_Int_Tables_number   1
_chemical_formula_structural   TbTm7Mg2(SiB4)4
_chemical_formula_sum   'Tb1 Tm7 Mg2 Si4 B16'
_cell_volume   392.17641166
_cell_formula_units_Z   1
loop_
 _symmetry_equiv_pos_site_id
 _symmetry_equiv_pos_as_xyz
  1  'x, y, z'
loop_
 _atom_site_type_symbol
 _atom_site_label
 _atom_site_symmetry_multiplicity
 _atom_site_fract_x
 _atom_site_fract_y
 _atom_site_fract_z
 _atom_site_occupancy
  Tb  Tb0  1  0.182296  0.317704  0.234588  1
  Tm  Tm1  1  0.682125  0.181993  0.231403  1
  Tm  Tm2  1  0.317945  0.817784  0.768777  1
  Tm  Tm3  1  0.318007  0.817875  0.231403  1
  Tm  Tm4  1  0.817610  0.682390  0.231384  1
  Tm  Tm5  1  0.817724  0.682276  0.768637  1
  Tm  Tm6  1  0.682216  0.182055  0.768777  1
  Tm  Tm7  1  0.182092  0.317908  0.768499  1
  Mg  Mg8  1  0.999768  0.999508  0.500351  1
  Mg  Mg9  1  0.500492  0.500232  0.500351  1
  Si  Si10  1  0.115043  0.616927  0.501230  1
  Si  Si11  1  0.883073  0.384957  0.501230  1
  Si  Si12  1  0.385404  0.114596  0.501548  1
  Si  Si13  1  0.616151  0.883849  0.500293  1
  B  B14  1  0.173881  0.038645  0.999500  1
  B  B15  1  0.825567  0.960429  0.999649  1
  B  B16  1  0.959995  0.173764  0.999257  1
  B  B17  1  0.326236  0.540005  0.999257  1
  B  B18  1  0.039068  0.825642  0.999581  1
  B  B19  1  0.674358  0.460932  0.999581  1
  B  B20  1  0.539571  0.674433  0.999649  1
  B  B21  1  0.461355  0.326119  0.999500  1
  B  B22  1  0.088457  0.588955  0.998988  1
  B  B23  1  0.911045  0.411543  0.998988  1
  B  B24  1  0.411544  0.088456  0.999774  1
  B  B25  1  0.588620  0.911380  0.999764  1
  B  B26  1  0.999368  0.998863  0.164992  1
  B  B27  1  0.999782  0.999929  0.834029  1
  B  B28  1  0.500071  0.500218  0.834029  1
  B  B29  1  0.501137  0.500632  0.164992  1
