# generated using pymatgen
data_HfZr2ReSi3Ru2
_symmetry_space_group_name_H-M   'P 1'
_cell_length_a   7.67923167
_cell_length_b   7.67923126
_cell_length_c   7.67923167
_cell_angle_alpha   126.96040278
_cell_angle_beta   124.32898021
_cell_angle_gamma   80.49075177
_symmetry_Int_Tables_number   1
_chemical_formula_structural   HfZr2ReSi3Ru2
_chemical_formula_sum   'Hf2 Zr4 Re2 Si6 Ru4'
_cell_volume   288.25995513
_cell_formula_units_Z   2
loop_
 _symmetry_equiv_pos_site_id
 _symmetry_equiv_pos_as_xyz
  1  'x, y, z'
loop_
 _atom_site_type_symbol
 _atom_site_label
 _atom_site_symmetry_multiplicity
 _atom_site_fract_x
 _atom_site_fract_y
 _atom_site_fract_z
 _atom_site_occupancy
  Hf  Hf0  1  0.055206  0.260673  0.705466  1
  Hf  Hf1  1  0.944794  0.650260  0.205466  1
  Zr  Zr2  1  0.462656  0.684952  0.722296  1
  Zr  Zr3  1  0.537344  0.259639  0.222296  1
  Zr  Zr4  1  0.746047  0.835207  0.589161  1
  Zr  Zr5  1  0.253953  0.843113  0.089161  1
  Re  Re6  1  0.500000  0.500435  0.000435  1
  Re  Re7  1  0.000000  0.500435  0.500435  1
  Si  Si8  1  0.271920  0.261048  0.489128  1
  Si  Si9  1  0.728080  0.217207  0.989128  1
  Si  Si10  1  0.323675  0.587558  0.249214  1
  Si  Si11  1  0.676325  0.925539  0.263883  1
  Si  Si12  1  0.161656  0.925539  0.749214  1
  Si  Si13  1  0.838344  0.587558  0.763883  1
  Ru  Ru14  1  0.096579  0.255268  0.101528  1
  Ru  Ru15  1  0.903421  0.004950  0.158690  1
  Ru  Ru16  1  0.346259  0.004950  0.601528  1
  Ru  Ru17  1  0.653741  0.255268  0.658690  1
