# generated using pymatgen
data_CaEuMnN3
_symmetry_space_group_name_H-M   'P 1'
_cell_length_a   5.98585714
_cell_length_b   5.98585659
_cell_length_c   11.81513700
_cell_angle_alpha   90.00000000
_cell_angle_beta   90.00000000
_cell_angle_gamma   125.23340327
_symmetry_Int_Tables_number   1
_chemical_formula_structural   CaEuMnN3
_chemical_formula_sum   'Ca4 Eu4 Mn4 N12'
_cell_volume   345.78947696
_cell_formula_units_Z   4
loop_
 _symmetry_equiv_pos_site_id
 _symmetry_equiv_pos_as_xyz
  1  'x, y, z'
loop_
 _atom_site_type_symbol
 _atom_site_label
 _atom_site_symmetry_multiplicity
 _atom_site_fract_x
 _atom_site_fract_y
 _atom_site_fract_z
 _atom_site_occupancy
  Ca  Ca0  1  0.141382  0.858618  0.424140  1
  Ca  Ca1  1  0.858618  0.141382  0.575860  1
  Ca  Ca2  1  0.358618  0.641382  0.924140  1
  Ca  Ca3  1  0.641382  0.358618  0.075860  1
  Eu  Eu4  1  0.448483  0.551517  0.355602  1
  Eu  Eu5  1  0.551517  0.448483  0.644398  1
  Eu  Eu6  1  0.051517  0.948483  0.855602  1
  Eu  Eu7  1  0.948483  0.051517  0.144398  1
  Mn  Mn8  1  0.255313  0.744687  0.160864  1
  Mn  Mn9  1  0.744687  0.255313  0.839136  1
  Mn  Mn10  1  0.244687  0.755313  0.660864  1
  Mn  Mn11  1  0.755313  0.244687  0.339136  1
  N  N12  1  0.156473  0.843527  0.039155  1
  N  N13  1  0.843527  0.156473  0.960845  1
  N  N14  1  0.343527  0.656473  0.539155  1
  N  N15  1  0.656473  0.343527  0.460845  1
  N  N16  1  0.421472  0.578528  0.133859  1
  N  N17  1  0.578528  0.421472  0.866141  1
  N  N18  1  0.078528  0.921472  0.633859  1
  N  N19  1  0.921472  0.078528  0.366141  1
  N  N20  1  0.966207  0.533793  0.250000  1
  N  N21  1  0.533793  0.966207  0.750000  1
  N  N22  1  0.033793  0.466207  0.750000  1
  N  N23  1  0.466207  0.033793  0.250000  1
