# generated using pymatgen
data_CeDy11Tc3Ru
_symmetry_space_group_name_H-M   'P 1'
_cell_length_a   6.30342294
_cell_length_b   7.34785865
_cell_length_c   9.29313500
_cell_angle_alpha   90.00000000
_cell_angle_beta   90.00000000
_cell_angle_gamma   91.24929989
_symmetry_Int_Tables_number   1
_chemical_formula_structural   CeDy11Tc3Ru
_chemical_formula_sum   'Ce1 Dy11 Tc3 Ru1'
_cell_volume   430.32466617
_cell_formula_units_Z   1
loop_
 _symmetry_equiv_pos_site_id
 _symmetry_equiv_pos_as_xyz
  1  'x, y, z'
loop_
 _atom_site_type_symbol
 _atom_site_label
 _atom_site_symmetry_multiplicity
 _atom_site_fract_x
 _atom_site_fract_y
 _atom_site_fract_z
 _atom_site_occupancy
  Ce  Ce0  1  0.858894  0.559415  0.250000  1
  Dy  Dy1  1  0.334582  0.675571  0.063105  1
  Dy  Dy2  1  0.161846  0.177803  0.437357  1
  Dy  Dy3  1  0.666748  0.322826  0.565591  1
  Dy  Dy4  1  0.832866  0.824291  0.933729  1
  Dy  Dy5  1  0.666748  0.322826  0.934409  1
  Dy  Dy6  1  0.832866  0.824291  0.566271  1
  Dy  Dy7  1  0.334582  0.675571  0.436895  1
  Dy  Dy8  1  0.161846  0.177803  0.062643  1
  Dy  Dy9  1  0.624228  0.041435  0.250000  1
  Dy  Dy10  1  0.133604  0.459900  0.750000  1
  Dy  Dy11  1  0.369624  0.956417  0.750000  1
  Tc  Tc12  1  0.015215  0.859529  0.250000  1
  Tc  Tc13  1  0.503381  0.392853  0.250000  1
  Tc  Tc14  1  0.965900  0.114844  0.750000  1
  Ru  Ru15  1  0.537071  0.614626  0.750000  1
