# generated using pymatgen
data_Tl2PdRu3Pb2O13
_symmetry_space_group_name_H-M   'P 1'
_cell_length_a   7.32883623
_cell_length_b   7.30248822
_cell_length_c   7.36621956
_cell_angle_alpha   60.06182173
_cell_angle_beta   60.16774978
_cell_angle_gamma   59.88058082
_symmetry_Int_Tables_number   1
_chemical_formula_structural   Tl2PdRu3Pb2O13
_chemical_formula_sum   'Tl2 Pd1 Ru3 Pb2 O13'
_cell_volume   278.99169802
_cell_formula_units_Z   1
loop_
 _symmetry_equiv_pos_site_id
 _symmetry_equiv_pos_as_xyz
  1  'x, y, z'
loop_
 _atom_site_type_symbol
 _atom_site_label
 _atom_site_symmetry_multiplicity
 _atom_site_fract_x
 _atom_site_fract_y
 _atom_site_fract_z
 _atom_site_occupancy
  Tl  Tl0  1  0.883962  0.371910  0.372512  1
  Tl  Tl1  1  0.371614  0.371910  0.372512  1
  Pd  Pd2  1  0.875083  0.374177  0.875657  1
  Ru  Ru3  1  0.875051  0.876302  0.373595  1
  Ru  Ru4  1  0.874421  0.876184  0.876298  1
  Ru  Ru5  1  0.373096  0.876184  0.876298  1
  Pb  Pb6  1  0.373832  0.376357  0.875978  1
  Pb  Pb7  1  0.372693  0.877873  0.376742  1
  O  O8  1  0.198341  0.807720  0.795598  1
  O  O9  1  0.195214  0.812283  0.194488  1
  O  O10  1  0.556735  0.935705  0.950824  1
  O  O11  1  0.554855  0.937310  0.555602  1
  O  O12  1  0.952233  0.937310  0.555602  1
  O  O13  1  0.798014  0.812283  0.194488  1
  O  O14  1  0.539672  0.555291  0.950355  1
  O  O15  1  0.797638  0.194480  0.798029  1
  O  O16  1  0.797840  0.194732  0.209587  1
  O  O17  1  0.954681  0.555291  0.950355  1
  O  O18  1  0.951441  0.556298  0.540820  1
  O  O19  1  0.209853  0.194480  0.798029  1
  O  O20  1  0.493728  0.505915  0.506629  1
