# generated using pymatgen
data_Ho6Al24Ru7Rh
_symmetry_space_group_name_H-M   'P 1'
_cell_length_a   8.77022990
_cell_length_b   8.80406854
_cell_length_c   9.57854167
_cell_angle_alpha   90.00000064
_cell_angle_beta   89.86968955
_cell_angle_gamma   120.12772188
_symmetry_Int_Tables_number   1
_chemical_formula_structural   Ho6Al24Ru7Rh
_chemical_formula_sum   'Ho6 Al24 Ru7 Rh1'
_cell_volume   639.67964902
_cell_formula_units_Z   1
loop_
 _symmetry_equiv_pos_site_id
 _symmetry_equiv_pos_as_xyz
  1  'x, y, z'
loop_
 _atom_site_type_symbol
 _atom_site_label
 _atom_site_symmetry_multiplicity
 _atom_site_fract_x
 _atom_site_fract_y
 _atom_site_fract_z
 _atom_site_occupancy
  Ho  Ho0  1  0.804753  0.191591  0.749084  1
  Ho  Ho1  1  0.195247  0.808409  0.250916  1
  Ho  Ho2  1  0.388478  0.194238  0.749461  1
  Ho  Ho3  1  0.611522  0.805762  0.250539  1
  Ho  Ho4  1  0.804753  0.613163  0.749084  1
  Ho  Ho5  1  0.195247  0.386837  0.250916  1
  Al  Al6  1  0.664789  0.332394  0.980616  1
  Al  Al7  1  0.335211  0.667606  0.019384  1
  Al  Al8  1  0.333378  0.666689  0.482255  1
  Al  Al9  1  0.666622  0.333311  0.517745  1
  Al  Al10  1  0.838773  0.162820  0.421506  1
  Al  Al11  1  0.161227  0.837180  0.578494  1
  Al  Al12  1  0.325183  0.162591  0.421894  1
  Al  Al13  1  0.163107  0.839280  0.921967  1
  Al  Al14  1  0.674817  0.837409  0.578106  1
  Al  Al15  1  0.836893  0.160720  0.078033  1
  Al  Al16  1  0.838773  0.675953  0.421506  1
  Al  Al17  1  0.675051  0.837525  0.922013  1
  Al  Al18  1  0.161227  0.324047  0.578494  1
  Al  Al19  1  0.324949  0.162475  0.077987  1
  Al  Al20  1  0.163107  0.323828  0.921967  1
  Al  Al21  1  0.836893  0.676172  0.078033  1
  Al  Al22  1  0.437966  0.560824  0.750627  1
  Al  Al23  1  0.562034  0.439176  0.249373  1
  Al  Al24  1  0.121906  0.560954  0.749582  1
  Al  Al25  1  0.878094  0.439046  0.250418  1
  Al  Al26  1  0.437966  0.877143  0.750627  1
  Al  Al27  1  0.562034  0.122857  0.249373  1
  Al  Al28  1  0.999614  0.999807  0.749926  1
  Al  Al29  1  0.000386  0.000193  0.250074  1
  Ru  Ru30  1  0.500000  0.500000  0.000000  1
  Ru  Ru31  1  0.500000  0.500000  0.500000  1
  Ru  Ru32  1  0.500000  0.000000  0.000000  1
  Ru  Ru33  1  0.000000  0.500000  0.500000  1
  Ru  Ru34  1  0.500000  0.000000  0.500000  1
  Ru  Ru35  1  0.000000  0.000000  0.000000  1
  Ru  Ru36  1  0.000000  0.000000  0.500000  1
  Rh  Rh37  1  0.000000  0.500000  0.000000  1
