# generated using pymatgen
data_Y3ZnSn3Ir2
_symmetry_space_group_name_H-M   'P 1'
_cell_length_a   7.50450300
_cell_length_b   7.50450204
_cell_length_c   4.03086800
_cell_angle_alpha   90.00000000
_cell_angle_beta   90.00000000
_cell_angle_gamma   119.99999100
_symmetry_Int_Tables_number   1
_chemical_formula_structural   Y3ZnSn3Ir2
_chemical_formula_sum   'Y3 Zn1 Sn3 Ir2'
_cell_volume   196.59526930
_cell_formula_units_Z   1
loop_
 _symmetry_equiv_pos_site_id
 _symmetry_equiv_pos_as_xyz
  1  'x, y, z'
loop_
 _atom_site_type_symbol
 _atom_site_label
 _atom_site_symmetry_multiplicity
 _atom_site_fract_x
 _atom_site_fract_y
 _atom_site_fract_z
 _atom_site_occupancy
  Y  Y0  1  0.392861  0.409348  0.500000  1
  Y  Y1  1  0.590652  0.983513  0.500000  1
  Y  Y2  1  0.016487  0.607139  0.500000  1
  Zn  Zn3  1  0.666667  0.333333  0.000000  1
  Sn  Sn4  1  0.743907  0.743020  0.000000  1
  Sn  Sn5  1  0.256980  0.000887  0.000000  1
  Sn  Sn6  1  0.999113  0.256093  0.000000  1
  Ir  Ir7  1  0.333333  0.666667  0.000000  1
  Ir  Ir8  1  0.000000  0.000000  0.500000  1
