# generated using pymatgen
data_ZrSc(Al3Ni)6
_symmetry_space_group_name_H-M   'P 1'
_cell_length_a   9.98181398
_cell_length_b   9.98181447
_cell_length_c   9.98181455
_cell_angle_alpha   42.36093561
_cell_angle_beta   42.36093843
_cell_angle_gamma   42.36093676
_symmetry_Int_Tables_number   1
_chemical_formula_structural   ZrSc(Al3Ni)6
_chemical_formula_sum   'Zr1 Sc1 Al18 Ni6'
_cell_volume   408.73920393
_cell_formula_units_Z   1
loop_
 _symmetry_equiv_pos_site_id
 _symmetry_equiv_pos_as_xyz
  1  'x, y, z'
loop_
 _atom_site_type_symbol
 _atom_site_label
 _atom_site_symmetry_multiplicity
 _atom_site_fract_x
 _atom_site_fract_y
 _atom_site_fract_z
 _atom_site_occupancy
  Zr  Zr0  1  0.166981  0.166981  0.166981  1
  Sc  Sc1  1  0.832934  0.832934  0.832934  1
  Al  Al2  1  0.102095  0.435952  0.768537  1
  Al  Al3  1  0.435952  0.768537  0.102095  1
  Al  Al4  1  0.565280  0.896939  0.231115  1
  Al  Al5  1  0.946845  0.946845  0.946845  1
  Al  Al6  1  0.052893  0.052893  0.052893  1
  Al  Al7  1  0.286390  0.715513  0.498064  1
  Al  Al8  1  0.896939  0.231115  0.565280  1
  Al  Al9  1  0.388684  0.388684  0.388684  1
  Al  Al10  1  0.498064  0.286390  0.715513  1
  Al  Al11  1  0.231115  0.565280  0.896939  1
  Al  Al12  1  0.719005  0.719005  0.719005  1
  Al  Al13  1  0.611735  0.611735  0.611735  1
  Al  Al14  1  0.333523  0.000703  0.665754  1
  Al  Al15  1  0.715513  0.498064  0.286390  1
  Al  Al16  1  0.665754  0.333523  0.000703  1
  Al  Al17  1  0.280842  0.280842  0.280842  1
  Al  Al18  1  0.000703  0.665754  0.333523  1
  Al  Al19  1  0.768537  0.102095  0.435952  1
  Ni  Ni20  1  0.418754  0.078668  0.759388  1
  Ni  Ni21  1  0.580577  0.241252  0.921575  1
  Ni  Ni22  1  0.078668  0.759388  0.418754  1
  Ni  Ni23  1  0.759388  0.418754  0.078668  1
  Ni  Ni24  1  0.921575  0.580577  0.241252  1
  Ni  Ni25  1  0.241252  0.921575  0.580577  1
