# generated using pymatgen
data_Ho2ErHfMg2Rh3
_symmetry_space_group_name_H-M   'P 1'
_cell_length_a   7.22540500
_cell_length_b   7.31936791
_cell_length_c   4.13579300
_cell_angle_alpha   90.00000000
_cell_angle_beta   90.00000000
_cell_angle_gamma   119.57622393
_symmetry_Int_Tables_number   1
_chemical_formula_structural   Ho2ErHfMg2Rh3
_chemical_formula_sum   'Ho2 Er1 Hf1 Mg2 Rh3'
_cell_volume   190.22340447
_cell_formula_units_Z   1
loop_
 _symmetry_equiv_pos_site_id
 _symmetry_equiv_pos_as_xyz
  1  'x, y, z'
loop_
 _atom_site_type_symbol
 _atom_site_label
 _atom_site_symmetry_multiplicity
 _atom_site_fract_x
 _atom_site_fract_y
 _atom_site_fract_z
 _atom_site_occupancy
  Ho  Ho0  1  0.991643  0.578453  0.500000  1
  Ho  Ho1  1  0.413191  0.421547  0.500000  1
  Er  Er2  1  0.602238  0.000000  0.500000  1
  Hf  Hf3  1  0.249260  0.000000  0.000000  1
  Mg  Mg4  1  0.751380  0.750596  0.000000  1
  Mg  Mg5  1  0.000784  0.249404  0.000000  1
  Rh  Rh6  1  0.644397  0.318140  0.000000  1
  Rh  Rh7  1  0.326256  0.681860  0.000000  1
  Rh  Rh8  1  0.020851  0.000000  0.500000  1
