# generated using pymatgen
data_Rb2Ga6ReIr
_symmetry_space_group_name_H-M   'P 1'
_cell_length_a   6.99793346
_cell_length_b   6.99793340
_cell_length_c   6.99793400
_cell_angle_alpha   120.00000281
_cell_angle_beta   120.00000253
_cell_angle_gamma   60.00000895
_symmetry_Int_Tables_number   1
_chemical_formula_structural   Rb2Ga6ReIr
_chemical_formula_sum   'Rb2 Ga6 Re1 Ir1'
_cell_volume   242.32290704
_cell_formula_units_Z   1
loop_
 _symmetry_equiv_pos_site_id
 _symmetry_equiv_pos_as_xyz
  1  'x, y, z'
loop_
 _atom_site_type_symbol
 _atom_site_label
 _atom_site_symmetry_multiplicity
 _atom_site_fract_x
 _atom_site_fract_y
 _atom_site_fract_z
 _atom_site_occupancy
  Rb  Rb0  1  0.749999  0.749999  0.249998  1
  Rb  Rb1  1  0.250000  0.250000  0.749999  1
  Ga  Ga2  1  0.250033  0.250033  0.250032  1
  Ga  Ga3  1  0.749968  0.250034  0.250034  1
  Ga  Ga4  1  0.250034  0.749968  0.250034  1
  Ga  Ga5  1  0.749967  0.250033  0.749967  1
  Ga  Ga6  1  0.250033  0.749967  0.749967  1
  Ga  Ga7  1  0.749968  0.749968  0.749967  1
  Re  Re8  1  0.000000  0.000000  0.000000  1
  Ir  Ir9  1  0.500000  0.500000  0.500000  1
