# generated using pymatgen
data_Lu2MnB2Ir5
_symmetry_space_group_name_H-M   'P 1'
_cell_length_a   9.50728200
_cell_length_b   9.50728200
_cell_length_c   3.14547600
_cell_angle_alpha   90.00000000
_cell_angle_beta   90.00000000
_cell_angle_gamma   90.00000000
_symmetry_Int_Tables_number   1
_chemical_formula_structural   Lu2MnB2Ir5
_chemical_formula_sum   'Lu4 Mn2 B4 Ir10'
_cell_volume   284.31457757
_cell_formula_units_Z   2
loop_
 _symmetry_equiv_pos_site_id
 _symmetry_equiv_pos_as_xyz
  1  'x, y, z'
loop_
 _atom_site_type_symbol
 _atom_site_label
 _atom_site_symmetry_multiplicity
 _atom_site_fract_x
 _atom_site_fract_y
 _atom_site_fract_z
 _atom_site_occupancy
  Lu  Lu0  1  0.676672  0.176672  0.000000  1
  Lu  Lu1  1  0.323328  0.823328  0.000000  1
  Lu  Lu2  1  0.176672  0.323328  0.000000  1
  Lu  Lu3  1  0.823328  0.676672  0.000000  1
  Mn  Mn4  1  0.000000  0.000000  0.000000  1
  Mn  Mn5  1  0.500000  0.500000  0.000000  1
  B  B6  1  0.122414  0.622414  0.000000  1
  B  B7  1  0.877586  0.377586  0.000000  1
  B  B8  1  0.622414  0.877586  0.000000  1
  B  B9  1  0.377586  0.122414  0.000000  1
  Ir  Ir10  1  0.218908  0.069060  0.500000  1
  Ir  Ir11  1  0.781092  0.930940  0.500000  1
  Ir  Ir12  1  0.069060  0.781092  0.500000  1
  Ir  Ir13  1  0.718908  0.430940  0.500000  1
  Ir  Ir14  1  0.930940  0.218908  0.500000  1
  Ir  Ir15  1  0.281092  0.569060  0.500000  1
  Ir  Ir16  1  0.569060  0.718908  0.500000  1
  Ir  Ir17  1  0.430940  0.281092  0.500000  1
  Ir  Ir18  1  0.500000  0.000000  0.500000  1
  Ir  Ir19  1  0.000000  0.500000  0.500000  1
