# generated using pymatgen
data_Tm3Zr(Al8Pt3)3
_symmetry_space_group_name_H-M   'P 1'
_cell_length_a   7.50907131
_cell_length_b   7.51792085
_cell_length_c   13.07280003
_cell_angle_alpha   84.55829736
_cell_angle_beta   79.02858167
_cell_angle_gamma   59.91256428
_symmetry_Int_Tables_number   1
_chemical_formula_structural   Tm3Zr(Al8Pt3)3
_chemical_formula_sum   'Tm3 Zr1 Al24 Pt9'
_cell_volume   626.88581774
_cell_formula_units_Z   1
loop_
 _symmetry_equiv_pos_site_id
 _symmetry_equiv_pos_as_xyz
  1  'x, y, z'
loop_
 _atom_site_type_symbol
 _atom_site_label
 _atom_site_symmetry_multiplicity
 _atom_site_fract_x
 _atom_site_fract_y
 _atom_site_fract_z
 _atom_site_occupancy
  Tm  Tm0  1  0.606127  0.831403  0.192712  1
  Tm  Tm1  1  0.734230  0.498802  0.806929  1
  Tm  Tm2  1  0.266144  0.501275  0.192902  1
  Zr  Zr3  1  0.393223  0.168223  0.809728  1
  Al  Al4  1  0.682175  0.835908  0.941972  1
  Al  Al5  1  0.316982  0.166385  0.055129  1
  Al  Al6  1  0.146440  0.832693  0.562361  1
  Al  Al7  1  0.853349  0.167214  0.437863  1
  Al  Al8  1  0.479623  0.166765  0.560598  1
  Al  Al9  1  0.519640  0.833759  0.441026  1
  Al  Al10  1  0.217717  0.165387  0.328414  1
  Al  Al11  1  0.779278  0.836927  0.673642  1
  Al  Al12  1  0.435740  0.504398  0.673997  1
  Al  Al13  1  0.562984  0.493506  0.327804  1
  Al  Al14  1  0.111013  0.159605  0.672839  1
  Al  Al15  1  0.890691  0.839964  0.328973  1
  Al  Al16  1  0.354473  0.496695  0.941991  1
  Al  Al17  1  0.646750  0.500894  0.055920  1
  Al  Al18  1  0.018505  0.168536  0.949750  1
  Al  Al19  1  0.984069  0.832058  0.048020  1
  Al  Al20  1  0.186822  0.499368  0.441075  1
  Al  Al21  1  0.813704  0.500355  0.558743  1
  Al  Al22  1  0.733214  0.163950  0.183286  1
  Al  Al23  1  0.267041  0.840239  0.816635  1
  Al  Al24  1  0.065363  0.626519  0.815331  1
  Al  Al25  1  0.939080  0.368694  0.184082  1
  Al  Al26  1  0.850657  0.042407  0.815837  1
  Al  Al27  1  0.145114  0.958120  0.183595  1
  Pt  Pt28  1  0.118965  0.490856  0.639611  1
  Pt  Pt29  1  0.879569  0.509370  0.360443  1
  Pt  Pt30  1  0.657245  0.172145  0.999051  1
  Pt  Pt31  1  0.344015  0.827693  0.999595  1
  Pt  Pt32  1  0.536935  0.166669  0.361107  1
  Pt  Pt33  1  0.463789  0.832015  0.639481  1
  Pt  Pt34  1  0.777992  0.176859  0.637990  1
  Pt  Pt35  1  0.221695  0.823993  0.362336  1
  Pt  Pt36  1  0.999645  0.500352  0.999227  1
