# generated using pymatgen
data_Pr4Pt3Au
_symmetry_space_group_name_H-M   'P 1'
_cell_length_a   4.70517500
_cell_length_b   5.81144198
_cell_length_c   7.43065680
_cell_angle_alpha   89.60733715
_cell_angle_beta   90.00000000
_cell_angle_gamma   90.00000000
_symmetry_Int_Tables_number   1
_chemical_formula_structural   Pr4Pt3Au
_chemical_formula_sum   'Pr4 Pt3 Au1'
_cell_volume   203.17800483
_cell_formula_units_Z   1
loop_
 _symmetry_equiv_pos_site_id
 _symmetry_equiv_pos_as_xyz
  1  'x, y, z'
loop_
 _atom_site_type_symbol
 _atom_site_label
 _atom_site_symmetry_multiplicity
 _atom_site_fract_x
 _atom_site_fract_y
 _atom_site_fract_z
 _atom_site_occupancy
  Pr  Pr0  1  0.250000  0.359451  0.675764  1
  Pr  Pr1  1  0.250000  0.136574  0.192222  1
  Pr  Pr2  1  0.750000  0.645086  0.319077  1
  Pr  Pr3  1  0.750000  0.855720  0.811538  1
  Pt  Pt4  1  0.250000  0.845794  0.543188  1
  Pt  Pt5  1  0.250000  0.651196  0.041418  1
  Pt  Pt6  1  0.750000  0.155606  0.457674  1
  Au  Au7  1  0.750000  0.350574  0.959119  1
