# generated using pymatgen
data_YbCeCu2SiGe
_symmetry_space_group_name_H-M   'P 1'
_cell_length_a   4.23628200
_cell_length_b   4.23628215
_cell_length_c   7.57524800
_cell_angle_alpha   90.00000000
_cell_angle_beta   90.00000000
_cell_angle_gamma   119.99999885
_symmetry_Int_Tables_number   1
_chemical_formula_structural   YbCeCu2SiGe
_chemical_formula_sum   'Yb1 Ce1 Cu2 Si1 Ge1'
_cell_volume   117.73273476
_cell_formula_units_Z   1
loop_
 _symmetry_equiv_pos_site_id
 _symmetry_equiv_pos_as_xyz
  1  'x, y, z'
loop_
 _atom_site_type_symbol
 _atom_site_label
 _atom_site_symmetry_multiplicity
 _atom_site_fract_x
 _atom_site_fract_y
 _atom_site_fract_z
 _atom_site_occupancy
  Yb  Yb0  1  0.000000  0.000000  0.499843  1
  Ce  Ce1  1  0.000000  0.000000  0.997623  1
  Cu  Cu2  1  0.333333  0.666667  0.259241  1
  Cu  Cu3  1  0.666667  0.333333  0.741637  1
  Si  Si4  1  0.333333  0.666667  0.765035  1
  Ge  Ge5  1  0.666667  0.333333  0.236622  1
