# generated using pymatgen
data_CoSi2Ni3(AsRh2)2
_symmetry_space_group_name_H-M   'P 1'
_cell_length_a   3.69568400
_cell_length_b   5.86198044
_cell_length_c   7.10343012
_cell_angle_alpha   88.60408168
_cell_angle_beta   90.00000000
_cell_angle_gamma   90.00000000
_symmetry_Int_Tables_number   1
_chemical_formula_structural   CoSi2Ni3(AsRh2)2
_chemical_formula_sum   'Co1 Si2 Ni3 As2 Rh4'
_cell_volume   153.84323424
_cell_formula_units_Z   1
loop_
 _symmetry_equiv_pos_site_id
 _symmetry_equiv_pos_as_xyz
  1  'x, y, z'
loop_
 _atom_site_type_symbol
 _atom_site_label
 _atom_site_symmetry_multiplicity
 _atom_site_fract_x
 _atom_site_fract_y
 _atom_site_fract_z
 _atom_site_occupancy
  Co  Co0  1  0.000000  0.641812  0.058384  1
  Si  Si1  1  0.000000  0.753508  0.370455  1
  Si  Si2  1  0.500000  0.244950  0.624510  1
  Ni  Ni3  1  0.000000  0.137486  0.441262  1
  Ni  Ni4  1  0.500000  0.356643  0.936777  1
  Ni  Ni5  1  0.500000  0.858805  0.560986  1
  As  As6  1  0.000000  0.257740  0.129892  1
  As  As7  1  0.500000  0.746166  0.875508  1
  Rh  Rh8  1  0.000000  0.522573  0.663655  1
  Rh  Rh9  1  0.000000  0.050582  0.822173  1
  Rh  Rh10  1  0.500000  0.476062  0.335335  1
  Rh  Rh11  1  0.500000  0.953674  0.181064  1
