# generated using pymatgen
data_ErTm(AlPd2)2
_symmetry_space_group_name_H-M   'P 1'
_cell_length_a   4.37411000
_cell_length_b   4.37410967
_cell_length_c   9.03071700
_cell_angle_alpha   90.00000000
_cell_angle_beta   90.00000000
_cell_angle_gamma   120.00000248
_symmetry_Int_Tables_number   1
_chemical_formula_structural   ErTm(AlPd2)2
_chemical_formula_sum   'Er1 Tm1 Al2 Pd4'
_cell_volume   149.63466717
_cell_formula_units_Z   1
loop_
 _symmetry_equiv_pos_site_id
 _symmetry_equiv_pos_as_xyz
  1  'x, y, z'
loop_
 _atom_site_type_symbol
 _atom_site_label
 _atom_site_symmetry_multiplicity
 _atom_site_fract_x
 _atom_site_fract_y
 _atom_site_fract_z
 _atom_site_occupancy
  Er  Er0  1  0.666666  0.333333  0.250000  1
  Tm  Tm1  1  0.333333  0.666667  0.750000  1
  Al  Al2  1  0.000000  0.000000  0.999550  1
  Al  Al3  1  0.000000  0.000000  0.500450  1
  Pd  Pd4  1  0.333333  0.666667  0.080569  1
  Pd  Pd5  1  0.333333  0.666667  0.419432  1
  Pd  Pd6  1  0.666666  0.333333  0.581112  1
  Pd  Pd7  1  0.666666  0.333333  0.918888  1
