# generated using pymatgen
data_Mn27Cr5O48
_symmetry_space_group_name_H-M   'P 1'
_cell_length_a   9.58026900
_cell_length_b   9.60874200
_cell_length_c   9.65843400
_cell_angle_alpha   90.00000000
_cell_angle_beta   90.00000000
_cell_angle_gamma   90.00000000
_symmetry_Int_Tables_number   1
_chemical_formula_structural   Mn27Cr5O48
_chemical_formula_sum   'Mn27 Cr5 O48'
_cell_volume   889.10070077
_cell_formula_units_Z   1
loop_
 _symmetry_equiv_pos_site_id
 _symmetry_equiv_pos_as_xyz
  1  'x, y, z'
loop_
 _atom_site_type_symbol
 _atom_site_label
 _atom_site_symmetry_multiplicity
 _atom_site_fract_x
 _atom_site_fract_y
 _atom_site_fract_z
 _atom_site_occupancy
  Mn  Mn0  1  0.000000  0.500000  0.000000  1
  Mn  Mn1  1  0.500000  0.000000  0.000000  1
  Mn  Mn2  1  0.500000  0.500000  0.500000  1
  Mn  Mn3  1  0.507191  0.755292  0.283482  1
  Mn  Mn4  1  0.493673  0.255139  0.216582  1
  Mn  Mn5  1  0.993710  0.244704  0.783773  1
  Mn  Mn6  1  0.002188  0.747200  0.715855  1
  Mn  Mn7  1  0.492809  0.244708  0.716518  1
  Mn  Mn8  1  0.506327  0.744861  0.783418  1
  Mn  Mn9  1  0.006290  0.755296  0.216227  1
  Mn  Mn10  1  0.997812  0.252800  0.284145  1
  Mn  Mn11  1  0.255312  0.787765  0.001079  1
  Mn  Mn12  1  0.746670  0.284888  0.499615  1
  Mn  Mn13  1  0.244851  0.212510  0.500978  1
  Mn  Mn14  1  0.755300  0.711873  0.998616  1
  Mn  Mn15  1  0.744688  0.212235  0.998921  1
  Mn  Mn16  1  0.253330  0.715112  0.500385  1
  Mn  Mn17  1  0.755149  0.787490  0.499022  1
  Mn  Mn18  1  0.244700  0.288127  0.001384  1
  Mn  Mn19  1  0.215531  0.507733  0.248448  1
  Mn  Mn20  1  0.784627  0.004295  0.250335  1
  Mn  Mn21  1  0.284187  0.494134  0.748465  1
  Mn  Mn22  1  0.715202  0.993515  0.751084  1
  Mn  Mn23  1  0.784469  0.492267  0.751552  1
  Mn  Mn24  1  0.215373  0.995705  0.749665  1
  Mn  Mn25  1  0.715813  0.505866  0.251535  1
  Mn  Mn26  1  0.284798  0.006485  0.248916  1
  Cr  Cr27  1  0.500000  0.500000  0.000000  1
  Cr  Cr28  1  0.500000  0.000000  0.500000  1
  Cr  Cr29  1  0.000000  0.500000  0.500000  1
  Cr  Cr30  1  0.000000  0.000000  0.000000  1
  Cr  Cr31  1  0.000000  0.000000  0.500000  1
  O  O32  1  0.147621  0.920326  0.127313  1
  O  O33  1  0.852409  0.416859  0.372920  1
  O  O34  1  0.353047  0.079645  0.627335  1
  O  O35  1  0.647704  0.579117  0.872260  1
  O  O36  1  0.852379  0.079674  0.872687  1
  O  O37  1  0.147591  0.583141  0.627080  1
  O  O38  1  0.646953  0.920355  0.372665  1
  O  O39  1  0.352296  0.420883  0.127740  1
  O  O40  1  0.087508  0.630104  0.357427  1
  O  O41  1  0.912214  0.130275  0.143715  1
  O  O42  1  0.411886  0.370119  0.857478  1
  O  O43  1  0.586709  0.870082  0.642448  1
  O  O44  1  0.912492  0.369896  0.642573  1
  O  O45  1  0.087786  0.869725  0.856285  1
  O  O46  1  0.588114  0.629881  0.142522  1
  O  O47  1  0.413291  0.129918  0.357552  1
  O  O48  1  0.373818  0.855261  0.413902  1
  O  O49  1  0.625033  0.354741  0.086186  1
  O  O50  1  0.125263  0.145163  0.914704  1
  O  O51  1  0.874335  0.644634  0.586533  1
  O  O52  1  0.626182  0.144739  0.586098  1
  O  O53  1  0.374967  0.645259  0.913814  1
  O  O54  1  0.874737  0.854837  0.085296  1
  O  O55  1  0.125665  0.355366  0.413467  1
  O  O56  1  0.358949  0.585170  0.374158  1
  O  O57  1  0.640968  0.084334  0.127063  1
  O  O58  1  0.140572  0.415657  0.872626  1
  O  O59  1  0.858066  0.913879  0.628825  1
  O  O60  1  0.641051  0.414830  0.625842  1
  O  O61  1  0.359032  0.915666  0.872937  1
  O  O62  1  0.859428  0.584343  0.127374  1
  O  O63  1  0.141934  0.086121  0.371175  1
  O  O64  1  0.419042  0.877045  0.145186  1
  O  O65  1  0.581473  0.375969  0.355514  1
  O  O66  1  0.083081  0.125332  0.646021  1
  O  O67  1  0.919073  0.623172  0.855270  1
  O  O68  1  0.580958  0.122955  0.854814  1
  O  O69  1  0.418527  0.624031  0.644486  1
  O  O70  1  0.916919  0.874668  0.353979  1
  O  O71  1  0.080927  0.376828  0.144730  1
  O  O72  1  0.138648  0.652815  0.092109  1
  O  O73  1  0.870293  0.145942  0.414884  1
  O  O74  1  0.361423  0.347457  0.592205  1
  O  O75  1  0.637970  0.846706  0.908315  1
  O  O76  1  0.861352  0.347185  0.907891  1
  O  O77  1  0.129707  0.854058  0.585116  1
  O  O78  1  0.638577  0.652543  0.407795  1
  O  O79  1  0.362030  0.153294  0.091685  1
