# generated using pymatgen
data_LuSc2GaRu2
_symmetry_space_group_name_H-M   'P 1'
_cell_length_a   3.30989400
_cell_length_b   3.30989400
_cell_length_c   9.95869200
_cell_angle_alpha   90.00000000
_cell_angle_beta   90.00000000
_cell_angle_gamma   90.00000000
_symmetry_Int_Tables_number   1
_chemical_formula_structural   LuSc2GaRu2
_chemical_formula_sum   'Lu1 Sc2 Ga1 Ru2'
_cell_volume   109.10143732
_cell_formula_units_Z   1
loop_
 _symmetry_equiv_pos_site_id
 _symmetry_equiv_pos_as_xyz
  1  'x, y, z'
loop_
 _atom_site_type_symbol
 _atom_site_label
 _atom_site_symmetry_multiplicity
 _atom_site_fract_x
 _atom_site_fract_y
 _atom_site_fract_z
 _atom_site_occupancy
  Lu  Lu0  1  0.000000  0.000000  0.000000  1
  Sc  Sc1  1  0.000000  0.000000  0.681618  1
  Sc  Sc2  1  0.000000  0.000000  0.318382  1
  Ga  Ga3  1  0.500000  0.500000  0.500000  1
  Ru  Ru4  1  0.500000  0.500000  0.825721  1
  Ru  Ru5  1  0.500000  0.500000  0.174279  1
