# generated using pymatgen
data_ErIO5
_symmetry_space_group_name_H-M   'P 1'
_cell_length_a   5.67469300
_cell_length_b   5.72318904
_cell_length_c   15.31458543
_cell_angle_alpha   65.86925433
_cell_angle_beta   90.00000000
_cell_angle_gamma   90.00000000
_symmetry_Int_Tables_number   1
_chemical_formula_structural   ErIO5
_chemical_formula_sum   'Er4 I4 O20'
_cell_volume   453.91368546
_cell_formula_units_Z   4
loop_
 _symmetry_equiv_pos_site_id
 _symmetry_equiv_pos_as_xyz
  1  'x, y, z'
loop_
 _atom_site_type_symbol
 _atom_site_label
 _atom_site_symmetry_multiplicity
 _atom_site_fract_x
 _atom_site_fract_y
 _atom_site_fract_z
 _atom_site_occupancy
  Er  Er0  1  0.592379  0.767649  0.269172  1
  Er  Er1  1  0.907621  0.767649  0.769172  1
  Er  Er2  1  0.407621  0.232351  0.730828  1
  Er  Er3  1  0.092379  0.232351  0.230828  1
  I  I4  1  0.541237  0.145017  0.391454  1
  I  I5  1  0.958763  0.145017  0.891454  1
  I  I6  1  0.458763  0.854983  0.608546  1
  I  I7  1  0.041237  0.854983  0.108546  1
  O  O8  1  0.679964  0.868295  0.505245  1
  O  O9  1  0.820036  0.868295  0.005245  1
  O  O10  1  0.320036  0.131705  0.494755  1
  O  O11  1  0.179964  0.131705  0.994755  1
  O  O12  1  0.343605  0.930540  0.355853  1
  O  O13  1  0.156395  0.930540  0.855853  1
  O  O14  1  0.656395  0.069460  0.644147  1
  O  O15  1  0.843605  0.069460  0.144147  1
  O  O16  1  0.363780  0.410509  0.296695  1
  O  O17  1  0.136220  0.410509  0.796695  1
  O  O18  1  0.636220  0.589491  0.703305  1
  O  O19  1  0.863780  0.589491  0.203305  1
  O  O20  1  0.720398  0.405733  0.397379  1
  O  O21  1  0.779602  0.405733  0.897379  1
  O  O22  1  0.279602  0.594267  0.602621  1
  O  O23  1  0.220398  0.594267  0.102621  1
  O  O24  1  0.771880  0.056311  0.318957  1
  O  O25  1  0.728120  0.056311  0.818957  1
  O  O26  1  0.228120  0.943689  0.681043  1
  O  O27  1  0.271880  0.943689  0.181043  1
