# generated using pymatgen
data_KPu6F25
_symmetry_space_group_name_H-M   'P 1'
_cell_length_a   9.47217889
_cell_length_b   9.47217987
_cell_length_c   9.47217959
_cell_angle_alpha   50.76585748
_cell_angle_beta   50.76585007
_cell_angle_gamma   50.76585712
_symmetry_Int_Tables_number   1
_chemical_formula_structural   KPu6F25
_chemical_formula_sum   'K1 Pu6 F25'
_cell_volume   470.05653395
_cell_formula_units_Z   1
loop_
 _symmetry_equiv_pos_site_id
 _symmetry_equiv_pos_as_xyz
  1  'x, y, z'
loop_
 _atom_site_type_symbol
 _atom_site_label
 _atom_site_symmetry_multiplicity
 _atom_site_fract_x
 _atom_site_fract_y
 _atom_site_fract_z
 _atom_site_occupancy
  K  K0  1  0.000000  0.000000  0.000000  1
  Pu  Pu1  1  0.907631  0.408390  0.408390  1
  Pu  Pu2  1  0.408390  0.907631  0.408390  1
  Pu  Pu3  1  0.591610  0.092369  0.591610  1
  Pu  Pu4  1  0.591610  0.591610  0.092369  1
  Pu  Pu5  1  0.092369  0.591610  0.591610  1
  Pu  Pu6  1  0.408390  0.408390  0.907631  1
  F  F7  1  0.251944  0.251944  0.694219  1
  F  F8  1  0.694219  0.251944  0.251944  1
  F  F9  1  0.251944  0.694219  0.251944  1
  F  F10  1  0.748056  0.305781  0.748056  1
  F  F11  1  0.748056  0.748056  0.305781  1
  F  F12  1  0.305781  0.748056  0.748056  1
  F  F13  1  0.549824  0.549824  0.549824  1
  F  F14  1  0.500000  0.500000  0.000000  1
  F  F15  1  0.500000  0.000000  0.500000  1
  F  F16  1  0.000000  0.500000  0.500000  1
  F  F17  1  0.553845  0.122692  0.122692  1
  F  F18  1  0.122692  0.122692  0.553845  1
  F  F19  1  0.122692  0.553845  0.122692  1
  F  F20  1  0.877308  0.446155  0.877308  1
  F  F21  1  0.446155  0.877308  0.877308  1
  F  F22  1  0.877308  0.877308  0.446155  1
  F  F23  1  0.177527  0.822473  0.500000  1
  F  F24  1  0.822473  0.500000  0.177527  1
  F  F25  1  0.500000  0.177527  0.822473  1
  F  F26  1  0.822473  0.177527  0.500000  1
  F  F27  1  0.177527  0.500000  0.822473  1
  F  F28  1  0.500000  0.822473  0.177527  1
  F  F29  1  0.207765  0.207765  0.207765  1
  F  F30  1  0.792235  0.792235  0.792235  1
  F  F31  1  0.450176  0.450176  0.450176  1
