# generated using pymatgen
data_Y20Ir8RuPt3
_symmetry_space_group_name_H-M   'P 1'
_cell_length_a   11.00098647
_cell_length_b   11.00306236
_cell_length_c   6.39350222
_cell_angle_alpha   89.98274749
_cell_angle_beta   89.97589896
_cell_angle_gamma   90.15631404
_symmetry_Int_Tables_number   1
_chemical_formula_structural   Y20Ir8RuPt3
_chemical_formula_sum   'Y20 Ir8 Ru1 Pt3'
_cell_volume   773.89555235
_cell_formula_units_Z   1
loop_
 _symmetry_equiv_pos_site_id
 _symmetry_equiv_pos_as_xyz
  1  'x, y, z'
loop_
 _atom_site_type_symbol
 _atom_site_label
 _atom_site_symmetry_multiplicity
 _atom_site_fract_x
 _atom_site_fract_y
 _atom_site_fract_z
 _atom_site_occupancy
  Y  Y0  1  0.294322  0.086377  0.373134  1
  Y  Y1  1  0.294162  0.909680  0.880012  1
  Y  Y2  1  0.704152  0.089018  0.877417  1
  Y  Y3  1  0.704107  0.910886  0.373806  1
  Y  Y4  1  0.584986  0.792558  0.881241  1
  Y  Y5  1  0.584986  0.207752  0.378542  1
  Y  Y6  1  0.411852  0.792401  0.378584  1
  Y  Y7  1  0.414642  0.207503  0.880740  1
  Y  Y8  1  0.209106  0.414118  0.620155  1
  Y  Y9  1  0.208633  0.589149  0.120285  1
  Y  Y10  1  0.791077  0.414133  0.120045  1
  Y  Y11  1  0.790815  0.586263  0.620639  1
  Y  Y12  1  0.912658  0.706747  0.125725  1
  Y  Y13  1  0.909763  0.294026  0.624465  1
  Y  Y14  1  0.091604  0.707644  0.621555  1
  Y  Y15  1  0.090132  0.294741  0.124709  1
  Y  Y16  1  0.001423  0.998293  0.498301  1
  Y  Y17  1  0.001654  0.998592  0.000090  1
  Y  Y18  1  0.499826  0.499935  0.999489  1
  Y  Y19  1  0.500075  0.500092  0.498421  1
  Ir  Ir20  1  0.151991  0.847231  0.249586  1
  Ir  Ir21  1  0.654379  0.345892  0.749623  1
  Ir  Ir22  1  0.655003  0.653890  0.249369  1
  Ir  Ir23  1  0.345333  0.345817  0.249931  1
  Ir  Ir24  1  0.346496  0.653220  0.749519  1
  Ir  Ir25  1  0.500420  0.000345  0.626519  1
  Ir  Ir26  1  0.999644  0.499536  0.874704  1
  Ir  Ir27  1  0.999854  0.499535  0.375684  1
  Ru  Ru28  1  0.500420  0.000108  0.128772  1
  Pt  Pt29  1  0.847208  0.153710  0.249679  1
  Pt  Pt30  1  0.845980  0.846650  0.749532  1
  Pt  Pt31  1  0.153298  0.154159  0.749725  1
