# generated using pymatgen
data_HoEr3(Ga2Ag)4
_symmetry_space_group_name_H-M   'P 1'
_cell_length_a   4.36591800
_cell_length_b   6.92223081
_cell_length_c   10.22479772
_cell_angle_alpha   90.03852884
_cell_angle_beta   90.00000000
_cell_angle_gamma   90.00000000
_symmetry_Int_Tables_number   1
_chemical_formula_structural   HoEr3(Ga2Ag)4
_chemical_formula_sum   'Ho1 Er3 Ga8 Ag4'
_cell_volume   309.01266350
_cell_formula_units_Z   1
loop_
 _symmetry_equiv_pos_site_id
 _symmetry_equiv_pos_as_xyz
  1  'x, y, z'
loop_
 _atom_site_type_symbol
 _atom_site_label
 _atom_site_symmetry_multiplicity
 _atom_site_fract_x
 _atom_site_fract_y
 _atom_site_fract_z
 _atom_site_occupancy
  Ho  Ho0  1  0.250000  0.279227  0.675321  1
  Er  Er1  1  0.250000  0.779013  0.825256  1
  Er  Er2  1  0.750000  0.220829  0.175044  1
  Er  Er3  1  0.750000  0.720905  0.324885  1
  Ga  Ga4  1  0.250000  0.929166  0.154823  1
  Ga  Ga5  1  0.750000  0.070212  0.845377  1
  Ga  Ga6  1  0.750000  0.571368  0.654772  1
  Ga  Ga7  1  0.250000  0.429662  0.345180  1
  Ga  Ga8  1  0.250000  0.702041  0.536087  1
  Ga  Ga9  1  0.750000  0.298804  0.463591  1
  Ga  Ga10  1  0.750000  0.798942  0.036262  1
  Ga  Ga11  1  0.250000  0.200602  0.964360  1
  Ag  Ag12  1  0.250000  0.544257  0.096325  1
  Ag  Ag13  1  0.750000  0.455860  0.903923  1
  Ag  Ag14  1  0.750000  0.955174  0.595853  1
  Ag  Ag15  1  0.250000  0.043941  0.402940  1
