# generated using pymatgen
data_Zr6SiSnBi
_symmetry_space_group_name_H-M   'P 1'
_cell_length_a   7.67436300
_cell_length_b   7.67436248
_cell_length_c   3.95339600
_cell_angle_alpha   90.00000000
_cell_angle_beta   90.00000000
_cell_angle_gamma   119.99999795
_symmetry_Int_Tables_number   1
_chemical_formula_structural   Zr6SiSnBi
_chemical_formula_sum   'Zr6 Si1 Sn1 Bi1'
_cell_volume   201.64413971
_cell_formula_units_Z   1
loop_
 _symmetry_equiv_pos_site_id
 _symmetry_equiv_pos_as_xyz
  1  'x, y, z'
loop_
 _atom_site_type_symbol
 _atom_site_label
 _atom_site_symmetry_multiplicity
 _atom_site_fract_x
 _atom_site_fract_y
 _atom_site_fract_z
 _atom_site_occupancy
  Zr  Zr0  1  0.241625  0.004205  0.500000  1
  Zr  Zr1  1  0.995795  0.237419  0.500000  1
  Zr  Zr2  1  0.762581  0.758375  0.500000  1
  Zr  Zr3  1  0.614353  0.004854  0.000000  1
  Zr  Zr4  1  0.995146  0.609499  0.000000  1
  Zr  Zr5  1  0.390501  0.385647  0.000000  1
  Si  Si6  1  0.000000  0.000000  0.000000  1
  Sn  Sn7  1  0.666667  0.333333  0.500000  1
  Bi  Bi8  1  0.333333  0.666667  0.500000  1
