# generated using pymatgen
data_Pr2SiGeRu2C
_symmetry_space_group_name_H-M   'P 1'
_cell_length_a   6.00067005
_cell_length_b   6.00066958
_cell_length_c   7.13976469
_cell_angle_alpha   125.31273537
_cell_angle_beta   125.31273428
_cell_angle_gamma   40.70003261
_symmetry_Int_Tables_number   1
_chemical_formula_structural   Pr2SiGeRu2C
_chemical_formula_sum   'Pr2 Si1 Ge1 Ru2 C1'
_cell_volume   131.99555369
_cell_formula_units_Z   1
loop_
 _symmetry_equiv_pos_site_id
 _symmetry_equiv_pos_as_xyz
  1  'x, y, z'
loop_
 _atom_site_type_symbol
 _atom_site_label
 _atom_site_symmetry_multiplicity
 _atom_site_fract_x
 _atom_site_fract_y
 _atom_site_fract_z
 _atom_site_occupancy
  Pr  Pr0  1  0.561452  0.561452  0.300806  1
  Pr  Pr1  1  0.438286  0.438286  0.699827  1
  Si  Si2  1  0.170776  0.170776  0.726361  1
  Ge  Ge3  1  0.836943  0.836943  0.287718  1
  Ru  Ru4  1  0.195914  0.195914  0.086744  1
  Ru  Ru5  1  0.798008  0.798008  0.900153  1
  C  C6  1  0.998622  0.998622  0.998389  1
