# generated using pymatgen
data_Er5Tm5Cd3Ni
_symmetry_space_group_name_H-M   'P 1'
_cell_length_a   9.49480203
_cell_length_b   9.49479578
_cell_length_c   9.66166000
_cell_angle_alpha   90.00207456
_cell_angle_beta   89.99802589
_cell_angle_gamma   120.00831941
_symmetry_Int_Tables_number   1
_chemical_formula_structural   Er5Tm5Cd3Ni
_chemical_formula_sum   'Er10 Tm10 Cd6 Ni2'
_cell_volume   754.25380517
_cell_formula_units_Z   2
loop_
 _symmetry_equiv_pos_site_id
 _symmetry_equiv_pos_as_xyz
  1  'x, y, z'
loop_
 _atom_site_type_symbol
 _atom_site_label
 _atom_site_symmetry_multiplicity
 _atom_site_fract_x
 _atom_site_fract_y
 _atom_site_fract_z
 _atom_site_occupancy
  Er  Er0  1  0.543182  0.456827  0.249917  1
  Er  Er1  1  0.543088  0.086309  0.249786  1
  Er  Er2  1  0.913688  0.456910  0.249784  1
  Er  Er3  1  0.456940  0.543072  0.750199  1
  Er  Er4  1  0.456853  0.913767  0.750255  1
  Er  Er5  1  0.086228  0.543147  0.750256  1
  Er  Er6  1  0.210707  0.789288  0.438397  1
  Er  Er7  1  0.210770  0.421421  0.438397  1
  Er  Er8  1  0.578588  0.789234  0.438403  1
  Er  Er9  1  0.789120  0.210877  0.561682  1
  Tm  Tm10  1  0.000070  0.999931  0.500022  1
  Tm  Tm11  1  0.999992  0.000006  0.000071  1
  Tm  Tm12  1  0.789095  0.578321  0.561652  1
  Tm  Tm13  1  0.421679  0.210905  0.561653  1
  Tm  Tm14  1  0.789150  0.210852  0.938498  1
  Tm  Tm15  1  0.789137  0.578222  0.938339  1
  Tm  Tm16  1  0.421782  0.210863  0.938340  1
  Tm  Tm17  1  0.210883  0.789120  0.061510  1
  Tm  Tm18  1  0.210890  0.421798  0.061517  1
  Tm  Tm19  1  0.578199  0.789108  0.061519  1
  Cd  Cd20  1  0.885224  0.114775  0.249858  1
  Cd  Cd21  1  0.885194  0.770393  0.249948  1
  Cd  Cd22  1  0.229607  0.114804  0.249947  1
  Cd  Cd23  1  0.114765  0.885224  0.750090  1
  Cd  Cd24  1  0.114816  0.229575  0.750098  1
  Cd  Cd25  1  0.770412  0.885181  0.750104  1
  Ni  Ni26  1  0.333331  0.666669  0.249586  1
  Ni  Ni27  1  0.666610  0.333401  0.750173  1
