# generated using pymatgen
data_Dy16MgHg3Ir3Pt
_symmetry_space_group_name_H-M   'P 1'
_cell_length_a   9.62957003
_cell_length_b   9.62487708
_cell_length_c   9.62487962
_cell_angle_alpha   60.11341789
_cell_angle_beta   60.12177416
_cell_angle_gamma   60.12177382
_symmetry_Int_Tables_number   1
_chemical_formula_structural   Dy16MgHg3Ir3Pt
_chemical_formula_sum   'Dy16 Mg1 Hg3 Ir3 Pt1'
_cell_volume   632.48693611
_cell_formula_units_Z   1
loop_
 _symmetry_equiv_pos_site_id
 _symmetry_equiv_pos_as_xyz
  1  'x, y, z'
loop_
 _atom_site_type_symbol
 _atom_site_label
 _atom_site_symmetry_multiplicity
 _atom_site_fract_x
 _atom_site_fract_y
 _atom_site_fract_z
 _atom_site_occupancy
  Dy  Dy0  1  0.348377  0.347190  0.347190  1
  Dy  Dy1  1  0.353622  0.351665  0.949590  1
  Dy  Dy2  1  0.353622  0.949590  0.351665  1
  Dy  Dy3  1  0.939822  0.355515  0.355515  1
  Dy  Dy4  1  0.803857  0.192418  0.192418  1
  Dy  Dy5  1  0.185162  0.811676  0.811676  1
  Dy  Dy6  1  0.188633  0.807355  0.190034  1
  Dy  Dy7  1  0.808006  0.189353  0.808918  1
  Dy  Dy8  1  0.188633  0.190034  0.807355  1
  Dy  Dy9  1  0.808006  0.808918  0.189353  1
  Dy  Dy10  1  0.937794  0.562656  0.562656  1
  Dy  Dy11  1  0.562307  0.937795  0.937795  1
  Dy  Dy12  1  0.561580  0.939066  0.563119  1
  Dy  Dy13  1  0.936519  0.563135  0.938606  1
  Dy  Dy14  1  0.561580  0.563119  0.939066  1
  Dy  Dy15  1  0.936519  0.938606  0.563135  1
  Mg  Mg16  1  0.283989  0.571401  0.571401  1
  Hg  Hg17  1  0.582347  0.586984  0.586984  1
  Hg  Hg18  1  0.582530  0.587617  0.242227  1
  Hg  Hg19  1  0.582530  0.242227  0.587617  1
  Ir  Ir20  1  0.139625  0.143391  0.574063  1
  Ir  Ir21  1  0.139625  0.574063  0.143391  1
  Ir  Ir22  1  0.574630  0.141942  0.141942  1
  Pt  Pt23  1  0.140680  0.144284  0.144284  1
