# generated using pymatgen
data_Er2BeSi13Ir6
_symmetry_space_group_name_H-M   'P 1'
_cell_length_a   7.96557573
_cell_length_b   7.96557675
_cell_length_c   7.96557643
_cell_angle_alpha   57.32661724
_cell_angle_beta   57.32661568
_cell_angle_gamma   57.32661466
_symmetry_Int_Tables_number   1
_chemical_formula_structural   Er2BeSi13Ir6
_chemical_formula_sum   'Er2 Be1 Si13 Ir6'
_cell_volume   335.39134778
_cell_formula_units_Z   1
loop_
 _symmetry_equiv_pos_site_id
 _symmetry_equiv_pos_as_xyz
  1  'x, y, z'
loop_
 _atom_site_type_symbol
 _atom_site_label
 _atom_site_symmetry_multiplicity
 _atom_site_fract_x
 _atom_site_fract_y
 _atom_site_fract_z
 _atom_site_occupancy
  Er  Er0  1  0.998399  0.998399  0.998399  1
  Er  Er1  1  0.501601  0.501601  0.501601  1
  Be  Be2  1  0.750000  0.750000  0.750000  1
  Si  Si3  1  0.250000  0.250000  0.250000  1
  Si  Si4  1  0.846412  0.055957  0.674493  1
  Si  Si5  1  0.674493  0.846412  0.055957  1
  Si  Si6  1  0.055957  0.674493  0.846412  1
  Si  Si7  1  0.653588  0.825507  0.444043  1
  Si  Si8  1  0.444043  0.653588  0.825507  1
  Si  Si9  1  0.825507  0.444043  0.653588  1
  Si  Si10  1  0.169540  0.563113  0.356304  1
  Si  Si11  1  0.563113  0.356304  0.169540  1
  Si  Si12  1  0.356304  0.169540  0.563113  1
  Si  Si13  1  0.936887  0.330460  0.143696  1
  Si  Si14  1  0.330460  0.143696  0.936887  1
  Si  Si15  1  0.143696  0.936887  0.330460  1
  Ir  Ir16  1  0.079855  0.420145  0.750000  1
  Ir  Ir17  1  0.250000  0.925849  0.574151  1
  Ir  Ir18  1  0.574151  0.250000  0.925849  1
  Ir  Ir19  1  0.925849  0.574151  0.250000  1
  Ir  Ir20  1  0.420145  0.750000  0.079855  1
  Ir  Ir21  1  0.750000  0.079855  0.420145  1
