# generated using pymatgen
data_Ce4TmFe18CoP12
_symmetry_space_group_name_H-M   'P 1'
_cell_length_a   11.99329200
_cell_length_b   11.99329239
_cell_length_c   3.72555300
_cell_angle_alpha   90.00000000
_cell_angle_beta   90.00000000
_cell_angle_gamma   119.99999892
_symmetry_Int_Tables_number   1
_chemical_formula_structural   Ce4TmFe18CoP12
_chemical_formula_sum   'Ce4 Tm1 Fe18 Co1 P12'
_cell_volume   464.08572697
_cell_formula_units_Z   1
loop_
 _symmetry_equiv_pos_site_id
 _symmetry_equiv_pos_as_xyz
  1  'x, y, z'
loop_
 _atom_site_type_symbol
 _atom_site_label
 _atom_site_symmetry_multiplicity
 _atom_site_fract_x
 _atom_site_fract_y
 _atom_site_fract_z
 _atom_site_occupancy
  Ce  Ce0  1  0.666667  0.333333  0.000000  1
  Ce  Ce1  1  0.187667  0.186451  0.500000  1
  Ce  Ce2  1  0.813549  0.001216  0.500000  1
  Ce  Ce3  1  0.998784  0.812333  0.500000  1
  Tm  Tm4  1  0.333333  0.666667  0.000000  1
  Fe  Fe5  1  0.819861  0.197198  0.000000  1
  Fe  Fe6  1  0.802802  0.622661  0.000000  1
  Fe  Fe7  1  0.377339  0.180139  0.000000  1
  Fe  Fe8  1  0.196545  0.816305  0.000000  1
  Fe  Fe9  1  0.619759  0.803455  0.000000  1
  Fe  Fe10  1  0.183695  0.380241  0.000000  1
  Fe  Fe11  1  0.559400  0.559531  0.000000  1
  Fe  Fe12  1  0.440469  0.999869  0.000000  1
  Fe  Fe13  1  0.000131  0.440600  0.000000  1
  Fe  Fe14  1  0.637655  0.122687  0.500000  1
  Fe  Fe15  1  0.877313  0.514967  0.500000  1
  Fe  Fe16  1  0.485033  0.362345  0.500000  1
  Fe  Fe17  1  0.121549  0.636087  0.500000  1
  Fe  Fe18  1  0.514538  0.878451  0.500000  1
  Fe  Fe19  1  0.363913  0.485462  0.500000  1
  Fe  Fe20  1  0.712365  0.715007  0.500000  1
  Fe  Fe21  1  0.284993  0.997358  0.500000  1
  Fe  Fe22  1  0.002642  0.287635  0.500000  1
  Co  Co23  1  0.000000  0.000000  0.000000  1
  P  P24  1  0.375073  0.374412  0.000000  1
  P  P25  1  0.625588  0.000661  0.000000  1
  P  P26  1  0.999339  0.624927  0.000000  1
  P  P27  1  0.835034  0.310360  0.500000  1
  P  P28  1  0.689640  0.524674  0.500000  1
  P  P29  1  0.475326  0.164966  0.500000  1
  P  P30  1  0.309230  0.829243  0.500000  1
  P  P31  1  0.520012  0.690770  0.500000  1
  P  P32  1  0.170757  0.479988  0.500000  1
  P  P33  1  0.810893  0.812926  0.000000  1
  P  P34  1  0.187074  0.997967  0.000000  1
  P  P35  1  0.002033  0.189107  0.000000  1
