# generated using pymatgen
data_Tb2GdWO7
_symmetry_space_group_name_H-M   'P 1'
_cell_length_a   6.49539000
_cell_length_b   6.49538993
_cell_length_c   7.51900300
_cell_angle_alpha   90.00000000
_cell_angle_beta   90.00000000
_cell_angle_gamma   108.98031537
_symmetry_Int_Tables_number   1
_chemical_formula_structural   Tb2GdWO7
_chemical_formula_sum   'Tb4 Gd2 W2 O14'
_cell_volume   299.97988270
_cell_formula_units_Z   2
loop_
 _symmetry_equiv_pos_site_id
 _symmetry_equiv_pos_as_xyz
  1  'x, y, z'
loop_
 _atom_site_type_symbol
 _atom_site_label
 _atom_site_symmetry_multiplicity
 _atom_site_fract_x
 _atom_site_fract_y
 _atom_site_fract_z
 _atom_site_occupancy
  Tb  Tb0  1  0.999072  0.466331  0.497610  1
  Tb  Tb1  1  0.533669  0.000928  0.502390  1
  Tb  Tb2  1  0.000928  0.533669  0.997610  1
  Tb  Tb3  1  0.466331  0.999072  0.002390  1
  Gd  Gd4  1  0.512261  0.512261  0.250000  1
  Gd  Gd5  1  0.487739  0.487739  0.750000  1
  W  W6  1  0.000162  0.000162  0.250000  1
  W  W7  1  0.999838  0.999838  0.750000  1
  O  O8  1  0.068116  0.318178  0.217600  1
  O  O9  1  0.681822  0.931884  0.782400  1
  O  O10  1  0.931884  0.681822  0.717600  1
  O  O11  1  0.318178  0.068116  0.282400  1
  O  O12  1  0.676638  0.922166  0.221794  1
  O  O13  1  0.077834  0.323362  0.778206  1
  O  O14  1  0.323362  0.077834  0.721794  1
  O  O15  1  0.922166  0.676638  0.278206  1
  O  O16  1  0.367287  0.632713  0.500000  1
  O  O17  1  0.632713  0.367287  0.000000  1
  O  O18  1  0.363085  0.636915  0.000000  1
  O  O19  1  0.636915  0.363085  0.500000  1
  O  O20  1  0.925914  0.074086  0.500000  1
  O  O21  1  0.074086  0.925914  0.000000  1
