# generated using pymatgen
data_DyY2Lu3MnSb2
_symmetry_space_group_name_H-M   'P 1'
_cell_length_a   8.07695611
_cell_length_b   8.07695610
_cell_length_c   4.24074200
_cell_angle_alpha   90.00000000
_cell_angle_beta   90.00000000
_cell_angle_gamma   120.01875682
_symmetry_Int_Tables_number   1
_chemical_formula_structural   DyY2Lu3MnSb2
_chemical_formula_sum   'Dy1 Y2 Lu3 Mn1 Sb2'
_cell_volume   239.54428432
_cell_formula_units_Z   1
loop_
 _symmetry_equiv_pos_site_id
 _symmetry_equiv_pos_as_xyz
  1  'x, y, z'
loop_
 _atom_site_type_symbol
 _atom_site_label
 _atom_site_symmetry_multiplicity
 _atom_site_fract_x
 _atom_site_fract_y
 _atom_site_fract_z
 _atom_site_occupancy
  Dy  Dy0  1  0.394729  0.394729  0.000000  1
  Y  Y1  1  0.605240  0.000024  0.000000  1
  Y  Y2  1  0.000024  0.605240  0.000000  1
  Lu  Lu3  1  0.233790  0.000006  0.500000  1
  Lu  Lu4  1  0.000006  0.233790  0.500000  1
  Lu  Lu5  1  0.766191  0.766191  0.500000  1
  Mn  Mn6  1  0.000019  0.000019  0.000000  1
  Sb  Sb7  1  0.333304  0.666697  0.500000  1
  Sb  Sb8  1  0.666697  0.333304  0.500000  1
