# generated using pymatgen
data_PrPa5(Bi4Pd3)2
_symmetry_space_group_name_H-M   'P 1'
_cell_length_a   8.66808762
_cell_length_b   8.66808698
_cell_length_c   8.66808800
_cell_angle_alpha   109.65173144
_cell_angle_beta   109.38103929
_cell_angle_gamma   109.38104433
_symmetry_Int_Tables_number   1
_chemical_formula_structural   PrPa5(Bi4Pd3)2
_chemical_formula_sum   'Pr1 Pa5 Bi8 Pd6'
_cell_volume   501.35428152
_cell_formula_units_Z   1
loop_
 _symmetry_equiv_pos_site_id
 _symmetry_equiv_pos_as_xyz
  1  'x, y, z'
loop_
 _atom_site_type_symbol
 _atom_site_label
 _atom_site_symmetry_multiplicity
 _atom_site_fract_x
 _atom_site_fract_y
 _atom_site_fract_z
 _atom_site_occupancy
  Pr  Pr0  1  0.750000  0.375000  0.625000  1
  Pa  Pa1  1  0.126240  0.875502  0.252119  1
  Pa  Pa2  1  0.373760  0.625879  0.749262  1
  Pa  Pa3  1  0.876618  0.250738  0.124498  1
  Pa  Pa4  1  0.623382  0.747881  0.374121  1
  Pa  Pa5  1  0.250000  0.125000  0.875000  1
  Bi  Bi6  1  0.321759  0.320638  0.323652  1
  Bi  Bi7  1  0.178241  0.501892  0.998879  1
  Bi  Bi8  1  0.997165  0.176761  0.497745  1
  Bi  Bi9  1  0.820985  0.820405  0.823239  1
  Bi  Bi10  1  0.502835  0.000581  0.179595  1
  Bi  Bi11  1  0.679015  0.502255  0.999419  1
  Bi  Bi12  1  0.503014  0.001121  0.679362  1
  Bi  Bi13  1  0.996986  0.676348  0.498108  1
  Pd  Pd14  1  0.615123  0.369941  0.233830  1
  Pd  Pd15  1  0.884877  0.118707  0.754818  1
  Pd  Pd16  1  0.363889  0.245182  0.630059  1
  Pd  Pd17  1  0.136111  0.766170  0.881293  1
  Pd  Pd18  1  0.250000  0.625000  0.375000  1
  Pd  Pd19  1  0.750000  0.875000  0.125000  1
