# generated using pymatgen
data_Y4Er8Co4IrPb
_symmetry_space_group_name_H-M   'P 1'
_cell_length_a   8.26674139
_cell_length_b   8.26673990
_cell_length_c   8.26673999
_cell_angle_alpha   110.68375308
_cell_angle_beta   110.93973262
_cell_angle_gamma   106.82231845
_symmetry_Int_Tables_number   1
_chemical_formula_structural   Y4Er8Co4IrPb
_chemical_formula_sum   'Y4 Er8 Co4 Ir1 Pb1'
_cell_volume   434.19622106
_cell_formula_units_Z   1
loop_
 _symmetry_equiv_pos_site_id
 _symmetry_equiv_pos_as_xyz
  1  'x, y, z'
loop_
 _atom_site_type_symbol
 _atom_site_label
 _atom_site_symmetry_multiplicity
 _atom_site_fract_x
 _atom_site_fract_y
 _atom_site_fract_z
 _atom_site_occupancy
  Y  Y0  1  0.286793  0.185511  0.472305  1
  Y  Y1  1  0.713207  0.814489  0.527695  1
  Y  Y2  1  0.286793  0.814489  0.101281  1
  Y  Y3  1  0.713207  0.185511  0.898719  1
  Er  Er4  1  0.620797  0.313098  0.307697  1
  Er  Er5  1  0.379203  0.686902  0.692303  1
  Er  Er6  1  0.005402  0.313098  0.692303  1
  Er  Er7  1  0.994598  0.686902  0.307697  1
  Er  Er8  1  0.213218  0.409025  0.195807  1
  Er  Er9  1  0.786782  0.590975  0.804193  1
  Er  Er10  1  0.213218  0.017411  0.804193  1
  Er  Er11  1  0.786782  0.982589  0.195807  1
  Co  Co12  1  0.000000  0.378689  0.378689  1
  Co  Co13  1  0.000000  0.621311  0.621311  1
  Co  Co14  1  0.387965  0.887965  0.500000  1
  Co  Co15  1  0.612035  0.112035  0.500000  1
  Ir  Ir16  1  0.000000  0.000000  0.000000  1
  Pb  Pb17  1  0.500000  0.500000  0.000000  1
