# generated using pymatgen
data_Er3TmCo4(P3Ir4)4
_symmetry_space_group_name_H-M   'P 1'
_cell_length_a   3.91391500
_cell_length_b   10.71400333
_cell_length_c   12.36732139
_cell_angle_alpha   90.02857219
_cell_angle_beta   90.00000000
_cell_angle_gamma   90.00000000
_symmetry_Int_Tables_number   1
_chemical_formula_structural   Er3TmCo4(P3Ir4)4
_chemical_formula_sum   'Er3 Tm1 Co4 P12 Ir16'
_cell_volume   518.60745991
_cell_formula_units_Z   1
loop_
 _symmetry_equiv_pos_site_id
 _symmetry_equiv_pos_as_xyz
  1  'x, y, z'
loop_
 _atom_site_type_symbol
 _atom_site_label
 _atom_site_symmetry_multiplicity
 _atom_site_fract_x
 _atom_site_fract_y
 _atom_site_fract_z
 _atom_site_occupancy
  Er  Er0  1  0.250000  0.585281  0.709897  1
  Er  Er1  1  0.250000  0.914704  0.209800  1
  Er  Er2  1  0.750000  0.414733  0.290047  1
  Tm  Tm3  1  0.750000  0.085330  0.790111  1
  Co  Co4  1  0.250000  0.461010  0.933917  1
  Co  Co5  1  0.250000  0.038775  0.434051  1
  Co  Co6  1  0.750000  0.538780  0.066065  1
  Co  Co7  1  0.750000  0.961159  0.566260  1
  P  P8  1  0.250000  0.426293  0.105708  1
  P  P9  1  0.250000  0.073711  0.605893  1
  P  P10  1  0.750000  0.573677  0.894319  1
  P  P11  1  0.750000  0.926339  0.394373  1
  P  P12  1  0.250000  0.270282  0.871140  1
  P  P13  1  0.250000  0.229537  0.371355  1
  P  P14  1  0.750000  0.729576  0.128635  1
  P  P15  1  0.750000  0.770439  0.628599  1
  P  P16  1  0.250000  0.594529  0.384626  1
  P  P17  1  0.250000  0.905733  0.884608  1
  P  P18  1  0.750000  0.405597  0.615300  1
  P  P19  1  0.750000  0.094537  0.115469  1
  Ir  Ir20  1  0.250000  0.720839  0.980546  1
  Ir  Ir21  1  0.250000  0.779105  0.480971  1
  Ir  Ir22  1  0.750000  0.279231  0.019186  1
  Ir  Ir23  1  0.750000  0.220686  0.519376  1
  Ir  Ir24  1  0.250000  0.407626  0.477640  1
  Ir  Ir25  1  0.250000  0.092321  0.977072  1
  Ir  Ir26  1  0.750000  0.592224  0.522353  1
  Ir  Ir27  1  0.750000  0.907846  0.022394  1
  Ir  Ir28  1  0.250000  0.232470  0.180123  1
  Ir  Ir29  1  0.250000  0.266924  0.680369  1
  Ir  Ir30  1  0.750000  0.767222  0.819660  1
  Ir  Ir31  1  0.750000  0.732798  0.319808  1
  Ir  Ir32  1  0.250000  0.887099  0.699364  1
  Ir  Ir33  1  0.250000  0.613524  0.198990  1
  Ir  Ir34  1  0.750000  0.113587  0.301075  1
  Ir  Ir35  1  0.750000  0.386476  0.800900  1
