# generated using pymatgen
data_La4HoIn3
_symmetry_space_group_name_H-M   'P 1'
_cell_length_a   6.33095461
_cell_length_b   9.54864718
_cell_length_c   9.54864725
_cell_angle_alpha   83.69049515
_cell_angle_beta   70.63951370
_cell_angle_gamma   70.63952150
_symmetry_Int_Tables_number   1
_chemical_formula_structural   La4HoIn3
_chemical_formula_sum   'La8 Ho2 In6'
_cell_volume   513.79761204
_cell_formula_units_Z   2
loop_
 _symmetry_equiv_pos_site_id
 _symmetry_equiv_pos_as_xyz
  1  'x, y, z'
loop_
 _atom_site_type_symbol
 _atom_site_label
 _atom_site_symmetry_multiplicity
 _atom_site_fract_x
 _atom_site_fract_y
 _atom_site_fract_z
 _atom_site_occupancy
  La  La0  1  0.723068  0.864429  0.689434  1
  La  La1  1  0.276932  0.135571  0.310566  1
  La  La2  1  0.776932  0.310566  0.135571  1
  La  La3  1  0.223068  0.689434  0.864429  1
  La  La4  1  0.587497  0.689434  0.135571  1
  La  La5  1  0.412503  0.310566  0.864429  1
  La  La6  1  0.087497  0.135571  0.689434  1
  La  La7  1  0.912503  0.864429  0.310566  1
  Ho  Ho8  1  0.750000  0.500000  0.500000  1
  Ho  Ho9  1  0.250000  0.500000  0.500000  1
  In  In10  1  0.156420  0.500000  0.187161  1
  In  In11  1  0.843580  0.500000  0.812839  1
  In  In12  1  0.343580  0.812839  0.500000  1
  In  In13  1  0.656420  0.187161  0.500000  1
  In  In14  1  0.250000  0.000000  0.000000  1
  In  In15  1  0.750000  0.000000  0.000000  1
