# generated using pymatgen
data_Yb3Mn(Ir2O7)2
_symmetry_space_group_name_H-M   'P 1'
_cell_length_a   7.23161432
_cell_length_b   7.23161343
_cell_length_c   7.08644800
_cell_angle_alpha   59.32002087
_cell_angle_beta   59.32002503
_cell_angle_gamma   60.00000331
_symmetry_Int_Tables_number   1
_chemical_formula_structural   Yb3Mn(Ir2O7)2
_chemical_formula_sum   'Yb3 Mn1 Ir4 O14'
_cell_volume   259.32426109
_cell_formula_units_Z   1
loop_
 _symmetry_equiv_pos_site_id
 _symmetry_equiv_pos_as_xyz
  1  'x, y, z'
loop_
 _atom_site_type_symbol
 _atom_site_label
 _atom_site_symmetry_multiplicity
 _atom_site_fract_x
 _atom_site_fract_y
 _atom_site_fract_z
 _atom_site_occupancy
  Yb  Yb0  1  0.625000  0.125000  0.125000  1
  Yb  Yb1  1  0.125000  0.625000  0.125000  1
  Yb  Yb2  1  0.125000  0.125000  0.125000  1
  Mn  Mn3  1  0.125000  0.125000  0.625000  1
  Ir  Ir4  1  0.125000  0.625000  0.625000  1
  Ir  Ir5  1  0.625000  0.125000  0.625000  1
  Ir  Ir6  1  0.625000  0.625000  0.125000  1
  Ir  Ir7  1  0.625000  0.625000  0.625000  1
  O  O8  1  0.708520  0.708520  0.290401  1
  O  O9  1  0.298579  0.298579  0.692694  1
  O  O10  1  0.710149  0.298579  0.692694  1
  O  O11  1  0.292558  0.708520  0.290401  1
  O  O12  1  0.298579  0.710149  0.692694  1
  O  O13  1  0.708520  0.292558  0.290401  1
  O  O14  1  0.541480  0.541480  0.959599  1
  O  O15  1  0.951421  0.951421  0.557306  1
  O  O16  1  0.539851  0.951421  0.557306  1
  O  O17  1  0.957442  0.541480  0.959599  1
  O  O18  1  0.951421  0.539851  0.557306  1
  O  O19  1  0.541480  0.957442  0.959599  1
  O  O20  1  0.235831  0.235831  0.292508  1
  O  O21  1  0.014169  0.014169  0.957492  1
