# generated using pymatgen
data_Ho3TmCdRu
_symmetry_space_group_name_H-M   'P 1'
_cell_length_a   9.54436427
_cell_length_b   9.54436419
_cell_length_c   9.54436500
_cell_angle_alpha   60.00000065
_cell_angle_beta   60.00000094
_cell_angle_gamma   60.00000433
_symmetry_Int_Tables_number   1
_chemical_formula_structural   Ho3TmCdRu
_chemical_formula_sum   'Ho12 Tm4 Cd4 Ru4'
_cell_volume   614.78897373
_cell_formula_units_Z   4
loop_
 _symmetry_equiv_pos_site_id
 _symmetry_equiv_pos_as_xyz
  1  'x, y, z'
loop_
 _atom_site_type_symbol
 _atom_site_label
 _atom_site_symmetry_multiplicity
 _atom_site_fract_x
 _atom_site_fract_y
 _atom_site_fract_z
 _atom_site_occupancy
  Ho  Ho0  1  0.810859  0.189141  0.189141  1
  Ho  Ho1  1  0.189141  0.810859  0.810859  1
  Ho  Ho2  1  0.189141  0.810859  0.189141  1
  Ho  Ho3  1  0.810859  0.189141  0.810859  1
  Ho  Ho4  1  0.189141  0.189141  0.810859  1
  Ho  Ho5  1  0.810859  0.810859  0.189141  1
  Ho  Ho6  1  0.938807  0.561193  0.561193  1
  Ho  Ho7  1  0.561193  0.938807  0.938807  1
  Ho  Ho8  1  0.561193  0.938807  0.561193  1
  Ho  Ho9  1  0.938807  0.561193  0.938807  1
  Ho  Ho10  1  0.561193  0.561193  0.938807  1
  Ho  Ho11  1  0.938807  0.938807  0.561193  1
  Tm  Tm12  1  0.346683  0.346683  0.346683  1
  Tm  Tm13  1  0.346683  0.346683  0.959951  1
  Tm  Tm14  1  0.346683  0.959951  0.346683  1
  Tm  Tm15  1  0.959951  0.346683  0.346683  1
  Cd  Cd16  1  0.580345  0.580345  0.580345  1
  Cd  Cd17  1  0.580345  0.580345  0.258965  1
  Cd  Cd18  1  0.580345  0.258965  0.580345  1
  Cd  Cd19  1  0.258965  0.580345  0.580345  1
  Ru  Ru20  1  0.140577  0.140577  0.140577  1
  Ru  Ru21  1  0.140577  0.140577  0.578270  1
  Ru  Ru22  1  0.140577  0.578270  0.140577  1
  Ru  Ru23  1  0.578270  0.140577  0.140577  1
