# generated using pymatgen
data_Pb5Au6
_symmetry_space_group_name_H-M   'P 1'
_cell_length_a   16.29818253
_cell_length_b   16.29818301
_cell_length_c   4.45213900
_cell_angle_alpha   90.00000000
_cell_angle_beta   90.00000000
_cell_angle_gamma   166.72788863
_symmetry_Int_Tables_number   1
_chemical_formula_structural   Pb5Au6
_chemical_formula_sum   'Pb5 Au6'
_cell_volume   271.50235363
_cell_formula_units_Z   1
loop_
 _symmetry_equiv_pos_site_id
 _symmetry_equiv_pos_as_xyz
  1  'x, y, z'
loop_
 _atom_site_type_symbol
 _atom_site_label
 _atom_site_symmetry_multiplicity
 _atom_site_fract_x
 _atom_site_fract_y
 _atom_site_fract_z
 _atom_site_occupancy
  Pb  Pb0  1  0.000000  0.000000  0.000000  1
  Pb  Pb1  1  0.621022  0.378978  0.000000  1
  Pb  Pb2  1  0.378978  0.621022  0.000000  1
  Pb  Pb3  1  0.802762  0.197237  0.500000  1
  Pb  Pb4  1  0.197237  0.802762  0.500000  1
  Au  Au5  1  0.716587  0.283413  0.000000  1
  Au  Au6  1  0.283413  0.716587  0.000000  1
  Au  Au7  1  0.894418  0.105582  0.500000  1
  Au  Au8  1  0.541835  0.458164  0.500000  1
  Au  Au9  1  0.458164  0.541835  0.500000  1
  Au  Au10  1  0.105582  0.894418  0.500000  1
