# generated using pymatgen
data_Cs3K5(TiS4)2
_symmetry_space_group_name_H-M   'P 1'
_cell_length_a   7.87788000
_cell_length_b   9.96283500
_cell_length_c   15.07638900
_cell_angle_alpha   90.00000000
_cell_angle_beta   90.00000000
_cell_angle_gamma   90.00000000
_symmetry_Int_Tables_number   1
_chemical_formula_structural   Cs3K5(TiS4)2
_chemical_formula_sum   'Cs6 K10 Ti4 S16'
_cell_volume   1183.28574732
_cell_formula_units_Z   2
loop_
 _symmetry_equiv_pos_site_id
 _symmetry_equiv_pos_as_xyz
  1  'x, y, z'
loop_
 _atom_site_type_symbol
 _atom_site_label
 _atom_site_symmetry_multiplicity
 _atom_site_fract_x
 _atom_site_fract_y
 _atom_site_fract_z
 _atom_site_occupancy
  Cs  Cs0  1  0.001909  0.998342  0.999377  1
  Cs  Cs1  1  0.501909  0.001658  0.500623  1
  Cs  Cs2  1  0.001909  0.501658  0.999377  1
  Cs  Cs3  1  0.501909  0.498342  0.500623  1
  Cs  Cs4  1  0.997968  0.750000  0.429081  1
  Cs  Cs5  1  0.497968  0.250000  0.070919  1
  K  K6  1  0.023897  0.250000  0.569677  1
  K  K7  1  0.523897  0.750000  0.930323  1
  K  K8  1  0.818808  0.054432  0.270695  1
  K  K9  1  0.318808  0.945568  0.229305  1
  K  K10  1  0.179552  0.558071  0.730357  1
  K  K11  1  0.679552  0.441929  0.769643  1
  K  K12  1  0.179552  0.941929  0.730357  1
  K  K13  1  0.679552  0.058071  0.769643  1
  K  K14  1  0.818808  0.445568  0.270695  1
  K  K15  1  0.318808  0.554432  0.229305  1
  Ti  Ti16  1  0.775598  0.750000  0.677696  1
  Ti  Ti17  1  0.220854  0.250000  0.325716  1
  Ti  Ti18  1  0.720854  0.750000  0.174284  1
  Ti  Ti19  1  0.275598  0.250000  0.822304  1
  S  S20  1  0.986324  0.250000  0.818809  1
  S  S21  1  0.511026  0.250000  0.319411  1
  S  S22  1  0.486324  0.750000  0.681191  1
  S  S23  1  0.011026  0.750000  0.180589  1
  S  S24  1  0.628544  0.568027  0.100232  1
  S  S25  1  0.128544  0.431973  0.399768  1
  S  S26  1  0.369136  0.063403  0.893562  1
  S  S27  1  0.869136  0.936597  0.606438  1
  S  S28  1  0.369136  0.436597  0.893562  1
  S  S29  1  0.869136  0.563403  0.606438  1
  S  S30  1  0.628544  0.931973  0.100232  1
  S  S31  1  0.128544  0.068027  0.399768  1
  S  S32  1  0.608286  0.750000  0.315282  1
  S  S33  1  0.108286  0.250000  0.184718  1
  S  S34  1  0.380146  0.250000  0.679953  1
  S  S35  1  0.880146  0.750000  0.820047  1
