# generated using pymatgen
data_Y7Tm13Si15As
_symmetry_space_group_name_H-M   'P 1'
_cell_length_a   7.45416840
_cell_length_b   7.61245867
_cell_length_c   14.52815100
_cell_angle_alpha   90.10804412
_cell_angle_beta   93.65410457
_cell_angle_gamma   90.04502449
_symmetry_Int_Tables_number   1
_chemical_formula_structural   Y7Tm13Si15As
_chemical_formula_sum   'Y7 Tm13 Si15 As1'
_cell_volume   822.71557262
_cell_formula_units_Z   1
loop_
 _symmetry_equiv_pos_site_id
 _symmetry_equiv_pos_as_xyz
  1  'x, y, z'
loop_
 _atom_site_type_symbol
 _atom_site_label
 _atom_site_symmetry_multiplicity
 _atom_site_fract_x
 _atom_site_fract_y
 _atom_site_fract_z
 _atom_site_occupancy
  Y  Y0  1  0.001652  0.817554  0.599438  1
  Y  Y1  1  0.497397  0.676377  0.598847  1
  Y  Y2  1  0.322572  0.823506  0.122144  1
  Y  Y3  1  0.822689  0.676724  0.123158  1
  Y  Y4  1  0.833336  0.505115  0.745695  1
  Y  Y5  1  0.473806  0.316962  0.100962  1
  Y  Y6  1  0.026337  0.816899  0.899042  1
  Tm  Tm7  1  0.498950  0.321883  0.400926  1
  Tm  Tm8  1  0.666654  0.005917  0.252450  1
  Tm  Tm9  1  0.528336  0.686276  0.897155  1
  Tm  Tm10  1  0.675524  0.176608  0.876784  1
  Tm  Tm11  1  0.148763  0.333344  0.620959  1
  Tm  Tm12  1  0.177047  0.323144  0.877857  1
  Tm  Tm13  1  0.852066  0.664255  0.378759  1
  Tm  Tm14  1  0.349610  0.833954  0.380640  1
  Tm  Tm15  1  0.332947  0.995497  0.745298  1
  Tm  Tm16  1  0.646732  0.165790  0.619130  1
  Tm  Tm17  1  0.168087  0.494301  0.254425  1
  Tm  Tm18  1  0.971933  0.185067  0.102967  1
  Tm  Tm19  1  0.005467  0.182205  0.400732  1
  Si  Si20  1  0.218981  0.629452  0.752258  1
  Si  Si21  1  0.294490  0.037319  0.542228  1
  Si  Si22  1  0.039355  0.892648  0.251036  1
  Si  Si23  1  0.714649  0.872665  0.751229  1
  Si  Si24  1  0.284639  0.131289  0.250645  1
  Si  Si25  1  0.800732  0.460799  0.540144  1
  Si  Si26  1  0.459288  0.388966  0.752126  1
  Si  Si27  1  0.198051  0.534084  0.456997  1
  Si  Si28  1  0.141854  0.524321  0.043017  1
  Si  Si29  1  0.959185  0.111193  0.751355  1
  Si  Si30  1  0.785343  0.367090  0.250427  1
  Si  Si31  1  0.358055  0.028515  0.956005  1
  Si  Si32  1  0.853252  0.469235  0.957760  1
  Si  Si33  1  0.647552  0.973562  0.041057  1
  Si  Si34  1  0.539040  0.610214  0.250858  1
  As  As35  1  0.705630  0.967270  0.455494  1
