# generated using pymatgen
data_Li4La3ThSi8
_symmetry_space_group_name_H-M   'P 1'
_cell_length_a   3.89453300
_cell_length_b   7.77447864
_cell_length_c   10.71651775
_cell_angle_alpha   89.94593714
_cell_angle_beta   90.00000000
_cell_angle_gamma   90.00000000
_symmetry_Int_Tables_number   1
_chemical_formula_structural   Li4La3ThSi8
_chemical_formula_sum   'Li4 La3 Th1 Si8'
_cell_volume   324.47419020
_cell_formula_units_Z   1
loop_
 _symmetry_equiv_pos_site_id
 _symmetry_equiv_pos_as_xyz
  1  'x, y, z'
loop_
 _atom_site_type_symbol
 _atom_site_label
 _atom_site_symmetry_multiplicity
 _atom_site_fract_x
 _atom_site_fract_y
 _atom_site_fract_z
 _atom_site_occupancy
  Li  Li0  1  0.250000  0.991445  0.390773  1
  Li  Li1  1  0.250000  0.497835  0.109136  1
  Li  Li2  1  0.750000  0.003715  0.607960  1
  Li  Li3  1  0.750000  0.504267  0.889669  1
  La  La4  1  0.250000  0.141600  0.865916  1
  La  La5  1  0.250000  0.638607  0.633710  1
  La  La6  1  0.750000  0.860731  0.135141  1
  Th  Th7  1  0.750000  0.362003  0.365943  1
  Si  Si8  1  0.250000  0.227787  0.567463  1
  Si  Si9  1  0.250000  0.727141  0.927432  1
  Si  Si10  1  0.750000  0.768162  0.427446  1
  Si  Si11  1  0.750000  0.277955  0.077044  1
  Si  Si12  1  0.250000  0.661197  0.319713  1
  Si  Si13  1  0.250000  0.169708  0.184307  1
  Si  Si14  1  0.750000  0.333122  0.676712  1
  Si  Si15  1  0.750000  0.834727  0.821633  1
