# generated using pymatgen
data_HoLu2Bi5O14
_symmetry_space_group_name_H-M   'P 1'
_cell_length_a   6.57744113
_cell_length_b   6.69832964
_cell_length_c   7.74002293
_cell_angle_alpha   106.70229212
_cell_angle_beta   89.48084435
_cell_angle_gamma   99.05889270
_symmetry_Int_Tables_number   1
_chemical_formula_structural   HoLu2Bi5O14
_chemical_formula_sum   'Ho1 Lu2 Bi5 O14'
_cell_volume   322.31196048
_cell_formula_units_Z   1
loop_
 _symmetry_equiv_pos_site_id
 _symmetry_equiv_pos_as_xyz
  1  'x, y, z'
loop_
 _atom_site_type_symbol
 _atom_site_label
 _atom_site_symmetry_multiplicity
 _atom_site_fract_x
 _atom_site_fract_y
 _atom_site_fract_z
 _atom_site_occupancy
  Ho  Ho0  1  0.264842  0.538849  0.885560  1
  Lu  Lu1  1  0.463289  0.003137  0.252868  1
  Lu  Lu2  1  0.537406  0.993692  0.751239  1
  Bi  Bi3  1  0.002784  0.007210  0.502542  1
  Bi  Bi4  1  0.003663  0.001059  0.999152  1
  Bi  Bi5  1  0.735485  0.474246  0.114566  1
  Bi  Bi6  1  0.722127  0.463291  0.614231  1
  Bi  Bi7  1  0.267243  0.529281  0.390749  1
  O  O8  1  0.449611  0.658339  0.166309  1
  O  O9  1  0.536645  0.337267  0.822953  1
  O  O10  1  0.307053  0.922299  0.949989  1
  O  O11  1  0.694704  0.052364  0.050592  1
  O  O12  1  0.303703  0.924712  0.515710  1
  O  O13  1  0.697673  0.079163  0.487291  1
  O  O14  1  0.529938  0.349966  0.348103  1
  O  O15  1  0.457607  0.647554  0.660956  1
  O  O16  1  0.937892  0.666997  0.955787  1
  O  O17  1  0.085064  0.326854  0.032502  1
  O  O18  1  0.094786  0.337141  0.625245  1
  O  O19  1  0.906338  0.679531  0.372981  1
  O  O20  1  0.869892  0.928746  0.732070  1
  O  O21  1  0.132251  0.078302  0.268601  1
