# generated using pymatgen
data_EuHo3(SeO4)6
_symmetry_space_group_name_H-M   'P 1'
_cell_length_a   10.00856760
_cell_length_b   10.00856772
_cell_length_c   10.00856770
_cell_angle_alpha   58.01185408
_cell_angle_beta   58.01185344
_cell_angle_gamma   58.01186068
_symmetry_Int_Tables_number   1
_chemical_formula_structural   EuHo3(SeO4)6
_chemical_formula_sum   'Eu1 Ho3 Se6 O24'
_cell_volume   676.59679072
_cell_formula_units_Z   1
loop_
 _symmetry_equiv_pos_site_id
 _symmetry_equiv_pos_as_xyz
  1  'x, y, z'
loop_
 _atom_site_type_symbol
 _atom_site_label
 _atom_site_symmetry_multiplicity
 _atom_site_fract_x
 _atom_site_fract_y
 _atom_site_fract_z
 _atom_site_occupancy
  Eu  Eu0  1  0.642922  0.642922  0.642922  1
  Ho  Ho1  1  0.356291  0.356291  0.356291  1
  Ho  Ho2  1  0.143684  0.143684  0.143684  1
  Ho  Ho3  1  0.855398  0.855398  0.855398  1
  Se  Se4  1  0.749648  0.040895  0.461781  1
  Se  Se5  1  0.968190  0.536418  0.243884  1
  Se  Se6  1  0.536418  0.243884  0.968191  1
  Se  Se7  1  0.461780  0.749648  0.040896  1
  Se  Se8  1  0.040896  0.461780  0.749648  1
  Se  Se9  1  0.243884  0.968190  0.536418  1
  O  O10  1  0.916018  0.071967  0.291763  1
  O  O11  1  0.774378  0.008635  0.629909  1
  O  O12  1  0.998566  0.370651  0.217525  1
  O  O13  1  0.706544  0.075882  0.941975  1
  O  O14  1  0.580875  0.210476  0.435993  1
  O  O15  1  0.874093  0.485759  0.729868  1
  O  O16  1  0.507271  0.272806  0.132384  1
  O  O17  1  0.796115  0.560714  0.410721  1
  O  O18  1  0.941975  0.706544  0.075882  1
  O  O19  1  0.560714  0.410721  0.796115  1
  O  O20  1  0.370651  0.217525  0.998566  1
  O  O21  1  0.272806  0.132384  0.507271  1
  O  O22  1  0.729868  0.874093  0.485759  1
  O  O23  1  0.629909  0.774378  0.008635  1
  O  O24  1  0.435993  0.580875  0.210476  1
  O  O25  1  0.071967  0.291763  0.916018  1
  O  O26  1  0.210476  0.435993  0.580875  1
  O  O27  1  0.485759  0.729868  0.874093  1
  O  O28  1  0.132384  0.507271  0.272806  1
  O  O29  1  0.410721  0.796115  0.560714  1
  O  O30  1  0.291763  0.916018  0.071967  1
  O  O31  1  0.008635  0.629909  0.774378  1
  O  O32  1  0.217525  0.998566  0.370651  1
  O  O33  1  0.075882  0.941975  0.706544  1
