# generated using pymatgen
data_Sr4SmU7N16
_symmetry_space_group_name_H-M   'P 1'
_cell_length_a   10.16963852
_cell_length_b   3.53210200
_cell_length_c   11.94696789
_cell_angle_alpha   90.00000000
_cell_angle_beta   89.49476381
_cell_angle_gamma   90.00000000
_symmetry_Int_Tables_number   1
_chemical_formula_structural   Sr4SmU7N16
_chemical_formula_sum   'Sr4 Sm1 U7 N16'
_cell_volume   429.12079813
_cell_formula_units_Z   1
loop_
 _symmetry_equiv_pos_site_id
 _symmetry_equiv_pos_as_xyz
  1  'x, y, z'
loop_
 _atom_site_type_symbol
 _atom_site_label
 _atom_site_symmetry_multiplicity
 _atom_site_fract_x
 _atom_site_fract_y
 _atom_site_fract_z
 _atom_site_occupancy
  Sr  Sr0  1  0.755676  0.500001  0.142268  1
  Sr  Sr1  1  0.249711  0.500001  0.351326  1
  Sr  Sr2  1  0.749712  0.000000  0.648356  1
  Sr  Sr3  1  0.253566  0.000000  0.851077  1
  Sm  Sm4  1  0.087998  0.500001  0.108194  1
  U  U5  1  0.423734  0.000000  0.115110  1
  U  U6  1  0.922736  0.000000  0.389667  1
  U  U7  1  0.577941  0.500001  0.385649  1
  U  U8  1  0.422970  0.000000  0.613584  1
  U  U9  1  0.075749  0.500001  0.613191  1
  U  U10  1  0.574251  0.500001  0.889291  1
  U  U11  1  0.926905  0.000000  0.887722  1
  N  N12  1  0.604099  0.000000  0.010154  1
  N  N13  1  0.922873  0.000000  0.058275  1
  N  N14  1  0.234142  0.000000  0.178921  1
  N  N15  1  0.490556  0.500001  0.215429  1
  N  N16  1  0.974729  0.500001  0.292157  1
  N  N17  1  0.708152  0.000000  0.339744  1
  N  N18  1  0.444269  0.000000  0.425742  1
  N  N19  1  0.113841  0.000000  0.496302  1
  N  N20  1  0.886089  0.500001  0.509973  1
  N  N21  1  0.557502  0.500001  0.574682  1
  N  N22  1  0.290482  0.500001  0.664644  1
  N  N23  1  0.007437  0.000000  0.711714  1
  N  N24  1  0.515551  0.000000  0.786229  1
  N  N25  1  0.788150  0.500001  0.840933  1
  N  N26  1  0.057807  0.500001  0.907991  1
  N  N27  1  0.383384  0.500001  0.991686  1
