# generated using pymatgen
data_Dy2Y5(ErPb2)3
_symmetry_space_group_name_H-M   'P 1'
_cell_length_a   9.04105502
_cell_length_b   9.04350576
_cell_length_c   6.64204700
_cell_angle_alpha   89.99771302
_cell_angle_beta   90.00406143
_cell_angle_gamma   119.98568801
_symmetry_Int_Tables_number   1
_chemical_formula_structural   Dy2Y5(ErPb2)3
_chemical_formula_sum   'Dy2 Y5 Er3 Pb6'
_cell_volume   470.38246234
_cell_formula_units_Z   1
loop_
 _symmetry_equiv_pos_site_id
 _symmetry_equiv_pos_as_xyz
  1  'x, y, z'
loop_
 _atom_site_type_symbol
 _atom_site_label
 _atom_site_symmetry_multiplicity
 _atom_site_fract_x
 _atom_site_fract_y
 _atom_site_fract_z
 _atom_site_occupancy
  Dy  Dy0  1  0.761498  0.999912  0.750103  1
  Dy  Dy1  1  0.666665  0.333329  0.499990  1
  Y  Y2  1  0.238334  0.238434  0.750100  1
  Y  Y3  1  0.238462  0.999922  0.249903  1
  Y  Y4  1  0.000069  0.761635  0.750111  1
  Y  Y5  1  0.761450  0.761626  0.249885  1
  Y  Y6  1  0.000016  0.238475  0.249910  1
  Er  Er7  1  0.333385  0.666681  0.999992  1
  Er  Er8  1  0.666659  0.333332  0.999999  1
  Er  Er9  1  0.333348  0.666664  0.500002  1
  Pb  Pb10  1  0.000270  0.395043  0.750278  1
  Pb  Pb11  1  0.394800  0.395088  0.249730  1
  Pb  Pb12  1  0.604947  0.999677  0.249724  1
  Pb  Pb13  1  0.604903  0.605273  0.750277  1
  Pb  Pb14  1  0.394851  0.999680  0.750273  1
  Pb  Pb15  1  0.000343  0.605231  0.249723  1
