# generated using pymatgen
data_Sr6Co5PdN6
_symmetry_space_group_name_H-M   'P 1'
_cell_length_a   5.26944814
_cell_length_b   9.19448240
_cell_length_c   13.41808980
_cell_angle_alpha   91.24398670
_cell_angle_beta   91.34081989
_cell_angle_gamma   88.92426594
_symmetry_Int_Tables_number   1
_chemical_formula_structural   Sr6Co5PdN6
_chemical_formula_sum   'Sr12 Co10 Pd2 N12'
_cell_volume   649.66471264
_cell_formula_units_Z   2
loop_
 _symmetry_equiv_pos_site_id
 _symmetry_equiv_pos_as_xyz
  1  'x, y, z'
loop_
 _atom_site_type_symbol
 _atom_site_label
 _atom_site_symmetry_multiplicity
 _atom_site_fract_x
 _atom_site_fract_y
 _atom_site_fract_z
 _atom_site_occupancy
  Sr  Sr0  1  0.015613  0.007695  0.247981  1
  Sr  Sr1  1  0.501301  0.492044  0.753981  1
  Sr  Sr2  1  0.498699  0.507956  0.246019  1
  Sr  Sr3  1  0.984387  0.992305  0.752019  1
  Sr  Sr4  1  0.027618  0.330515  0.085239  1
  Sr  Sr5  1  0.518085  0.165711  0.913177  1
  Sr  Sr6  1  0.972382  0.669485  0.914761  1
  Sr  Sr7  1  0.477722  0.834992  0.413335  1
  Sr  Sr8  1  0.974446  0.670745  0.590782  1
  Sr  Sr9  1  0.025554  0.329255  0.409218  1
  Sr  Sr10  1  0.522278  0.165008  0.586665  1
  Sr  Sr11  1  0.481915  0.834289  0.086823  1
  Co  Co12  1  0.548504  0.160510  0.161352  1
  Co  Co13  1  0.000000  0.000000  0.500000  1
  Co  Co14  1  0.500000  0.500000  0.500000  1
  Co  Co15  1  0.500000  0.500000  0.000000  1
  Co  Co16  1  0.000000  0.000000  0.000000  1
  Co  Co17  1  0.023200  0.338296  0.846018  1
  Co  Co18  1  0.976800  0.661704  0.153982  1
  Co  Co19  1  0.454145  0.842741  0.663766  1
  Co  Co20  1  0.451496  0.839490  0.838648  1
  Co  Co21  1  0.545855  0.157259  0.336234  1
  Pd  Pd22  1  0.029278  0.336906  0.658006  1
  Pd  Pd23  1  0.970722  0.663094  0.341994  1
  N  N24  1  0.724290  0.576236  0.431167  1
  N  N25  1  0.681688  0.760715  0.751611  1
  N  N26  1  0.210688  0.744696  0.237550  1
  N  N27  1  0.789312  0.255304  0.762450  1
  N  N28  1  0.318312  0.239285  0.248389  1
  N  N29  1  0.766895  0.079293  0.421406  1
  N  N30  1  0.275710  0.423764  0.568833  1
  N  N31  1  0.739540  0.579332  0.076179  1
  N  N32  1  0.230691  0.918863  0.922476  1
  N  N33  1  0.233105  0.920707  0.578594  1
  N  N34  1  0.260460  0.420668  0.923821  1
  N  N35  1  0.769309  0.081137  0.077524  1
