# generated using pymatgen
data_Hf4AlRe2Os
_symmetry_space_group_name_H-M   'P 1'
_cell_length_a   6.58743600
_cell_length_b   4.62857800
_cell_length_c   9.30786700
_cell_angle_alpha   90.00000000
_cell_angle_beta   90.00219777
_cell_angle_gamma   90.00000000
_symmetry_Int_Tables_number   1
_chemical_formula_structural   Hf4AlRe2Os
_chemical_formula_sum   'Hf8 Al2 Re4 Os2'
_cell_volume   283.80115887
_cell_formula_units_Z   2
loop_
 _symmetry_equiv_pos_site_id
 _symmetry_equiv_pos_as_xyz
  1  'x, y, z'
loop_
 _atom_site_type_symbol
 _atom_site_label
 _atom_site_symmetry_multiplicity
 _atom_site_fract_x
 _atom_site_fract_y
 _atom_site_fract_z
 _atom_site_occupancy
  Hf  Hf0  1  0.505925  0.749999  0.119108  1
  Hf  Hf1  1  0.994071  0.749999  0.119105  1
  Hf  Hf2  1  0.494078  0.250000  0.380894  1
  Hf  Hf3  1  0.005929  0.250000  0.380887  1
  Hf  Hf4  1  0.496643  0.749999  0.629560  1
  Hf  Hf5  1  0.003343  0.749999  0.629560  1
  Hf  Hf6  1  0.503352  0.250000  0.870440  1
  Hf  Hf7  1  0.996629  0.250000  0.870441  1
  Al  Al8  1  0.249997  0.250000  0.124774  1
  Al  Al9  1  0.750002  0.749999  0.375215  1
  Re  Re10  1  0.750007  0.250000  0.130324  1
  Re  Re11  1  0.249996  0.749999  0.369680  1
  Re  Re12  1  0.750009  0.250000  0.618426  1
  Re  Re13  1  0.250015  0.749999  0.881580  1
  Os  Os14  1  0.250010  0.250000  0.626547  1
  Os  Os15  1  0.749990  0.749999  0.873460  1
