# generated using pymatgen
data_CePa3(AlTc)4
_symmetry_space_group_name_H-M   'P 1'
_cell_length_a   3.89778100
_cell_length_b   7.47496802
_cell_length_c   15.99094422
_cell_angle_alpha   89.21691617
_cell_angle_beta   90.00000000
_cell_angle_gamma   90.00000000
_symmetry_Int_Tables_number   1
_chemical_formula_structural   CePa3(AlTc)4
_chemical_formula_sum   'Ce2 Pa6 Al8 Tc8'
_cell_volume   465.86525122
_cell_formula_units_Z   2
loop_
 _symmetry_equiv_pos_site_id
 _symmetry_equiv_pos_as_xyz
  1  'x, y, z'
loop_
 _atom_site_type_symbol
 _atom_site_label
 _atom_site_symmetry_multiplicity
 _atom_site_fract_x
 _atom_site_fract_y
 _atom_site_fract_z
 _atom_site_occupancy
  Ce  Ce0  1  0.250000  0.560153  0.719536  1
  Ce  Ce1  1  0.750000  0.439847  0.280464  1
  Pa  Pa2  1  0.250000  0.173445  0.560969  1
  Pa  Pa3  1  0.750000  0.826555  0.439031  1
  Pa  Pa4  1  0.250000  0.678517  0.939128  1
  Pa  Pa5  1  0.750000  0.321483  0.060872  1
  Pa  Pa6  1  0.250000  0.057962  0.780875  1
  Pa  Pa7  1  0.750000  0.942038  0.219125  1
  Al  Al8  1  0.250000  0.122676  0.348287  1
  Al  Al9  1  0.750000  0.877324  0.651713  1
  Al  Al10  1  0.250000  0.618158  0.152849  1
  Al  Al11  1  0.750000  0.381842  0.847151  1
  Al  Al12  1  0.250000  0.990159  0.063201  1
  Al  Al13  1  0.750000  0.009841  0.936799  1
  Al  Al14  1  0.250000  0.495615  0.435702  1
  Al  Al15  1  0.750000  0.504385  0.564298  1
  Tc  Tc16  1  0.750000  0.249552  0.443419  1
  Tc  Tc17  1  0.250000  0.750448  0.556581  1
  Tc  Tc18  1  0.750000  0.749981  0.059927  1
  Tc  Tc19  1  0.250000  0.250019  0.940073  1
  Tc  Tc20  1  0.750000  0.755889  0.823785  1
  Tc  Tc21  1  0.250000  0.244111  0.176215  1
  Tc  Tc22  1  0.750000  0.232196  0.682580  1
  Tc  Tc23  1  0.250000  0.767804  0.317420  1
