# generated using pymatgen
data_Y7Lu9(In3Ir)2
_symmetry_space_group_name_H-M   'P 1'
_cell_length_a   10.25358100
_cell_length_b   10.26936250
_cell_length_c   7.05969403
_cell_angle_alpha   89.88034938
_cell_angle_beta   90.00000000
_cell_angle_gamma   119.94918077
_symmetry_Int_Tables_number   1
_chemical_formula_structural   Y7Lu9(In3Ir)2
_chemical_formula_sum   'Y7 Lu9 In6 Ir2'
_cell_volume   644.10470246
_cell_formula_units_Z   1
loop_
 _symmetry_equiv_pos_site_id
 _symmetry_equiv_pos_as_xyz
  1  'x, y, z'
loop_
 _atom_site_type_symbol
 _atom_site_label
 _atom_site_symmetry_multiplicity
 _atom_site_fract_x
 _atom_site_fract_y
 _atom_site_fract_z
 _atom_site_occupancy
  Y  Y0  1  0.531854  0.063707  0.521023  1
  Y  Y1  1  0.934821  0.468102  0.522129  1
  Y  Y2  1  0.533281  0.468102  0.522129  1
  Y  Y3  1  0.468492  0.936985  0.021637  1
  Y  Y4  1  0.064912  0.534739  0.023332  1
  Y  Y5  1  0.469826  0.534739  0.023332  1
  Y  Y6  1  0.174057  0.348114  0.730517  1
  Lu  Lu7  1  0.646746  0.823130  0.726982  1
  Lu  Lu8  1  0.176385  0.823130  0.726982  1
  Lu  Lu9  1  0.823557  0.647113  0.227662  1
  Lu  Lu10  1  0.352998  0.177393  0.227975  1
  Lu  Lu11  1  0.824396  0.177393  0.227975  1
  Lu  Lu12  1  0.667000  0.333999  0.906043  1
  Lu  Lu13  1  0.333671  0.667343  0.405615  1
  Lu  Lu14  1  0.998899  0.997797  0.506244  1
  Lu  Lu15  1  0.998555  0.997109  0.009028  1
  In  In16  1  0.836996  0.673992  0.775047  1
  In  In17  1  0.328186  0.160563  0.775294  1
  In  In18  1  0.832376  0.160563  0.775294  1
  In  In19  1  0.163428  0.326855  0.271718  1
  In  In20  1  0.674507  0.837849  0.274656  1
  In  In21  1  0.163342  0.837849  0.274656  1
  Ir  Ir22  1  0.666947  0.333893  0.289416  1
  Ir  Ir23  1  0.334770  0.669541  0.790998  1
