# generated using pymatgen
data_Ac2SiNiI2
_symmetry_space_group_name_H-M   'P 1'
_cell_length_a   4.39349700
_cell_length_b   4.39349760
_cell_length_c   12.51426500
_cell_angle_alpha   90.00000000
_cell_angle_beta   90.00000000
_cell_angle_gamma   119.99998792
_symmetry_Int_Tables_number   1
_chemical_formula_structural   Ac2SiNiI2
_chemical_formula_sum   'Ac2 Si1 Ni1 I2'
_cell_volume   209.19762994
_cell_formula_units_Z   1
loop_
 _symmetry_equiv_pos_site_id
 _symmetry_equiv_pos_as_xyz
  1  'x, y, z'
loop_
 _atom_site_type_symbol
 _atom_site_label
 _atom_site_symmetry_multiplicity
 _atom_site_fract_x
 _atom_site_fract_y
 _atom_site_fract_z
 _atom_site_occupancy
  Ac  Ac0  1  0.000000  0.000000  0.844968  1
  Ac  Ac1  1  0.000000  0.000000  0.156414  1
  Si  Si2  1  0.666667  0.333333  0.003532  1
  Ni  Ni3  1  0.333333  0.666667  0.996403  1
  I  I4  1  0.333333  0.666667  0.338967  1
  I  I5  1  0.666667  0.333333  0.659716  1
