# generated using pymatgen
data_LaNd3Al18(RePd2)2
_symmetry_space_group_name_H-M   'P 1'
_cell_length_a   7.67558622
_cell_length_b   7.68699586
_cell_length_c   9.69602500
_cell_angle_alpha   90.00000000
_cell_angle_beta   90.00000000
_cell_angle_gamma   118.48737428
_symmetry_Int_Tables_number   1
_chemical_formula_structural   LaNd3Al18(RePd2)2
_chemical_formula_sum   'La1 Nd3 Al18 Re2 Pd4'
_cell_volume   502.81981199
_cell_formula_units_Z   1
loop_
 _symmetry_equiv_pos_site_id
 _symmetry_equiv_pos_as_xyz
  1  'x, y, z'
loop_
 _atom_site_type_symbol
 _atom_site_label
 _atom_site_symmetry_multiplicity
 _atom_site_fract_x
 _atom_site_fract_y
 _atom_site_fract_z
 _atom_site_occupancy
  La  La0  1  0.993629  0.679642  0.250000  1
  Nd  Nd1  1  0.006997  0.321168  0.750000  1
  Nd  Nd2  1  0.679006  0.994312  0.250000  1
  Nd  Nd3  1  0.320886  0.006653  0.750000  1
  Al  Al4  1  0.135099  0.136829  0.250000  1
  Al  Al5  1  0.865434  0.865860  0.750000  1
  Al  Al6  1  0.003156  0.333146  0.074004  1
  Al  Al7  1  0.996039  0.665096  0.923143  1
  Al  Al8  1  0.996039  0.665096  0.576857  1
  Al  Al9  1  0.335966  0.005040  0.426057  1
  Al  Al10  1  0.003156  0.333146  0.425996  1
  Al  Al11  1  0.665665  0.996817  0.575402  1
  Al  Al12  1  0.665665  0.996817  0.924598  1
  Al  Al13  1  0.335966  0.005040  0.073943  1
  Al  Al14  1  0.329851  0.329925  0.543708  1
  Al  Al15  1  0.669021  0.670370  0.457806  1
  Al  Al16  1  0.669021  0.670370  0.042194  1
  Al  Al17  1  0.329851  0.329925  0.956292  1
  Al  Al18  1  0.346463  0.550198  0.250000  1
  Al  Al19  1  0.655035  0.448687  0.750000  1
  Al  Al20  1  0.547402  0.342279  0.250000  1
  Al  Al21  1  0.449943  0.654969  0.750000  1
  Re  Re22  1  0.000293  0.999890  0.999629  1
  Re  Re23  1  0.000293  0.999890  0.500371  1
  Pd  Pd24  1  0.670419  0.328382  0.000245  1
  Pd  Pd25  1  0.329642  0.671036  0.000016  1
  Pd  Pd26  1  0.329642  0.671036  0.499984  1
  Pd  Pd27  1  0.670419  0.328382  0.499755  1
