# generated using pymatgen
data_TmLu7In3Os
_symmetry_space_group_name_H-M   'P 1'
_cell_length_a   10.19327804
_cell_length_b   10.19327736
_cell_length_c   6.93733004
_cell_angle_alpha   89.98963901
_cell_angle_beta   90.01036098
_cell_angle_gamma   120.00200254
_symmetry_Int_Tables_number   1
_chemical_formula_structural   TmLu7In3Os
_chemical_formula_sum   'Tm2 Lu14 In6 Os2'
_cell_volume   624.22610515
_cell_formula_units_Z   2
loop_
 _symmetry_equiv_pos_site_id
 _symmetry_equiv_pos_as_xyz
  1  'x, y, z'
loop_
 _atom_site_type_symbol
 _atom_site_label
 _atom_site_symmetry_multiplicity
 _atom_site_fract_x
 _atom_site_fract_y
 _atom_site_fract_z
 _atom_site_occupancy
  Tm  Tm0  1  0.532204  0.064446  0.523568  1
  Tm  Tm1  1  0.935554  0.467796  0.523568  1
  Lu  Lu2  1  0.532281  0.467719  0.523611  1
  Lu  Lu3  1  0.467657  0.935289  0.023513  1
  Lu  Lu4  1  0.064711  0.532343  0.023513  1
  Lu  Lu5  1  0.467670  0.532330  0.023538  1
  Lu  Lu6  1  0.177431  0.354720  0.728536  1
  Lu  Lu7  1  0.645280  0.822569  0.728536  1
  Lu  Lu8  1  0.177339  0.822661  0.728577  1
  Lu  Lu9  1  0.822597  0.645307  0.228383  1
  Lu  Lu10  1  0.354693  0.177403  0.228383  1
  Lu  Lu11  1  0.822721  0.177279  0.228288  1
  Lu  Lu12  1  0.666617  0.333383  0.902290  1
  Lu  Lu13  1  0.333381  0.666619  0.402171  1
  Lu  Lu14  1  0.000000  0.000000  0.506349  1
  Lu  Lu15  1  0.000001  0.999999  0.006376  1
  In  In16  1  0.836566  0.673269  0.770941  1
  In  In17  1  0.326731  0.163434  0.770941  1
  In  In18  1  0.836656  0.163344  0.771009  1
  In  In19  1  0.163402  0.326775  0.270844  1
  In  In20  1  0.673225  0.836598  0.270844  1
  In  In21  1  0.163400  0.836600  0.270892  1
  Os  Os22  1  0.666561  0.333439  0.300345  1
  Os  Os23  1  0.333322  0.666678  0.800661  1
