# generated using pymatgen
data_Nd4DyCr3(P3Ir4)4
_symmetry_space_group_name_H-M   'P 1'
_cell_length_a   12.72353800
_cell_length_b   12.72353788
_cell_length_c   3.98658700
_cell_angle_alpha   90.00000000
_cell_angle_beta   90.00000000
_cell_angle_gamma   120.00000030
_symmetry_Int_Tables_number   1
_chemical_formula_structural   Nd4DyCr3(P3Ir4)4
_chemical_formula_sum   'Nd4 Dy1 Cr3 P12 Ir16'
_cell_volume   558.91743208
_cell_formula_units_Z   1
loop_
 _symmetry_equiv_pos_site_id
 _symmetry_equiv_pos_as_xyz
  1  'x, y, z'
loop_
 _atom_site_type_symbol
 _atom_site_label
 _atom_site_symmetry_multiplicity
 _atom_site_fract_x
 _atom_site_fract_y
 _atom_site_fract_z
 _atom_site_occupancy
  Nd  Nd0  1  0.333333  0.666667  0.500000  1
  Nd  Nd1  1  0.000712  0.809673  0.000000  1
  Nd  Nd2  1  0.190327  0.191039  0.000000  1
  Nd  Nd3  1  0.808961  0.999288  0.000000  1
  Dy  Dy4  1  0.666667  0.333333  0.500000  1
  Cr  Cr5  1  0.998271  0.451364  0.500000  1
  Cr  Cr6  1  0.548636  0.546907  0.500000  1
  Cr  Cr7  1  0.453093  0.001729  0.500000  1
  P  P8  1  0.000909  0.629050  0.500000  1
  P  P9  1  0.370950  0.371858  0.500000  1
  P  P10  1  0.628142  0.999091  0.500000  1
  P  P11  1  0.517856  0.684435  0.000000  1
  P  P12  1  0.315565  0.833421  0.000000  1
  P  P13  1  0.166579  0.482144  0.000000  1
  P  P14  1  0.484042  0.170356  0.000000  1
  P  P15  1  0.686314  0.515958  0.000000  1
  P  P16  1  0.829644  0.313686  0.000000  1
  P  P17  1  0.998890  0.178912  0.500000  1
  P  P18  1  0.821088  0.819978  0.500000  1
  P  P19  1  0.180022  0.001110  0.500000  1
  Ir  Ir20  1  0.511190  0.872037  0.000000  1
  Ir  Ir21  1  0.127963  0.639153  0.000000  1
  Ir  Ir22  1  0.360847  0.488810  0.000000  1
  Ir  Ir23  1  0.493289  0.361143  0.000000  1
  Ir  Ir24  1  0.867855  0.506711  0.000000  1
  Ir  Ir25  1  0.638857  0.132145  0.000000  1
  Ir  Ir26  1  0.998419  0.287407  0.000000  1
  Ir  Ir27  1  0.712593  0.711011  0.000000  1
  Ir  Ir28  1  0.288989  0.001581  0.000000  1
  Ir  Ir29  1  0.620649  0.797566  0.500000  1
  Ir  Ir30  1  0.202434  0.823083  0.500000  1
  Ir  Ir31  1  0.176917  0.379351  0.500000  1
  Ir  Ir32  1  0.380310  0.180152  0.500000  1
  Ir  Ir33  1  0.799842  0.619690  0.500000  1
  Ir  Ir34  1  0.819848  0.200158  0.500000  1
  Ir  Ir35  1  0.000000  0.000000  0.500000  1
