# generated using pymatgen
data_Hf3Ga3OsPd2
_symmetry_space_group_name_H-M   'P 1'
_cell_length_a   7.38566500
_cell_length_b   7.38566517
_cell_length_c   6.58215900
_cell_angle_alpha   90.00000000
_cell_angle_beta   90.00000000
_cell_angle_gamma   119.99999476
_symmetry_Int_Tables_number   1
_chemical_formula_structural   Hf3Ga3OsPd2
_chemical_formula_sum   'Hf6 Ga6 Os2 Pd4'
_cell_volume   310.94118093
_cell_formula_units_Z   2
loop_
 _symmetry_equiv_pos_site_id
 _symmetry_equiv_pos_as_xyz
  1  'x, y, z'
loop_
 _atom_site_type_symbol
 _atom_site_label
 _atom_site_symmetry_multiplicity
 _atom_site_fract_x
 _atom_site_fract_y
 _atom_site_fract_z
 _atom_site_occupancy
  Hf  Hf0  1  0.601313  0.612952  0.250000  1
  Hf  Hf1  1  0.014705  0.398703  0.750000  1
  Hf  Hf2  1  0.387048  0.988362  0.250000  1
  Hf  Hf3  1  0.011638  0.398687  0.250000  1
  Hf  Hf4  1  0.383998  0.985295  0.750000  1
  Hf  Hf5  1  0.601297  0.616002  0.750000  1
  Ga  Ga6  1  0.277009  0.272411  0.499827  1
  Ga  Ga7  1  0.727589  0.004598  0.499827  1
  Ga  Ga8  1  0.995402  0.722991  0.499827  1
  Ga  Ga9  1  0.727589  0.004598  0.000173  1
  Ga  Ga10  1  0.277009  0.272411  0.000173  1
  Ga  Ga11  1  0.995402  0.722991  0.000173  1
  Os  Os12  1  0.333333  0.666667  0.498854  1
  Os  Os13  1  0.333333  0.666667  0.001146  1
  Pd  Pd14  1  0.000000  0.000000  0.750000  1
  Pd  Pd15  1  0.000000  0.000000  0.250000  1
  Pd  Pd16  1  0.666667  0.333333  0.504461  1
  Pd  Pd17  1  0.666667  0.333333  0.995539  1
