# generated using pymatgen
data_LaMnCo(Sb6Os)2
_symmetry_space_group_name_H-M   'P 1'
_cell_length_a   8.06351046
_cell_length_b   8.08846117
_cell_length_c   8.07728280
_cell_angle_alpha   109.40232703
_cell_angle_beta   109.26425844
_cell_angle_gamma   109.43254964
_symmetry_Int_Tables_number   1
_chemical_formula_structural   LaMnCo(Sb6Os)2
_chemical_formula_sum   'La1 Mn1 Co1 Sb12 Os2'
_cell_volume   407.10559306
_cell_formula_units_Z   1
loop_
 _symmetry_equiv_pos_site_id
 _symmetry_equiv_pos_as_xyz
  1  'x, y, z'
loop_
 _atom_site_type_symbol
 _atom_site_label
 _atom_site_symmetry_multiplicity
 _atom_site_fract_x
 _atom_site_fract_y
 _atom_site_fract_z
 _atom_site_occupancy
  La  La0  1  0.000000  0.000000  0.000000  1
  Mn  Mn1  1  0.000000  0.500000  0.000000  1
  Co  Co2  1  0.500000  0.500000  0.500000  1
  Sb  Sb3  1  0.340978  0.184172  0.842786  1
  Sb  Sb4  1  0.659022  0.815828  0.157214  1
  Sb  Sb5  1  0.664361  0.504982  0.837899  1
  Sb  Sb6  1  0.335639  0.495018  0.162101  1
  Sb  Sb7  1  0.178174  0.836886  0.334143  1
  Sb  Sb8  1  0.821826  0.163114  0.665857  1
  Sb  Sb9  1  0.503307  0.835628  0.657930  1
  Sb  Sb10  1  0.496693  0.164372  0.342070  1
  Sb  Sb11  1  0.844617  0.340859  0.178589  1
  Sb  Sb12  1  0.155383  0.659141  0.821411  1
  Sb  Sb13  1  0.835978  0.657945  0.503726  1
  Sb  Sb14  1  0.164022  0.342055  0.496274  1
  Os  Os15  1  0.000000  0.000000  0.500000  1
  Os  Os16  1  0.500000  0.000000  0.000000  1
