# generated using pymatgen
data_Th2CuIr6
_symmetry_space_group_name_H-M   'P 1'
_cell_length_a   5.38388895
_cell_length_b   5.38388944
_cell_length_c   13.33547818
_cell_angle_alpha   78.35404539
_cell_angle_beta   78.35405702
_cell_angle_gamma   60.00000925
_symmetry_Int_Tables_number   1
_chemical_formula_structural   Th2CuIr6
_chemical_formula_sum   'Th4 Cu2 Ir12'
_cell_volume   325.53739502
_cell_formula_units_Z   2
loop_
 _symmetry_equiv_pos_site_id
 _symmetry_equiv_pos_as_xyz
  1  'x, y, z'
loop_
 _atom_site_type_symbol
 _atom_site_label
 _atom_site_symmetry_multiplicity
 _atom_site_fract_x
 _atom_site_fract_y
 _atom_site_fract_z
 _atom_site_occupancy
  Th  Th0  1  0.950023  0.950023  0.149933  1
  Th  Th1  1  0.049977  0.049977  0.850067  1
  Th  Th2  1  0.853647  0.853647  0.439059  1
  Th  Th3  1  0.146353  0.146353  0.560941  1
  Cu  Cu4  1  0.721089  0.721089  0.836732  1
  Cu  Cu5  1  0.278911  0.278911  0.163268  1
  Ir  Ir6  1  0.500000  0.500000  0.500000  1
  Ir  Ir7  1  0.611274  0.611274  0.166178  1
  Ir  Ir8  1  0.388726  0.388726  0.833822  1
  Ir  Ir9  1  0.000000  0.500000  0.000000  1
  Ir  Ir10  1  0.500000  0.000000  0.000000  1
  Ir  Ir11  1  0.500000  0.500000  0.000000  1
  Ir  Ir12  1  0.386981  0.386981  0.330016  1
  Ir  Ir13  1  0.896022  0.386981  0.330016  1
  Ir  Ir14  1  0.386981  0.896022  0.330016  1
  Ir  Ir15  1  0.613019  0.613019  0.669984  1
  Ir  Ir16  1  0.103978  0.613019  0.669984  1
  Ir  Ir17  1  0.613019  0.103978  0.669984  1
