# generated using pymatgen
data_Ho6Er2Sc11Si16Tc
_symmetry_space_group_name_H-M   'P 1'
_cell_length_a   6.99835606
_cell_length_b   7.33359701
_cell_length_c   13.84880919
_cell_angle_alpha   89.98268305
_cell_angle_beta   90.00756482
_cell_angle_gamma   90.14973180
_symmetry_Int_Tables_number   1
_chemical_formula_structural   Ho6Er2Sc11Si16Tc
_chemical_formula_sum   'Ho6 Er2 Sc11 Si16 Tc1'
_cell_volume   710.76167242
_cell_formula_units_Z   1
loop_
 _symmetry_equiv_pos_site_id
 _symmetry_equiv_pos_as_xyz
  1  'x, y, z'
loop_
 _atom_site_type_symbol
 _atom_site_label
 _atom_site_symmetry_multiplicity
 _atom_site_fract_x
 _atom_site_fract_y
 _atom_site_fract_z
 _atom_site_occupancy
  Ho  Ho0  1  0.012954  0.178336  0.093201  1
  Ho  Ho1  1  0.992003  0.818104  0.900696  1
  Ho  Ho2  1  0.487214  0.672742  0.902641  1
  Ho  Ho3  1  0.991988  0.818090  0.599238  1
  Ho  Ho4  1  0.512488  0.322985  0.095281  1
  Ho  Ho5  1  0.012969  0.178347  0.406845  1
  Er  Er6  1  0.512518  0.322820  0.404660  1
  Er  Er7  1  0.487098  0.672773  0.597446  1
  Sc  Sc8  1  0.843201  0.496410  0.250037  1
  Sc  Sc9  1  0.343773  0.004230  0.250045  1
  Sc  Sc10  1  0.655179  0.994867  0.749956  1
  Sc  Sc11  1  0.324481  0.177928  0.627572  1
  Sc  Sc12  1  0.673377  0.824313  0.374382  1
  Sc  Sc13  1  0.173513  0.674037  0.376771  1
  Sc  Sc14  1  0.673410  0.824394  0.125691  1
  Sc  Sc15  1  0.826251  0.331173  0.628685  1
  Sc  Sc16  1  0.324396  0.177846  0.872377  1
  Sc  Sc17  1  0.826357  0.331147  0.871238  1
  Sc  Sc18  1  0.173455  0.674095  0.123296  1
  Si  Si19  1  0.027006  0.117568  0.749974  1
  Si  Si20  1  0.974630  0.887022  0.250019  1
  Si  Si21  1  0.470549  0.614938  0.250072  1
  Si  Si22  1  0.516528  0.395711  0.749905  1
  Si  Si23  1  0.284062  0.859915  0.749886  1
  Si  Si24  1  0.718594  0.130936  0.250102  1
  Si  Si25  1  0.216313  0.370180  0.250095  1
  Si  Si26  1  0.792395  0.630209  0.749918  1
  Si  Si27  1  0.155726  0.466605  0.548081  1
  Si  Si28  1  0.842383  0.535452  0.463250  1
  Si  Si29  1  0.346062  0.965188  0.462900  1
  Si  Si30  1  0.842753  0.535599  0.036726  1
  Si  Si31  1  0.657661  0.034382  0.539996  1
  Si  Si32  1  0.155379  0.466449  0.951964  1
  Si  Si33  1  0.657754  0.034426  0.959989  1
  Si  Si34  1  0.345928  0.965156  0.037114  1
  Tc  Tc35  1  0.149653  0.495631  0.749950  1
