# generated using pymatgen
data_Y5In2SnSe
_symmetry_space_group_name_H-M   'P 1'
_cell_length_a   9.15656682
_cell_length_b   9.15656760
_cell_length_c   6.82679700
_cell_angle_alpha   90.00000000
_cell_angle_beta   90.00000000
_cell_angle_gamma   120.19173203
_symmetry_Int_Tables_number   1
_chemical_formula_structural   Y5In2SnSe
_chemical_formula_sum   'Y10 In4 Sn2 Se2'
_cell_volume   494.73277694
_cell_formula_units_Z   2
loop_
 _symmetry_equiv_pos_site_id
 _symmetry_equiv_pos_as_xyz
  1  'x, y, z'
loop_
 _atom_site_type_symbol
 _atom_site_label
 _atom_site_symmetry_multiplicity
 _atom_site_fract_x
 _atom_site_fract_y
 _atom_site_fract_z
 _atom_site_occupancy
  Y  Y0  1  0.667672  0.332329  0.997503  1
  Y  Y1  1  0.332329  0.667672  0.997503  1
  Y  Y2  1  0.332329  0.667672  0.502497  1
  Y  Y3  1  0.667672  0.332329  0.502497  1
  Y  Y4  1  0.750225  0.750225  0.750000  1
  Y  Y5  1  0.251101  0.998303  0.750000  1
  Y  Y6  1  0.998303  0.251101  0.750000  1
  Y  Y7  1  0.247410  0.247410  0.250000  1
  Y  Y8  1  0.749263  0.000669  0.250000  1
  Y  Y9  1  0.000669  0.749263  0.250000  1
  In  In10  1  0.402637  0.402637  0.750000  1
  In  In11  1  0.600490  0.000795  0.750000  1
  In  In12  1  0.000795  0.600490  0.750000  1
  In  In13  1  0.599222  0.599222  0.250000  1
  Sn  Sn14  1  0.399522  0.000376  0.250000  1
  Sn  Sn15  1  0.000376  0.399522  0.250000  1
  Se  Se16  1  0.999992  0.999992  0.001113  1
  Se  Se17  1  0.999992  0.999992  0.498887  1
