# generated using pymatgen
data_Zr2Co12SiAsP5
_symmetry_space_group_name_H-M   'P 1'
_cell_length_a   9.04899303
_cell_length_b   9.04101586
_cell_length_c   3.56172800
_cell_angle_alpha   90.00000000
_cell_angle_beta   90.00000000
_cell_angle_gamma   120.21682150
_symmetry_Int_Tables_number   1
_chemical_formula_structural   Zr2Co12SiAsP5
_chemical_formula_sum   'Zr2 Co12 Si1 As1 P5'
_cell_volume   251.80007305
_cell_formula_units_Z   1
loop_
 _symmetry_equiv_pos_site_id
 _symmetry_equiv_pos_as_xyz
  1  'x, y, z'
loop_
 _atom_site_type_symbol
 _atom_site_label
 _atom_site_symmetry_multiplicity
 _atom_site_fract_x
 _atom_site_fract_y
 _atom_site_fract_z
 _atom_site_occupancy
  Zr  Zr0  1  0.334472  0.666365  0.000000  1
  Zr  Zr1  1  0.667633  0.333246  0.500000  1
  Co  Co2  1  0.439457  0.057147  0.000000  1
  Co  Co3  1  0.934809  0.376893  0.000000  1
  Co  Co4  1  0.628271  0.565436  0.000000  1
  Co  Co5  1  0.384346  0.443637  0.500000  1
  Co  Co6  1  0.559537  0.943132  0.500000  1
  Co  Co7  1  0.054957  0.613856  0.500000  1
  Co  Co8  1  0.155698  0.285880  0.000000  1
  Co  Co9  1  0.716402  0.878091  0.000000  1
  Co  Co10  1  0.124817  0.836976  0.000000  1
  Co  Co11  1  0.246889  0.105288  0.500000  1
  Co  Co12  1  0.888334  0.143361  0.500000  1
  Co  Co13  1  0.861491  0.751664  0.500000  1
  Si  Si14  1  0.408103  0.291039  0.000000  1
  As  As15  1  0.002379  0.000112  0.000000  1
  P  P16  1  0.116648  0.408581  0.500000  1
  P  P17  1  0.594238  0.709093  0.500000  1
  P  P18  1  0.291874  0.883022  0.500000  1
  P  P19  1  0.706557  0.116726  0.000000  1
  P  P20  1  0.883083  0.590455  0.000000  1
