# generated using pymatgen
data_Y3Tm(Tc3Os)2
_symmetry_space_group_name_H-M   'P 1'
_cell_length_a   5.29356500
_cell_length_b   5.29356323
_cell_length_c   9.08043500
_cell_angle_alpha   89.99989017
_cell_angle_beta   90.00011091
_cell_angle_gamma   119.99396484
_symmetry_Int_Tables_number   1
_chemical_formula_structural   Y3Tm(Tc3Os)2
_chemical_formula_sum   'Y3 Tm1 Tc6 Os2'
_cell_volume   220.37384490
_cell_formula_units_Z   1
loop_
 _symmetry_equiv_pos_site_id
 _symmetry_equiv_pos_as_xyz
  1  'x, y, z'
loop_
 _atom_site_type_symbol
 _atom_site_label
 _atom_site_symmetry_multiplicity
 _atom_site_fract_x
 _atom_site_fract_y
 _atom_site_fract_z
 _atom_site_occupancy
  Y  Y0  1  0.666679  0.333321  0.563268  1
  Y  Y1  1  0.333322  0.666678  0.437144  1
  Y  Y2  1  0.333322  0.666678  0.062477  1
  Tm  Tm3  1  0.666681  0.333319  0.936878  1
  Tc  Tc4  1  0.170276  0.340519  0.750832  1
  Tc  Tc5  1  0.170266  0.829734  0.750836  1
  Tc  Tc6  1  0.659481  0.829724  0.750832  1
  Tc  Tc7  1  0.829517  0.659062  0.249385  1
  Tc  Tc8  1  0.829525  0.170475  0.249386  1
  Tc  Tc9  1  0.340938  0.170483  0.249385  1
  Os  Os10  1  0.999998  0.000002  0.499871  1
  Os  Os11  1  0.999997  0.000003  0.999706  1
