# generated using pymatgen
data_Dy2TmIn3CuPt2
_symmetry_space_group_name_H-M   'P 1'
_cell_length_a   7.70753543
_cell_length_b   7.74247112
_cell_length_c   3.73057900
_cell_angle_alpha   90.00000000
_cell_angle_beta   90.00000000
_cell_angle_gamma   120.15005278
_symmetry_Int_Tables_number   1
_chemical_formula_structural   Dy2TmIn3CuPt2
_chemical_formula_sum   'Dy2 Tm1 In3 Cu1 Pt2'
_cell_volume   192.50558872
_cell_formula_units_Z   1
loop_
 _symmetry_equiv_pos_site_id
 _symmetry_equiv_pos_as_xyz
  1  'x, y, z'
loop_
 _atom_site_type_symbol
 _atom_site_label
 _atom_site_symmetry_multiplicity
 _atom_site_fract_x
 _atom_site_fract_y
 _atom_site_fract_z
 _atom_site_occupancy
  Dy  Dy0  1  0.412977  0.412342  0.500000  1
  Dy  Dy1  1  0.587023  0.999365  0.500000  1
  Tm  Tm2  1  0.000000  0.586868  0.500000  1
  In  In3  1  0.000000  0.255482  0.000000  1
  In  In4  1  0.746725  0.745325  0.000000  1
  In  In5  1  0.253275  0.998600  0.000000  1
  Cu  Cu6  1  0.000000  0.001352  0.500000  1
  Pt  Pt7  1  0.669653  0.335159  0.000000  1
  Pt  Pt8  1  0.330347  0.665507  0.000000  1
