# generated using pymatgen
data_Mn6ZnSi5Ru12
_symmetry_space_group_name_H-M   'P 1'
_cell_length_a   4.19028700
_cell_length_b   5.94224900
_cell_length_c   12.55548200
_cell_angle_alpha   90.00001879
_cell_angle_beta   89.99839011
_cell_angle_gamma   90.00275020
_symmetry_Int_Tables_number   1
_chemical_formula_structural   Mn6ZnSi5Ru12
_chemical_formula_sum   'Mn6 Zn1 Si5 Ru12'
_cell_volume   312.62809570
_cell_formula_units_Z   1
loop_
 _symmetry_equiv_pos_site_id
 _symmetry_equiv_pos_as_xyz
  1  'x, y, z'
loop_
 _atom_site_type_symbol
 _atom_site_label
 _atom_site_symmetry_multiplicity
 _atom_site_fract_x
 _atom_site_fract_y
 _atom_site_fract_z
 _atom_site_occupancy
  Mn  Mn0  1  0.000000  0.500000  0.000000  1
  Mn  Mn1  1  0.499873  0.000042  0.162895  1
  Mn  Mn2  1  0.999812  0.500003  0.334409  1
  Mn  Mn3  1  0.500000  0.000000  0.500000  1
  Mn  Mn4  1  0.000188  0.499997  0.665591  1
  Mn  Mn5  1  0.500127  0.999958  0.837105  1
  Zn  Zn6  1  0.000000  0.000000  0.000000  1
  Si  Si7  1  0.499828  0.499997  0.167669  1
  Si  Si8  1  0.999827  0.000003  0.332995  1
  Si  Si9  1  0.500000  0.500000  0.500000  1
  Si  Si10  1  0.000173  0.999997  0.667006  1
  Si  Si11  1  0.500172  0.500003  0.832331  1
  Ru  Ru12  1  0.499999  0.259840  0.000002  1
  Ru  Ru13  1  0.500001  0.740160  0.999998  1
  Ru  Ru14  1  0.999857  0.256057  0.171171  1
  Ru  Ru15  1  0.999858  0.743932  0.171170  1
  Ru  Ru16  1  0.499865  0.248101  0.334138  1
  Ru  Ru17  1  0.499845  0.751901  0.334140  1
  Ru  Ru18  1  0.000000  0.248825  0.500000  1
  Ru  Ru19  1  0.000000  0.751175  0.500000  1
  Ru  Ru20  1  0.500155  0.248099  0.665859  1
  Ru  Ru21  1  0.500135  0.751899  0.665861  1
  Ru  Ru22  1  0.000142  0.256068  0.828830  1
  Ru  Ru23  1  0.000143  0.743943  0.828829  1
