# generated using pymatgen
data_Pr7PSe7
_symmetry_space_group_name_H-M   'P 1'
_cell_length_a   8.46496600
_cell_length_b   8.46496639
_cell_length_c   8.46496600
_cell_angle_alpha   120.00000629
_cell_angle_beta   90.00000000
_cell_angle_gamma   120.00000629
_symmetry_Int_Tables_number   1
_chemical_formula_structural   Pr7PSe7
_chemical_formula_sum   'Pr7 P1 Se7'
_cell_volume   428.90449123
_cell_formula_units_Z   1
loop_
 _symmetry_equiv_pos_site_id
 _symmetry_equiv_pos_as_xyz
  1  'x, y, z'
loop_
 _atom_site_type_symbol
 _atom_site_label
 _atom_site_symmetry_multiplicity
 _atom_site_fract_x
 _atom_site_fract_y
 _atom_site_fract_z
 _atom_site_occupancy
  Pr  Pr0  1  0.242544  0.000000  0.242544  1
  Pr  Pr1  1  0.242544  0.485086  0.242544  1
  Pr  Pr2  1  0.757456  0.000000  0.242545  1
  Pr  Pr3  1  0.250001  0.500001  0.750002  1
  Pr  Pr4  1  0.242545  0.000000  0.757456  1
  Pr  Pr5  1  0.757456  0.000000  0.757456  1
  Pr  Pr6  1  0.757456  0.514913  0.757456  1
  P  P7  1  0.000000  0.000000  0.000000  1
  Se  Se8  1  0.500000  0.000000  0.500000  1
  Se  Se9  1  0.998428  0.996856  0.498430  1
  Se  Se10  1  0.998428  0.500001  0.498430  1
  Se  Se11  1  0.501573  0.500001  0.498430  1
  Se  Se12  1  0.998430  0.500001  0.001572  1
  Se  Se13  1  0.501571  0.500001  0.001572  1
  Se  Se14  1  0.501571  0.003143  0.001572  1
