# generated using pymatgen
data_CeErAl20FeRh3
_symmetry_space_group_name_H-M   'P 1'
_cell_length_a   6.82837523
_cell_length_b   6.83629090
_cell_length_c   9.12247512
_cell_angle_alpha   90.15664874
_cell_angle_beta   90.02095707
_cell_angle_gamma   97.33622544
_symmetry_Int_Tables_number   1
_chemical_formula_structural   CeErAl20FeRh3
_chemical_formula_sum   'Ce1 Er1 Al20 Fe1 Rh3'
_cell_volume   422.35637948
_cell_formula_units_Z   1
loop_
 _symmetry_equiv_pos_site_id
 _symmetry_equiv_pos_as_xyz
  1  'x, y, z'
loop_
 _atom_site_type_symbol
 _atom_site_label
 _atom_site_symmetry_multiplicity
 _atom_site_fract_x
 _atom_site_fract_y
 _atom_site_fract_z
 _atom_site_occupancy
  Ce  Ce0  1  0.123945  0.879437  0.251491  1
  Er  Er1  1  0.869540  0.127078  0.749064  1
  Al  Al2  1  0.412962  0.137793  0.745313  1
  Al  Al3  1  0.139833  0.403811  0.250730  1
  Al  Al4  1  0.593503  0.863173  0.254551  1
  Al  Al5  1  0.858612  0.589956  0.749017  1
  Al  Al6  1  0.520290  0.776890  0.744039  1
  Al  Al7  1  0.773213  0.520794  0.250890  1
  Al  Al8  1  0.481113  0.223813  0.256335  1
  Al  Al9  1  0.226437  0.477967  0.749120  1
  Al  Al10  1  0.838096  0.154263  0.401180  1
  Al  Al11  1  0.161231  0.846355  0.601947  1
  Al  Al12  1  0.842937  0.157323  0.102137  1
  Al  Al13  1  0.155989  0.843640  0.895062  1
  Al  Al14  1  0.620857  0.377893  0.946450  1
  Al  Al15  1  0.379752  0.621567  0.052367  1
  Al  Al16  1  0.619493  0.372114  0.550117  1
  Al  Al17  1  0.381439  0.627078  0.451117  1
  Al  Al18  1  0.777602  0.779045  0.999618  1
  Al  Al19  1  0.774292  0.783591  0.504019  1
  Al  Al20  1  0.222005  0.221512  0.997233  1
  Al  Al21  1  0.225508  0.218076  0.499806  1
  Fe  Fe22  1  0.499205  0.998683  0.500620  1
  Rh  Rh23  1  0.500612  0.999211  0.998008  1
  Rh  Rh24  1  0.000838  0.499667  0.998163  1
  Rh  Rh25  1  0.000697  0.499271  0.501607  1
