# generated using pymatgen
data_Na6Th2TeBr18
_symmetry_space_group_name_H-M   'P 1'
_cell_length_a   12.74712500
_cell_length_b   12.74712555
_cell_length_c   6.73838500
_cell_angle_alpha   90.00000000
_cell_angle_beta   90.00000000
_cell_angle_gamma   119.99999598
_symmetry_Int_Tables_number   1
_chemical_formula_structural   Na6Th2TeBr18
_chemical_formula_sum   'Na6 Th2 Te1 Br18'
_cell_volume   948.22407606
_cell_formula_units_Z   1
loop_
 _symmetry_equiv_pos_site_id
 _symmetry_equiv_pos_as_xyz
  1  'x, y, z'
loop_
 _atom_site_type_symbol
 _atom_site_label
 _atom_site_symmetry_multiplicity
 _atom_site_fract_x
 _atom_site_fract_y
 _atom_site_fract_z
 _atom_site_occupancy
  Na  Na0  1  0.000000  0.335159  0.000000  1
  Na  Na1  1  0.664841  0.664841  0.000000  1
  Na  Na2  1  0.335159  0.000000  0.000000  1
  Na  Na3  1  0.000000  0.664841  0.000000  1
  Na  Na4  1  0.335159  0.335159  0.000000  1
  Na  Na5  1  0.664841  0.000000  0.000000  1
  Th  Th6  1  0.333333  0.666667  0.495063  1
  Th  Th7  1  0.666667  0.333333  0.504937  1
  Te  Te8  1  0.000000  0.000000  0.000000  1
  Br  Br9  1  0.439264  0.560736  0.249050  1
  Br  Br10  1  0.773430  0.226570  0.267623  1
  Br  Br11  1  0.226570  0.773430  0.732377  1
  Br  Br12  1  0.773430  0.546860  0.267623  1
  Br  Br13  1  0.205356  0.102678  0.770079  1
  Br  Br14  1  0.453140  0.226570  0.267623  1
  Br  Br15  1  0.546860  0.773430  0.732377  1
  Br  Br16  1  0.897322  0.794644  0.770079  1
  Br  Br17  1  0.560736  0.439264  0.750950  1
  Br  Br18  1  0.560736  0.121473  0.750950  1
  Br  Br19  1  0.878527  0.439264  0.750950  1
  Br  Br20  1  0.121473  0.560736  0.249050  1
  Br  Br21  1  0.439264  0.878527  0.249050  1
  Br  Br22  1  0.226570  0.453140  0.732377  1
  Br  Br23  1  0.102678  0.205356  0.229921  1
  Br  Br24  1  0.102678  0.897322  0.229921  1
  Br  Br25  1  0.794644  0.897322  0.229921  1
  Br  Br26  1  0.897322  0.102678  0.770079  1
