# generated using pymatgen
data_Th2Ga12Pt
_symmetry_space_group_name_H-M   'P 1'
_cell_length_a   6.19002900
_cell_length_b   6.19002900
_cell_length_c   15.59670400
_cell_angle_alpha   90.00000000
_cell_angle_beta   90.00000000
_cell_angle_gamma   90.00000000
_symmetry_Int_Tables_number   1
_chemical_formula_structural   Th2Ga12Pt
_chemical_formula_sum   'Th4 Ga24 Pt2'
_cell_volume   597.61046968
_cell_formula_units_Z   2
loop_
 _symmetry_equiv_pos_site_id
 _symmetry_equiv_pos_as_xyz
  1  'x, y, z'
loop_
 _atom_site_type_symbol
 _atom_site_label
 _atom_site_symmetry_multiplicity
 _atom_site_fract_x
 _atom_site_fract_y
 _atom_site_fract_z
 _atom_site_occupancy
  Th  Th0  1  0.750000  0.250000  0.244818  1
  Th  Th1  1  0.250000  0.750000  0.244818  1
  Th  Th2  1  0.250000  0.750000  0.755182  1
  Th  Th3  1  0.750000  0.250000  0.755182  1
  Ga  Ga4  1  0.250000  0.250000  0.186086  1
  Ga  Ga5  1  0.750000  0.750000  0.186086  1
  Ga  Ga6  1  0.750000  0.750000  0.813914  1
  Ga  Ga7  1  0.250000  0.250000  0.813914  1
  Ga  Ga8  1  0.250000  0.250000  0.343403  1
  Ga  Ga9  1  0.750000  0.750000  0.343403  1
  Ga  Ga10  1  0.750000  0.750000  0.656597  1
  Ga  Ga11  1  0.250000  0.250000  0.656597  1
  Ga  Ga12  1  0.500317  0.000317  0.910728  1
  Ga  Ga13  1  0.000317  0.999683  0.910728  1
  Ga  Ga14  1  0.499683  0.500317  0.910728  1
  Ga  Ga15  1  0.999683  0.499683  0.910728  1
  Ga  Ga16  1  0.499683  0.999683  0.089272  1
  Ga  Ga17  1  0.999683  0.000317  0.089272  1
  Ga  Ga18  1  0.500317  0.499683  0.089272  1
  Ga  Ga19  1  0.000317  0.500317  0.089272  1
  Ga  Ga20  1  0.577839  0.077839  0.429127  1
  Ga  Ga21  1  0.077839  0.922161  0.429127  1
  Ga  Ga22  1  0.422161  0.577839  0.429127  1
  Ga  Ga23  1  0.922161  0.422161  0.429127  1
  Ga  Ga24  1  0.422161  0.922161  0.570873  1
  Ga  Ga25  1  0.922161  0.077839  0.570873  1
  Ga  Ga26  1  0.577839  0.422161  0.570873  1
  Ga  Ga27  1  0.077839  0.577839  0.570873  1
  Pt  Pt28  1  0.750000  0.250000  0.000000  1
  Pt  Pt29  1  0.250000  0.750000  0.000000  1
