# generated using pymatgen
data_Cs4Mn3CuS8
_symmetry_space_group_name_H-M   'P 1'
_cell_length_a   5.40463499
_cell_length_b   7.32328715
_cell_length_c   12.45966609
_cell_angle_alpha   88.34414152
_cell_angle_beta   83.48741611
_cell_angle_gamma   79.62352891
_symmetry_Int_Tables_number   1
_chemical_formula_structural   Cs4Mn3CuS8
_chemical_formula_sum   'Cs4 Mn3 Cu1 S8'
_cell_volume   481.93620795
_cell_formula_units_Z   1
loop_
 _symmetry_equiv_pos_site_id
 _symmetry_equiv_pos_as_xyz
  1  'x, y, z'
loop_
 _atom_site_type_symbol
 _atom_site_label
 _atom_site_symmetry_multiplicity
 _atom_site_fract_x
 _atom_site_fract_y
 _atom_site_fract_z
 _atom_site_occupancy
  Cs  Cs0  1  0.067145  0.029313  0.676958  1
  Cs  Cs1  1  0.581104  0.527225  0.174750  1
  Cs  Cs2  1  0.432380  0.470648  0.824140  1
  Cs  Cs3  1  0.920609  0.970801  0.323308  1
  Mn  Mn4  1  0.250424  0.499294  0.499720  1
  Mn  Mn5  1  0.749131  0.501575  0.500324  1
  Mn  Mn6  1  0.249502  0.001619  0.000542  1
  Cu  Cu7  1  0.750654  0.997131  0.999328  1
  S  S8  1  0.952074  0.558819  0.635124  1
  S  S9  1  0.429317  0.061969  0.136294  1
  S  S10  1  0.972980  0.234368  0.962049  1
  S  S11  1  0.451544  0.732301  0.462249  1
  S  S12  1  0.526308  0.939511  0.863562  1
  S  S13  1  0.048166  0.441546  0.364964  1
  S  S14  1  0.547373  0.268439  0.537792  1
  S  S15  1  0.071288  0.765439  0.038894  1
