# generated using pymatgen
data_Sr14NdSb11
_symmetry_space_group_name_H-M   'P 1'
_cell_length_a   17.47725707
_cell_length_b   17.47725751
_cell_length_c   17.47725700
_cell_angle_alpha   93.91138331
_cell_angle_beta   117.76805034
_cell_angle_gamma   117.76804455
_symmetry_Int_Tables_number   1
_chemical_formula_structural   Sr14NdSb11
_chemical_formula_sum   'Sr56 Nd4 Sb44'
_cell_volume   3892.43255551
_cell_formula_units_Z   4
loop_
 _symmetry_equiv_pos_site_id
 _symmetry_equiv_pos_as_xyz
  1  'x, y, z'
loop_
 _atom_site_type_symbol
 _atom_site_label
 _atom_site_symmetry_multiplicity
 _atom_site_fract_x
 _atom_site_fract_y
 _atom_site_fract_z
 _atom_site_occupancy
  Sr  Sr0  1  0.229886  0.978503  0.068168  1
  Sr  Sr1  1  0.729886  0.568168  0.478503  1
  Sr  Sr2  1  0.618121  0.402230  0.871568  1
  Sr  Sr3  1  0.144897  0.750000  0.894897  1
  Sr  Sr4  1  0.355103  0.250000  0.605103  1
  Sr  Sr5  1  0.270114  0.338282  0.748617  1
  Sr  Sr6  1  0.881879  0.628432  0.097770  1
  Sr  Sr7  1  0.910334  0.478503  0.248617  1
  Sr  Sr8  1  0.410334  0.748617  0.978503  1
  Sr  Sr9  1  0.645752  0.109734  0.518352  1
  Sr  Sr10  1  0.408618  0.518352  0.372601  1
  Sr  Sr11  1  0.854248  0.981648  0.390266  1
  Sr  Sr12  1  0.381879  0.597770  0.128432  1
  Sr  Sr13  1  0.729886  0.661718  0.251383  1
  Sr  Sr14  1  0.410334  0.161718  0.431832  1
  Sr  Sr15  1  0.469339  0.097770  0.715890  1
  Sr  Sr16  1  0.645752  0.036017  0.127399  1
  Sr  Sr17  1  0.145752  0.018352  0.609734  1
  Sr  Sr18  1  0.089666  0.521497  0.751383  1
  Sr  Sr19  1  0.354248  0.963983  0.872601  1
  Sr  Sr20  1  0.855103  0.105103  0.750000  1
  Sr  Sr21  1  0.089666  0.068168  0.338282  1
  Sr  Sr22  1  0.969339  0.253447  0.371568  1
  Sr  Sr23  1  0.408618  0.390266  0.036017  1
  Sr  Sr24  1  0.910334  0.931832  0.661718  1
  Sr  Sr25  1  0.229886  0.751383  0.161718  1
  Sr  Sr26  1  0.469339  0.871568  0.753447  1
  Sr  Sr27  1  0.091382  0.127399  0.981648  1
  Sr  Sr28  1  0.270114  0.431832  0.521497  1
  Sr  Sr29  1  0.644897  0.394897  0.250000  1
  Sr  Sr30  1  0.381879  0.284110  0.253447  1
  Sr  Sr31  1  0.030661  0.784110  0.402230  1
  Sr  Sr32  1  0.591382  0.609734  0.963983  1
  Sr  Sr33  1  0.969339  0.215890  0.597770  1
  Sr  Sr34  1  0.091382  0.463983  0.109734  1
  Sr  Sr35  1  0.118121  0.246553  0.215890  1
  Sr  Sr36  1  0.770114  0.248617  0.838282  1
  Sr  Sr37  1  0.144897  0.894897  0.250000  1
  Sr  Sr38  1  0.530661  0.902230  0.284110  1
  Sr  Sr39  1  0.118121  0.371568  0.902230  1
  Sr  Sr40  1  0.908618  0.536017  0.890266  1
  Sr  Sr41  1  0.644897  0.750000  0.394897  1
  Sr  Sr42  1  0.908618  0.872601  0.018352  1
  Sr  Sr43  1  0.854248  0.372601  0.463983  1
  Sr  Sr44  1  0.355103  0.605103  0.750000  1
  Sr  Sr45  1  0.145752  0.627399  0.536017  1
  Sr  Sr46  1  0.589666  0.838282  0.568168  1
  Sr  Sr47  1  0.855103  0.250000  0.105103  1
  Sr  Sr48  1  0.591382  0.481648  0.627399  1
  Sr  Sr49  1  0.030661  0.746553  0.628432  1
  Sr  Sr50  1  0.530661  0.128432  0.246553  1
  Sr  Sr51  1  0.881879  0.753447  0.784110  1
  Sr  Sr52  1  0.589666  0.251383  0.021497  1
  Sr  Sr53  1  0.354248  0.890266  0.481648  1
  Sr  Sr54  1  0.618121  0.715890  0.746553  1
  Sr  Sr55  1  0.770114  0.021497  0.931832  1
  Nd  Nd56  1  0.250000  0.125000  0.875000  1
  Nd  Nd57  1  0.750000  0.375000  0.625000  1
  Nd  Nd58  1  0.750000  0.875000  0.125000  1
  Nd  Nd59  1  0.250000  0.625000  0.375000  1
  Sb  Sb60  1  0.343187  0.521387  0.915820  1
  Sb  Sb61  1  0.886902  0.084972  0.187048  1
  Sb  Sb62  1  0.656813  0.478613  0.084180  1
  Sb  Sb63  1  0.613098  0.312952  0.415028  1
  Sb  Sb64  1  0.105566  0.178200  0.521387  1
  Sb  Sb65  1  0.102077  0.187048  0.800146  1
  Sb  Sb66  1  0.517090  0.508545  0.258545  1
  Sb  Sb67  1  0.105566  0.427366  0.584180  1
  Sb  Sb68  1  0.750000  0.125000  0.375000  1
  Sb  Sb69  1  0.602077  0.300146  0.687048  1
  Sb  Sb70  1  0.397923  0.699854  0.312952  1
  Sb  Sb71  1  0.394434  0.915820  0.072634  1
  Sb  Sb72  1  0.386902  0.199854  0.801930  1
  Sb  Sb73  1  0.894434  0.821800  0.478613  1
  Sb  Sb74  1  0.250000  0.375000  0.125000  1
  Sb  Sb75  1  0.250000  0.741455  0.758545  1
  Sb  Sb76  1  0.113098  0.698070  0.300146  1
  Sb  Sb77  1  0.613098  0.800146  0.198070  1
  Sb  Sb78  1  0.102077  0.415028  0.301930  1
  Sb  Sb79  1  0.605566  0.084180  0.927366  1
  Sb  Sb80  1  0.897923  0.812952  0.199854  1
  Sb  Sb81  1  0.894434  0.572634  0.415820  1
  Sb  Sb82  1  0.250000  0.875000  0.625000  1
  Sb  Sb83  1  0.386902  0.687048  0.584972  1
  Sb  Sb84  1  0.017090  0.758545  0.008545  1
  Sb  Sb85  1  0.602077  0.801930  0.915028  1
  Sb  Sb86  1  0.156813  0.584180  0.978613  1
  Sb  Sb87  1  0.397923  0.198070  0.084972  1
  Sb  Sb88  1  0.843187  0.927366  0.821800  1
  Sb  Sb89  1  0.482910  0.491455  0.741455  1
  Sb  Sb90  1  0.982910  0.241455  0.991455  1
  Sb  Sb91  1  0.394434  0.978613  0.321800  1
  Sb  Sb92  1  0.750000  0.991455  0.508545  1
  Sb  Sb93  1  0.605566  0.021387  0.678200  1
  Sb  Sb94  1  0.113098  0.915028  0.812952  1
  Sb  Sb95  1  0.343187  0.321800  0.427366  1
  Sb  Sb96  1  0.156813  0.072634  0.178200  1
  Sb  Sb97  1  0.750000  0.258545  0.241455  1
  Sb  Sb98  1  0.750000  0.625000  0.875000  1
  Sb  Sb99  1  0.250000  0.008545  0.491455  1
  Sb  Sb100  1  0.897923  0.584972  0.698070  1
  Sb  Sb101  1  0.656813  0.678200  0.572634  1
  Sb  Sb102  1  0.886902  0.301930  0.699854  1
  Sb  Sb103  1  0.843187  0.415820  0.021387  1
