# generated using pymatgen
data_Nd8Si13Ir3
_symmetry_space_group_name_H-M   'P 1'
_cell_length_a   8.23850000
_cell_length_b   8.23850012
_cell_length_c   8.48911800
_cell_angle_alpha   90.00000000
_cell_angle_beta   90.00000000
_cell_angle_gamma   119.99999151
_symmetry_Int_Tables_number   1
_chemical_formula_structural   Nd8Si13Ir3
_chemical_formula_sum   'Nd8 Si13 Ir3'
_cell_volume   498.98735186
_cell_formula_units_Z   1
loop_
 _symmetry_equiv_pos_site_id
 _symmetry_equiv_pos_as_xyz
  1  'x, y, z'
loop_
 _atom_site_type_symbol
 _atom_site_label
 _atom_site_symmetry_multiplicity
 _atom_site_fract_x
 _atom_site_fract_y
 _atom_site_fract_z
 _atom_site_occupancy
  Nd  Nd0  1  0.499130  0.500870  0.752068  1
  Nd  Nd1  1  0.499783  0.500217  0.248058  1
  Nd  Nd2  1  0.001740  0.500870  0.752068  1
  Nd  Nd3  1  0.000433  0.500217  0.248058  1
  Nd  Nd4  1  0.499130  0.998260  0.752068  1
  Nd  Nd5  1  0.499783  0.999567  0.248058  1
  Nd  Nd6  1  0.000000  0.000000  0.750531  1
  Nd  Nd7  1  0.000000  0.000000  0.249256  1
  Si  Si8  1  0.832759  0.167241  0.999598  1
  Si  Si9  1  0.167272  0.832728  0.000009  1
  Si  Si10  1  0.334482  0.167241  0.999598  1
  Si  Si11  1  0.168990  0.831010  0.501390  1
  Si  Si12  1  0.665457  0.832728  0.000009  1
  Si  Si13  1  0.836046  0.163954  0.498807  1
  Si  Si14  1  0.832759  0.665518  0.999598  1
  Si  Si15  1  0.662021  0.831010  0.501390  1
  Si  Si16  1  0.167272  0.334543  0.000009  1
  Si  Si17  1  0.327908  0.163954  0.498807  1
  Si  Si18  1  0.168990  0.337979  0.501390  1
  Si  Si19  1  0.836046  0.672092  0.498807  1
  Si  Si20  1  0.666667  0.333333  0.501631  1
  Ir  Ir21  1  0.666667  0.333333  0.000845  1
  Ir  Ir22  1  0.333333  0.666667  0.000963  1
  Ir  Ir23  1  0.333333  0.666667  0.496987  1
