# generated using pymatgen
data_HoTh2Al9Si3Os4
_symmetry_space_group_name_H-M   'P 1'
_cell_length_a   8.84237200
_cell_length_b   8.81838874
_cell_length_c   9.49289600
_cell_angle_alpha   90.00000000
_cell_angle_beta   90.00000000
_cell_angle_gamma   120.19087644
_symmetry_Int_Tables_number   1
_chemical_formula_structural   HoTh2Al9Si3Os4
_chemical_formula_sum   'Ho2 Th4 Al18 Si6 Os8'
_cell_volume   639.80678003
_cell_formula_units_Z   2
loop_
 _symmetry_equiv_pos_site_id
 _symmetry_equiv_pos_as_xyz
  1  'x, y, z'
loop_
 _atom_site_type_symbol
 _atom_site_label
 _atom_site_symmetry_multiplicity
 _atom_site_fract_x
 _atom_site_fract_y
 _atom_site_fract_z
 _atom_site_occupancy
  Ho  Ho0  1  0.199225  0.803919  0.250000  1
  Ho  Ho1  1  0.800775  0.196081  0.750000  1
  Th  Th2  1  0.191250  0.383029  0.250000  1
  Th  Th3  1  0.808750  0.616971  0.750000  1
  Th  Th4  1  0.614577  0.808775  0.250000  1
  Th  Th5  1  0.385423  0.191225  0.750000  1
  Al  Al6  1  0.161319  0.327722  0.580609  1
  Al  Al7  1  0.838681  0.672278  0.419391  1
  Al  Al8  1  0.673114  0.838435  0.578634  1
  Al  Al9  1  0.838681  0.672278  0.080609  1
  Al  Al10  1  0.326886  0.161565  0.421366  1
  Al  Al11  1  0.161319  0.327722  0.919391  1
  Al  Al12  1  0.162897  0.835319  0.574283  1
  Al  Al13  1  0.326886  0.161565  0.078634  1
  Al  Al14  1  0.837103  0.164681  0.425717  1
  Al  Al15  1  0.673114  0.838435  0.921366  1
  Al  Al16  1  0.837103  0.164681  0.074283  1
  Al  Al17  1  0.162897  0.835319  0.925717  1
  Al  Al18  1  0.870530  0.432635  0.250000  1
  Al  Al19  1  0.129470  0.567365  0.750000  1
  Al  Al20  1  0.563695  0.429418  0.250000  1
  Al  Al21  1  0.436305  0.570582  0.750000  1
  Al  Al22  1  0.005688  0.991947  0.250000  1
  Al  Al23  1  0.994312  0.008053  0.750000  1
  Si  Si24  1  0.329966  0.665746  0.030854  1
  Si  Si25  1  0.670034  0.334254  0.969146  1
  Si  Si26  1  0.670034  0.334254  0.530854  1
  Si  Si27  1  0.329966  0.665746  0.469146  1
  Si  Si28  1  0.561162  0.125348  0.250000  1
  Si  Si29  1  0.438838  0.874652  0.750000  1
  Os  Os30  1  0.500000  0.000000  0.000000  1
  Os  Os31  1  0.000000  0.500000  0.000000  1
  Os  Os32  1  0.500000  0.000000  0.500000  1
  Os  Os33  1  0.500000  0.500000  0.000000  1
  Os  Os34  1  0.000000  0.500000  0.500000  1
  Os  Os35  1  0.500000  0.500000  0.500000  1
  Os  Os36  1  0.000000  0.000000  0.000000  1
  Os  Os37  1  0.000000  0.000000  0.500000  1
