# generated using pymatgen
data_Ca3Ce2(SnBi)2
_symmetry_space_group_name_H-M   'P 1'
_cell_length_a   8.36962100
_cell_length_b   8.40954400
_cell_length_c   16.34458100
_cell_angle_alpha   90.00000000
_cell_angle_beta   90.00000000
_cell_angle_gamma   90.00000000
_symmetry_Int_Tables_number   1
_chemical_formula_structural   Ca3Ce2(SnBi)2
_chemical_formula_sum   'Ca12 Ce8 Sn8 Bi8'
_cell_volume   1150.40836596
_cell_formula_units_Z   4
loop_
 _symmetry_equiv_pos_site_id
 _symmetry_equiv_pos_as_xyz
  1  'x, y, z'
loop_
 _atom_site_type_symbol
 _atom_site_label
 _atom_site_symmetry_multiplicity
 _atom_site_fract_x
 _atom_site_fract_y
 _atom_site_fract_z
 _atom_site_occupancy
  Ca  Ca0  1  0.393761  0.834293  0.881648  1
  Ca  Ca1  1  0.893761  0.665707  0.618352  1
  Ca  Ca2  1  0.606239  0.165707  0.381648  1
  Ca  Ca3  1  0.106239  0.334293  0.118352  1
  Ca  Ca4  1  0.606239  0.165707  0.118352  1
  Ca  Ca5  1  0.106239  0.334293  0.381648  1
  Ca  Ca6  1  0.393761  0.834293  0.618352  1
  Ca  Ca7  1  0.893761  0.665707  0.881648  1
  Ca  Ca8  1  0.220011  0.506169  0.750000  1
  Ca  Ca9  1  0.720011  0.993831  0.750000  1
  Ca  Ca10  1  0.779989  0.493831  0.250000  1
  Ca  Ca11  1  0.279989  0.006169  0.250000  1
  Ce  Ce12  1  0.551069  0.326066  0.893897  1
  Ce  Ce13  1  0.051069  0.173934  0.606103  1
  Ce  Ce14  1  0.448931  0.673934  0.393897  1
  Ce  Ce15  1  0.948931  0.826066  0.106103  1
  Ce  Ce16  1  0.448931  0.673934  0.106103  1
  Ce  Ce17  1  0.948931  0.826066  0.393897  1
  Ce  Ce18  1  0.551069  0.326066  0.606103  1
  Ce  Ce19  1  0.051069  0.173934  0.893897  1
  Sn  Sn20  1  0.594319  0.611316  0.750000  1
  Sn  Sn21  1  0.094319  0.888684  0.750000  1
  Sn  Sn22  1  0.405681  0.388684  0.250000  1
  Sn  Sn23  1  0.905681  0.111316  0.250000  1
  Sn  Sn24  1  0.344434  0.136076  0.750000  1
  Sn  Sn25  1  0.844434  0.363924  0.750000  1
  Sn  Sn26  1  0.655566  0.863924  0.250000  1
  Sn  Sn27  1  0.155566  0.636076  0.250000  1
  Bi  Bi28  1  0.269598  0.019603  0.043812  1
  Bi  Bi29  1  0.769598  0.480397  0.456188  1
  Bi  Bi30  1  0.730402  0.980397  0.543812  1
  Bi  Bi31  1  0.230402  0.519603  0.956188  1
  Bi  Bi32  1  0.730402  0.980397  0.956188  1
  Bi  Bi33  1  0.230402  0.519603  0.543812  1
  Bi  Bi34  1  0.269598  0.019603  0.456188  1
  Bi  Bi35  1  0.769598  0.480397  0.043812  1
