# generated using pymatgen
data_Tb5TmSi24OsRu7
_symmetry_space_group_name_H-M   'P 1'
_cell_length_a   10.11809904
_cell_length_b   10.11809943
_cell_length_c   8.15670427
_cell_angle_alpha   90.00994401
_cell_angle_beta   90.00994244
_cell_angle_gamma   132.46376319
_symmetry_Int_Tables_number   1
_chemical_formula_structural   Tb5TmSi24OsRu7
_chemical_formula_sum   'Tb5 Tm1 Si24 Os1 Ru7'
_cell_volume   616.02020857
_cell_formula_units_Z   1
loop_
 _symmetry_equiv_pos_site_id
 _symmetry_equiv_pos_as_xyz
  1  'x, y, z'
loop_
 _atom_site_type_symbol
 _atom_site_label
 _atom_site_symmetry_multiplicity
 _atom_site_fract_x
 _atom_site_fract_y
 _atom_site_fract_z
 _atom_site_occupancy
  Tb  Tb0  1  0.000039  0.999961  0.000000  1
  Tb  Tb1  1  0.502384  0.002261  0.750006  1
  Tb  Tb2  1  0.997739  0.497616  0.249994  1
  Tb  Tb3  1  0.497736  0.997459  0.249856  1
  Tb  Tb4  1  0.002541  0.502264  0.750144  1
  Tm  Tm5  1  0.500003  0.499997  0.500000  1
  Si  Si6  1  0.795135  0.204865  0.500000  1
  Si  Si7  1  0.294817  0.705183  0.000000  1
  Si  Si8  1  0.205462  0.794538  0.500000  1
  Si  Si9  1  0.705312  0.294688  0.000000  1
  Si  Si10  1  0.332112  0.332381  0.833276  1
  Si  Si11  1  0.667619  0.667888  0.166724  1
  Si  Si12  1  0.167188  0.166996  0.332620  1
  Si  Si13  1  0.833004  0.832812  0.667380  1
  Si  Si14  1  0.121597  0.887446  0.728497  1
  Si  Si15  1  0.112554  0.878403  0.271503  1
  Si  Si16  1  0.611932  0.378343  0.227444  1
  Si  Si17  1  0.621657  0.388068  0.772556  1
  Si  Si18  1  0.877637  0.111625  0.270995  1
  Si  Si19  1  0.888375  0.122363  0.729005  1
  Si  Si20  1  0.387961  0.622109  0.771540  1
  Si  Si21  1  0.377891  0.612039  0.228460  1
  Si  Si22  1  0.344122  0.111164  0.505030  1
  Si  Si23  1  0.888836  0.655878  0.494970  1
  Si  Si24  1  0.387932  0.154390  0.004501  1
  Si  Si25  1  0.845610  0.612068  0.995499  1
  Si  Si26  1  0.653952  0.887503  0.493823  1
  Si  Si27  1  0.112497  0.346048  0.506177  1
  Si  Si28  1  0.611901  0.845384  0.995455  1
  Si  Si29  1  0.154616  0.388099  0.004545  1
  Os  Os30  1  0.668371  0.331629  0.500000  1
  Ru  Ru31  1  0.169090  0.830910  0.000000  1
  Ru  Ru32  1  0.331644  0.668356  0.500000  1
  Ru  Ru33  1  0.830920  0.169080  0.000000  1
  Ru  Ru34  1  0.127710  0.127953  0.625451  1
  Ru  Ru35  1  0.872047  0.872290  0.374549  1
  Ru  Ru36  1  0.375114  0.375052  0.128442  1
  Ru  Ru37  1  0.624948  0.624886  0.871558  1
