# generated using pymatgen
data_Dy5NiRuO12
_symmetry_space_group_name_H-M   'P 1'
_cell_length_a   6.80505105
_cell_length_b   6.80505086
_cell_length_c   7.29309401
_cell_angle_alpha   74.39913870
_cell_angle_beta   74.39913615
_cell_angle_gamma   51.11562074
_symmetry_Int_Tables_number   1
_chemical_formula_structural   Dy5NiRuO12
_chemical_formula_sum   'Dy5 Ni1 Ru1 O12'
_cell_volume   250.94386025
_cell_formula_units_Z   1
loop_
 _symmetry_equiv_pos_site_id
 _symmetry_equiv_pos_as_xyz
  1  'x, y, z'
loop_
 _atom_site_type_symbol
 _atom_site_label
 _atom_site_symmetry_multiplicity
 _atom_site_fract_x
 _atom_site_fract_y
 _atom_site_fract_z
 _atom_site_occupancy
  Dy  Dy0  1  0.313174  0.295100  0.358424  1
  Dy  Dy1  1  0.704900  0.686826  0.641576  1
  Dy  Dy2  1  0.311313  0.307586  0.830790  1
  Dy  Dy3  1  0.692414  0.688687  0.169210  1
  Dy  Dy4  1  0.003553  0.996447  0.500000  1
  Ni  Ni5  1  0.745940  0.254060  0.000000  1
  Ru  Ru6  1  0.233951  0.766049  0.000000  1
  O  O7  1  0.900533  0.427018  0.918214  1
  O  O8  1  0.427056  0.899515  0.917761  1
  O  O9  1  0.100485  0.572944  0.082239  1
  O  O10  1  0.572982  0.099467  0.081786  1
  O  O11  1  0.100581  0.594718  0.573821  1
  O  O12  1  0.600163  0.092946  0.576132  1
  O  O13  1  0.907054  0.399837  0.423868  1
  O  O14  1  0.405282  0.899419  0.426179  1
  O  O15  1  0.007603  0.993009  0.816698  1
  O  O16  1  0.006991  0.992397  0.183302  1
  O  O17  1  0.482883  0.516859  0.814100  1
  O  O18  1  0.483141  0.517117  0.185900  1
