# generated using pymatgen
data_Dy4Ga6Pt7
_symmetry_space_group_name_H-M   'P 1'
_cell_length_a   7.38586915
_cell_length_b   7.38587020
_cell_length_c   7.38586900
_cell_angle_alpha   109.47122284
_cell_angle_beta   109.47122570
_cell_angle_gamma   109.47121271
_symmetry_Int_Tables_number   1
_chemical_formula_structural   Dy4Ga6Pt7
_chemical_formula_sum   'Dy4 Ga6 Pt7'
_cell_volume   310.15800433
_cell_formula_units_Z   1
loop_
 _symmetry_equiv_pos_site_id
 _symmetry_equiv_pos_as_xyz
  1  'x, y, z'
loop_
 _atom_site_type_symbol
 _atom_site_label
 _atom_site_symmetry_multiplicity
 _atom_site_fract_x
 _atom_site_fract_y
 _atom_site_fract_z
 _atom_site_occupancy
  Dy  Dy0  1  0.000000  0.000000  0.500000  1
  Dy  Dy1  1  0.000000  0.500000  0.000000  1
  Dy  Dy2  1  0.500000  0.000000  0.000000  1
  Dy  Dy3  1  0.500000  0.500000  0.500000  1
  Ga  Ga4  1  0.681863  0.681863  0.000000  1
  Ga  Ga5  1  0.318137  0.000000  0.318137  1
  Ga  Ga6  1  0.000000  0.318137  0.318137  1
  Ga  Ga7  1  0.318137  0.318137  0.000000  1
  Ga  Ga8  1  0.681863  0.000000  0.681863  1
  Ga  Ga9  1  0.000000  0.681863  0.681863  1
  Pt  Pt10  1  0.000000  0.000000  0.000000  1
  Pt  Pt11  1  0.750000  0.250000  0.500000  1
  Pt  Pt12  1  0.750000  0.500000  0.250000  1
  Pt  Pt13  1  0.500000  0.250000  0.750000  1
  Pt  Pt14  1  0.250000  0.500000  0.750000  1
  Pt  Pt15  1  0.250000  0.750000  0.500000  1
  Pt  Pt16  1  0.500000  0.750000  0.250000  1
