# generated using pymatgen
data_YbHf(ReO4)6
_symmetry_space_group_name_H-M   'P 1'
_cell_length_a   10.15624100
_cell_length_b   10.15624013
_cell_length_c   6.08434000
_cell_angle_alpha   90.00000000
_cell_angle_beta   90.00000000
_cell_angle_gamma   119.99999393
_symmetry_Int_Tables_number   1
_chemical_formula_structural   YbHf(ReO4)6
_chemical_formula_sum   'Yb1 Hf1 Re6 O24'
_cell_volume   543.51319464
_cell_formula_units_Z   1
loop_
 _symmetry_equiv_pos_site_id
 _symmetry_equiv_pos_as_xyz
  1  'x, y, z'
loop_
 _atom_site_type_symbol
 _atom_site_label
 _atom_site_symmetry_multiplicity
 _atom_site_fract_x
 _atom_site_fract_y
 _atom_site_fract_z
 _atom_site_occupancy
  Yb  Yb0  1  0.333333  0.666667  0.250000  1
  Hf  Hf1  1  0.666667  0.333333  0.750000  1
  Re  Re2  1  0.076341  0.389786  0.750000  1
  Re  Re3  1  0.405210  0.300547  0.250000  1
  Re  Re4  1  0.610214  0.686553  0.750000  1
  Re  Re5  1  0.895336  0.594790  0.250000  1
  Re  Re6  1  0.313447  0.923659  0.750000  1
  Re  Re7  1  0.699453  0.104664  0.250000  1
  O  O8  1  0.493515  0.644982  0.518841  1
  O  O9  1  0.355018  0.848533  0.518841  1
  O  O10  1  0.824136  0.717376  0.250000  1
  O  O11  1  0.121791  0.866198  0.750000  1
  O  O12  1  0.282624  0.106760  0.250000  1
  O  O13  1  0.133802  0.255593  0.750000  1
  O  O14  1  0.522229  0.352295  0.011925  1
  O  O15  1  0.893240  0.175864  0.250000  1
  O  O16  1  0.092230  0.699838  0.250000  1
  O  O17  1  0.151467  0.506485  0.981159  1
  O  O18  1  0.151467  0.506485  0.518841  1
  O  O19  1  0.873844  0.302871  0.750000  1
  O  O20  1  0.300162  0.392392  0.250000  1
  O  O21  1  0.697129  0.570973  0.750000  1
  O  O22  1  0.830066  0.477771  0.488075  1
  O  O23  1  0.429027  0.126156  0.750000  1
  O  O24  1  0.647705  0.169934  0.011925  1
  O  O25  1  0.493515  0.644982  0.981159  1
  O  O26  1  0.355018  0.848533  0.981159  1
  O  O27  1  0.647705  0.169934  0.488075  1
  O  O28  1  0.522229  0.352295  0.488075  1
  O  O29  1  0.830066  0.477771  0.011925  1
  O  O30  1  0.744407  0.878209  0.750000  1
  O  O31  1  0.607608  0.907770  0.250000  1
