# generated using pymatgen
data_SmAgPt2O7
_symmetry_space_group_name_H-M   'P 1'
_cell_length_a   7.28661819
_cell_length_b   7.28661775
_cell_length_c   7.43726100
_cell_angle_alpha   59.31371699
_cell_angle_beta   59.31371903
_cell_angle_gamma   59.39220542
_symmetry_Int_Tables_number   1
_chemical_formula_structural   SmAgPt2O7
_chemical_formula_sum   'Sm2 Ag2 Pt4 O14'
_cell_volume   275.02591902
_cell_formula_units_Z   2
loop_
 _symmetry_equiv_pos_site_id
 _symmetry_equiv_pos_as_xyz
  1  'x, y, z'
loop_
 _atom_site_type_symbol
 _atom_site_label
 _atom_site_symmetry_multiplicity
 _atom_site_fract_x
 _atom_site_fract_y
 _atom_site_fract_z
 _atom_site_occupancy
  Sm  Sm0  1  0.125000  0.125000  0.125000  1
  Sm  Sm1  1  0.125000  0.125000  0.625000  1
  Ag  Ag2  1  0.625000  0.125000  0.125000  1
  Ag  Ag3  1  0.125000  0.625000  0.125000  1
  Pt  Pt4  1  0.625000  0.625000  0.125000  1
  Pt  Pt5  1  0.625000  0.625000  0.625000  1
  Pt  Pt6  1  0.625000  0.125000  0.625000  1
  Pt  Pt7  1  0.125000  0.625000  0.625000  1
  O  O8  1  0.716695  0.290899  0.295653  1
  O  O9  1  0.716695  0.290899  0.696753  1
  O  O10  1  0.983991  0.983991  0.016009  1
  O  O11  1  0.290899  0.716695  0.295653  1
  O  O12  1  0.703131  0.703131  0.296869  1
  O  O13  1  0.959101  0.533305  0.553247  1
  O  O14  1  0.290899  0.716695  0.696753  1
  O  O15  1  0.266009  0.266009  0.233991  1
  O  O16  1  0.959101  0.533305  0.954347  1
  O  O17  1  0.533305  0.959101  0.553247  1
  O  O18  1  0.546869  0.546869  0.953131  1
  O  O19  1  0.966241  0.966241  0.533759  1
  O  O20  1  0.533305  0.959101  0.954347  1
  O  O21  1  0.283759  0.283759  0.716241  1
