# generated using pymatgen
data_Y3Er2TlSb2
_symmetry_space_group_name_H-M   'P 1'
_cell_length_a   6.39798807
_cell_length_b   8.94253512
_cell_length_c   8.95189900
_cell_angle_alpha   120.02471664
_cell_angle_beta   89.99151935
_cell_angle_gamma   90.00078366
_symmetry_Int_Tables_number   1
_chemical_formula_structural   Y3Er2TlSb2
_chemical_formula_sum   'Y6 Er4 Tl2 Sb4'
_cell_volume   443.44693742
_cell_formula_units_Z   2
loop_
 _symmetry_equiv_pos_site_id
 _symmetry_equiv_pos_as_xyz
  1  'x, y, z'
loop_
 _atom_site_type_symbol
 _atom_site_label
 _atom_site_symmetry_multiplicity
 _atom_site_fract_x
 _atom_site_fract_y
 _atom_site_fract_z
 _atom_site_occupancy
  Y  Y0  1  0.750046  0.243748  0.003114  1
  Y  Y1  1  0.750049  0.756286  0.759361  1
  Y  Y2  1  0.749907  0.000053  0.241815  1
  Y  Y3  1  0.249937  0.757403  0.997532  1
  Y  Y4  1  0.249938  0.242586  0.240105  1
  Y  Y5  1  0.250186  0.999988  0.755961  1
  Er  Er6  1  0.500631  0.336004  0.668433  1
  Er  Er7  1  0.500621  0.663968  0.332400  1
  Er  Er8  1  0.999348  0.664026  0.332447  1
  Er  Er9  1  0.999343  0.335944  0.668421  1
  Tl  Tl10  1  0.750028  0.606048  0.000971  1
  Tl  Tl11  1  0.750038  0.393951  0.394923  1
  Sb  Sb12  1  0.749945  0.999993  0.607813  1
  Sb  Sb13  1  0.249982  0.393349  0.999215  1
  Sb  Sb14  1  0.249976  0.606664  0.605889  1
  Sb  Sb15  1  0.250031  0.999988  0.391600  1
