# generated using pymatgen
data_Ho3Er3Co8(P6Ru5)2
_symmetry_space_group_name_H-M   'P 1'
_cell_length_a   3.84951900
_cell_length_b   10.65893431
_cell_length_c   12.54326137
_cell_angle_alpha   89.97224447
_cell_angle_beta   90.00000000
_cell_angle_gamma   90.00000000
_symmetry_Int_Tables_number   1
_chemical_formula_structural   Ho3Er3Co8(P6Ru5)2
_chemical_formula_sum   'Ho3 Er3 Co8 P12 Ru10'
_cell_volume   514.67215707
_cell_formula_units_Z   1
loop_
 _symmetry_equiv_pos_site_id
 _symmetry_equiv_pos_as_xyz
  1  'x, y, z'
loop_
 _atom_site_type_symbol
 _atom_site_label
 _atom_site_symmetry_multiplicity
 _atom_site_fract_x
 _atom_site_fract_y
 _atom_site_fract_z
 _atom_site_occupancy
  Ho  Ho0  1  0.000000  0.499936  0.526858  1
  Ho  Ho1  1  0.500000  0.000024  0.472926  1
  Ho  Ho2  1  0.000000  0.321454  0.799249  1
  Er  Er3  1  0.500000  0.821209  0.200732  1
  Er  Er4  1  0.500000  0.178734  0.200677  1
  Er  Er5  1  0.000000  0.678812  0.799511  1
  Co  Co6  1  0.000000  0.500320  0.983287  1
  Co  Co7  1  0.500000  0.999901  0.016997  1
  Co  Co8  1  0.500000  0.332533  0.988660  1
  Co  Co9  1  0.500000  0.667691  0.988540  1
  Co  Co10  1  0.000000  0.167372  0.011661  1
  Co  Co11  1  0.000000  0.832421  0.011705  1
  Co  Co12  1  0.500000  0.500137  0.702028  1
  Co  Co13  1  0.000000  0.000027  0.297885  1
  P  P14  1  0.500000  0.314669  0.617993  1
  P  P15  1  0.500000  0.685091  0.618149  1
  P  P16  1  0.000000  0.185230  0.381574  1
  P  P17  1  0.000000  0.814908  0.381797  1
  P  P18  1  0.500000  0.500370  0.880379  1
  P  P19  1  0.000000  0.999963  0.119965  1
  P  P20  1  0.500000  0.845933  0.901134  1
  P  P21  1  0.500000  0.153831  0.901183  1
  P  P22  1  0.000000  0.654187  0.099052  1
  P  P23  1  0.000000  0.345868  0.098806  1
  P  P24  1  0.500000  0.500071  0.336265  1
  P  P25  1  0.000000  0.999895  0.663676  1
  Ru  Ru26  1  0.500000  0.298027  0.427127  1
  Ru  Ru27  1  0.500000  0.702124  0.427503  1
  Ru  Ru28  1  0.000000  0.201896  0.572485  1
  Ru  Ru29  1  0.000000  0.797861  0.572296  1
  Ru  Ru30  1  0.500000  0.874442  0.719359  1
  Ru  Ru31  1  0.500000  0.124584  0.719347  1
  Ru  Ru32  1  0.000000  0.625272  0.280752  1
  Ru  Ru33  1  0.000000  0.375046  0.280346  1
  Ru  Ru34  1  0.500000  0.500324  0.146133  1
  Ru  Ru35  1  0.000000  0.999835  0.853963  1
