# generated using pymatgen
data_YbDy(YOs4)2
_symmetry_space_group_name_H-M   'P 1'
_cell_length_a   5.32093957
_cell_length_b   5.32064767
_cell_length_c   8.84640633
_cell_angle_alpha   89.92699951
_cell_angle_beta   89.94727082
_cell_angle_gamma   119.99631131
_symmetry_Int_Tables_number   1
_chemical_formula_structural   YbDy(YOs4)2
_chemical_formula_sum   'Yb1 Dy1 Y2 Os8'
_cell_volume   216.90293579
_cell_formula_units_Z   1
loop_
 _symmetry_equiv_pos_site_id
 _symmetry_equiv_pos_as_xyz
  1  'x, y, z'
loop_
 _atom_site_type_symbol
 _atom_site_label
 _atom_site_symmetry_multiplicity
 _atom_site_fract_x
 _atom_site_fract_y
 _atom_site_fract_z
 _atom_site_occupancy
  Yb  Yb0  1  0.333255  0.666586  0.062708  1
  Dy  Dy1  1  0.666674  0.333331  0.939438  1
  Y  Y2  1  0.333399  0.666756  0.429001  1
  Y  Y3  1  0.666688  0.333330  0.566319  1
  Os  Os4  1  0.000049  0.000017  0.501179  1
  Os  Os5  1  0.999978  0.999928  0.000641  1
  Os  Os6  1  0.828142  0.171952  0.250022  1
  Os  Os7  1  0.828047  0.656085  0.249975  1
  Os  Os8  1  0.343792  0.171941  0.250030  1
  Os  Os9  1  0.172761  0.827273  0.750216  1
  Os  Os10  1  0.172790  0.345575  0.750245  1
  Os  Os11  1  0.654424  0.827227  0.750227  1
