# generated using pymatgen
data_YHo(Hf4Sn3)2
_symmetry_space_group_name_H-M   'P 1'
_cell_length_a   8.63575400
_cell_length_b   8.63575350
_cell_length_c   5.83249300
_cell_angle_alpha   90.00000000
_cell_angle_beta   90.00000000
_cell_angle_gamma   121.74418956
_symmetry_Int_Tables_number   1
_chemical_formula_structural   YHo(Hf4Sn3)2
_chemical_formula_sum   'Y1 Ho1 Hf8 Sn6'
_cell_volume   369.89701723
_cell_formula_units_Z   1
loop_
 _symmetry_equiv_pos_site_id
 _symmetry_equiv_pos_as_xyz
  1  'x, y, z'
loop_
 _atom_site_type_symbol
 _atom_site_label
 _atom_site_symmetry_multiplicity
 _atom_site_fract_x
 _atom_site_fract_y
 _atom_site_fract_z
 _atom_site_occupancy
  Y  Y0  1  0.225197  0.225197  0.250000  1
  Ho  Ho1  1  0.774656  0.774656  0.750000  1
  Hf  Hf2  1  0.254188  0.000762  0.750000  1
  Hf  Hf3  1  0.000762  0.254188  0.750000  1
  Hf  Hf4  1  0.745668  0.998976  0.250000  1
  Hf  Hf5  1  0.998976  0.745668  0.250000  1
  Hf  Hf6  1  0.665072  0.334950  0.999961  1
  Hf  Hf7  1  0.334950  0.665072  0.999961  1
  Hf  Hf8  1  0.334950  0.665072  0.500039  1
  Hf  Hf9  1  0.665072  0.334950  0.500039  1
  Sn  Sn10  1  0.391549  0.391549  0.750000  1
  Sn  Sn11  1  0.607114  0.003926  0.750000  1
  Sn  Sn12  1  0.003926  0.607114  0.750000  1
  Sn  Sn13  1  0.609035  0.609035  0.250000  1
  Sn  Sn14  1  0.393109  0.995776  0.250000  1
  Sn  Sn15  1  0.995776  0.393109  0.250000  1
