# generated using pymatgen
data_Si16Mo3Pt12W
_symmetry_space_group_name_H-M   'P 1'
_cell_length_a   3.52587900
_cell_length_b   5.57592700
_cell_length_c   24.61034701
_cell_angle_alpha   89.99687362
_cell_angle_beta   90.00000000
_cell_angle_gamma   90.00000000
_symmetry_Int_Tables_number   1
_chemical_formula_structural   Si16Mo3Pt12W
_chemical_formula_sum   'Si16 Mo3 Pt12 W1'
_cell_volume   483.84050242
_cell_formula_units_Z   1
loop_
 _symmetry_equiv_pos_site_id
 _symmetry_equiv_pos_as_xyz
  1  'x, y, z'
loop_
 _atom_site_type_symbol
 _atom_site_label
 _atom_site_symmetry_multiplicity
 _atom_site_fract_x
 _atom_site_fract_y
 _atom_site_fract_z
 _atom_site_occupancy
  Si  Si0  1  0.250000  0.179209  0.519537  1
  Si  Si1  1  0.750000  0.320887  0.019571  1
  Si  Si2  1  0.250000  0.679065  0.980475  1
  Si  Si3  1  0.750000  0.820721  0.480375  1
  Si  Si4  1  0.750000  0.319855  0.645494  1
  Si  Si5  1  0.250000  0.180687  0.145750  1
  Si  Si6  1  0.750000  0.819422  0.854369  1
  Si  Si7  1  0.250000  0.680682  0.354250  1
  Si  Si8  1  0.250000  0.660432  0.609447  1
  Si  Si9  1  0.750000  0.839204  0.109636  1
  Si  Si10  1  0.250000  0.160846  0.890410  1
  Si  Si11  1  0.750000  0.339214  0.390365  1
  Si  Si12  1  0.750000  0.831399  0.726223  1
  Si  Si13  1  0.250000  0.669179  0.226114  1
  Si  Si14  1  0.750000  0.329541  0.774105  1
  Si  Si15  1  0.250000  0.169212  0.273880  1
  Mo  Mo16  1  0.750000  0.995148  0.210234  1
  Mo  Mo17  1  0.250000  0.004242  0.789648  1
  Mo  Mo18  1  0.750000  0.495943  0.289791  1
  Pt  Pt19  1  0.750000  0.001158  0.574726  1
  Pt  Pt20  1  0.250000  0.498753  0.074606  1
  Pt  Pt21  1  0.750000  0.501255  0.925316  1
  Pt  Pt22  1  0.250000  0.998785  0.425383  1
  Pt  Pt23  1  0.250000  0.003913  0.669993  1
  Pt  Pt24  1  0.750000  0.496574  0.169873  1
  Pt  Pt25  1  0.250000  0.503899  0.830062  1
  Pt  Pt26  1  0.750000  0.996607  0.330117  1
  Pt  Pt27  1  0.750000  0.502171  0.548447  1
  Pt  Pt28  1  0.250000  0.997915  0.048365  1
  Pt  Pt29  1  0.750000  0.002064  0.951606  1
  Pt  Pt30  1  0.250000  0.497930  0.451628  1
  W  W31  1  0.250000  0.504089  0.710200  1
