# generated using pymatgen
data_Th7Sc(Nb3Si4)4
_symmetry_space_group_name_H-M   'P 1'
_cell_length_a   7.01498064
_cell_length_b   7.21567250
_cell_length_c   13.57428257
_cell_angle_alpha   90.16529348
_cell_angle_beta   89.85500352
_cell_angle_gamma   90.10830592
_symmetry_Int_Tables_number   1
_chemical_formula_structural   Th7Sc(Nb3Si4)4
_chemical_formula_sum   'Th7 Sc1 Nb12 Si16'
_cell_volume   687.09408190
_cell_formula_units_Z   1
loop_
 _symmetry_equiv_pos_site_id
 _symmetry_equiv_pos_as_xyz
  1  'x, y, z'
loop_
 _atom_site_type_symbol
 _atom_site_label
 _atom_site_symmetry_multiplicity
 _atom_site_fract_x
 _atom_site_fract_y
 _atom_site_fract_z
 _atom_site_occupancy
  Th  Th0  1  0.500998  0.669597  0.594849  1
  Th  Th1  1  0.000073  0.830547  0.904055  1
  Th  Th2  1  0.500748  0.330614  0.095641  1
  Th  Th3  1  0.998899  0.169871  0.407043  1
  Th  Th4  1  0.498589  0.329873  0.407276  1
  Th  Th5  1  0.000698  0.169604  0.095595  1
  Th  Th6  1  0.499905  0.670309  0.901793  1
  Sc  Sc7  1  0.998875  0.826050  0.598937  1
  Nb  Nb8  1  0.662338  0.171965  0.623348  1
  Nb  Nb9  1  0.161933  0.328038  0.872969  1
  Nb  Nb10  1  0.338012  0.827796  0.125233  1
  Nb  Nb11  1  0.837152  0.673957  0.376550  1
  Nb  Nb12  1  0.337058  0.828183  0.375644  1
  Nb  Nb13  1  0.837066  0.671816  0.125302  1
  Nb  Nb14  1  0.665968  0.169510  0.873412  1
  Nb  Nb15  1  0.163983  0.328222  0.624406  1
  Nb  Nb16  1  0.835838  0.491956  0.749789  1
  Nb  Nb17  1  0.336183  0.003904  0.747772  1
  Nb  Nb18  1  0.163921  0.507640  0.250855  1
  Nb  Nb19  1  0.663909  0.993728  0.251283  1
  Si  Si20  1  0.662400  0.956391  0.458702  1
  Si  Si21  1  0.160713  0.543488  0.043108  1
  Si  Si22  1  0.340778  0.044612  0.955007  1
  Si  Si23  1  0.845851  0.466917  0.546045  1
  Si  Si24  1  0.326992  0.035394  0.545929  1
  Si  Si25  1  0.838975  0.455688  0.955790  1
  Si  Si26  1  0.660144  0.955940  0.043441  1
  Si  Si27  1  0.156720  0.549863  0.460470  1
  Si  Si28  1  0.458613  0.367204  0.749087  1
  Si  Si29  1  0.960859  0.125885  0.745736  1
  Si  Si30  1  0.541682  0.630940  0.251148  1
  Si  Si31  1  0.041455  0.869436  0.250714  1
  Si  Si32  1  0.707544  0.882190  0.744954  1
  Si  Si33  1  0.194011  0.622265  0.745486  1
  Si  Si34  1  0.300217  0.116071  0.250995  1
  Si  Si35  1  0.800901  0.384534  0.251636  1
