# generated using pymatgen
data_NdY2Mn(Co4P3)2
_symmetry_space_group_name_H-M   'P 1'
_cell_length_a   3.71448200
_cell_length_b   10.59433700
_cell_length_c   12.26490300
_cell_angle_alpha   90.00000000
_cell_angle_beta   90.00000000
_cell_angle_gamma   90.00000000
_symmetry_Int_Tables_number   1
_chemical_formula_structural   NdY2Mn(Co4P3)2
_chemical_formula_sum   'Nd2 Y4 Mn2 Co16 P12'
_cell_volume   482.65427750
_cell_formula_units_Z   2
loop_
 _symmetry_equiv_pos_site_id
 _symmetry_equiv_pos_as_xyz
  1  'x, y, z'
loop_
 _atom_site_type_symbol
 _atom_site_label
 _atom_site_symmetry_multiplicity
 _atom_site_fract_x
 _atom_site_fract_y
 _atom_site_fract_z
 _atom_site_occupancy
  Nd  Nd0  1  0.000000  0.500000  0.523257  1
  Nd  Nd1  1  0.500000  0.000000  0.476743  1
  Y  Y2  1  0.500000  0.817755  0.204150  1
  Y  Y3  1  0.500000  0.182245  0.204150  1
  Y  Y4  1  0.000000  0.682245  0.795850  1
  Y  Y5  1  0.000000  0.317755  0.795850  1
  Mn  Mn6  1  0.500000  0.500000  0.157047  1
  Mn  Mn7  1  0.000000  0.000000  0.842953  1
  Co  Co8  1  0.500000  0.500000  0.705510  1
  Co  Co9  1  0.000000  0.000000  0.294490  1
  Co  Co10  1  0.000000  0.500000  0.986644  1
  Co  Co11  1  0.500000  0.000000  0.013356  1
  Co  Co12  1  0.500000  0.333083  0.994126  1
  Co  Co13  1  0.500000  0.666917  0.994126  1
  Co  Co14  1  0.000000  0.166917  0.005874  1
  Co  Co15  1  0.000000  0.833083  0.005874  1
  Co  Co16  1  0.500000  0.295966  0.429274  1
  Co  Co17  1  0.500000  0.704034  0.429274  1
  Co  Co18  1  0.000000  0.204034  0.570726  1
  Co  Co19  1  0.000000  0.795966  0.570726  1
  Co  Co20  1  0.500000  0.880034  0.711548  1
  Co  Co21  1  0.500000  0.119966  0.711548  1
  Co  Co22  1  0.000000  0.619966  0.288452  1
  Co  Co23  1  0.000000  0.380034  0.288452  1
  P  P24  1  0.500000  0.500000  0.883962  1
  P  P25  1  0.000000  0.000000  0.116038  1
  P  P26  1  0.500000  0.500000  0.341197  1
  P  P27  1  0.000000  0.000000  0.658803  1
  P  P28  1  0.500000  0.307877  0.617432  1
  P  P29  1  0.500000  0.692123  0.617432  1
  P  P30  1  0.000000  0.192123  0.382568  1
  P  P31  1  0.000000  0.807877  0.382568  1
  P  P32  1  0.500000  0.847180  0.893953  1
  P  P33  1  0.500000  0.152820  0.893953  1
  P  P34  1  0.000000  0.652820  0.106047  1
  P  P35  1  0.000000  0.347180  0.106047  1
