# generated using pymatgen
data_TcPbBr18
_symmetry_space_group_name_H-M   'P 1'
_cell_length_a   9.56048929
_cell_length_b   9.56048727
_cell_length_c   9.56048829
_cell_angle_alpha   94.10906918
_cell_angle_beta   94.10907616
_cell_angle_gamma   94.10907921
_symmetry_Int_Tables_number   1
_chemical_formula_structural   TcPbBr18
_chemical_formula_sum   'Tc1 Pb1 Br18'
_cell_volume   866.77628615
_cell_formula_units_Z   1
loop_
 _symmetry_equiv_pos_site_id
 _symmetry_equiv_pos_as_xyz
  1  'x, y, z'
loop_
 _atom_site_type_symbol
 _atom_site_label
 _atom_site_symmetry_multiplicity
 _atom_site_fract_x
 _atom_site_fract_y
 _atom_site_fract_z
 _atom_site_occupancy
  Tc  Tc0  1  0.000000  0.000000  0.000000  1
  Pb  Pb1  1  0.500000  0.500000  0.500000  1
  Br  Br2  1  0.265465  0.007620  0.020802  1
  Br  Br3  1  0.020802  0.265465  0.007620  1
  Br  Br4  1  0.007620  0.020802  0.265465  1
  Br  Br5  1  0.734535  0.992380  0.979198  1
  Br  Br6  1  0.979198  0.734535  0.992380  1
  Br  Br7  1  0.992380  0.979198  0.734535  1
  Br  Br8  1  0.638673  0.224834  0.099544  1
  Br  Br9  1  0.099544  0.638673  0.224834  1
  Br  Br10  1  0.224834  0.099544  0.638673  1
  Br  Br11  1  0.361327  0.775166  0.900456  1
  Br  Br12  1  0.900456  0.361327  0.775166  1
  Br  Br13  1  0.775166  0.900456  0.361327  1
  Br  Br14  1  0.443369  0.186800  0.538979  1
  Br  Br15  1  0.538979  0.443369  0.186800  1
  Br  Br16  1  0.186800  0.538979  0.443369  1
  Br  Br17  1  0.556631  0.813200  0.461021  1
  Br  Br18  1  0.461021  0.556631  0.813200  1
  Br  Br19  1  0.813200  0.461021  0.556631  1
