# generated using pymatgen
data_Al4ZnCu5
_symmetry_space_group_name_H-M   'P 1'
_cell_length_a   6.40966293
_cell_length_b   6.40966253
_cell_length_c   6.84869060
_cell_angle_alpha   57.35162832
_cell_angle_beta   57.35163367
_cell_angle_gamma   37.04727998
_symmetry_Int_Tables_number   1
_chemical_formula_structural   Al4ZnCu5
_chemical_formula_sum   'Al4 Zn1 Cu5'
_cell_volume   139.40602935
_cell_formula_units_Z   1
loop_
 _symmetry_equiv_pos_site_id
 _symmetry_equiv_pos_as_xyz
  1  'x, y, z'
loop_
 _atom_site_type_symbol
 _atom_site_label
 _atom_site_symmetry_multiplicity
 _atom_site_fract_x
 _atom_site_fract_y
 _atom_site_fract_z
 _atom_site_occupancy
  Al  Al0  1  0.154610  0.154610  0.539762  1
  Al  Al1  1  0.845390  0.845390  0.460238  1
  Al  Al2  1  0.379176  0.379176  0.002318  1
  Al  Al3  1  0.620824  0.620824  0.997682  1
  Zn  Zn4  1  0.500000  0.500000  0.500000  1
  Cu  Cu5  1  0.000000  0.000000  0.000000  1
  Cu  Cu6  1  0.257385  0.257385  0.763387  1
  Cu  Cu7  1  0.742615  0.742615  0.236613  1
  Cu  Cu8  1  0.109769  0.109769  0.226946  1
  Cu  Cu9  1  0.890231  0.890231  0.773054  1
