# generated using pymatgen
data_Y4B16Os3Ru
_symmetry_space_group_name_H-M   'P 1'
_cell_length_a   3.57009400
_cell_length_b   5.97070801
_cell_length_c   11.54958002
_cell_angle_alpha   89.99300001
_cell_angle_beta   90.00000000
_cell_angle_gamma   90.00000000
_symmetry_Int_Tables_number   1
_chemical_formula_structural   Y4B16Os3Ru
_chemical_formula_sum   'Y4 B16 Os3 Ru1'
_cell_volume   246.19071708
_cell_formula_units_Z   1
loop_
 _symmetry_equiv_pos_site_id
 _symmetry_equiv_pos_as_xyz
  1  'x, y, z'
loop_
 _atom_site_type_symbol
 _atom_site_label
 _atom_site_symmetry_multiplicity
 _atom_site_fract_x
 _atom_site_fract_y
 _atom_site_fract_z
 _atom_site_occupancy
  Y  Y0  1  0.000000  0.628982  0.350146  1
  Y  Y1  1  0.000000  0.371062  0.649783  1
  Y  Y2  1  0.000000  0.129044  0.150341  1
  Y  Y3  1  0.000000  0.870865  0.849659  1
  B  B4  1  0.500000  0.789668  0.185810  1
  B  B5  1  0.500000  0.210290  0.814247  1
  B  B6  1  0.500000  0.289592  0.314483  1
  B  B7  1  0.500000  0.710435  0.685414  1
  B  B8  1  0.500000  0.863470  0.029916  1
  B  B9  1  0.500000  0.136502  0.969987  1
  B  B10  1  0.500000  0.363666  0.469907  1
  B  B11  1  0.500000  0.636282  0.530351  1
  B  B12  1  0.500000  0.888300  0.453381  1
  B  B13  1  0.500000  0.111778  0.546595  1
  B  B14  1  0.500000  0.388132  0.046723  1
  B  B15  1  0.500000  0.611917  0.953195  1
  B  B16  1  0.500000  0.976718  0.308435  1
  B  B17  1  0.500000  0.022951  0.691627  1
  B  B18  1  0.500000  0.476494  0.191525  1
  B  B19  1  0.500000  0.523845  0.808380  1
  Os  Os20  1  0.000000  0.641737  0.093026  1
  Os  Os21  1  0.000000  0.358296  0.907053  1
  Os  Os22  1  0.000000  0.140824  0.407062  1
  Ru  Ru23  1  0.000000  0.859149  0.592952  1
