# generated using pymatgen
data_TbDy3Tm16(CoSb2)4
_symmetry_space_group_name_H-M   'P 1'
_cell_length_a   7.79025330
_cell_length_b   8.71205900
_cell_length_c   12.07672446
_cell_angle_alpha   90.00000000
_cell_angle_beta   89.96832550
_cell_angle_gamma   90.00000000
_symmetry_Int_Tables_number   1
_chemical_formula_structural   TbDy3Tm16(CoSb2)4
_chemical_formula_sum   'Tb1 Dy3 Tm16 Co4 Sb8'
_cell_volume   819.63685469
_cell_formula_units_Z   1
loop_
 _symmetry_equiv_pos_site_id
 _symmetry_equiv_pos_as_xyz
  1  'x, y, z'
loop_
 _atom_site_type_symbol
 _atom_site_label
 _atom_site_symmetry_multiplicity
 _atom_site_fract_x
 _atom_site_fract_y
 _atom_site_fract_z
 _atom_site_occupancy
  Tb  Tb0  1  0.622375  0.750000  0.306706  1
  Dy  Dy1  1  0.878102  0.750000  0.807136  1
  Dy  Dy2  1  0.378080  0.250000  0.692902  1
  Dy  Dy3  1  0.121932  0.250000  0.192885  1
  Tm  Tm4  1  0.155499  0.750000  0.203723  1
  Tm  Tm5  1  0.344397  0.750000  0.703742  1
  Tm  Tm6  1  0.844374  0.250000  0.796226  1
  Tm  Tm7  1  0.655632  0.250000  0.296187  1
  Tm  Tm8  1  0.449536  0.750000  0.997952  1
  Tm  Tm9  1  0.050478  0.750000  0.498045  1
  Tm  Tm10  1  0.550360  0.250000  0.001986  1
  Tm  Tm11  1  0.949773  0.250000  0.502019  1
  Tm  Tm12  1  0.823049  0.536247  0.065381  1
  Tm  Tm13  1  0.677076  0.964028  0.565636  1
  Tm  Tm14  1  0.176997  0.036143  0.934589  1
  Tm  Tm15  1  0.322710  0.463420  0.434637  1
  Tm  Tm16  1  0.176997  0.463857  0.934589  1
  Tm  Tm17  1  0.322710  0.036580  0.434637  1
  Tm  Tm18  1  0.823049  0.963753  0.065381  1
  Tm  Tm19  1  0.677076  0.535972  0.565636  1
  Co  Co20  1  0.432804  0.750000  0.491687  1
  Co  Co21  1  0.066914  0.750000  0.991382  1
  Co  Co22  1  0.566896  0.250000  0.508666  1
  Co  Co23  1  0.933129  0.250000  0.008623  1
  Sb  Sb24  1  0.930618  0.508134  0.328283  1
  Sb  Sb25  1  0.569819  0.991521  0.828236  1
  Sb  Sb26  1  0.069850  0.008460  0.671732  1
  Sb  Sb27  1  0.429739  0.491125  0.171573  1
  Sb  Sb28  1  0.069850  0.491540  0.671732  1
  Sb  Sb29  1  0.429739  0.008875  0.171573  1
  Sb  Sb30  1  0.930618  0.991866  0.328283  1
  Sb  Sb31  1  0.569819  0.508479  0.828236  1
