# generated using pymatgen
data_Na20Ti3SiAs12
_symmetry_space_group_name_H-M   'P 1'
_cell_length_a   13.59970140
_cell_length_b   7.52964530
_cell_length_c   8.35097163
_cell_angle_alpha   90.13310655
_cell_angle_beta   89.28204593
_cell_angle_gamma   89.80460547
_symmetry_Int_Tables_number   1
_chemical_formula_structural   Na20Ti3SiAs12
_chemical_formula_sum   'Na20 Ti3 Si1 As12'
_cell_volume   855.07274073
_cell_formula_units_Z   1
loop_
 _symmetry_equiv_pos_site_id
 _symmetry_equiv_pos_as_xyz
  1  'x, y, z'
loop_
 _atom_site_type_symbol
 _atom_site_label
 _atom_site_symmetry_multiplicity
 _atom_site_fract_x
 _atom_site_fract_y
 _atom_site_fract_z
 _atom_site_occupancy
  Na  Na0  1  0.758184  0.650057  0.077046  1
  Na  Na1  1  0.080751  0.662183  0.075179  1
  Na  Na2  1  0.582545  0.969114  0.165419  1
  Na  Na3  1  0.911738  0.980661  0.174425  1
  Na  Na4  1  0.258671  0.984682  0.184157  1
  Na  Na5  1  0.241163  0.495373  0.315846  1
  Na  Na6  1  0.590790  0.488580  0.326680  1
  Na  Na7  1  0.919014  0.473976  0.333988  1
  Na  Na8  1  0.420499  0.162769  0.426783  1
  Na  Na9  1  0.739485  0.154772  0.426331  1
  Na  Na10  1  0.259375  0.848069  0.577139  1
  Na  Na11  1  0.579712  0.836491  0.576774  1
  Na  Na12  1  0.082613  0.531047  0.668437  1
  Na  Na13  1  0.410364  0.513815  0.673243  1
  Na  Na14  1  0.754630  0.509602  0.687565  1
  Na  Na15  1  0.741126  0.010093  0.816443  1
  Na  Na16  1  0.090411  0.012066  0.824530  1
  Na  Na17  1  0.417412  0.030973  0.831608  1
  Na  Na18  1  0.917813  0.338207  0.923208  1
  Na  Na19  1  0.242150  0.348037  0.922366  1
  Ti  Ti20  1  0.420404  0.634680  0.066279  1
  Ti  Ti21  1  0.084603  0.141735  0.427641  1
  Ti  Ti22  1  0.915353  0.859335  0.570833  1
  Si  Si23  1  0.581017  0.366262  0.932691  1
  As  As24  1  0.720335  0.266623  0.084629  1
  As  As25  1  0.433122  0.301566  0.088799  1
  As  As26  1  0.080441  0.256202  0.148377  1
  As  As27  1  0.420660  0.757891  0.345283  1
  As  As28  1  0.070706  0.806412  0.410244  1
  As  As29  1  0.771020  0.765343  0.414684  1
  As  As30  1  0.228964  0.238303  0.582932  1
  As  As31  1  0.929888  0.193900  0.588347  1
  As  As32  1  0.578911  0.243601  0.663741  1
  As  As33  1  0.918347  0.743080  0.849869  1
  As  As34  1  0.574151  0.691545  0.904493  1
  As  As35  1  0.273632  0.732956  0.913995  1
