# generated using pymatgen
data_TbEr15(ScBi3)4
_symmetry_space_group_name_H-M   'P 1'
_cell_length_a   8.07395511
_cell_length_b   9.37594701
_cell_length_c   11.87347500
_cell_angle_alpha   90.00095942
_cell_angle_beta   89.94972221
_cell_angle_gamma   89.99755036
_symmetry_Int_Tables_number   1
_chemical_formula_structural   TbEr15(ScBi3)4
_chemical_formula_sum   'Tb1 Er15 Sc4 Bi12'
_cell_volume   898.83329019
_cell_formula_units_Z   1
loop_
 _symmetry_equiv_pos_site_id
 _symmetry_equiv_pos_as_xyz
  1  'x, y, z'
loop_
 _atom_site_type_symbol
 _atom_site_label
 _atom_site_symmetry_multiplicity
 _atom_site_fract_x
 _atom_site_fract_y
 _atom_site_fract_z
 _atom_site_occupancy
  Tb  Tb0  1  0.305128  0.564427  0.559182  1
  Er  Er1  1  0.355530  0.250507  0.283867  1
  Er  Er2  1  0.644844  0.750561  0.716408  1
  Er  Er3  1  0.143551  0.750205  0.783949  1
  Er  Er4  1  0.855645  0.250250  0.216063  1
  Er  Er5  1  0.185301  0.250133  0.780897  1
  Er  Er6  1  0.814694  0.750099  0.218893  1
  Er  Er7  1  0.314933  0.750399  0.280814  1
  Er  Er8  1  0.684885  0.249980  0.719233  1
  Er  Er9  1  0.195273  0.065961  0.059154  1
  Er  Er10  1  0.804570  0.934100  0.940931  1
  Er  Er11  1  0.304378  0.933581  0.559259  1
  Er  Er12  1  0.804513  0.566072  0.940926  1
  Er  Er13  1  0.696142  0.065895  0.440860  1
  Er  Er14  1  0.195112  0.434002  0.059047  1
  Er  Er15  1  0.694898  0.434010  0.441082  1
  Sc  Sc16  1  0.023992  0.250465  0.512990  1
  Sc  Sc17  1  0.975752  0.749845  0.486791  1
  Sc  Sc18  1  0.475984  0.749948  0.013030  1
  Sc  Sc19  1  0.524253  0.250194  0.987138  1
  Bi  Bi20  1  0.402151  0.247495  0.542703  1
  Bi  Bi21  1  0.599502  0.750669  0.456635  1
  Bi  Bi22  1  0.098729  0.749961  0.043169  1
  Bi  Bi23  1  0.901444  0.249964  0.956869  1
  Bi  Bi24  1  0.066346  0.004482  0.330577  1
  Bi  Bi25  1  0.933549  0.996028  0.669342  1
  Bi  Bi26  1  0.433420  0.995928  0.830952  1
  Bi  Bi27  1  0.932614  0.504155  0.669562  1
  Bi  Bi28  1  0.566521  0.004527  0.169299  1
  Bi  Bi29  1  0.066211  0.496054  0.330073  1
  Bi  Bi30  1  0.566493  0.495905  0.169161  1
  Bi  Bi31  1  0.433641  0.504201  0.831143  1
