# generated using pymatgen
data_DyHo4In3Br
_symmetry_space_group_name_H-M   'P 1'
_cell_length_a   9.16208200
_cell_length_b   9.16099363
_cell_length_c   6.74001100
_cell_angle_alpha   90.00000000
_cell_angle_beta   90.00000000
_cell_angle_gamma   120.00393010
_symmetry_Int_Tables_number   1
_chemical_formula_structural   DyHo4In3Br
_chemical_formula_sum   'Dy2 Ho8 In6 Br2'
_cell_volume   489.90378207
_cell_formula_units_Z   2
loop_
 _symmetry_equiv_pos_site_id
 _symmetry_equiv_pos_as_xyz
  1  'x, y, z'
loop_
 _atom_site_type_symbol
 _atom_site_label
 _atom_site_symmetry_multiplicity
 _atom_site_fract_x
 _atom_site_fract_y
 _atom_site_fract_z
 _atom_site_occupancy
  Dy  Dy0  1  0.733807  0.733805  0.250000  1
  Dy  Dy1  1  0.999998  0.733805  0.750000  1
  Ho  Ho2  1  0.733743  0.000015  0.750000  1
  Ho  Ho3  1  0.333287  0.666576  0.500000  1
  Ho  Ho4  1  0.266307  0.266329  0.750000  1
  Ho  Ho5  1  0.000022  0.266329  0.250000  1
  Ho  Ho6  1  0.666576  0.333151  0.500000  1
  Ho  Ho7  1  0.266272  0.000015  0.250000  1
  Ho  Ho8  1  0.333287  0.666576  0.000000  1
  Ho  Ho9  1  0.666576  0.333151  0.000000  1
  In  In10  1  0.393047  0.000153  0.750000  1
  In  In11  1  0.000167  0.607085  0.250000  1
  In  In12  1  0.607106  0.000153  0.250000  1
  In  In13  1  0.999986  0.392636  0.750000  1
  In  In14  1  0.392651  0.392636  0.250000  1
  In  In15  1  0.606918  0.607085  0.750000  1
  Br  Br16  1  0.000125  0.000250  0.500000  1
  Br  Br17  1  0.000125  0.000250  0.000000  1
