# generated using pymatgen
data_Y20Si12N
_symmetry_space_group_name_H-M   'P 1'
_cell_length_a   14.64403500
_cell_length_b   6.37625899
_cell_length_c   8.41678909
_cell_angle_alpha   89.89017455
_cell_angle_beta   90.00000000
_cell_angle_gamma   90.00000000
_symmetry_Int_Tables_number   1
_chemical_formula_structural   Y20Si12N
_chemical_formula_sum   'Y20 Si12 N1'
_cell_volume   785.90916550
_cell_formula_units_Z   1
loop_
 _symmetry_equiv_pos_site_id
 _symmetry_equiv_pos_as_xyz
  1  'x, y, z'
loop_
 _atom_site_type_symbol
 _atom_site_label
 _atom_site_symmetry_multiplicity
 _atom_site_fract_x
 _atom_site_fract_y
 _atom_site_fract_z
 _atom_site_occupancy
  Y  Y0  1  0.664008  0.500000  0.500000  1
  Y  Y1  1  0.170137  0.500000  0.000000  1
  Y  Y2  1  0.829863  0.500000  0.000000  1
  Y  Y3  1  0.335992  0.500000  0.500000  1
  Y  Y4  1  0.838906  0.000000  0.000000  1
  Y  Y5  1  0.328849  0.000000  0.500000  1
  Y  Y6  1  0.671151  0.000000  0.500000  1
  Y  Y7  1  0.161094  0.000000  0.000000  1
  Y  Y8  1  0.500000  0.246381  0.754309  1
  Y  Y9  1  0.000000  0.274359  0.267345  1
  Y  Y10  1  0.621035  0.248126  0.122353  1
  Y  Y11  1  0.116688  0.268468  0.619166  1
  Y  Y12  1  0.883312  0.268468  0.619166  1
  Y  Y13  1  0.378965  0.248126  0.122353  1
  Y  Y14  1  0.000000  0.725641  0.732655  1
  Y  Y15  1  0.500000  0.753619  0.245691  1
  Y  Y16  1  0.883312  0.731532  0.380834  1
  Y  Y17  1  0.378965  0.751874  0.877647  1
  Y  Y18  1  0.621035  0.751874  0.877647  1
  Y  Y19  1  0.116688  0.731532  0.380834  1
  Si  Si20  1  0.000000  0.263054  0.901783  1
  Si  Si21  1  0.500000  0.242602  0.396250  1
  Si  Si22  1  0.800719  0.255741  0.301028  1
  Si  Si23  1  0.301662  0.246139  0.801871  1
  Si  Si24  1  0.698338  0.246139  0.801871  1
  Si  Si25  1  0.199281  0.255741  0.301028  1
  Si  Si26  1  0.500000  0.757398  0.603750  1
  Si  Si27  1  0.000000  0.736946  0.098217  1
  Si  Si28  1  0.698338  0.753861  0.198129  1
  Si  Si29  1  0.199281  0.744259  0.698972  1
  Si  Si30  1  0.800719  0.744259  0.698972  1
  Si  Si31  1  0.301662  0.753861  0.198129  1
  N  N32  1  0.000000  0.500000  0.500000  1
