# generated using pymatgen
data_SmNp(HI2)2
_symmetry_space_group_name_H-M   'P 1'
_cell_length_a   4.06563800
_cell_length_b   4.06563905
_cell_length_c   16.69113800
_cell_angle_alpha   90.00000000
_cell_angle_beta   90.00000000
_cell_angle_gamma   119.99999148
_symmetry_Int_Tables_number   1
_chemical_formula_structural   SmNp(HI2)2
_chemical_formula_sum   'Sm1 Np1 H2 I4'
_cell_volume   238.93190324
_cell_formula_units_Z   1
loop_
 _symmetry_equiv_pos_site_id
 _symmetry_equiv_pos_as_xyz
  1  'x, y, z'
loop_
 _atom_site_type_symbol
 _atom_site_label
 _atom_site_symmetry_multiplicity
 _atom_site_fract_x
 _atom_site_fract_y
 _atom_site_fract_z
 _atom_site_occupancy
  Sm  Sm0  1  0.000000  0.000000  0.750000  1
  Np  Np1  1  0.000000  0.000000  0.250000  1
  H  H2  1  0.666667  0.333333  0.250000  1
  H  H3  1  0.333333  0.666666  0.750000  1
  I  I4  1  0.333333  0.666666  0.121154  1
  I  I5  1  0.333333  0.666666  0.378847  1
  I  I6  1  0.666667  0.333333  0.620674  1
  I  I7  1  0.666667  0.333333  0.879327  1
