# generated using pymatgen
data_Pr6TlIn8Ge
_symmetry_space_group_name_H-M   'P 1'
_cell_length_a   8.62663859
_cell_length_b   8.62663752
_cell_length_c   8.62663700
_cell_angle_alpha   119.69555506
_cell_angle_beta   119.69555103
_cell_angle_gamma   90.52813102
_symmetry_Int_Tables_number   1
_chemical_formula_structural   Pr6TlIn8Ge
_chemical_formula_sum   'Pr6 Tl1 In8 Ge1'
_cell_volume   456.01971386
_cell_formula_units_Z   1
loop_
 _symmetry_equiv_pos_site_id
 _symmetry_equiv_pos_as_xyz
  1  'x, y, z'
loop_
 _atom_site_type_symbol
 _atom_site_label
 _atom_site_symmetry_multiplicity
 _atom_site_fract_x
 _atom_site_fract_y
 _atom_site_fract_z
 _atom_site_occupancy
  Pr  Pr0  1  0.737502  0.737502  0.000000  1
  Pr  Pr1  1  0.262498  0.262498  0.000000  1
  Pr  Pr2  1  0.646798  0.175948  0.822746  1
  Pr  Pr3  1  0.353202  0.824052  0.177254  1
  Pr  Pr4  1  0.175948  0.353202  0.529150  1
  Pr  Pr5  1  0.824052  0.646798  0.470850  1
  Tl  Tl6  1  0.000000  0.000000  0.000000  1
  In  In7  1  0.319220  0.831881  0.787770  1
  In  In8  1  0.680780  0.168119  0.212230  1
  In  In9  1  0.044110  0.531449  0.212230  1
  In  In10  1  0.831881  0.044110  0.512660  1
  In  In11  1  0.468551  0.680780  0.512660  1
  In  In12  1  0.955890  0.468551  0.787770  1
  In  In13  1  0.168119  0.955890  0.487340  1
  In  In14  1  0.531449  0.319220  0.487340  1
  Ge  Ge15  1  0.500000  0.500000  0.000000  1
