# generated using pymatgen
data_Lu5(Hg2Pt)2
_symmetry_space_group_name_H-M   'P 1'
_cell_length_a   3.53631700
_cell_length_b   7.90053500
_cell_length_c   18.06388700
_cell_angle_alpha   90.00000000
_cell_angle_beta   90.00000000
_cell_angle_gamma   90.00000000
_symmetry_Int_Tables_number   1
_chemical_formula_structural   Lu5(Hg2Pt)2
_chemical_formula_sum   'Lu10 Hg8 Pt4'
_cell_volume   504.68325801
_cell_formula_units_Z   2
loop_
 _symmetry_equiv_pos_site_id
 _symmetry_equiv_pos_as_xyz
  1  'x, y, z'
loop_
 _atom_site_type_symbol
 _atom_site_label
 _atom_site_symmetry_multiplicity
 _atom_site_fract_x
 _atom_site_fract_y
 _atom_site_fract_z
 _atom_site_occupancy
  Lu  Lu0  1  0.000000  0.114549  0.415014  1
  Lu  Lu1  1  0.000000  0.885451  0.584986  1
  Lu  Lu2  1  0.000000  0.385451  0.915014  1
  Lu  Lu3  1  0.000000  0.614549  0.084986  1
  Lu  Lu4  1  0.000000  0.242827  0.218180  1
  Lu  Lu5  1  0.000000  0.757173  0.781820  1
  Lu  Lu6  1  0.000000  0.257173  0.718180  1
  Lu  Lu7  1  0.000000  0.742827  0.281820  1
  Lu  Lu8  1  0.000000  0.000000  0.000000  1
  Lu  Lu9  1  0.000000  0.500000  0.500000  1
  Hg  Hg10  1  0.500000  0.424409  0.354550  1
  Hg  Hg11  1  0.500000  0.575591  0.645450  1
  Hg  Hg12  1  0.500000  0.075591  0.854550  1
  Hg  Hg13  1  0.500000  0.924409  0.145450  1
  Hg  Hg14  1  0.500000  0.288559  0.063373  1
  Hg  Hg15  1  0.500000  0.711441  0.936627  1
  Hg  Hg16  1  0.500000  0.211441  0.563373  1
  Hg  Hg17  1  0.500000  0.788559  0.436627  1
  Pt  Pt18  1  0.500000  0.028076  0.303604  1
  Pt  Pt19  1  0.500000  0.971924  0.696396  1
  Pt  Pt20  1  0.500000  0.471924  0.803604  1
  Pt  Pt21  1  0.500000  0.528076  0.196396  1
