# generated using pymatgen
data_Pu2MgF12
_symmetry_space_group_name_H-M   'P 1'
_cell_length_a   5.82866636
_cell_length_b   11.63021279
_cell_length_c   5.85444760
_cell_angle_alpha   57.70645730
_cell_angle_beta   57.89238681
_cell_angle_gamma   57.68026467
_symmetry_Int_Tables_number   1
_chemical_formula_structural   Pu2MgF12
_chemical_formula_sum   'Pu2 Mg1 F12'
_cell_volume   266.18376682
_cell_formula_units_Z   1
loop_
 _symmetry_equiv_pos_site_id
 _symmetry_equiv_pos_as_xyz
  1  'x, y, z'
loop_
 _atom_site_type_symbol
 _atom_site_label
 _atom_site_symmetry_multiplicity
 _atom_site_fract_x
 _atom_site_fract_y
 _atom_site_fract_z
 _atom_site_occupancy
  Pu  Pu0  1  0.001101  0.002013  0.995834  1
  Pu  Pu1  1  0.998899  0.497987  0.004166  1
  Mg  Mg2  1  0.500000  0.750000  0.500000  1
  F  F3  1  0.337319  0.072175  0.759905  1
  F  F4  1  0.336951  0.588046  0.743406  1
  F  F5  1  0.145607  0.383352  0.335631  1
  F  F6  1  0.175720  0.869009  0.340028  1
  F  F7  1  0.240345  0.336073  0.845013  1
  F  F8  1  0.257613  0.828087  0.826625  1
  F  F9  1  0.854393  0.116648  0.664369  1
  F  F10  1  0.824280  0.630991  0.659972  1
  F  F11  1  0.662681  0.427825  0.240095  1
  F  F12  1  0.663049  0.911954  0.256594  1
  F  F13  1  0.759655  0.163927  0.154987  1
  F  F14  1  0.742387  0.671913  0.173375  1
