# generated using pymatgen
data_NbCo2ReB2
_symmetry_space_group_name_H-M   'P 1'
_cell_length_a   3.28653000
_cell_length_b   5.75275142
_cell_length_c   6.66205203
_cell_angle_alpha   88.87672140
_cell_angle_beta   90.00000000
_cell_angle_gamma   90.00000000
_symmetry_Int_Tables_number   1
_chemical_formula_structural   NbCo2ReB2
_chemical_formula_sum   'Nb2 Co4 Re2 B4'
_cell_volume   125.93248195
_cell_formula_units_Z   2
loop_
 _symmetry_equiv_pos_site_id
 _symmetry_equiv_pos_as_xyz
  1  'x, y, z'
loop_
 _atom_site_type_symbol
 _atom_site_label
 _atom_site_symmetry_multiplicity
 _atom_site_fract_x
 _atom_site_fract_y
 _atom_site_fract_z
 _atom_site_occupancy
  Nb  Nb0  1  0.250000  0.528867  0.680315  1
  Nb  Nb1  1  0.750000  0.471133  0.319685  1
  Co  Co2  1  0.750000  0.858137  0.555539  1
  Co  Co3  1  0.250000  0.141863  0.444461  1
  Co  Co4  1  0.750000  0.353801  0.944968  1
  Co  Co5  1  0.250000  0.646199  0.055032  1
  Re  Re6  1  0.250000  0.027908  0.824542  1
  Re  Re7  1  0.750000  0.972092  0.175458  1
  B  B8  1  0.250000  0.260953  0.115051  1
  B  B9  1  0.750000  0.739047  0.884949  1
  B  B10  1  0.250000  0.779607  0.369121  1
  B  B11  1  0.750000  0.220393  0.630879  1
