# generated using pymatgen
data_YbAgIr2O7
_symmetry_space_group_name_H-M   'P 1'
_cell_length_a   7.34377828
_cell_length_b   7.20551233
_cell_length_c   7.20551238
_cell_angle_alpha   59.02962393
_cell_angle_beta   59.36317911
_cell_angle_gamma   59.36318191
_symmetry_Int_Tables_number   1
_chemical_formula_structural   YbAgIr2O7
_chemical_formula_sum   'Yb2 Ag2 Ir4 O14'
_cell_volume   265.00949890
_cell_formula_units_Z   2
loop_
 _symmetry_equiv_pos_site_id
 _symmetry_equiv_pos_as_xyz
  1  'x, y, z'
loop_
 _atom_site_type_symbol
 _atom_site_label
 _atom_site_symmetry_multiplicity
 _atom_site_fract_x
 _atom_site_fract_y
 _atom_site_fract_z
 _atom_site_occupancy
  Yb  Yb0  1  0.625000  0.125000  0.125000  1
  Yb  Yb1  1  0.125000  0.125000  0.125000  1
  Ag  Ag2  1  0.125000  0.625000  0.125000  1
  Ag  Ag3  1  0.125000  0.125000  0.625000  1
  Ir  Ir4  1  0.125000  0.625000  0.625000  1
  Ir  Ir5  1  0.625000  0.125000  0.625000  1
  Ir  Ir6  1  0.625000  0.625000  0.125000  1
  Ir  Ir7  1  0.625000  0.625000  0.625000  1
  O  O8  1  0.699167  0.703134  0.297235  1
  O  O9  1  0.300463  0.297235  0.703134  1
  O  O10  1  0.699167  0.297235  0.703134  1
  O  O11  1  0.300463  0.703134  0.297235  1
  O  O12  1  0.306902  0.693098  0.693098  1
  O  O13  1  0.709410  0.290590  0.290590  1
  O  O14  1  0.550833  0.546866  0.952765  1
  O  O15  1  0.949537  0.952765  0.546866  1
  O  O16  1  0.550833  0.952765  0.546866  1
  O  O17  1  0.949537  0.546866  0.952765  1
  O  O18  1  0.943098  0.556902  0.556902  1
  O  O19  1  0.540590  0.959410  0.959410  1
  O  O20  1  0.235026  0.264974  0.264974  1
  O  O21  1  0.014974  0.985026  0.985026  1
