# generated using pymatgen
data_Sm2DyY(ReB6)2
_symmetry_space_group_name_H-M   'P 1'
_cell_length_a   3.71774500
_cell_length_b   9.24019205
_cell_length_c   11.66592306
_cell_angle_alpha   90.01161403
_cell_angle_beta   90.00000000
_cell_angle_gamma   90.00000000
_symmetry_Int_Tables_number   1
_chemical_formula_structural   Sm2DyY(ReB6)2
_chemical_formula_sum   'Sm4 Dy2 Y2 Re4 B24'
_cell_volume   400.75568769
_cell_formula_units_Z   2
loop_
 _symmetry_equiv_pos_site_id
 _symmetry_equiv_pos_as_xyz
  1  'x, y, z'
loop_
 _atom_site_type_symbol
 _atom_site_label
 _atom_site_symmetry_multiplicity
 _atom_site_fract_x
 _atom_site_fract_y
 _atom_site_fract_z
 _atom_site_occupancy
  Sm  Sm0  1  0.000000  0.823169  0.085941  1
  Sm  Sm1  1  0.000000  0.176831  0.914059  1
  Sm  Sm2  1  0.000000  0.323314  0.414004  1
  Sm  Sm3  1  0.000000  0.676686  0.585996  1
  Dy  Dy4  1  0.000000  0.442610  0.130298  1
  Dy  Dy5  1  0.000000  0.557390  0.869702  1
  Y  Y6  1  0.000000  0.942649  0.369775  1
  Y  Y7  1  0.000000  0.057351  0.630225  1
  Re  Re8  1  0.000000  0.138788  0.179739  1
  Re  Re9  1  0.000000  0.861212  0.820261  1
  Re  Re10  1  0.000000  0.638483  0.320099  1
  Re  Re11  1  0.000000  0.361517  0.679901  1
  B  B12  1  0.500000  0.053937  0.068375  1
  B  B13  1  0.500000  0.946063  0.931626  1
  B  B14  1  0.500000  0.553927  0.431627  1
  B  B15  1  0.500000  0.446073  0.568372  1
  B  B16  1  0.500000  0.248832  0.083026  1
  B  B17  1  0.500000  0.751168  0.916974  1
  B  B18  1  0.500000  0.748729  0.417032  1
  B  B19  1  0.500000  0.251271  0.582968  1
  B  B20  1  0.500000  0.291150  0.233916  1
  B  B21  1  0.500000  0.708850  0.766084  1
  B  B22  1  0.500000  0.791058  0.265958  1
  B  B23  1  0.500000  0.208942  0.734042  1
  B  B24  1  0.500000  0.130145  0.313687  1
  B  B25  1  0.500000  0.869855  0.686313  1
  B  B26  1  0.500000  0.629994  0.186277  1
  B  B27  1  0.500000  0.370006  0.813723  1
  B  B28  1  0.500000  0.483037  0.287452  1
  B  B29  1  0.500000  0.516963  0.712548  1
  B  B30  1  0.500000  0.983034  0.212404  1
  B  B31  1  0.500000  0.016966  0.787596  1
  B  B32  1  0.500000  0.098476  0.472491  1
  B  B33  1  0.500000  0.901524  0.527509  1
  B  B34  1  0.500000  0.598189  0.027457  1
  B  B35  1  0.500000  0.401811  0.972543  1
