# generated using pymatgen
data_AcLa(Zn3Ga)2
_symmetry_space_group_name_H-M   'P 1'
_cell_length_a   6.15181046
_cell_length_b   6.15181123
_cell_length_c   6.11204600
_cell_angle_alpha   90.00000000
_cell_angle_beta   90.00000000
_cell_angle_gamma   117.07576505
_symmetry_Int_Tables_number   1
_chemical_formula_structural   AcLa(Zn3Ga)2
_chemical_formula_sum   'Ac1 La1 Zn6 Ga2'
_cell_volume   205.95879934
_cell_formula_units_Z   1
loop_
 _symmetry_equiv_pos_site_id
 _symmetry_equiv_pos_as_xyz
  1  'x, y, z'
loop_
 _atom_site_type_symbol
 _atom_site_label
 _atom_site_symmetry_multiplicity
 _atom_site_fract_x
 _atom_site_fract_y
 _atom_site_fract_z
 _atom_site_occupancy
  Ac  Ac0  1  0.265579  0.734421  0.750000  1
  La  La1  1  0.733249  0.266751  0.250000  1
  Zn  Zn2  1  0.607605  0.392395  0.750000  1
  Zn  Zn3  1  0.393089  0.606911  0.250000  1
  Zn  Zn4  1  0.779362  0.779116  0.001758  1
  Zn  Zn5  1  0.779362  0.779116  0.498242  1
  Zn  Zn6  1  0.220884  0.220638  0.001758  1
  Zn  Zn7  1  0.220884  0.220638  0.498242  1
  Ga  Ga8  1  0.850027  0.149973  0.750000  1
  Ga  Ga9  1  0.149959  0.850041  0.250000  1
