# generated using pymatgen
data_Er2B(Ir2Rh)2
_symmetry_space_group_name_H-M   'P 1'
_cell_length_a   5.80863954
_cell_length_b   5.80863884
_cell_length_c   5.80913000
_cell_angle_alpha   59.99720286
_cell_angle_beta   59.99720681
_cell_angle_gamma   60.28391940
_symmetry_Int_Tables_number   1
_chemical_formula_structural   Er2B(Ir2Rh)2
_chemical_formula_sum   'Er2 B1 Ir4 Rh2'
_cell_volume   138.88319126
_cell_formula_units_Z   1
loop_
 _symmetry_equiv_pos_site_id
 _symmetry_equiv_pos_as_xyz
  1  'x, y, z'
loop_
 _atom_site_type_symbol
 _atom_site_label
 _atom_site_symmetry_multiplicity
 _atom_site_fract_x
 _atom_site_fract_y
 _atom_site_fract_z
 _atom_site_occupancy
  Er  Er0  1  0.749279  0.749279  0.751611  1
  Er  Er1  1  0.250721  0.250721  0.250170  1
  B  B2  1  0.500000  0.500000  0.497373  1
  Ir  Ir3  1  0.758036  0.758036  0.243099  1
  Ir  Ir4  1  0.760859  0.239141  0.241842  1
  Ir  Ir5  1  0.239141  0.760859  0.241842  1
  Ir  Ir6  1  0.241964  0.241964  0.759172  1
  Rh  Rh7  1  0.758402  0.241598  0.757445  1
  Rh  Rh8  1  0.241598  0.758402  0.757445  1
