# generated using pymatgen
data_Tb4Er2CrCo17P12
_symmetry_space_group_name_H-M   'P 1'
_cell_length_a   3.68795200
_cell_length_b   10.51215600
_cell_length_c   12.19207600
_cell_angle_alpha   90.00000000
_cell_angle_beta   90.00000000
_cell_angle_gamma   90.00000000
_symmetry_Int_Tables_number   1
_chemical_formula_structural   Tb4Er2CrCo17P12
_chemical_formula_sum   'Tb4 Er2 Cr1 Co17 P12'
_cell_volume   472.66638606
_cell_formula_units_Z   1
loop_
 _symmetry_equiv_pos_site_id
 _symmetry_equiv_pos_as_xyz
  1  'x, y, z'
loop_
 _atom_site_type_symbol
 _atom_site_label
 _atom_site_symmetry_multiplicity
 _atom_site_fract_x
 _atom_site_fract_y
 _atom_site_fract_z
 _atom_site_occupancy
  Tb  Tb0  1  0.000000  0.500000  0.522410  1
  Tb  Tb1  1  0.500000  0.000000  0.477255  1
  Tb  Tb2  1  0.000000  0.682558  0.795693  1
  Tb  Tb3  1  0.000000  0.317442  0.795693  1
  Er  Er4  1  0.500000  0.817800  0.206497  1
  Er  Er5  1  0.500000  0.182200  0.206497  1
  Cr  Cr6  1  0.500000  0.500000  0.154510  1
  Co  Co7  1  0.000000  0.000000  0.840439  1
  Co  Co8  1  0.500000  0.500000  0.703363  1
  Co  Co9  1  0.000000  0.000000  0.295795  1
  Co  Co10  1  0.000000  0.500000  0.988804  1
  Co  Co11  1  0.500000  0.000000  0.015809  1
  Co  Co12  1  0.500000  0.332087  0.994549  1
  Co  Co13  1  0.500000  0.667913  0.994549  1
  Co  Co14  1  0.000000  0.166247  0.006739  1
  Co  Co15  1  0.000000  0.833753  0.006739  1
  Co  Co16  1  0.500000  0.296484  0.429574  1
  Co  Co17  1  0.500000  0.703516  0.429574  1
  Co  Co18  1  0.000000  0.203137  0.568503  1
  Co  Co19  1  0.000000  0.796863  0.568503  1
  Co  Co20  1  0.500000  0.879467  0.708860  1
  Co  Co21  1  0.500000  0.120533  0.708860  1
  Co  Co22  1  0.000000  0.620666  0.289916  1
  Co  Co23  1  0.000000  0.379334  0.289916  1
  P  P24  1  0.500000  0.500000  0.883583  1
  P  P25  1  0.000000  0.000000  0.118132  1
  P  P26  1  0.500000  0.500000  0.344900  1
  P  P27  1  0.000000  0.000000  0.656261  1
  P  P28  1  0.500000  0.310432  0.615599  1
  P  P29  1  0.500000  0.689568  0.615599  1
  P  P30  1  0.000000  0.188932  0.383058  1
  P  P31  1  0.000000  0.811068  0.383058  1
  P  P32  1  0.500000  0.849753  0.892860  1
  P  P33  1  0.500000  0.150247  0.892860  1
  P  P34  1  0.000000  0.654532  0.107523  1
  P  P35  1  0.000000  0.345468  0.107523  1
