# generated using pymatgen
data_Er10CdIn7Pd4
_symmetry_space_group_name_H-M   'P 1'
_cell_length_a   3.62381100
_cell_length_b   8.08192787
_cell_length_c   18.13692261
_cell_angle_alpha   90.01759135
_cell_angle_beta   90.00000000
_cell_angle_gamma   90.00000000
_symmetry_Int_Tables_number   1
_chemical_formula_structural   Er10CdIn7Pd4
_chemical_formula_sum   'Er10 Cd1 In7 Pd4'
_cell_volume   531.18290350
_cell_formula_units_Z   1
loop_
 _symmetry_equiv_pos_site_id
 _symmetry_equiv_pos_as_xyz
  1  'x, y, z'
loop_
 _atom_site_type_symbol
 _atom_site_label
 _atom_site_symmetry_multiplicity
 _atom_site_fract_x
 _atom_site_fract_y
 _atom_site_fract_z
 _atom_site_occupancy
  Er  Er0  1  0.000000  0.499960  0.500127  1
  Er  Er1  1  0.000000  0.000453  0.999284  1
  Er  Er2  1  0.000000  0.743149  0.279272  1
  Er  Er3  1  0.000000  0.256494  0.720771  1
  Er  Er4  1  0.000000  0.755908  0.781664  1
  Er  Er5  1  0.000000  0.242050  0.219633  1
  Er  Er6  1  0.000000  0.617443  0.083849  1
  Er  Er7  1  0.000000  0.386049  0.915356  1
  Er  Er8  1  0.000000  0.881491  0.585033  1
  Er  Er9  1  0.000000  0.117221  0.415591  1
  Cd  Cd10  1  0.500000  0.709867  0.933037  1
  In  In11  1  0.500000  0.293989  0.067266  1
  In  In12  1  0.500000  0.792123  0.432398  1
  In  In13  1  0.500000  0.207870  0.567405  1
  In  In14  1  0.500000  0.575836  0.648711  1
  In  In15  1  0.500000  0.423180  0.350850  1
  In  In16  1  0.500000  0.923560  0.147964  1
  In  In17  1  0.500000  0.074636  0.852415  1
  Pd  Pd18  1  0.500000  0.524735  0.195917  1
  Pd  Pd19  1  0.500000  0.473911  0.803271  1
  Pd  Pd20  1  0.500000  0.975569  0.696356  1
  Pd  Pd21  1  0.500000  0.024506  0.303829  1
