# generated using pymatgen
data_Nd4NbRu6W
_symmetry_space_group_name_H-M   'P 1'
_cell_length_a   5.71596500
_cell_length_b   5.71596447
_cell_length_c   7.95774300
_cell_angle_alpha   90.00000000
_cell_angle_beta   90.00000000
_cell_angle_gamma   120.00000884
_symmetry_Int_Tables_number   1
_chemical_formula_structural   Nd4NbRu6W
_chemical_formula_sum   'Nd4 Nb1 Ru6 W1'
_cell_volume   225.16432596
_cell_formula_units_Z   1
loop_
 _symmetry_equiv_pos_site_id
 _symmetry_equiv_pos_as_xyz
  1  'x, y, z'
loop_
 _atom_site_type_symbol
 _atom_site_label
 _atom_site_symmetry_multiplicity
 _atom_site_fract_x
 _atom_site_fract_y
 _atom_site_fract_z
 _atom_site_occupancy
  Nd  Nd0  1  0.333333  0.666667  0.437228  1
  Nd  Nd1  1  0.666667  0.333333  0.562772  1
  Nd  Nd2  1  0.666667  0.333333  0.937460  1
  Nd  Nd3  1  0.333333  0.666667  0.062540  1
  Nb  Nb4  1  0.000000  0.000000  0.000000  1
  Ru  Ru5  1  0.830909  0.169091  0.253892  1
  Ru  Ru6  1  0.830909  0.661817  0.253892  1
  Ru  Ru7  1  0.338183  0.169091  0.253892  1
  Ru  Ru8  1  0.169091  0.830909  0.746108  1
  Ru  Ru9  1  0.169091  0.338183  0.746108  1
  Ru  Ru10  1  0.661817  0.830909  0.746108  1
  W  W11  1  0.000000  0.000000  0.500000  1
