# generated using pymatgen
data_LiTa2Nb(PRh)4
_symmetry_space_group_name_H-M   'P 1'
_cell_length_a   3.71195400
_cell_length_b   6.34680152
_cell_length_c   7.26531144
_cell_angle_alpha   90.67336231
_cell_angle_beta   90.00000000
_cell_angle_gamma   90.00000000
_symmetry_Int_Tables_number   1
_chemical_formula_structural   LiTa2Nb(PRh)4
_chemical_formula_sum   'Li1 Ta2 Nb1 P4 Rh4'
_cell_volume   171.15190825
_cell_formula_units_Z   1
loop_
 _symmetry_equiv_pos_site_id
 _symmetry_equiv_pos_as_xyz
  1  'x, y, z'
loop_
 _atom_site_type_symbol
 _atom_site_label
 _atom_site_symmetry_multiplicity
 _atom_site_fract_x
 _atom_site_fract_y
 _atom_site_fract_z
 _atom_site_occupancy
  Li  Li0  1  0.250000  0.033654  0.825280  1
  Ta  Ta1  1  0.250000  0.526636  0.671721  1
  Ta  Ta2  1  0.750000  0.469188  0.326539  1
  Nb  Nb3  1  0.750000  0.969235  0.172544  1
  P  P4  1  0.250000  0.762637  0.374784  1
  P  P5  1  0.250000  0.253103  0.121058  1
  P  P6  1  0.750000  0.238413  0.627352  1
  P  P7  1  0.750000  0.751515  0.876729  1
  Rh  Rh8  1  0.250000  0.149757  0.437789  1
  Rh  Rh9  1  0.250000  0.640329  0.061703  1
  Rh  Rh10  1  0.750000  0.851643  0.566998  1
  Rh  Rh11  1  0.750000  0.353890  0.937506  1
