# generated using pymatgen
data_TbNd7(SiBr6)2
_symmetry_space_group_name_H-M   'P 1'
_cell_length_a   4.18992400
_cell_length_b   13.71298367
_cell_length_c   14.50130754
_cell_angle_alpha   90.38130291
_cell_angle_beta   90.00000000
_cell_angle_gamma   90.00000000
_symmetry_Int_Tables_number   1
_chemical_formula_structural   TbNd7(SiBr6)2
_chemical_formula_sum   'Tb1 Nd7 Si2 Br12'
_cell_volume   833.17388724
_cell_formula_units_Z   1
loop_
 _symmetry_equiv_pos_site_id
 _symmetry_equiv_pos_as_xyz
  1  'x, y, z'
loop_
 _atom_site_type_symbol
 _atom_site_label
 _atom_site_symmetry_multiplicity
 _atom_site_fract_x
 _atom_site_fract_y
 _atom_site_fract_z
 _atom_site_occupancy
  Tb  Tb0  1  0.500000  0.382161  0.841621  1
  Nd  Nd1  1  0.500000  0.119019  0.340370  1
  Nd  Nd2  1  0.500000  0.881327  0.659880  1
  Nd  Nd3  1  0.500000  0.617961  0.158388  1
  Nd  Nd4  1  0.000000  0.121392  0.580942  1
  Nd  Nd5  1  0.000000  0.880190  0.420326  1
  Nd  Nd6  1  0.000000  0.619081  0.920510  1
  Nd  Nd7  1  0.000000  0.380337  0.078698  1
  Si  Si8  1  0.500000  0.000837  0.500555  1
  Si  Si9  1  0.500000  0.498381  0.997839  1
  Br  Br10  1  0.500000  0.243097  0.161634  1
  Br  Br11  1  0.500000  0.756229  0.837489  1
  Br  Br12  1  0.500000  0.742840  0.337449  1
  Br  Br13  1  0.500000  0.259429  0.667682  1
  Br  Br14  1  0.000000  0.255312  0.412095  1
  Br  Br15  1  0.000000  0.744879  0.588271  1
  Br  Br16  1  0.000000  0.754661  0.088530  1
  Br  Br17  1  0.000000  0.251252  0.904571  1
  Br  Br18  1  0.000000  0.001148  0.243420  1
  Br  Br19  1  0.000000  0.999052  0.756962  1
  Br  Br20  1  0.000000  0.501532  0.256043  1
  Br  Br21  1  0.000000  0.489882  0.746726  1
