# generated using pymatgen
data_Li2Hf6BBr15
_symmetry_space_group_name_H-M   'P 1'
_cell_length_a   9.39164642
_cell_length_b   9.39158459
_cell_length_c   9.39164659
_cell_angle_alpha   108.18062601
_cell_angle_beta   108.18135703
_cell_angle_gamma   112.08396734
_symmetry_Int_Tables_number   1
_chemical_formula_structural   Li2Hf6BBr15
_chemical_formula_sum   'Li2 Hf6 B1 Br15'
_cell_volume   636.67501344
_cell_formula_units_Z   1
loop_
 _symmetry_equiv_pos_site_id
 _symmetry_equiv_pos_as_xyz
  1  'x, y, z'
loop_
 _atom_site_type_symbol
 _atom_site_label
 _atom_site_symmetry_multiplicity
 _atom_site_fract_x
 _atom_site_fract_y
 _atom_site_fract_z
 _atom_site_occupancy
  Li  Li0  1  0.249995  0.749995  0.500000  1
  Li  Li1  1  0.750005  0.250005  0.500000  1
  Hf  Hf2  1  0.779441  0.779439  0.999997  1
  Hf  Hf3  1  0.000000  0.207001  0.207002  1
  Hf  Hf4  1  0.207000  0.000000  0.207000  1
  Hf  Hf5  1  0.220559  0.220561  0.000003  1
  Hf  Hf6  1  0.000000  0.792999  0.792998  1
  Hf  Hf7  1  0.793000  0.000000  0.793000  1
  B  B8  1  0.000000  0.000000  0.000000  1
  Br  Br9  1  0.500000  0.500000  0.000000  1
  Br  Br10  1  0.000000  0.500000  0.500000  1
  Br  Br11  1  0.500000  0.000000  0.500000  1
  Br  Br12  1  0.239826  0.239825  0.479650  1
  Br  Br13  1  0.990709  0.748398  0.242311  1
  Br  Br14  1  0.748399  0.990706  0.242307  1
  Br  Br15  1  0.239826  0.760175  0.000001  1
  Br  Br16  1  0.493912  0.251602  0.242312  1
  Br  Br17  1  0.251601  0.009294  0.757693  1
  Br  Br18  1  0.760174  0.239825  0.999999  1
  Br  Br19  1  0.009291  0.251602  0.757689  1
  Br  Br20  1  0.251601  0.493910  0.242310  1
  Br  Br21  1  0.760174  0.760175  0.520350  1
  Br  Br22  1  0.506088  0.748398  0.757688  1
  Br  Br23  1  0.748399  0.506090  0.757690  1
