# generated using pymatgen
data_Th4Ga18Ir5Os
_symmetry_space_group_name_H-M   'P 1'
_cell_length_a   7.72373634
_cell_length_b   7.72373719
_cell_length_c   9.51301606
_cell_angle_alpha   89.90844737
_cell_angle_beta   89.90844937
_cell_angle_gamma   119.75320776
_symmetry_Int_Tables_number   1
_chemical_formula_structural   Th4Ga18Ir5Os
_chemical_formula_sum   'Th4 Ga18 Ir5 Os1'
_cell_volume   492.69283592
_cell_formula_units_Z   1
loop_
 _symmetry_equiv_pos_site_id
 _symmetry_equiv_pos_as_xyz
  1  'x, y, z'
loop_
 _atom_site_type_symbol
 _atom_site_label
 _atom_site_symmetry_multiplicity
 _atom_site_fract_x
 _atom_site_fract_y
 _atom_site_fract_z
 _atom_site_occupancy
  Th  Th0  1  0.996707  0.670559  0.249569  1
  Th  Th1  1  0.003293  0.329441  0.750431  1
  Th  Th2  1  0.670559  0.996707  0.249569  1
  Th  Th3  1  0.329441  0.003293  0.750431  1
  Ga  Ga4  1  0.132318  0.132318  0.249067  1
  Ga  Ga5  1  0.867682  0.867682  0.750933  1
  Ga  Ga6  1  0.004056  0.334063  0.078785  1
  Ga  Ga7  1  0.995944  0.665937  0.921215  1
  Ga  Ga8  1  0.996529  0.665238  0.579211  1
  Ga  Ga9  1  0.334762  0.003471  0.420789  1
  Ga  Ga10  1  0.003471  0.334762  0.420789  1
  Ga  Ga11  1  0.665238  0.996529  0.579211  1
  Ga  Ga12  1  0.665937  0.995944  0.921215  1
  Ga  Ga13  1  0.334063  0.004056  0.078785  1
  Ga  Ga14  1  0.336874  0.336874  0.562287  1
  Ga  Ga15  1  0.663126  0.663126  0.437713  1
  Ga  Ga16  1  0.665465  0.665465  0.060755  1
  Ga  Ga17  1  0.334535  0.334535  0.939245  1
  Ga  Ga18  1  0.340061  0.543212  0.249959  1
  Ga  Ga19  1  0.659939  0.456788  0.750041  1
  Ga  Ga20  1  0.543212  0.340061  0.249959  1
  Ga  Ga21  1  0.456788  0.659939  0.750041  1
  Ir  Ir22  1  0.672550  0.327450  0.000000  1
  Ir  Ir23  1  0.327450  0.672550  0.000000  1
  Ir  Ir24  1  0.327558  0.672442  0.500000  1
  Ir  Ir25  1  0.672442  0.327558  0.500000  1
  Ir  Ir26  1  0.000000  0.000000  0.500000  1
  Os  Os27  1  0.000000  0.000000  0.000000  1
