# generated using pymatgen
data_Ce12Re(Si4Ir)3
_symmetry_space_group_name_H-M   'P 1'
_cell_length_a   4.32666800
_cell_length_b   10.45805107
_cell_length_c   12.79880602
_cell_angle_alpha   90.13131792
_cell_angle_beta   90.00000000
_cell_angle_gamma   90.00000000
_symmetry_Int_Tables_number   1
_chemical_formula_structural   Ce12Re(Si4Ir)3
_chemical_formula_sum   'Ce12 Re1 Si12 Ir3'
_cell_volume   579.12544424
_cell_formula_units_Z   1
loop_
 _symmetry_equiv_pos_site_id
 _symmetry_equiv_pos_as_xyz
  1  'x, y, z'
loop_
 _atom_site_type_symbol
 _atom_site_label
 _atom_site_symmetry_multiplicity
 _atom_site_fract_x
 _atom_site_fract_y
 _atom_site_fract_z
 _atom_site_occupancy
  Ce  Ce0  1  0.250000  0.900512  0.028069  1
  Ce  Ce1  1  0.250000  0.598555  0.528565  1
  Ce  Ce2  1  0.750000  0.097683  0.972202  1
  Ce  Ce3  1  0.750000  0.402413  0.474169  1
  Ce  Ce4  1  0.250000  0.915171  0.596083  1
  Ce  Ce5  1  0.250000  0.585472  0.095630  1
  Ce  Ce6  1  0.750000  0.084080  0.404058  1
  Ce  Ce7  1  0.750000  0.416226  0.904107  1
  Ce  Ce8  1  0.250000  0.663204  0.806581  1
  Ce  Ce9  1  0.250000  0.835542  0.306997  1
  Ce  Ce10  1  0.750000  0.337260  0.193672  1
  Ce  Ce11  1  0.750000  0.163675  0.690670  1
  Re  Re12  1  0.250000  0.380726  0.685450  1
  Si  Si13  1  0.250000  0.996737  0.813047  1
  Si  Si14  1  0.250000  0.502910  0.312428  1
  Si  Si15  1  0.750000  0.002412  0.188018  1
  Si  Si16  1  0.750000  0.496734  0.688563  1
  Si  Si17  1  0.250000  0.237403  0.841642  1
  Si  Si18  1  0.250000  0.263962  0.342422  1
  Si  Si19  1  0.750000  0.764015  0.157752  1
  Si  Si20  1  0.750000  0.737253  0.657410  1
  Si  Si21  1  0.250000  0.216115  0.538309  1
  Si  Si22  1  0.250000  0.283293  0.039780  1
  Si  Si23  1  0.750000  0.784761  0.460038  1
  Si  Si24  1  0.750000  0.715790  0.960442  1
  Ir  Ir25  1  0.250000  0.118448  0.186921  1
  Ir  Ir26  1  0.750000  0.618317  0.312456  1
  Ir  Ir27  1  0.750000  0.881329  0.814519  1
