# generated using pymatgen
data_LaSmGePdI2
_symmetry_space_group_name_H-M   'P 1'
_cell_length_a   4.42062600
_cell_length_b   4.42062614
_cell_length_c   11.86547900
_cell_angle_alpha   90.00000000
_cell_angle_beta   90.00000000
_cell_angle_gamma   120.00001392
_symmetry_Int_Tables_number   1
_chemical_formula_structural   LaSmGePdI2
_chemical_formula_sum   'La1 Sm1 Ge1 Pd1 I2'
_cell_volume   200.80910791
_cell_formula_units_Z   1
loop_
 _symmetry_equiv_pos_site_id
 _symmetry_equiv_pos_as_xyz
  1  'x, y, z'
loop_
 _atom_site_type_symbol
 _atom_site_label
 _atom_site_symmetry_multiplicity
 _atom_site_fract_x
 _atom_site_fract_y
 _atom_site_fract_z
 _atom_site_occupancy
  La  La0  1  0.000000  0.000000  0.844328  1
  Sm  Sm1  1  0.000000  0.000000  0.157466  1
  Ge  Ge2  1  0.666667  0.333333  0.013149  1
  Pd  Pd3  1  0.333333  0.666667  0.996396  1
  I  I4  1  0.666667  0.333333  0.661297  1
  I  I5  1  0.333333  0.666667  0.327364  1
