# generated using pymatgen
data_Tb2YIn3Ni2Au
_symmetry_space_group_name_H-M   'P 1'
_cell_length_a   7.64879510
_cell_length_b   7.64298337
_cell_length_c   3.82063700
_cell_angle_alpha   90.00000000
_cell_angle_beta   90.00000000
_cell_angle_gamma   120.00648420
_symmetry_Int_Tables_number   1
_chemical_formula_structural   Tb2YIn3Ni2Au
_chemical_formula_sum   'Tb2 Y1 In3 Ni2 Au1'
_cell_volume   193.41670054
_cell_formula_units_Z   1
loop_
 _symmetry_equiv_pos_site_id
 _symmetry_equiv_pos_as_xyz
  1  'x, y, z'
loop_
 _atom_site_type_symbol
 _atom_site_label
 _atom_site_symmetry_multiplicity
 _atom_site_fract_x
 _atom_site_fract_y
 _atom_site_fract_z
 _atom_site_occupancy
  Tb  Tb0  1  0.582961  0.982007  0.500000  1
  Tb  Tb1  1  0.398913  0.416859  0.500000  1
  Y  Y2  1  0.017368  0.600892  0.500000  1
  In  In3  1  0.750523  0.753215  0.000000  1
  In  In4  1  0.003045  0.250366  0.000000  1
  In  In5  1  0.246496  0.996398  0.000000  1
  Ni  Ni6  1  0.000070  0.000519  0.500000  1
  Ni  Ni7  1  0.334383  0.666815  0.000000  1
  Au  Au8  1  0.666241  0.332929  0.000000  1
