# generated using pymatgen
data_Ho10SiSn6Au
_symmetry_space_group_name_H-M   'P 1'
_cell_length_a   9.14167600
_cell_length_b   9.14167544
_cell_length_c   6.60706600
_cell_angle_alpha   90.00000000
_cell_angle_beta   90.00000000
_cell_angle_gamma   120.00000203
_symmetry_Int_Tables_number   1
_chemical_formula_structural   Ho10SiSn6Au
_chemical_formula_sum   'Ho10 Si1 Sn6 Au1'
_cell_volume   478.17943118
_cell_formula_units_Z   1
loop_
 _symmetry_equiv_pos_site_id
 _symmetry_equiv_pos_as_xyz
  1  'x, y, z'
loop_
 _atom_site_type_symbol
 _atom_site_label
 _atom_site_symmetry_multiplicity
 _atom_site_fract_x
 _atom_site_fract_y
 _atom_site_fract_z
 _atom_site_occupancy
  Ho  Ho0  1  0.666667  0.333333  0.000000  1
  Ho  Ho1  1  0.333333  0.666667  0.000000  1
  Ho  Ho2  1  0.333333  0.666667  0.500000  1
  Ho  Ho3  1  0.666667  0.333333  0.500000  1
  Ho  Ho4  1  0.741644  0.741644  0.733239  1
  Ho  Ho5  1  0.258356  0.000000  0.733239  1
  Ho  Ho6  1  0.000000  0.258356  0.733239  1
  Ho  Ho7  1  0.258356  0.258356  0.266761  1
  Ho  Ho8  1  0.741644  0.000000  0.266761  1
  Ho  Ho9  1  0.000000  0.741644  0.266761  1
  Si  Si10  1  0.000000  0.000000  0.500000  1
  Sn  Sn11  1  0.390750  0.390750  0.752423  1
  Sn  Sn12  1  0.609250  0.000000  0.752423  1
  Sn  Sn13  1  0.000000  0.609250  0.752423  1
  Sn  Sn14  1  0.609250  0.609250  0.247577  1
  Sn  Sn15  1  0.390750  0.000000  0.247577  1
  Sn  Sn16  1  0.000000  0.390750  0.247577  1
  Au  Au17  1  0.000000  0.000000  0.000000  1
