# generated using pymatgen
data_Sr2(Al3Ir)3
_symmetry_space_group_name_H-M   'P 1'
_cell_length_a   7.63778345
_cell_length_b   7.63778325
_cell_length_c   9.88085200
_cell_angle_alpha   90.00000000
_cell_angle_beta   90.00000000
_cell_angle_gamma   119.24223476
_symmetry_Int_Tables_number   1
_chemical_formula_structural   Sr2(Al3Ir)3
_chemical_formula_sum   'Sr4 Al18 Ir6'
_cell_volume   502.95076192
_cell_formula_units_Z   2
loop_
 _symmetry_equiv_pos_site_id
 _symmetry_equiv_pos_as_xyz
  1  'x, y, z'
loop_
 _atom_site_type_symbol
 _atom_site_label
 _atom_site_symmetry_multiplicity
 _atom_site_fract_x
 _atom_site_fract_y
 _atom_site_fract_z
 _atom_site_occupancy
  Sr  Sr0  1  0.993717  0.671310  0.250000  1
  Sr  Sr1  1  0.006283  0.328690  0.750000  1
  Sr  Sr2  1  0.671310  0.993717  0.250000  1
  Sr  Sr3  1  0.328690  0.006283  0.750000  1
  Al  Al4  1  0.133973  0.133973  0.250000  1
  Al  Al5  1  0.866027  0.866027  0.750000  1
  Al  Al6  1  0.003935  0.334933  0.066010  1
  Al  Al7  1  0.996065  0.665067  0.933990  1
  Al  Al8  1  0.996065  0.665067  0.566010  1
  Al  Al9  1  0.334933  0.003935  0.433990  1
  Al  Al10  1  0.003935  0.334933  0.433990  1
  Al  Al11  1  0.665067  0.996065  0.566010  1
  Al  Al12  1  0.665067  0.996065  0.933990  1
  Al  Al13  1  0.334933  0.003935  0.066010  1
  Al  Al14  1  0.335572  0.335572  0.539727  1
  Al  Al15  1  0.664428  0.664428  0.460273  1
  Al  Al16  1  0.664428  0.664428  0.039727  1
  Al  Al17  1  0.335572  0.335572  0.960273  1
  Al  Al18  1  0.333693  0.541206  0.250000  1
  Al  Al19  1  0.666307  0.458794  0.750000  1
  Al  Al20  1  0.541206  0.333693  0.250000  1
  Al  Al21  1  0.458794  0.666307  0.750000  1
  Ir  Ir22  1  0.669988  0.330012  0.000000  1
  Ir  Ir23  1  0.330012  0.669988  0.000000  1
  Ir  Ir24  1  0.330012  0.669988  0.500000  1
  Ir  Ir25  1  0.669988  0.330012  0.500000  1
  Ir  Ir26  1  0.000000  0.000000  0.000000  1
  Ir  Ir27  1  0.000000  0.000000  0.500000  1
