# generated using pymatgen
data_Tb5NdIr18
_symmetry_space_group_name_H-M   'P 1'
_cell_length_a   5.33279101
_cell_length_b   5.33278911
_cell_length_c   17.52005800
_cell_angle_alpha   90.00000000
_cell_angle_beta   90.00000000
_cell_angle_gamma   120.00073766
_symmetry_Int_Tables_number   1
_chemical_formula_structural   Tb5NdIr18
_chemical_formula_sum   'Tb5 Nd1 Ir18'
_cell_volume   431.49117372
_cell_formula_units_Z   1
loop_
 _symmetry_equiv_pos_site_id
 _symmetry_equiv_pos_as_xyz
  1  'x, y, z'
loop_
 _atom_site_type_symbol
 _atom_site_label
 _atom_site_symmetry_multiplicity
 _atom_site_fract_x
 _atom_site_fract_y
 _atom_site_fract_z
 _atom_site_occupancy
  Tb  Tb0  1  0.333330  0.666669  0.541155  1
  Tb  Tb1  1  0.666661  0.333340  0.040432  1
  Tb  Tb2  1  0.666661  0.333340  0.459568  1
  Tb  Tb3  1  0.333330  0.666669  0.958845  1
  Tb  Tb4  1  0.333331  0.666664  0.750000  1
  Nd  Nd5  1  0.666673  0.333330  0.250000  1
  Ir  Ir6  1  0.166957  0.333912  0.126279  1
  Ir  Ir7  1  0.832971  0.665930  0.626853  1
  Ir  Ir8  1  0.666086  0.833046  0.126283  1
  Ir  Ir9  1  0.166970  0.833033  0.126286  1
  Ir  Ir10  1  0.832971  0.167026  0.626854  1
  Ir  Ir11  1  0.334069  0.167034  0.626853  1
  Ir  Ir12  1  0.832971  0.665930  0.873147  1
  Ir  Ir13  1  0.832971  0.167026  0.873146  1
  Ir  Ir14  1  0.334069  0.167034  0.873147  1
  Ir  Ir15  1  0.666086  0.833046  0.373717  1
  Ir  Ir16  1  0.166970  0.833033  0.373714  1
  Ir  Ir17  1  0.166957  0.333912  0.373721  1
  Ir  Ir18  1  0.999958  0.000087  0.250000  1
  Ir  Ir19  1  0.999998  0.000005  0.750000  1
  Ir  Ir20  1  0.333362  0.666594  0.250000  1
  Ir  Ir21  1  0.666672  0.333329  0.750000  1
  Ir  Ir22  1  0.999990  0.000005  0.999750  1
  Ir  Ir23  1  0.999990  0.000005  0.500250  1
