# generated using pymatgen
data_LuHf2(TcP)3
_symmetry_space_group_name_H-M   'P 1'
_cell_length_a   6.81617455
_cell_length_b   6.80252932
_cell_length_c   3.50634100
_cell_angle_alpha   90.00000000
_cell_angle_beta   90.00000000
_cell_angle_gamma   119.93380720
_symmetry_Int_Tables_number   1
_chemical_formula_structural   LuHf2(TcP)3
_chemical_formula_sum   'Lu1 Hf2 Tc3 P3'
_cell_volume   140.89163090
_cell_formula_units_Z   1
loop_
 _symmetry_equiv_pos_site_id
 _symmetry_equiv_pos_as_xyz
  1  'x, y, z'
loop_
 _atom_site_type_symbol
 _atom_site_label
 _atom_site_symmetry_multiplicity
 _atom_site_fract_x
 _atom_site_fract_y
 _atom_site_fract_z
 _atom_site_occupancy
  Lu  Lu0  1  0.000000  0.593792  0.500000  1
  Hf  Hf1  1  0.406397  0.404367  0.500000  1
  Hf  Hf2  1  0.593603  0.997970  0.500000  1
  Tc  Tc3  1  0.249827  0.005009  0.000000  1
  Tc  Tc4  1  0.750173  0.755182  0.000000  1
  Tc  Tc5  1  0.000000  0.243641  0.000000  1
  P  P6  1  0.661608  0.329593  0.000000  1
  P  P7  1  0.338392  0.667986  0.000000  1
  P  P8  1  0.000000  0.002460  0.500000  1
