# generated using pymatgen
data_LiLu4B16Rh3
_symmetry_space_group_name_H-M   'P 1'
_cell_length_a   3.51576200
_cell_length_b   5.89987891
_cell_length_c   11.41370572
_cell_angle_alpha   90.29810284
_cell_angle_beta   90.00000000
_cell_angle_gamma   90.00000000
_symmetry_Int_Tables_number   1
_chemical_formula_structural   LiLu4B16Rh3
_chemical_formula_sum   'Li1 Lu4 B16 Rh3'
_cell_volume   236.74638644
_cell_formula_units_Z   1
loop_
 _symmetry_equiv_pos_site_id
 _symmetry_equiv_pos_as_xyz
  1  'x, y, z'
loop_
 _atom_site_type_symbol
 _atom_site_label
 _atom_site_symmetry_multiplicity
 _atom_site_fract_x
 _atom_site_fract_y
 _atom_site_fract_z
 _atom_site_occupancy
  Li  Li0  1  0.500000  0.364308  0.411807  1
  Lu  Lu1  1  0.500000  0.369456  0.153409  1
  Lu  Lu2  1  0.500000  0.632239  0.850019  1
  Lu  Lu3  1  0.500000  0.126705  0.645852  1
  Lu  Lu4  1  0.500000  0.872094  0.351137  1
  B  B5  1  0.000000  0.113692  0.049219  1
  B  B6  1  0.000000  0.886739  0.952044  1
  B  B7  1  0.000000  0.385777  0.547249  1
  B  B8  1  0.000000  0.614210  0.452940  1
  B  B9  1  0.000000  0.134118  0.467445  1
  B  B10  1  0.000000  0.866395  0.530313  1
  B  B11  1  0.000000  0.365788  0.971259  1
  B  B12  1  0.000000  0.634428  0.031591  1
  B  B13  1  0.000000  0.021720  0.196503  1
  B  B14  1  0.000000  0.975623  0.805648  1
  B  B15  1  0.000000  0.478428  0.692038  1
  B  B16  1  0.000000  0.518634  0.308196  1
  B  B17  1  0.000000  0.212247  0.315731  1
  B  B18  1  0.000000  0.791126  0.684163  1
  B  B19  1  0.000000  0.292177  0.811720  1
  B  B20  1  0.000000  0.710920  0.190478  1
  Rh  Rh21  1  0.500000  0.628137  0.588221  1
  Rh  Rh22  1  0.500000  0.146901  0.902918  1
  Rh  Rh23  1  0.500000  0.858140  0.090101  1
