# generated using pymatgen
data_YSb5O13
_symmetry_space_group_name_H-M   'P 1'
_cell_length_a   7.43274200
_cell_length_b   7.35869938
_cell_length_c   10.30715680
_cell_angle_alpha   88.87369966
_cell_angle_beta   90.00000000
_cell_angle_gamma   90.00000000
_symmetry_Int_Tables_number   1
_chemical_formula_structural   YSb5O13
_chemical_formula_sum   'Y2 Sb10 O26'
_cell_volume   563.64425654
_cell_formula_units_Z   2
loop_
 _symmetry_equiv_pos_site_id
 _symmetry_equiv_pos_as_xyz
  1  'x, y, z'
loop_
 _atom_site_type_symbol
 _atom_site_label
 _atom_site_symmetry_multiplicity
 _atom_site_fract_x
 _atom_site_fract_y
 _atom_site_fract_z
 _atom_site_occupancy
  Y  Y0  1  0.500000  0.500000  0.000000  1
  Y  Y1  1  0.000000  0.500000  0.000000  1
  Sb  Sb2  1  0.250000  0.728975  0.730143  1
  Sb  Sb3  1  0.750000  0.271025  0.269857  1
  Sb  Sb4  1  0.500000  0.000000  0.000000  1
  Sb  Sb5  1  0.750000  0.757747  0.748766  1
  Sb  Sb6  1  0.250000  0.748505  0.252363  1
  Sb  Sb7  1  0.500000  0.500000  0.500000  1
  Sb  Sb8  1  0.000000  0.500000  0.500000  1
  Sb  Sb9  1  0.750000  0.251495  0.747637  1
  Sb  Sb10  1  0.250000  0.242253  0.251234  1
  Sb  Sb11  1  0.000000  0.000000  0.000000  1
  O  O12  1  0.447872  0.690766  0.372547  1
  O  O13  1  0.750000  0.455546  0.127966  1
  O  O14  1  0.250000  0.493803  0.161133  1
  O  O15  1  0.454385  0.309232  0.365935  1
  O  O16  1  0.557338  0.215148  0.884608  1
  O  O17  1  0.942662  0.215148  0.884608  1
  O  O18  1  0.448201  0.207198  0.120814  1
  O  O19  1  0.750000  0.000374  0.072445  1
  O  O20  1  0.250000  0.999626  0.927555  1
  O  O21  1  0.750000  0.003700  0.683180  1
  O  O22  1  0.551799  0.792802  0.879186  1
  O  O23  1  0.948201  0.792802  0.879186  1
  O  O24  1  0.442662  0.784852  0.115392  1
  O  O25  1  0.052128  0.690766  0.372547  1
  O  O26  1  0.545615  0.690768  0.634065  1
  O  O27  1  0.954385  0.690768  0.634065  1
  O  O28  1  0.250000  0.518371  0.580856  1
  O  O29  1  0.750000  0.506197  0.838867  1
  O  O30  1  0.750000  0.481629  0.419144  1
  O  O31  1  0.045615  0.309232  0.365935  1
  O  O32  1  0.552128  0.309234  0.627453  1
  O  O33  1  0.947872  0.309234  0.627453  1
  O  O34  1  0.051799  0.207198  0.120814  1
  O  O35  1  0.250000  0.996300  0.316820  1
  O  O36  1  0.057338  0.784852  0.115392  1
  O  O37  1  0.250000  0.544454  0.872034  1
