# generated using pymatgen
data_Pr4Hf3ReF28
_symmetry_space_group_name_H-M   'P 1'
_cell_length_a   5.83632359
_cell_length_b   9.34735813
_cell_length_c   12.53913268
_cell_angle_alpha   61.98503965
_cell_angle_beta   89.98051807
_cell_angle_gamma   89.94551799
_symmetry_Int_Tables_number   1
_chemical_formula_structural   Pr4Hf3ReF28
_chemical_formula_sum   'Pr4 Hf3 Re1 F28'
_cell_volume   603.90713013
_cell_formula_units_Z   1
loop_
 _symmetry_equiv_pos_site_id
 _symmetry_equiv_pos_as_xyz
  1  'x, y, z'
loop_
 _atom_site_type_symbol
 _atom_site_label
 _atom_site_symmetry_multiplicity
 _atom_site_fract_x
 _atom_site_fract_y
 _atom_site_fract_z
 _atom_site_occupancy
  Pr  Pr0  1  0.757717  0.812847  0.764571  1
  Pr  Pr1  1  0.256608  0.188157  0.733138  1
  Pr  Pr2  1  0.241392  0.187839  0.237122  1
  Pr  Pr3  1  0.743075  0.810993  0.266047  1
  Hf  Hf4  1  0.754314  0.274078  0.957228  1
  Hf  Hf5  1  0.255565  0.725469  0.543331  1
  Hf  Hf6  1  0.245409  0.725911  0.043158  1
  Re  Re7  1  0.742822  0.273436  0.456764  1
  F  F8  1  0.454528  0.711746  0.921553  1
  F  F9  1  0.939409  0.289433  0.579726  1
  F  F10  1  0.542728  0.287664  0.078196  1
  F  F11  1  0.047842  0.712332  0.421102  1
  F  F12  1  0.459850  0.281766  0.542406  1
  F  F13  1  0.962124  0.718811  0.953294  1
  F  F14  1  0.539588  0.716234  0.454952  1
  F  F15  1  0.035584  0.281555  0.048224  1
  F  F16  1  0.768058  0.516625  0.862289  1
  F  F17  1  0.266885  0.482677  0.637399  1
  F  F18  1  0.230791  0.483593  0.138766  1
  F  F19  1  0.735443  0.513225  0.361288  1
  F  F20  1  0.760648  0.032088  0.056054  1
  F  F21  1  0.262954  0.967379  0.445964  1
  F  F22  1  0.239138  0.967860  0.943188  1
  F  F23  1  0.739728  0.034011  0.551087  1
  F  F24  1  0.984383  0.731769  0.639604  1
  F  F25  1  0.486740  0.267350  0.858909  1
  F  F26  1  0.018306  0.268798  0.365604  1
  F  F27  1  0.515520  0.732655  0.139731  1
  F  F28  1  0.045192  0.745904  0.166697  1
  F  F29  1  0.550612  0.258196  0.331379  1
  F  F30  1  0.959018  0.255605  0.834191  1
  F  F31  1  0.456356  0.743107  0.667725  1
  F  F32  1  0.415016  0.968779  0.233195  1
  F  F33  1  0.914695  0.030784  0.269742  1
  F  F34  1  0.585351  0.032633  0.766867  1
  F  F35  1  0.086608  0.968692  0.729514  1
