# generated using pymatgen
data_NdTiMnO5
_symmetry_space_group_name_H-M   'P 1'
_cell_length_a   5.87184900
_cell_length_b   7.62992500
_cell_length_c   8.82922900
_cell_angle_alpha   90.00000000
_cell_angle_beta   90.00000000
_cell_angle_gamma   90.00000000
_symmetry_Int_Tables_number   1
_chemical_formula_structural   NdTiMnO5
_chemical_formula_sum   'Nd4 Ti4 Mn4 O20'
_cell_volume   395.56506470
_cell_formula_units_Z   4
loop_
 _symmetry_equiv_pos_site_id
 _symmetry_equiv_pos_as_xyz
  1  'x, y, z'
loop_
 _atom_site_type_symbol
 _atom_site_label
 _atom_site_symmetry_multiplicity
 _atom_site_fract_x
 _atom_site_fract_y
 _atom_site_fract_z
 _atom_site_occupancy
  Nd  Nd0  1  0.000000  0.358766  0.672530  1
  Nd  Nd1  1  0.000000  0.641234  0.327470  1
  Nd  Nd2  1  0.000000  0.858766  0.827470  1
  Nd  Nd3  1  0.000000  0.141234  0.172530  1
  Ti  Ti4  1  0.257765  0.500000  0.000000  1
  Ti  Ti5  1  0.742235  0.000000  0.500000  1
  Ti  Ti6  1  0.742235  0.500000  0.000000  1
  Ti  Ti7  1  0.257765  0.000000  0.500000  1
  Mn  Mn8  1  0.500000  0.090219  0.853467  1
  Mn  Mn9  1  0.500000  0.909781  0.146533  1
  Mn  Mn10  1  0.500000  0.590219  0.646533  1
  Mn  Mn11  1  0.500000  0.409781  0.353467  1
  O  O12  1  0.248309  0.899417  0.291133  1
  O  O13  1  0.248309  0.100583  0.708867  1
  O  O14  1  0.751691  0.399417  0.208867  1
  O  O15  1  0.751691  0.600583  0.791133  1
  O  O16  1  0.751691  0.100583  0.708867  1
  O  O17  1  0.751691  0.899417  0.291133  1
  O  O18  1  0.248309  0.600583  0.791133  1
  O  O19  1  0.248309  0.399417  0.208867  1
  O  O20  1  0.500000  0.347900  0.933002  1
  O  O21  1  0.500000  0.652100  0.066998  1
  O  O22  1  0.500000  0.847900  0.566998  1
  O  O23  1  0.500000  0.152100  0.433002  1
  O  O24  1  0.276959  0.000000  0.000000  1
  O  O25  1  0.723041  0.500000  0.500000  1
  O  O26  1  0.723041  0.000000  0.000000  1
  O  O27  1  0.276959  0.500000  0.500000  1
  O  O28  1  0.000000  0.161382  0.448611  1
  O  O29  1  0.000000  0.838618  0.551389  1
  O  O30  1  0.000000  0.661382  0.051389  1
  O  O31  1  0.000000  0.338618  0.948611  1
