# generated using pymatgen
data_Na2H2PbF8
_symmetry_space_group_name_H-M   'P 1'
_cell_length_a   5.80789446
_cell_length_b   5.70639885
_cell_length_c   5.70639940
_cell_angle_alpha   97.31587606
_cell_angle_beta   105.38109074
_cell_angle_gamma   105.38108840
_symmetry_Int_Tables_number   1
_chemical_formula_structural   Na2H2PbF8
_chemical_formula_sum   'Na2 H2 Pb1 F8'
_cell_volume   171.79618509
_cell_formula_units_Z   1
loop_
 _symmetry_equiv_pos_site_id
 _symmetry_equiv_pos_as_xyz
  1  'x, y, z'
loop_
 _atom_site_type_symbol
 _atom_site_label
 _atom_site_symmetry_multiplicity
 _atom_site_fract_x
 _atom_site_fract_y
 _atom_site_fract_z
 _atom_site_occupancy
  Na  Na0  1  0.499999  0.724206  0.275792  1
  Na  Na1  1  0.499999  0.275792  0.724206  1
  H  H2  1  0.764751  0.348385  0.348385  1
  H  H3  1  0.235249  0.651616  0.651616  1
  Pb  Pb4  1  0.000000  0.000000  0.000000  1
  F  F5  1  0.754855  0.658935  0.006644  1
  F  F6  1  0.761534  0.155156  0.155156  1
  F  F7  1  0.245145  0.993357  0.341066  1
  F  F8  1  0.731307  0.467103  0.467103  1
  F  F9  1  0.268693  0.532897  0.532897  1
  F  F10  1  0.754855  0.006644  0.658935  1
  F  F11  1  0.238466  0.844843  0.844843  1
  F  F12  1  0.245145  0.341066  0.993357  1
