# generated using pymatgen
data_Dy4Si10OsPt5
_symmetry_space_group_name_H-M   'P 1'
_cell_length_a   8.16826936
_cell_length_b   8.16826891
_cell_length_c   8.16826846
_cell_angle_alpha   137.37536200
_cell_angle_beta   104.05436589
_cell_angle_gamma   91.22344903
_symmetry_Int_Tables_number   1
_chemical_formula_structural   Dy4Si10OsPt5
_chemical_formula_sum   'Dy4 Si10 Os1 Pt5'
_cell_volume   341.01467128
_cell_formula_units_Z   1
loop_
 _symmetry_equiv_pos_site_id
 _symmetry_equiv_pos_as_xyz
  1  'x, y, z'
loop_
 _atom_site_type_symbol
 _atom_site_label
 _atom_site_symmetry_multiplicity
 _atom_site_fract_x
 _atom_site_fract_y
 _atom_site_fract_z
 _atom_site_occupancy
  Dy  Dy0  1  0.100694  0.870202  0.230409  1
  Dy  Dy1  1  0.899306  0.129715  0.769509  1
  Dy  Dy2  1  0.360207  0.629798  0.730491  1
  Dy  Dy3  1  0.639793  0.370285  0.269591  1
  Si  Si4  1  0.000000  0.750000  0.750000  1
  Si  Si5  1  0.000000  0.250000  0.250000  1
  Si  Si6  1  0.271602  0.021602  0.750000  1
  Si  Si7  1  0.728398  0.478398  0.750000  1
  Si  Si8  1  0.724716  0.974716  0.250000  1
  Si  Si9  1  0.275284  0.525284  0.250000  1
  Si  Si10  1  0.760826  0.615404  0.159412  1
  Si  Si11  1  0.455992  0.101415  0.340588  1
  Si  Si12  1  0.544008  0.884596  0.645423  1
  Si  Si13  1  0.239174  0.398585  0.854577  1
  Os  Os14  1  0.500000  0.750000  0.250000  1
  Pt  Pt15  1  0.252603  0.139789  0.115999  1
  Pt  Pt16  1  0.500000  0.250000  0.750000  1
  Pt  Pt17  1  0.023790  0.636604  0.384001  1
  Pt  Pt18  1  0.976210  0.360211  0.612814  1
  Pt  Pt19  1  0.747397  0.863396  0.887186  1
