# generated using pymatgen
data_Y9Ho11Si15Pd
_symmetry_space_group_name_H-M   'P 1'
_cell_length_a   7.38610164
_cell_length_b   7.71168268
_cell_length_c   14.60438400
_cell_angle_alpha   90.00168655
_cell_angle_beta   89.97607666
_cell_angle_gamma   90.08596279
_symmetry_Int_Tables_number   1
_chemical_formula_structural   Y9Ho11Si15Pd
_chemical_formula_sum   'Y9 Ho11 Si15 Pd1'
_cell_volume   831.85407358
_cell_formula_units_Z   1
loop_
 _symmetry_equiv_pos_site_id
 _symmetry_equiv_pos_as_xyz
  1  'x, y, z'
loop_
 _atom_site_type_symbol
 _atom_site_label
 _atom_site_symmetry_multiplicity
 _atom_site_fract_x
 _atom_site_fract_y
 _atom_site_fract_z
 _atom_site_occupancy
  Y  Y0  1  0.185760  0.323726  0.623071  1
  Y  Y1  1  0.525323  0.683457  0.592963  1
  Y  Y2  1  0.025638  0.818350  0.904845  1
  Y  Y3  1  0.474155  0.316937  0.097149  1
  Y  Y4  1  0.973695  0.182433  0.402497  1
  Y  Y5  1  0.474215  0.316970  0.402697  1
  Y  Y6  1  0.974101  0.182291  0.097166  1
  Y  Y7  1  0.525175  0.683178  0.907369  1
  Y  Y8  1  0.025965  0.818118  0.595362  1
  Ho  Ho9  1  0.681550  0.176485  0.622912  1
  Ho  Ho10  1  0.186516  0.324289  0.876603  1
  Ho  Ho11  1  0.318117  0.820486  0.123593  1
  Ho  Ho12  1  0.817786  0.677627  0.375940  1
  Ho  Ho13  1  0.318126  0.820614  0.376247  1
  Ho  Ho14  1  0.817951  0.677408  0.123759  1
  Ho  Ho15  1  0.681220  0.176600  0.877333  1
  Ho  Ho16  1  0.844114  0.509468  0.750188  1
  Ho  Ho17  1  0.354788  0.981462  0.750218  1
  Ho  Ho18  1  0.148866  0.486113  0.249854  1
  Ho  Ho19  1  0.648510  0.012437  0.249934  1
  Si  Si20  1  0.647573  0.970790  0.458957  1
  Si  Si21  1  0.147245  0.528747  0.040390  1
  Si  Si22  1  0.351351  0.027886  0.960577  1
  Si  Si23  1  0.849613  0.471183  0.539496  1
  Si  Si24  1  0.352485  0.026975  0.539500  1
  Si  Si25  1  0.850830  0.471085  0.960092  1
  Si  Si26  1  0.647429  0.970782  0.041051  1
  Si  Si27  1  0.146485  0.529032  0.459026  1
  Si  Si28  1  0.979829  0.103754  0.750500  1
  Si  Si29  1  0.521651  0.604977  0.249916  1
  Si  Si30  1  0.021163  0.893625  0.249896  1
  Si  Si31  1  0.739490  0.875371  0.750113  1
  Si  Si32  1  0.226674  0.630932  0.750251  1
  Si  Si33  1  0.267702  0.126869  0.249920  1
  Si  Si34  1  0.767280  0.372716  0.249906  1
  Pd  Pd35  1  0.481625  0.406830  0.750710  1
