# generated using pymatgen
data_Tb3Ce2Pr3(CdIr)2
_symmetry_space_group_name_H-M   'P 1'
_cell_length_a   9.81235278
_cell_length_b   9.81235211
_cell_length_c   9.81235200
_cell_angle_alpha   60.00000036
_cell_angle_beta   60.00000262
_cell_angle_gamma   60.00000143
_symmetry_Int_Tables_number   1
_chemical_formula_structural   Tb3Ce2Pr3(CdIr)2
_chemical_formula_sum   'Tb6 Ce4 Pr6 Cd4 Ir4'
_cell_volume   668.04299383
_cell_formula_units_Z   2
loop_
 _symmetry_equiv_pos_site_id
 _symmetry_equiv_pos_as_xyz
  1  'x, y, z'
loop_
 _atom_site_type_symbol
 _atom_site_label
 _atom_site_symmetry_multiplicity
 _atom_site_fract_x
 _atom_site_fract_y
 _atom_site_fract_z
 _atom_site_occupancy
  Tb  Tb0  1  0.813066  0.186934  0.186934  1
  Tb  Tb1  1  0.186934  0.813066  0.813066  1
  Tb  Tb2  1  0.186934  0.813066  0.186934  1
  Tb  Tb3  1  0.813066  0.186934  0.813066  1
  Tb  Tb4  1  0.186934  0.186934  0.813066  1
  Tb  Tb5  1  0.813066  0.813066  0.186934  1
  Ce  Ce6  1  0.347733  0.347733  0.347733  1
  Ce  Ce7  1  0.347733  0.347733  0.956800  1
  Ce  Ce8  1  0.347733  0.956800  0.347733  1
  Ce  Ce9  1  0.956800  0.347733  0.347733  1
  Pr  Pr10  1  0.941344  0.558656  0.558656  1
  Pr  Pr11  1  0.558656  0.941344  0.941344  1
  Pr  Pr12  1  0.558656  0.941344  0.558656  1
  Pr  Pr13  1  0.941344  0.558656  0.941344  1
  Pr  Pr14  1  0.558656  0.558656  0.941344  1
  Pr  Pr15  1  0.941344  0.941344  0.558656  1
  Cd  Cd16  1  0.579219  0.579219  0.579219  1
  Cd  Cd17  1  0.579219  0.579219  0.262342  1
  Cd  Cd18  1  0.579219  0.262342  0.579219  1
  Cd  Cd19  1  0.262342  0.579219  0.579219  1
  Ir  Ir20  1  0.143291  0.143291  0.143291  1
  Ir  Ir21  1  0.143291  0.143291  0.570127  1
  Ir  Ir22  1  0.143291  0.570127  0.143291  1
  Ir  Ir23  1  0.570127  0.143291  0.143291  1
