# generated using pymatgen
data_NdEr4U(Co3P2)6
_symmetry_space_group_name_H-M   'P 1'
_cell_length_a   3.69482800
_cell_length_b   10.52825600
_cell_length_c   12.11482800
_cell_angle_alpha   90.00000000
_cell_angle_beta   90.00000000
_cell_angle_gamma   90.00000000
_symmetry_Int_Tables_number   1
_chemical_formula_structural   NdEr4U(Co3P2)6
_chemical_formula_sum   'Nd1 Er4 U1 Co18 P12'
_cell_volume   471.26796084
_cell_formula_units_Z   1
loop_
 _symmetry_equiv_pos_site_id
 _symmetry_equiv_pos_as_xyz
  1  'x, y, z'
loop_
 _atom_site_type_symbol
 _atom_site_label
 _atom_site_symmetry_multiplicity
 _atom_site_fract_x
 _atom_site_fract_y
 _atom_site_fract_z
 _atom_site_occupancy
  Nd  Nd0  1  0.750000  0.250000  0.476449  1
  Er  Er1  1  0.250000  0.933348  0.795101  1
  Er  Er2  1  0.250000  0.566652  0.795101  1
  Er  Er3  1  0.750000  0.065707  0.205037  1
  Er  Er4  1  0.750000  0.434293  0.205037  1
  U  U5  1  0.250000  0.750000  0.529509  1
  Co  Co6  1  0.250000  0.250000  0.843442  1
  Co  Co7  1  0.750000  0.750000  0.158627  1
  Co  Co8  1  0.250000  0.250000  0.294139  1
  Co  Co9  1  0.750000  0.750000  0.693957  1
  Co  Co10  1  0.750000  0.250000  0.014237  1
  Co  Co11  1  0.250000  0.750000  0.984929  1
  Co  Co12  1  0.250000  0.417155  0.005691  1
  Co  Co13  1  0.250000  0.082845  0.005691  1
  Co  Co14  1  0.750000  0.584392  0.993540  1
  Co  Co15  1  0.750000  0.915608  0.993540  1
  Co  Co16  1  0.250000  0.454696  0.569876  1
  Co  Co17  1  0.250000  0.045304  0.569876  1
  Co  Co18  1  0.750000  0.552307  0.431066  1
  Co  Co19  1  0.750000  0.947693  0.431066  1
  Co  Co20  1  0.250000  0.869454  0.289986  1
  Co  Co21  1  0.250000  0.630546  0.289986  1
  Co  Co22  1  0.750000  0.128792  0.712783  1
  Co  Co23  1  0.750000  0.371208  0.712783  1
  P  P24  1  0.250000  0.250000  0.117510  1
  P  P25  1  0.750000  0.750000  0.878188  1
  P  P26  1  0.250000  0.250000  0.659590  1
  P  P27  1  0.750000  0.750000  0.345649  1
  P  P28  1  0.250000  0.442229  0.381512  1
  P  P29  1  0.250000  0.057771  0.381512  1
  P  P30  1  0.750000  0.556852  0.616488  1
  P  P31  1  0.750000  0.943148  0.616488  1
  P  P32  1  0.250000  0.902260  0.106415  1
  P  P33  1  0.250000  0.597740  0.106415  1
  P  P34  1  0.750000  0.096205  0.894392  1
  P  P35  1  0.750000  0.403795  0.894392  1
