# generated using pymatgen
data_Dy8Lu12Si15Ag
_symmetry_space_group_name_H-M   'P 1'
_cell_length_a   7.30871865
_cell_length_b   7.57391495
_cell_length_c   14.43236598
_cell_angle_alpha   89.79944235
_cell_angle_beta   89.53201387
_cell_angle_gamma   90.13109910
_symmetry_Int_Tables_number   1
_chemical_formula_structural   Dy8Lu12Si15Ag
_chemical_formula_sum   'Dy8 Lu12 Si15 Ag1'
_cell_volume   798.87878464
_cell_formula_units_Z   1
loop_
 _symmetry_equiv_pos_site_id
 _symmetry_equiv_pos_as_xyz
  1  'x, y, z'
loop_
 _atom_site_type_symbol
 _atom_site_label
 _atom_site_symmetry_multiplicity
 _atom_site_fract_x
 _atom_site_fract_y
 _atom_site_fract_z
 _atom_site_occupancy
  Dy  Dy0  1  0.014526  0.177465  0.098416  1
  Dy  Dy1  1  0.985208  0.824181  0.903574  1
  Dy  Dy2  1  0.485085  0.678182  0.903430  1
  Dy  Dy3  1  0.987089  0.830368  0.598395  1
  Dy  Dy4  1  0.513768  0.322176  0.097037  1
  Dy  Dy5  1  0.010526  0.172055  0.398391  1
  Dy  Dy6  1  0.513789  0.320775  0.399494  1
  Dy  Dy7  1  0.491738  0.680384  0.600258  1
  Lu  Lu8  1  0.164294  0.507779  0.751696  1
  Lu  Lu9  1  0.836967  0.492929  0.251157  1
  Lu  Lu10  1  0.336437  0.005611  0.249048  1
  Lu  Lu11  1  0.665943  0.991022  0.751041  1
  Lu  Lu12  1  0.339468  0.174509  0.624650  1
  Lu  Lu13  1  0.665052  0.822880  0.375641  1
  Lu  Lu14  1  0.168561  0.674131  0.374218  1
  Lu  Lu15  1  0.670787  0.823609  0.123315  1
  Lu  Lu16  1  0.827763  0.325863  0.623497  1
  Lu  Lu17  1  0.328253  0.176893  0.877506  1
  Lu  Lu18  1  0.829014  0.321888  0.877682  1
  Lu  Lu19  1  0.169869  0.677031  0.123532  1
  Si  Si20  1  0.037020  0.115340  0.750846  1
  Si  Si21  1  0.964659  0.888707  0.249143  1
  Si  Si22  1  0.465700  0.609647  0.248222  1
  Si  Si23  1  0.535868  0.391087  0.751926  1
  Si  Si24  1  0.283204  0.873299  0.751177  1
  Si  Si25  1  0.715005  0.129169  0.248185  1
  Si  Si26  1  0.217162  0.368627  0.248112  1
  Si  Si27  1  0.785091  0.629189  0.753042  1
  Si  Si28  1  0.835065  0.533729  0.459197  1
  Si  Si29  1  0.335048  0.964646  0.460834  1
  Si  Si30  1  0.842774  0.533283  0.038603  1
  Si  Si31  1  0.662119  0.033956  0.537942  1
  Si  Si32  1  0.155591  0.467050  0.962081  1
  Si  Si33  1  0.657383  0.031865  0.960602  1
  Si  Si34  1  0.342390  0.967399  0.039611  1
  Ag  Ag35  1  0.161786  0.463275  0.538499  1
