# generated using pymatgen
data_Nb6Si6Tc5Rh
_symmetry_space_group_name_H-M   'P 1'
_cell_length_a   7.55933863
_cell_length_b   7.52854755
_cell_length_c   7.54978520
_cell_angle_alpha   127.34616795
_cell_angle_beta   124.03128243
_cell_angle_gamma   80.46603408
_symmetry_Int_Tables_number   1
_chemical_formula_structural   Nb6Si6Tc5Rh
_chemical_formula_sum   'Nb6 Si6 Tc5 Rh1'
_cell_volume   273.04074424
_cell_formula_units_Z   1
loop_
 _symmetry_equiv_pos_site_id
 _symmetry_equiv_pos_as_xyz
  1  'x, y, z'
loop_
 _atom_site_type_symbol
 _atom_site_label
 _atom_site_symmetry_multiplicity
 _atom_site_fract_x
 _atom_site_fract_y
 _atom_site_fract_z
 _atom_site_occupancy
  Nb  Nb0  1  0.557680  0.088215  0.036354  1
  Nb  Nb1  1  0.450623  0.495287  0.550109  1
  Nb  Nb2  1  0.956454  0.496752  0.032177  1
  Nb  Nb3  1  0.036122  0.064458  0.532565  1
  Nb  Nb4  1  0.761898  0.919470  0.673843  1
  Nb  Nb5  1  0.245918  0.907943  0.157215  1
  Si  Si6  1  0.769097  0.512946  0.240422  1
  Si  Si7  1  0.219774  0.489016  0.767314  1
  Si  Si8  1  0.337473  0.825452  0.493903  1
  Si  Si9  1  0.663134  0.162238  0.491956  1
  Si  Si10  1  0.832590  0.827269  0.995244  1
  Si  Si11  1  0.176286  0.166884  0.002750  1
  Tc  Tc12  1  0.471561  0.248007  0.718484  1
  Tc  Tc13  1  0.021872  0.248022  0.265849  1
  Tc  Tc14  1  0.156553  0.747508  0.646951  1
  Tc  Tc15  1  0.841775  0.498030  0.590851  1
  Tc  Tc16  1  0.590330  0.746591  0.085927  1
  Rh  Rh17  1  0.410863  0.498108  0.160283  1
