# generated using pymatgen
data_U2Al20ReRu2W
_symmetry_space_group_name_H-M   'P 1'
_cell_length_a   6.90061821
_cell_length_b   6.89417075
_cell_length_c   9.16125511
_cell_angle_alpha   89.88862499
_cell_angle_beta   90.07013362
_cell_angle_gamma   97.41184034
_symmetry_Int_Tables_number   1
_chemical_formula_structural   U2Al20ReRu2W
_chemical_formula_sum   'U2 Al20 Re1 Ru2 W1'
_cell_volume   432.19526204
_cell_formula_units_Z   1
loop_
 _symmetry_equiv_pos_site_id
 _symmetry_equiv_pos_as_xyz
  1  'x, y, z'
loop_
 _atom_site_type_symbol
 _atom_site_label
 _atom_site_symmetry_multiplicity
 _atom_site_fract_x
 _atom_site_fract_y
 _atom_site_fract_z
 _atom_site_occupancy
  U  U0  1  0.856629  0.109080  0.747936  1
  U  U1  1  0.143371  0.890920  0.252064  1
  Al  Al2  1  0.780107  0.775788  0.000804  1
  Al  Al3  1  0.779295  0.772862  0.498858  1
  Al  Al4  1  0.219893  0.224212  0.999196  1
  Al  Al5  1  0.220705  0.227138  0.501142  1
  Al  Al6  1  0.624529  0.377371  0.954860  1
  Al  Al7  1  0.375471  0.622629  0.045140  1
  Al  Al8  1  0.624537  0.378785  0.546416  1
  Al  Al9  1  0.375463  0.621215  0.453584  1
  Al  Al10  1  0.848390  0.157536  0.399680  1
  Al  Al11  1  0.151610  0.842464  0.600320  1
  Al  Al12  1  0.848316  0.155888  0.099035  1
  Al  Al13  1  0.151684  0.844112  0.900965  1
  Al  Al14  1  0.400206  0.138046  0.751075  1
  Al  Al15  1  0.140143  0.410015  0.249745  1
  Al  Al16  1  0.599794  0.861954  0.248925  1
  Al  Al17  1  0.859857  0.589985  0.750255  1
  Al  Al18  1  0.516819  0.772882  0.751060  1
  Al  Al19  1  0.790039  0.527523  0.248775  1
  Al  Al20  1  0.483181  0.227118  0.248940  1
  Al  Al21  1  0.209961  0.472477  0.751225  1
  Re  Re22  1  0.500000  0.000000  0.000000  1
  Ru  Ru23  1  0.000000  0.500000  0.000000  1
  Ru  Ru24  1  0.000000  0.500000  0.500000  1
  W  W25  1  0.500000  0.000000  0.500000  1
