# generated using pymatgen
data_GdLuThSi2
_symmetry_space_group_name_H-M   'P 1'
_cell_length_a   7.50229100
_cell_length_b   7.50229168
_cell_length_c   4.21385100
_cell_angle_alpha   90.00000000
_cell_angle_beta   90.00000000
_cell_angle_gamma   89.96169228
_symmetry_Int_Tables_number   1
_chemical_formula_structural   GdLuThSi2
_chemical_formula_sum   'Gd2 Lu2 Th2 Si4'
_cell_volume   237.17391824
_cell_formula_units_Z   2
loop_
 _symmetry_equiv_pos_site_id
 _symmetry_equiv_pos_as_xyz
  1  'x, y, z'
loop_
 _atom_site_type_symbol
 _atom_site_label
 _atom_site_symmetry_multiplicity
 _atom_site_fract_x
 _atom_site_fract_y
 _atom_site_fract_z
 _atom_site_occupancy
  Gd  Gd0  1  0.674748  0.174748  0.500000  1
  Gd  Gd1  1  0.325252  0.825252  0.500000  1
  Lu  Lu2  1  0.500000  0.500000  0.000000  1
  Lu  Lu3  1  0.000000  0.000000  0.000000  1
  Th  Th4  1  0.178612  0.321388  0.500000  1
  Th  Th5  1  0.821388  0.678612  0.500000  1
  Si  Si6  1  0.121080  0.621080  0.000000  1
  Si  Si7  1  0.878920  0.378920  0.000000  1
  Si  Si8  1  0.615879  0.884121  0.000000  1
  Si  Si9  1  0.384121  0.115879  0.000000  1
