# generated using pymatgen
data_Zr5GaSn2
_symmetry_space_group_name_H-M   'P 1'
_cell_length_a   8.41039873
_cell_length_b   8.41039865
_cell_length_c   8.41039832
_cell_angle_alpha   96.27183384
_cell_angle_beta   96.27183895
_cell_angle_gamma   141.39891237
_symmetry_Int_Tables_number   1
_chemical_formula_structural   Zr5GaSn2
_chemical_formula_sum   'Zr10 Ga2 Sn4'
_cell_volume   350.29972240
_cell_formula_units_Z   2
loop_
 _symmetry_equiv_pos_site_id
 _symmetry_equiv_pos_as_xyz
  1  'x, y, z'
loop_
 _atom_site_type_symbol
 _atom_site_label
 _atom_site_symmetry_multiplicity
 _atom_site_fract_x
 _atom_site_fract_y
 _atom_site_fract_z
 _atom_site_occupancy
  Zr  Zr0  1  0.250000  0.750000  0.500000  1
  Zr  Zr1  1  0.750000  0.250000  0.500000  1
  Zr  Zr2  1  0.786538  0.924553  0.711092  1
  Zr  Zr3  1  0.924553  0.213462  0.138016  1
  Zr  Zr4  1  0.075447  0.786538  0.861984  1
  Zr  Zr5  1  0.213462  0.075447  0.288908  1
  Zr  Zr6  1  0.575447  0.713462  0.288908  1
  Zr  Zr7  1  0.424553  0.286538  0.711092  1
  Zr  Zr8  1  0.286538  0.575447  0.861984  1
  Zr  Zr9  1  0.713462  0.424553  0.138016  1
  Ga  Ga10  1  0.750000  0.750000  0.000000  1
  Ga  Ga11  1  0.250000  0.250000  0.000000  1
  Sn  Sn12  1  0.335190  0.835190  0.170381  1
  Sn  Sn13  1  0.835190  0.664810  0.500000  1
  Sn  Sn14  1  0.164810  0.335190  0.500000  1
  Sn  Sn15  1  0.664810  0.164810  0.829619  1
