# generated using pymatgen
data_Cs2LiNp3O12
_symmetry_space_group_name_H-M   'P 1'
_cell_length_a   7.52280841
_cell_length_b   7.52280942
_cell_length_c   7.52280873
_cell_angle_alpha   63.91290924
_cell_angle_beta   63.91290774
_cell_angle_gamma   63.91289868
_symmetry_Int_Tables_number   1
_chemical_formula_structural   Cs2LiNp3O12
_chemical_formula_sum   'Cs2 Li1 Np3 O12'
_cell_volume   327.00187714
_cell_formula_units_Z   1
loop_
 _symmetry_equiv_pos_site_id
 _symmetry_equiv_pos_as_xyz
  1  'x, y, z'
loop_
 _atom_site_type_symbol
 _atom_site_label
 _atom_site_symmetry_multiplicity
 _atom_site_fract_x
 _atom_site_fract_y
 _atom_site_fract_z
 _atom_site_occupancy
  Cs  Cs0  1  0.373717  0.373717  0.373717  1
  Cs  Cs1  1  0.626283  0.626283  0.626283  1
  Li  Li2  1  0.000000  0.000000  0.000000  1
  Np  Np3  1  0.500000  0.000000  0.000000  1
  Np  Np4  1  0.000000  0.000000  0.500000  1
  Np  Np5  1  0.000000  0.500000  0.000000  1
  O  O6  1  0.933604  0.318570  0.318570  1
  O  O7  1  0.326685  0.937778  0.937778  1
  O  O8  1  0.318570  0.318570  0.933604  1
  O  O9  1  0.937778  0.937778  0.326685  1
  O  O10  1  0.937778  0.326685  0.937778  1
  O  O11  1  0.318570  0.933604  0.318570  1
  O  O12  1  0.066396  0.681430  0.681430  1
  O  O13  1  0.673315  0.062222  0.062222  1
  O  O14  1  0.681430  0.681430  0.066396  1
  O  O15  1  0.062222  0.062222  0.673315  1
  O  O16  1  0.062222  0.673315  0.062222  1
  O  O17  1  0.681430  0.066396  0.681430  1
