# generated using pymatgen
data_Dy5Ho2Er(P3Ir4)4
_symmetry_space_group_name_H-M   'P 1'
_cell_length_a   12.97171400
_cell_length_b   12.97272442
_cell_length_c   4.00488500
_cell_angle_alpha   90.00000000
_cell_angle_beta   90.00000000
_cell_angle_gamma   119.99742861
_symmetry_Int_Tables_number   1
_chemical_formula_structural   Dy5Ho2Er(P3Ir4)4
_chemical_formula_sum   'Dy5 Ho2 Er1 P12 Ir16'
_cell_volume   583.66075342
_cell_formula_units_Z   1
loop_
 _symmetry_equiv_pos_site_id
 _symmetry_equiv_pos_as_xyz
  1  'x, y, z'
loop_
 _atom_site_type_symbol
 _atom_site_label
 _atom_site_symmetry_multiplicity
 _atom_site_fract_x
 _atom_site_fract_y
 _atom_site_fract_z
 _atom_site_occupancy
  Dy  Dy0  1  0.333342  0.666674  0.500000  1
  Dy  Dy1  1  0.666669  0.333326  0.500000  1
  Dy  Dy2  1  0.999995  0.814808  0.000000  1
  Dy  Dy3  1  0.185187  0.185192  0.000000  1
  Dy  Dy4  1  0.814811  0.000000  0.000000  1
  Ho  Ho5  1  0.000007  0.446488  0.500000  1
  Ho  Ho6  1  0.553519  0.553512  0.500000  1
  Er  Er7  1  0.446452  0.000000  0.500000  1
  P  P8  1  0.000015  0.653068  0.500000  1
  P  P9  1  0.346947  0.346932  0.500000  1
  P  P10  1  0.652854  0.000000  0.500000  1
  P  P11  1  0.516682  0.688448  0.000000  1
  P  P12  1  0.311711  0.828400  0.000000  1
  P  P13  1  0.171758  0.483330  0.000000  1
  P  P14  1  0.483311  0.171600  0.000000  1
  P  P15  1  0.688428  0.516670  0.000000  1
  P  P16  1  0.828234  0.311552  0.000000  1
  P  P17  1  0.999994  0.176719  0.500000  1
  P  P18  1  0.823276  0.823281  0.500000  1
  P  P19  1  0.176707  0.000000  0.500000  1
  Ir  Ir20  1  0.509464  0.865700  0.000000  1
  Ir  Ir21  1  0.134474  0.644002  0.000000  1
  Ir  Ir22  1  0.356039  0.490497  0.000000  1
  Ir  Ir23  1  0.490473  0.355998  0.000000  1
  Ir  Ir24  1  0.865543  0.509503  0.000000  1
  Ir  Ir25  1  0.643765  0.134300  0.000000  1
  Ir  Ir26  1  0.999998  0.274767  0.000000  1
  Ir  Ir27  1  0.725231  0.725233  0.000000  1
  Ir  Ir28  1  0.274962  0.000000  0.000000  1
  Ir  Ir29  1  0.630349  0.809197  0.500000  1
  Ir  Ir30  1  0.190994  0.821329  0.500000  1
  Ir  Ir31  1  0.178805  0.369626  0.500000  1
  Ir  Ir32  1  0.369666  0.178671  0.500000  1
  Ir  Ir33  1  0.809180  0.630374  0.500000  1
  Ir  Ir34  1  0.821153  0.190803  0.500000  1
  Ir  Ir35  1  0.000002  0.000000  0.500000  1
