# generated using pymatgen
data_CaTi(NbSe2)8
_symmetry_space_group_name_H-M   'P 1'
_cell_length_a   6.99539400
_cell_length_b   6.99539371
_cell_length_c   13.99550000
_cell_angle_alpha   90.00000000
_cell_angle_beta   90.00000000
_cell_angle_gamma   120.00001083
_symmetry_Int_Tables_number   1
_chemical_formula_structural   CaTi(NbSe2)8
_chemical_formula_sum   'Ca1 Ti1 Nb8 Se16'
_cell_volume   593.12106045
_cell_formula_units_Z   1
loop_
 _symmetry_equiv_pos_site_id
 _symmetry_equiv_pos_as_xyz
  1  'x, y, z'
loop_
 _atom_site_type_symbol
 _atom_site_label
 _atom_site_symmetry_multiplicity
 _atom_site_fract_x
 _atom_site_fract_y
 _atom_site_fract_z
 _atom_site_occupancy
  Ca  Ca0  1  0.000000  0.000000  0.500000  1
  Ti  Ti1  1  0.000000  0.000000  0.000000  1
  Nb  Nb2  1  0.000000  0.000000  0.231366  1
  Nb  Nb3  1  0.000000  0.000000  0.768634  1
  Nb  Nb4  1  0.507092  0.492908  0.231272  1
  Nb  Nb5  1  0.507092  0.014185  0.231272  1
  Nb  Nb6  1  0.985815  0.492908  0.231272  1
  Nb  Nb7  1  0.492908  0.507092  0.768728  1
  Nb  Nb8  1  0.492908  0.985815  0.768728  1
  Nb  Nb9  1  0.014185  0.507092  0.768728  1
  Se  Se10  1  0.333333  0.666667  0.891396  1
  Se  Se11  1  0.666667  0.333333  0.108604  1
  Se  Se12  1  0.666667  0.333333  0.355654  1
  Se  Se13  1  0.333333  0.666667  0.644346  1
  Se  Se14  1  0.168931  0.831069  0.350259  1
  Se  Se15  1  0.168931  0.337862  0.350259  1
  Se  Se16  1  0.662138  0.831069  0.350259  1
  Se  Se17  1  0.831069  0.168931  0.649741  1
  Se  Se18  1  0.831069  0.662138  0.649741  1
  Se  Se19  1  0.337862  0.168931  0.649741  1
  Se  Se20  1  0.831877  0.168123  0.888023  1
  Se  Se21  1  0.831877  0.663756  0.888023  1
  Se  Se22  1  0.336244  0.168123  0.888023  1
  Se  Se23  1  0.168123  0.831877  0.111977  1
  Se  Se24  1  0.168123  0.336244  0.111977  1
  Se  Se25  1  0.663756  0.831877  0.111977  1
