# generated using pymatgen
data_TlReCl6
_symmetry_space_group_name_H-M   'P 1'
_cell_length_a   7.28607900
_cell_length_b   7.28607658
_cell_length_c   12.51519400
_cell_angle_alpha   90.00000000
_cell_angle_beta   90.00000000
_cell_angle_gamma   120.00000646
_symmetry_Int_Tables_number   1
_chemical_formula_structural   TlReCl6
_chemical_formula_sum   'Tl2 Re2 Cl12'
_cell_volume   575.38137105
_cell_formula_units_Z   2
loop_
 _symmetry_equiv_pos_site_id
 _symmetry_equiv_pos_as_xyz
  1  'x, y, z'
loop_
 _atom_site_type_symbol
 _atom_site_label
 _atom_site_symmetry_multiplicity
 _atom_site_fract_x
 _atom_site_fract_y
 _atom_site_fract_z
 _atom_site_occupancy
  Tl  Tl0  1  0.000000  0.000000  0.250000  1
  Tl  Tl1  1  0.000000  0.000000  0.750000  1
  Re  Re2  1  0.333333  0.666667  0.250000  1
  Re  Re3  1  0.666667  0.333333  0.750000  1
  Cl  Cl4  1  0.594786  0.930045  0.142128  1
  Cl  Cl5  1  0.069955  0.664742  0.142128  1
  Cl  Cl6  1  0.335258  0.405214  0.142128  1
  Cl  Cl7  1  0.069955  0.405214  0.357872  1
  Cl  Cl8  1  0.405214  0.335258  0.642128  1
  Cl  Cl9  1  0.664742  0.069955  0.642128  1
  Cl  Cl10  1  0.930045  0.594786  0.642128  1
  Cl  Cl11  1  0.664742  0.594786  0.857872  1
  Cl  Cl12  1  0.930045  0.335258  0.857872  1
  Cl  Cl13  1  0.405214  0.069955  0.857872  1
  Cl  Cl14  1  0.594786  0.664742  0.357872  1
  Cl  Cl15  1  0.335258  0.930045  0.357872  1
