# generated using pymatgen
data_Sm3Zn2SiRh6
_symmetry_space_group_name_H-M   'P 1'
_cell_length_a   5.62192200
_cell_length_b   5.62192177
_cell_length_c   15.87599100
_cell_angle_alpha   90.00000000
_cell_angle_beta   90.00000000
_cell_angle_gamma   120.00000138
_symmetry_Int_Tables_number   1
_chemical_formula_structural   Sm3Zn2SiRh6
_chemical_formula_sum   'Sm6 Zn4 Si2 Rh12'
_cell_volume   434.55132976
_cell_formula_units_Z   2
loop_
 _symmetry_equiv_pos_site_id
 _symmetry_equiv_pos_as_xyz
  1  'x, y, z'
loop_
 _atom_site_type_symbol
 _atom_site_label
 _atom_site_symmetry_multiplicity
 _atom_site_fract_x
 _atom_site_fract_y
 _atom_site_fract_z
 _atom_site_occupancy
  Sm  Sm0  1  0.666667  0.333333  0.039238  1
  Sm  Sm1  1  0.666667  0.333333  0.250000  1
  Sm  Sm2  1  0.666667  0.333333  0.460762  1
  Sm  Sm3  1  0.333333  0.666667  0.540759  1
  Sm  Sm4  1  0.333333  0.666667  0.750000  1
  Sm  Sm5  1  0.333333  0.666667  0.959241  1
  Zn  Zn6  1  0.000000  0.000000  0.994510  1
  Zn  Zn7  1  0.000000  0.000000  0.250000  1
  Zn  Zn8  1  0.333333  0.666667  0.250000  1
  Zn  Zn9  1  0.000000  0.000000  0.505490  1
  Si  Si10  1  0.000000  0.000000  0.750000  1
  Si  Si11  1  0.666667  0.333333  0.750000  1
  Rh  Rh12  1  0.167967  0.335934  0.122285  1
  Rh  Rh13  1  0.167967  0.832033  0.122285  1
  Rh  Rh14  1  0.664066  0.832033  0.122285  1
  Rh  Rh15  1  0.167967  0.335934  0.377715  1
  Rh  Rh16  1  0.167967  0.832033  0.377715  1
  Rh  Rh17  1  0.664066  0.832033  0.377715  1
  Rh  Rh18  1  0.334497  0.167248  0.638756  1
  Rh  Rh19  1  0.832752  0.167248  0.638756  1
  Rh  Rh20  1  0.832752  0.665503  0.638756  1
  Rh  Rh21  1  0.334497  0.167248  0.861244  1
  Rh  Rh22  1  0.832752  0.167248  0.861244  1
  Rh  Rh23  1  0.832752  0.665503  0.861244  1
