# generated using pymatgen
data_TmLuSc3Si4
_symmetry_space_group_name_H-M   'P 1'
_cell_length_a   7.03791453
_cell_length_b   7.32996250
_cell_length_c   13.87798611
_cell_angle_alpha   90.00227807
_cell_angle_beta   89.98563651
_cell_angle_gamma   89.95780115
_symmetry_Int_Tables_number   1
_chemical_formula_structural   TmLuSc3Si4
_chemical_formula_sum   'Tm4 Lu4 Sc12 Si16'
_cell_volume   715.93246731
_cell_formula_units_Z   4
loop_
 _symmetry_equiv_pos_site_id
 _symmetry_equiv_pos_as_xyz
  1  'x, y, z'
loop_
 _atom_site_type_symbol
 _atom_site_label
 _atom_site_symmetry_multiplicity
 _atom_site_fract_x
 _atom_site_fract_y
 _atom_site_fract_z
 _atom_site_occupancy
  Tm  Tm0  1  0.511541  0.323079  0.095714  1
  Tm  Tm1  1  0.011280  0.176604  0.404105  1
  Tm  Tm2  1  0.511679  0.323386  0.403647  1
  Tm  Tm3  1  0.488586  0.676950  0.596456  1
  Lu  Lu4  1  0.011479  0.176726  0.096003  1
  Lu  Lu5  1  0.988710  0.822912  0.903820  1
  Lu  Lu6  1  0.488309  0.677114  0.903397  1
  Lu  Lu7  1  0.988460  0.823077  0.596812  1
  Sc  Sc8  1  0.161653  0.503849  0.750320  1
  Sc  Sc9  1  0.838539  0.496416  0.249781  1
  Sc  Sc10  1  0.338389  0.003380  0.249761  1
  Sc  Sc11  1  0.661527  0.996334  0.750195  1
  Sc  Sc12  1  0.331420  0.176536  0.625619  1
  Sc  Sc13  1  0.668336  0.823226  0.374649  1
  Sc  Sc14  1  0.167785  0.677564  0.374647  1
  Sc  Sc15  1  0.668367  0.823128  0.124828  1
  Sc  Sc16  1  0.832176  0.322687  0.625927  1
  Sc  Sc17  1  0.331463  0.176553  0.874644  1
  Sc  Sc18  1  0.832139  0.322624  0.874590  1
  Sc  Sc19  1  0.167692  0.677539  0.125111  1
  Si  Si20  1  0.033261  0.111917  0.750257  1
  Si  Si21  1  0.966395  0.887375  0.249742  1
  Si  Si22  1  0.466478  0.613374  0.249747  1
  Si  Si23  1  0.533204  0.387286  0.750252  1
  Si  Si24  1  0.285351  0.869611  0.750380  1
  Si  Si25  1  0.714704  0.129698  0.249547  1
  Si  Si26  1  0.214095  0.370298  0.249616  1
  Si  Si27  1  0.785987  0.630526  0.750477  1
  Si  Si28  1  0.159563  0.465800  0.539692  1
  Si  Si29  1  0.839965  0.535477  0.461232  1
  Si  Si30  1  0.339924  0.965258  0.460792  1
  Si  Si31  1  0.840331  0.534592  0.039041  1
  Si  Si32  1  0.661065  0.034725  0.539587  1
  Si  Si33  1  0.160640  0.465529  0.960519  1
  Si  Si34  1  0.660708  0.033916  0.960099  1
  Si  Si35  1  0.338798  0.964935  0.038993  1
