# generated using pymatgen
data_Eu3Mg3(Ni7B2)2
_symmetry_space_group_name_H-M   'P 1'
_cell_length_a   5.06790700
_cell_length_b   5.06790707
_cell_length_c   13.95865000
_cell_angle_alpha   90.00000000
_cell_angle_beta   90.00000000
_cell_angle_gamma   120.00000606
_symmetry_Int_Tables_number   1
_chemical_formula_structural   Eu3Mg3(Ni7B2)2
_chemical_formula_sum   'Eu3 Mg3 Ni14 B4'
_cell_volume   310.47833623
_cell_formula_units_Z   1
loop_
 _symmetry_equiv_pos_site_id
 _symmetry_equiv_pos_as_xyz
  1  'x, y, z'
loop_
 _atom_site_type_symbol
 _atom_site_label
 _atom_site_symmetry_multiplicity
 _atom_site_fract_x
 _atom_site_fract_y
 _atom_site_fract_z
 _atom_site_occupancy
  Eu  Eu0  1  0.333333  0.666667  0.031830  1
  Eu  Eu1  1  0.666667  0.333333  0.746756  1
  Eu  Eu2  1  0.333333  0.666667  0.256888  1
  Mg  Mg3  1  0.333333  0.666667  0.476781  1
  Mg  Mg4  1  0.666667  0.333333  0.966745  1
  Mg  Mg5  1  0.666667  0.333333  0.524681  1
  Ni  Ni6  1  0.833466  0.166534  0.355663  1
  Ni  Ni7  1  0.833466  0.666931  0.355663  1
  Ni  Ni8  1  0.000000  0.000000  0.999002  1
  Ni  Ni9  1  0.000000  0.000000  0.499442  1
  Ni  Ni10  1  0.833427  0.666853  0.151255  1
  Ni  Ni11  1  0.166234  0.833766  0.644110  1
  Ni  Ni12  1  0.667532  0.833766  0.644110  1
  Ni  Ni13  1  0.333147  0.166573  0.151255  1
  Ni  Ni14  1  0.833427  0.166573  0.151255  1
  Ni  Ni15  1  0.164590  0.329180  0.848621  1
  Ni  Ni16  1  0.164590  0.835410  0.848621  1
  Ni  Ni17  1  0.166234  0.332468  0.644110  1
  Ni  Ni18  1  0.670820  0.835410  0.848621  1
  Ni  Ni19  1  0.333069  0.166534  0.355663  1
  B  B20  1  0.666667  0.333333  0.253376  1
  B  B21  1  0.333333  0.666667  0.747657  1
  B  B22  1  0.000000  0.000000  0.745089  1
  B  B23  1  0.000000  0.000000  0.252807  1
