# generated using pymatgen
data_Hf3Zr7ZnGaSb6
_symmetry_space_group_name_H-M   'P 1'
_cell_length_a   8.66407300
_cell_length_b   8.66407247
_cell_length_c   5.83773500
_cell_angle_alpha   90.00000000
_cell_angle_beta   90.00000000
_cell_angle_gamma   119.99999819
_symmetry_Int_Tables_number   1
_chemical_formula_structural   Hf3Zr7ZnGaSb6
_chemical_formula_sum   'Hf3 Zr7 Zn1 Ga1 Sb6'
_cell_volume   379.50647977
_cell_formula_units_Z   1
loop_
 _symmetry_equiv_pos_site_id
 _symmetry_equiv_pos_as_xyz
  1  'x, y, z'
loop_
 _atom_site_type_symbol
 _atom_site_label
 _atom_site_symmetry_multiplicity
 _atom_site_fract_x
 _atom_site_fract_y
 _atom_site_fract_z
 _atom_site_occupancy
  Hf  Hf0  1  0.666667  0.333333  0.000000  1
  Hf  Hf1  1  0.666667  0.333333  0.500000  1
  Hf  Hf2  1  0.333333  0.666667  0.000000  1
  Zr  Zr3  1  0.731042  0.730899  0.250753  1
  Zr  Zr4  1  0.731042  0.000144  0.749247  1
  Zr  Zr5  1  0.999856  0.268958  0.250753  1
  Zr  Zr6  1  0.999856  0.730899  0.749247  1
  Zr  Zr7  1  0.269101  0.268958  0.749247  1
  Zr  Zr8  1  0.269101  0.000144  0.250753  1
  Zr  Zr9  1  0.333333  0.666667  0.500000  1
  Zn  Zn10  1  0.000000  0.000000  0.500000  1
  Ga  Ga11  1  0.000000  0.000000  0.000000  1
  Sb  Sb12  1  0.388088  0.000234  0.749600  1
  Sb  Sb13  1  0.388088  0.387854  0.250400  1
  Sb  Sb14  1  0.999766  0.611912  0.250400  1
  Sb  Sb15  1  0.999766  0.387854  0.749600  1
  Sb  Sb16  1  0.612146  0.611912  0.749600  1
  Sb  Sb17  1  0.612146  0.000234  0.250400  1
