# generated using pymatgen
data_Na2Ni2(MoO4)3
_symmetry_space_group_name_H-M   'P 1'
_cell_length_a   7.05712566
_cell_length_b   8.78386872
_cell_length_c   10.41731930
_cell_angle_alpha   107.82699498
_cell_angle_beta   104.78177614
_cell_angle_gamma   103.59881091
_symmetry_Int_Tables_number   1
_chemical_formula_structural   Na2Ni2(MoO4)3
_chemical_formula_sum   'Na4 Ni4 Mo6 O24'
_cell_volume   558.93231068
_cell_formula_units_Z   2
loop_
 _symmetry_equiv_pos_site_id
 _symmetry_equiv_pos_as_xyz
  1  'x, y, z'
loop_
 _atom_site_type_symbol
 _atom_site_label
 _atom_site_symmetry_multiplicity
 _atom_site_fract_x
 _atom_site_fract_y
 _atom_site_fract_z
 _atom_site_occupancy
  Na  Na0  1  0.792528  0.799092  0.309714  1
  Na  Na1  1  0.209454  0.198516  0.694120  1
  Na  Na2  1  0.464327  0.991986  0.980703  1
  Na  Na3  1  0.967045  0.043472  0.069180  1
  Ni  Ni4  1  0.878922  0.458889  0.100928  1
  Ni  Ni5  1  0.123352  0.540983  0.898571  1
  Ni  Ni6  1  0.459034  0.302330  0.483676  1
  Ni  Ni7  1  0.543726  0.697887  0.517997  1
  Mo  Mo8  1  0.285654  0.834767  0.240921  1
  Mo  Mo9  1  0.714690  0.163932  0.760661  1
  Mo  Mo10  1  0.912195  0.251491  0.367621  1
  Mo  Mo11  1  0.097926  0.750588  0.634091  1
  Mo  Mo12  1  0.617763  0.594760  0.833877  1
  Mo  Mo13  1  0.381162  0.404869  0.166078  1
  O  O14  1  0.323351  0.055052  0.323607  1
  O  O15  1  0.667734  0.944507  0.671664  1
  O  O16  1  0.033307  0.718035  0.231540  1
  O  O17  1  0.965872  0.280314  0.768513  1
  O  O18  1  0.173443  0.472844  0.078753  1
  O  O19  1  0.830731  0.533395  0.924248  1
  O  O20  1  0.739646  0.306819  0.458216  1
  O  O21  1  0.254458  0.681778  0.533303  1
  O  O22  1  0.618785  0.495802  0.143417  1
  O  O23  1  0.381928  0.495957  0.855102  1
  O  O24  1  0.282467  0.791650  0.058652  1
  O  O25  1  0.726368  0.204727  0.945965  1
  O  O26  1  0.947909  0.360635  0.250515  1
  O  O27  1  0.067530  0.637168  0.748398  1
  O  O28  1  0.297736  0.181963  0.076692  1
  O  O29  1  0.679614  0.815509  0.921637  1
  O  O30  1  0.848150  0.733653  0.515279  1
  O  O31  1  0.159617  0.275052  0.492240  1
  O  O32  1  0.795965  0.032016  0.246221  1
  O  O33  1  0.239432  0.968719  0.750809  1
  O  O34  1  0.483572  0.776999  0.345280  1
  O  O35  1  0.521724  0.228814  0.659315  1
  O  O36  1  0.424756  0.446748  0.355018  1
  O  O37  1  0.579630  0.553682  0.645378  1
