# generated using pymatgen
data_NdEu2(CdPd)3
_symmetry_space_group_name_H-M   'P 1'
_cell_length_a   7.74830065
_cell_length_b   7.74830008
_cell_length_c   4.17438200
_cell_angle_alpha   90.00000000
_cell_angle_beta   90.00000000
_cell_angle_gamma   119.90513297
_symmetry_Int_Tables_number   1
_chemical_formula_structural   NdEu2(CdPd)3
_chemical_formula_sum   'Nd1 Eu2 Cd3 Pd3'
_cell_volume   217.24514749
_cell_formula_units_Z   1
loop_
 _symmetry_equiv_pos_site_id
 _symmetry_equiv_pos_as_xyz
  1  'x, y, z'
loop_
 _atom_site_type_symbol
 _atom_site_label
 _atom_site_symmetry_multiplicity
 _atom_site_fract_x
 _atom_site_fract_y
 _atom_site_fract_z
 _atom_site_occupancy
  Nd  Nd0  1  0.406530  0.406530  0.000000  1
  Eu  Eu1  1  0.593743  0.000386  0.000000  1
  Eu  Eu2  1  0.000386  0.593743  0.000000  1
  Cd  Cd3  1  0.251707  0.999770  0.500000  1
  Cd  Cd4  1  0.999770  0.251707  0.500000  1
  Cd  Cd5  1  0.749198  0.749198  0.500000  1
  Pd  Pd6  1  0.334231  0.661613  0.500000  1
  Pd  Pd7  1  0.661613  0.334231  0.500000  1
  Pd  Pd8  1  0.002822  0.002822  0.000000  1
