# generated using pymatgen
data_Tb4Mg4Ir3Pd
_symmetry_space_group_name_H-M   'P 1'
_cell_length_a   4.15810900
_cell_length_b   7.12762510
_cell_length_c   8.56275494
_cell_angle_alpha   88.87266291
_cell_angle_beta   90.00000000
_cell_angle_gamma   90.00000000
_symmetry_Int_Tables_number   1
_chemical_formula_structural   Tb4Mg4Ir3Pd
_chemical_formula_sum   'Tb4 Mg4 Ir3 Pd1'
_cell_volume   253.72903198
_cell_formula_units_Z   1
loop_
 _symmetry_equiv_pos_site_id
 _symmetry_equiv_pos_as_xyz
  1  'x, y, z'
loop_
 _atom_site_type_symbol
 _atom_site_label
 _atom_site_symmetry_multiplicity
 _atom_site_fract_x
 _atom_site_fract_y
 _atom_site_fract_z
 _atom_site_occupancy
  Tb  Tb0  1  0.250000  0.533681  0.815426  1
  Tb  Tb1  1  0.750000  0.446583  0.178498  1
  Tb  Tb2  1  0.250000  0.040431  0.677541  1
  Tb  Tb3  1  0.750000  0.968981  0.331901  1
  Mg  Mg4  1  0.250000  0.636081  0.441044  1
  Mg  Mg5  1  0.750000  0.365285  0.560254  1
  Mg  Mg6  1  0.250000  0.135980  0.059985  1
  Mg  Mg7  1  0.750000  0.865329  0.937579  1
  Ir  Ir8  1  0.750000  0.751233  0.626862  1
  Ir  Ir9  1  0.250000  0.253748  0.370415  1
  Ir  Ir10  1  0.750000  0.250653  0.876250  1
  Pd  Pd11  1  0.250000  0.752016  0.124244  1
