# generated using pymatgen
data_Cs3Ag3Cl8
_symmetry_space_group_name_H-M   'P 1'
_cell_length_a   7.48709483
_cell_length_b   7.48709357
_cell_length_c   18.42564808
_cell_angle_alpha   87.82591023
_cell_angle_beta   87.82591048
_cell_angle_gamma   61.37608182
_symmetry_Int_Tables_number   1
_chemical_formula_structural   Cs3Ag3Cl8
_chemical_formula_sum   'Cs6 Ag6 Cl16'
_cell_volume   905.76092854
_cell_formula_units_Z   2
loop_
 _symmetry_equiv_pos_site_id
 _symmetry_equiv_pos_as_xyz
  1  'x, y, z'
loop_
 _atom_site_type_symbol
 _atom_site_label
 _atom_site_symmetry_multiplicity
 _atom_site_fract_x
 _atom_site_fract_y
 _atom_site_fract_z
 _atom_site_occupancy
  Cs  Cs0  1  0.001805  0.998195  0.750000  1
  Cs  Cs1  1  0.998195  0.001805  0.250000  1
  Cs  Cs2  1  0.328274  0.322490  0.583388  1
  Cs  Cs3  1  0.677510  0.671726  0.916612  1
  Cs  Cs4  1  0.671726  0.677510  0.416612  1
  Cs  Cs5  1  0.322490  0.328274  0.083388  1
  Ag  Ag6  1  0.000000  0.000000  0.000000  1
  Ag  Ag7  1  0.000000  0.000000  0.500000  1
  Ag  Ag8  1  0.350810  0.317701  0.837653  1
  Ag  Ag9  1  0.682299  0.649190  0.662347  1
  Ag  Ag10  1  0.649190  0.682299  0.162347  1
  Ag  Ag11  1  0.317701  0.350810  0.337653  1
  Cl  Cl12  1  0.037339  0.500484  0.254958  1
  Cl  Cl13  1  0.499516  0.962661  0.245042  1
  Cl  Cl14  1  0.962661  0.499516  0.745042  1
  Cl  Cl15  1  0.500484  0.037339  0.754958  1
  Cl  Cl16  1  0.641086  0.219226  0.395046  1
  Cl  Cl17  1  0.780774  0.358914  0.104954  1
  Cl  Cl18  1  0.358914  0.780774  0.604954  1
  Cl  Cl19  1  0.219226  0.641086  0.895046  1
  Cl  Cl20  1  0.842298  0.300728  0.578417  1
  Cl  Cl21  1  0.699272  0.157702  0.921583  1
  Cl  Cl22  1  0.157702  0.699272  0.421583  1
  Cl  Cl23  1  0.300728  0.842298  0.078417  1
  Cl  Cl24  1  0.152944  0.172029  0.928261  1
  Cl  Cl25  1  0.827971  0.847056  0.571739  1
  Cl  Cl26  1  0.847056  0.827971  0.071739  1
  Cl  Cl27  1  0.172029  0.152944  0.428261  1
