# generated using pymatgen
data_U2Be25Si
_symmetry_space_group_name_H-M   'P 1'
_cell_length_a   7.22274439
_cell_length_b   7.25274410
_cell_length_c   7.22793399
_cell_angle_alpha   59.83899181
_cell_angle_beta   60.05706879
_cell_angle_gamma   59.90991899
_symmetry_Int_Tables_number   1
_chemical_formula_structural   U2Be25Si
_chemical_formula_sum   'U2 Be25 Si1'
_cell_volume   267.33939504
_cell_formula_units_Z   1
loop_
 _symmetry_equiv_pos_site_id
 _symmetry_equiv_pos_as_xyz
  1  'x, y, z'
loop_
 _atom_site_type_symbol
 _atom_site_label
 _atom_site_symmetry_multiplicity
 _atom_site_fract_x
 _atom_site_fract_y
 _atom_site_fract_z
 _atom_site_occupancy
  U  U0  1  0.748289  0.751369  0.748320  1
  U  U1  1  0.251680  0.247979  0.251711  1
  Be  Be2  1  0.059591  0.706315  0.940409  1
  Be  Be3  1  0.003786  0.999301  0.996214  1
  Be  Be4  1  0.499758  0.499076  0.500242  1
  Be  Be5  1  0.943573  0.295732  0.056427  1
  Be  Be6  1  0.791563  0.440382  0.559694  1
  Be  Be7  1  0.440306  0.791639  0.208437  1
  Be  Be8  1  0.208091  0.441482  0.791909  1
  Be  Be9  1  0.791447  0.559048  0.208553  1
  Be  Be10  1  0.439766  0.559082  0.793330  1
  Be  Be11  1  0.206670  0.792178  0.560234  1
  Be  Be12  1  0.064867  0.940413  0.289084  1
  Be  Be13  1  0.292666  0.058956  0.941730  1
  Be  Be14  1  0.947886  0.699228  0.290970  1
  Be  Be15  1  0.941287  0.059880  0.708168  1
  Be  Be16  1  0.291832  0.709335  0.058713  1
  Be  Be17  1  0.709030  0.938084  0.052114  1
  Be  Be18  1  0.710916  0.294364  0.935133  1
  Be  Be19  1  0.058270  0.293351  0.707334  1
  Be  Be20  1  0.558302  0.781006  0.441698  1
  Be  Be21  1  0.559445  0.209767  0.791822  1
  Be  Be22  1  0.795444  0.209776  0.443083  1
  Be  Be23  1  0.556917  0.448303  0.204556  1
  Be  Be24  1  0.208178  0.561034  0.440555  1
  Be  Be25  1  0.430708  0.217176  0.569292  1
  Be  Be26  1  0.292573  0.939903  0.707427  1
  Si  Si27  1  0.697161  0.055840  0.302839  1
