# generated using pymatgen
data_Pr20Ga5Si7
_symmetry_space_group_name_H-M   'P 1'
_cell_length_a   7.89675422
_cell_length_b   7.89675422
_cell_length_c   14.44368209
_cell_angle_alpha   89.95631239
_cell_angle_beta   90.04368761
_cell_angle_gamma   90.04642974
_symmetry_Int_Tables_number   1
_chemical_formula_structural   Pr20Ga5Si7
_chemical_formula_sum   'Pr20 Ga5 Si7'
_cell_volume   900.68881332
_cell_formula_units_Z   1
loop_
 _symmetry_equiv_pos_site_id
 _symmetry_equiv_pos_as_xyz
  1  'x, y, z'
loop_
 _atom_site_type_symbol
 _atom_site_label
 _atom_site_symmetry_multiplicity
 _atom_site_fract_x
 _atom_site_fract_y
 _atom_site_fract_z
 _atom_site_occupancy
  Pr  Pr0  1  0.814890  0.834473  0.607910  1
  Pr  Pr1  1  0.185983  0.834675  0.106455  1
  Pr  Pr2  1  0.164206  0.811828  0.392823  1
  Pr  Pr3  1  0.000975  0.499517  0.723010  1
  Pr  Pr4  1  0.834675  0.185983  0.393545  1
  Pr  Pr5  1  0.684723  0.663608  0.393039  1
  Pr  Pr6  1  0.664164  0.314116  0.607633  1
  Pr  Pr7  1  0.334995  0.685596  0.607498  1
  Pr  Pr8  1  0.998401  0.503616  0.221172  1
  Pr  Pr9  1  0.663608  0.684723  0.106961  1
  Pr  Pr10  1  0.685596  0.334995  0.892502  1
  Pr  Pr11  1  0.834473  0.814890  0.892090  1
  Pr  Pr12  1  0.317070  0.339467  0.394697  1
  Pr  Pr13  1  0.185049  0.164723  0.607266  1
  Pr  Pr14  1  0.811828  0.164206  0.107177  1
  Pr  Pr15  1  0.314116  0.664164  0.892367  1
  Pr  Pr16  1  0.339467  0.317070  0.105303  1
  Pr  Pr17  1  0.503616  0.998401  0.278828  1
  Pr  Pr18  1  0.164723  0.185049  0.892734  1
  Pr  Pr19  1  0.499517  0.000975  0.776990  1
  Ga  Ga20  1  0.998633  0.499651  0.504106  1
  Ga  Ga21  1  0.499346  0.999327  0.496912  1
  Ga  Ga22  1  0.499651  0.998633  0.995894  1
  Ga  Ga23  1  0.118542  0.118542  0.250000  1
  Ga  Ga24  1  0.999327  0.499346  0.003088  1
  Si  Si25  1  0.615037  0.385125  0.250387  1
  Si  Si26  1  0.114555  0.885306  0.749953  1
  Si  Si27  1  0.385242  0.385242  0.750000  1
  Si  Si28  1  0.385125  0.615037  0.249613  1
  Si  Si29  1  0.882509  0.882509  0.250000  1
  Si  Si30  1  0.614650  0.614650  0.750000  1
  Si  Si31  1  0.885306  0.114555  0.750047  1
