# generated using pymatgen
data_Nb6Fe2Co4C
_symmetry_space_group_name_H-M   'P 1'
_cell_length_a   7.92906733
_cell_length_b   7.92900200
_cell_length_c   7.92908700
_cell_angle_alpha   60.00265433
_cell_angle_beta   60.00297372
_cell_angle_gamma   60.00254686
_symmetry_Int_Tables_number   1
_chemical_formula_structural   Nb6Fe2Co4C
_chemical_formula_sum   'Nb12 Fe4 Co8 C2'
_cell_volume   352.51341483
_cell_formula_units_Z   2
loop_
 _symmetry_equiv_pos_site_id
 _symmetry_equiv_pos_as_xyz
  1  'x, y, z'
loop_
 _atom_site_type_symbol
 _atom_site_label
 _atom_site_symmetry_multiplicity
 _atom_site_fract_x
 _atom_site_fract_y
 _atom_site_fract_z
 _atom_site_occupancy
  Nb  Nb0  1  0.052122  0.052136  0.447854  1
  Nb  Nb1  1  0.447899  0.052075  0.447896  1
  Nb  Nb2  1  0.052074  0.447896  0.447888  1
  Nb  Nb3  1  0.447887  0.447893  0.052073  1
  Nb  Nb4  1  0.052140  0.447851  0.052134  1
  Nb  Nb5  1  0.447854  0.052142  0.052121  1
  Nb  Nb6  1  0.197878  0.197864  0.802146  1
  Nb  Nb7  1  0.802101  0.197925  0.802104  1
  Nb  Nb8  1  0.197926  0.802104  0.802112  1
  Nb  Nb9  1  0.802113  0.802107  0.197927  1
  Nb  Nb10  1  0.197860  0.802149  0.197866  1
  Nb  Nb11  1  0.802146  0.197858  0.197879  1
  Fe  Fe12  1  0.625000  0.625000  0.125000  1
  Fe  Fe13  1  0.625000  0.125000  0.625000  1
  Fe  Fe14  1  0.125000  0.625000  0.625000  1
  Fe  Fe15  1  0.625000  0.625000  0.625000  1
  Co  Co16  1  0.422322  0.422312  0.733094  1
  Co  Co17  1  0.422318  0.733091  0.422323  1
  Co  Co18  1  0.733093  0.422312  0.422326  1
  Co  Co19  1  0.422311  0.422302  0.422316  1
  Co  Co20  1  0.827678  0.827688  0.516906  1
  Co  Co21  1  0.827682  0.516909  0.827677  1
  Co  Co22  1  0.516907  0.827688  0.827674  1
  Co  Co23  1  0.827689  0.827698  0.827684  1
  C  C24  1  0.249997  0.249999  0.249996  1
  C  C25  1  0.000003  0.000001  0.000004  1
