# generated using pymatgen
data_K2La4Ag4S9
_symmetry_space_group_name_H-M   'P 1'
_cell_length_a   4.28591050
_cell_length_b   7.63333759
_cell_length_c   16.13899376
_cell_angle_alpha   92.58952531
_cell_angle_beta   97.63034420
_cell_angle_gamma   106.30415796
_symmetry_Int_Tables_number   1
_chemical_formula_structural   K2La4Ag4S9
_chemical_formula_sum   'K2 La4 Ag4 S9'
_cell_volume   500.38886837
_cell_formula_units_Z   1
loop_
 _symmetry_equiv_pos_site_id
 _symmetry_equiv_pos_as_xyz
  1  'x, y, z'
loop_
 _atom_site_type_symbol
 _atom_site_label
 _atom_site_symmetry_multiplicity
 _atom_site_fract_x
 _atom_site_fract_y
 _atom_site_fract_z
 _atom_site_occupancy
  K  K0  1  0.254978  0.280732  0.229224  1
  K  K1  1  0.745022  0.719267  0.770776  1
  La  La2  1  0.400523  0.747238  0.053810  1
  La  La3  1  0.625859  0.858886  0.392833  1
  La  La4  1  0.374141  0.141113  0.607168  1
  La  La5  1  0.599477  0.252762  0.946191  1
  Ag  Ag6  1  0.981501  0.737561  0.225443  1
  Ag  Ag7  1  0.886563  0.317677  0.455450  1
  Ag  Ag8  1  0.113438  0.682324  0.544550  1
  Ag  Ag9  1  0.018498  0.262438  0.774557  1
  S  S10  1  0.000000  0.000000  0.000000  1
  S  S11  1  0.800873  0.504345  0.097401  1
  S  S12  1  0.576858  0.934664  0.219053  1
  S  S13  1  0.986077  0.600681  0.371472  1
  S  S14  1  0.277389  0.130762  0.424016  1
  S  S15  1  0.722612  0.869239  0.575984  1
  S  S16  1  0.013924  0.399319  0.628528  1
  S  S17  1  0.423143  0.065337  0.780947  1
  S  S18  1  0.199127  0.495654  0.902600  1
