# generated using pymatgen
data_Tm2Lu4ZrCo17P12
_symmetry_space_group_name_H-M   'P 1'
_cell_length_a   3.68018800
_cell_length_b   10.54113600
_cell_length_c   12.21882800
_cell_angle_alpha   90.00000000
_cell_angle_beta   90.00000000
_cell_angle_gamma   90.00000000
_symmetry_Int_Tables_number   1
_chemical_formula_structural   Tm2Lu4ZrCo17P12
_chemical_formula_sum   'Tm2 Lu4 Zr1 Co17 P12'
_cell_volume   474.00942043
_cell_formula_units_Z   1
loop_
 _symmetry_equiv_pos_site_id
 _symmetry_equiv_pos_as_xyz
  1  'x, y, z'
loop_
 _atom_site_type_symbol
 _atom_site_label
 _atom_site_symmetry_multiplicity
 _atom_site_fract_x
 _atom_site_fract_y
 _atom_site_fract_z
 _atom_site_occupancy
  Tm  Tm0  1  0.000000  0.500000  0.530121  1
  Tm  Tm1  1  0.500000  0.000000  0.476666  1
  Lu  Lu2  1  0.500000  0.822401  0.207539  1
  Lu  Lu3  1  0.500000  0.177599  0.207539  1
  Lu  Lu4  1  0.000000  0.681961  0.795846  1
  Lu  Lu5  1  0.000000  0.318039  0.795846  1
  Zr  Zr6  1  0.500000  0.500000  0.155490  1
  Co  Co7  1  0.000000  0.000000  0.835812  1
  Co  Co8  1  0.500000  0.500000  0.702770  1
  Co  Co9  1  0.000000  0.000000  0.296159  1
  Co  Co10  1  0.000000  0.500000  0.983069  1
  Co  Co11  1  0.500000  0.000000  0.013955  1
  Co  Co12  1  0.500000  0.326853  0.987435  1
  Co  Co13  1  0.500000  0.673147  0.987435  1
  Co  Co14  1  0.000000  0.161572  0.001497  1
  Co  Co15  1  0.000000  0.838428  0.001497  1
  Co  Co16  1  0.500000  0.293961  0.434838  1
  Co  Co17  1  0.500000  0.706039  0.434838  1
  Co  Co18  1  0.000000  0.201649  0.570298  1
  Co  Co19  1  0.000000  0.798351  0.570298  1
  Co  Co20  1  0.500000  0.879121  0.707060  1
  Co  Co21  1  0.500000  0.120879  0.707060  1
  Co  Co22  1  0.000000  0.624314  0.297530  1
  Co  Co23  1  0.000000  0.375686  0.297530  1
  P  P24  1  0.500000  0.500000  0.880348  1
  P  P25  1  0.000000  0.000000  0.117509  1
  P  P26  1  0.500000  0.500000  0.364022  1
  P  P27  1  0.000000  0.000000  0.653018  1
  P  P28  1  0.500000  0.310632  0.618921  1
  P  P29  1  0.500000  0.689368  0.618921  1
  P  P30  1  0.000000  0.186641  0.385587  1
  P  P31  1  0.000000  0.813359  0.385587  1
  P  P32  1  0.500000  0.851577  0.887273  1
  P  P33  1  0.500000  0.148423  0.887273  1
  P  P34  1  0.000000  0.666487  0.101707  1
  P  P35  1  0.000000  0.333513  0.101707  1
