# generated using pymatgen
data_As(OsCl6)5
_symmetry_space_group_name_H-M   'P 1'
_cell_length_a   13.13677162
_cell_length_b   13.14802434
_cell_length_c   6.65955456
_cell_angle_alpha   86.69868546
_cell_angle_beta   86.56944162
_cell_angle_gamma   87.65343256
_symmetry_Int_Tables_number   1
_chemical_formula_structural   As(OsCl6)5
_chemical_formula_sum   'As1 Os5 Cl30'
_cell_volume   1145.47713332
_cell_formula_units_Z   1
loop_
 _symmetry_equiv_pos_site_id
 _symmetry_equiv_pos_as_xyz
  1  'x, y, z'
loop_
 _atom_site_type_symbol
 _atom_site_label
 _atom_site_symmetry_multiplicity
 _atom_site_fract_x
 _atom_site_fract_y
 _atom_site_fract_z
 _atom_site_occupancy
  As  As0  1  0.557268  0.776843  0.433114  1
  Os  Os1  1  0.897415  0.102294  0.000344  1
  Os  Os2  1  0.101972  0.897384  0.999942  1
  Os  Os3  1  0.768219  0.565411  0.433350  1
  Os  Os4  1  0.230730  0.435588  0.566588  1
  Os  Os5  1  0.435686  0.231277  0.566906  1
  Cl  Cl6  1  0.508014  0.313943  0.812542  1
  Cl  Cl7  1  0.267861  0.268178  0.736049  1
  Cl  Cl8  1  0.167759  0.973478  0.705412  1
  Cl  Cl9  1  0.605192  0.597846  0.602865  1
  Cl  Cl10  1  0.218515  0.585432  0.387475  1
  Cl  Cl11  1  0.736436  0.728282  0.263738  1
  Cl  Cl12  1  0.158794  0.352790  0.320745  1
  Cl  Cl13  1  0.068636  0.068792  0.124895  1
  Cl  Cl14  1  0.644870  0.839561  0.671922  1
  Cl  Cl15  1  0.585773  0.218696  0.387782  1
  Cl  Cl16  1  0.110721  0.743367  0.868263  1
  Cl  Cl17  1  0.025883  0.831928  0.294298  1
  Cl  Cl18  1  0.920837  0.547588  0.258800  1
  Cl  Cl19  1  0.832041  0.026208  0.294915  1
  Cl  Cl20  1  0.412898  0.782921  0.612551  1
  Cl  Cl21  1  0.785753  0.413278  0.608000  1
  Cl  Cl22  1  0.551788  0.920906  0.253345  1
  Cl  Cl23  1  0.973416  0.167627  0.705559  1
  Cl  Cl24  1  0.841125  0.647723  0.679709  1
  Cl  Cl25  1  0.888800  0.256319  0.131456  1
  Cl  Cl26  1  0.494665  0.689416  0.193727  1
  Cl  Cl27  1  0.352996  0.158706  0.321304  1
  Cl  Cl28  1  0.080451  0.447982  0.745202  1
  Cl  Cl29  1  0.743221  0.110049  0.868805  1
  Cl  Cl30  1  0.447154  0.081355  0.746857  1
  Cl  Cl31  1  0.398573  0.398413  0.397581  1
  Cl  Cl32  1  0.313370  0.507626  0.813047  1
  Cl  Cl33  1  0.256073  0.889304  0.131250  1
  Cl  Cl34  1  0.930934  0.930905  0.875137  1
  Cl  Cl35  1  0.686159  0.492584  0.186528  1
