# generated using pymatgen
data_NbP3WO12
_symmetry_space_group_name_H-M   'P 1'
_cell_length_a   8.80317856
_cell_length_b   8.80421401
_cell_length_c   9.09013514
_cell_angle_alpha   89.64577786
_cell_angle_beta   61.07129644
_cell_angle_gamma   119.62731730
_symmetry_Int_Tables_number   1
_chemical_formula_structural   NbP3WO12
_chemical_formula_sum   'Nb2 P6 W2 O24'
_cell_volume   507.37566442
_cell_formula_units_Z   2
loop_
 _symmetry_equiv_pos_site_id
 _symmetry_equiv_pos_as_xyz
  1  'x, y, z'
loop_
 _atom_site_type_symbol
 _atom_site_label
 _atom_site_symmetry_multiplicity
 _atom_site_fract_x
 _atom_site_fract_y
 _atom_site_fract_z
 _atom_site_occupancy
  Nb  Nb0  1  0.783071  0.140736  0.075684  1
  Nb  Nb1  1  0.785233  0.642680  0.573671  1
  P  P2  1  0.283335  0.032838  0.251294  1
  P  P3  1  0.717711  0.749513  0.247911  1
  P  P4  1  0.284951  0.251501  0.751821  1
  P  P5  1  0.715199  0.966568  0.750139  1
  P  P6  1  0.003299  0.535794  0.747762  1
  P  P7  1  0.995308  0.462816  0.252010  1
  W  W8  1  0.208578  0.355117  0.433510  1
  W  W9  1  0.212632  0.857800  0.931291  1
  O  O10  1  0.487317  0.062874  0.223286  1
  O  O11  1  0.865555  0.362759  0.912547  1
  O  O12  1  0.892770  0.136295  0.586513  1
  O  O13  1  0.847070  0.549304  0.720834  1
  O  O14  1  0.125042  0.624348  0.085227  1
  O  O15  1  0.092577  0.855629  0.413811  1
  O  O16  1  0.145567  0.440483  0.273560  1
  O  O17  1  0.136897  0.711121  0.771887  1
  O  O18  1  0.148825  0.514734  0.579770  1
  O  O19  1  0.283916  0.202646  0.284941  1
  O  O20  1  0.286975  0.014815  0.084233  1
  O  O21  1  0.712288  0.922484  0.224493  1
  O  O22  1  0.524044  0.578879  0.275599  1
  O  O23  1  0.275218  0.272310  0.590563  1
  O  O24  1  0.851228  0.491258  0.417186  1
  O  O25  1  0.087888  0.222100  0.920497  1
  O  O26  1  0.912323  0.785292  0.076053  1
  O  O27  1  0.506563  0.915453  0.781828  1
  O  O28  1  0.735465  0.734463  0.408968  1
  O  O29  1  0.483327  0.433238  0.720619  1
  O  O30  1  0.305473  0.091888  0.771893  1
  O  O31  1  0.723656  0.997749  0.914973  1
  O  O32  1  0.731111  0.798758  0.718456  1
  O  O33  1  0.849586  0.285758  0.227174  1
