# generated using pymatgen
data_PmAlNi4
_symmetry_space_group_name_H-M   'P 1'
_cell_length_a   4.94769444
_cell_length_b   5.09067929
_cell_length_c   4.03087400
_cell_angle_alpha   90.00000000
_cell_angle_beta   90.00000000
_cell_angle_gamma   59.02322799
_symmetry_Int_Tables_number   1
_chemical_formula_structural   PmAlNi4
_chemical_formula_sum   'Pm1 Al1 Ni4'
_cell_volume   87.04606999
_cell_formula_units_Z   1
loop_
 _symmetry_equiv_pos_site_id
 _symmetry_equiv_pos_as_xyz
  1  'x, y, z'
loop_
 _atom_site_type_symbol
 _atom_site_label
 _atom_site_symmetry_multiplicity
 _atom_site_fract_x
 _atom_site_fract_y
 _atom_site_fract_z
 _atom_site_occupancy
  Pm  Pm0  1  0.999952  0.999979  0.000000  1
  Al  Al1  1  0.000055  0.499868  0.499999  1
  Ni  Ni2  1  0.334898  0.332536  0.000000  1
  Ni  Ni3  1  0.665064  0.667472  0.000000  1
  Ni  Ni4  1  0.500153  0.999985  0.499999  1
  Ni  Ni5  1  0.499872  0.500163  0.499999  1
