# generated using pymatgen
data_Sc3ZnSn3Rh2
_symmetry_space_group_name_H-M   'P 1'
_cell_length_a   7.48485600
_cell_length_b   7.48485649
_cell_length_c   7.24593200
_cell_angle_alpha   90.00000000
_cell_angle_beta   90.00000000
_cell_angle_gamma   119.99999786
_symmetry_Int_Tables_number   1
_chemical_formula_structural   Sc3ZnSn3Rh2
_chemical_formula_sum   'Sc6 Zn2 Sn6 Rh4'
_cell_volume   351.55382064
_cell_formula_units_Z   2
loop_
 _symmetry_equiv_pos_site_id
 _symmetry_equiv_pos_as_xyz
  1  'x, y, z'
loop_
 _atom_site_type_symbol
 _atom_site_label
 _atom_site_symmetry_multiplicity
 _atom_site_fract_x
 _atom_site_fract_y
 _atom_site_fract_z
 _atom_site_occupancy
  Sc  Sc0  1  0.382074  0.983185  0.250000  1
  Sc  Sc1  1  0.601110  0.617926  0.250000  1
  Sc  Sc2  1  0.016815  0.398890  0.250000  1
  Sc  Sc3  1  0.377067  0.972097  0.750000  1
  Sc  Sc4  1  0.595030  0.622933  0.750000  1
  Sc  Sc5  1  0.027903  0.404970  0.750000  1
  Zn  Zn6  1  0.666667  0.333333  0.981151  1
  Zn  Zn7  1  0.666667  0.333333  0.518849  1
  Sn  Sn8  1  0.731998  0.006571  0.000695  1
  Sn  Sn9  1  0.274573  0.268002  0.499305  1
  Sn  Sn10  1  0.993429  0.725427  0.499305  1
  Sn  Sn11  1  0.993429  0.725427  0.000695  1
  Sn  Sn12  1  0.274573  0.268002  0.000695  1
  Sn  Sn13  1  0.731998  0.006571  0.499305  1
  Rh  Rh14  1  0.333333  0.666667  0.008807  1
  Rh  Rh15  1  0.333333  0.666667  0.491193  1
  Rh  Rh16  1  0.000000  0.000000  0.250000  1
  Rh  Rh17  1  0.000000  0.000000  0.750000  1
