# generated using pymatgen
data_Hf18Re8AsOs
_symmetry_space_group_name_H-M   'P 1'
_cell_length_a   8.60652900
_cell_length_b   8.60652949
_cell_length_c   8.64121000
_cell_angle_alpha   90.00000000
_cell_angle_beta   90.00000000
_cell_angle_gamma   119.99829788
_symmetry_Int_Tables_number   1
_chemical_formula_structural   Hf18Re8AsOs
_chemical_formula_sum   'Hf18 Re8 As1 Os1'
_cell_volume   554.33045248
_cell_formula_units_Z   1
loop_
 _symmetry_equiv_pos_site_id
 _symmetry_equiv_pos_as_xyz
  1  'x, y, z'
loop_
 _atom_site_type_symbol
 _atom_site_label
 _atom_site_symmetry_multiplicity
 _atom_site_fract_x
 _atom_site_fract_y
 _atom_site_fract_z
 _atom_site_occupancy
  Hf  Hf0  1  0.803558  0.607053  0.553840  1
  Hf  Hf1  1  0.803525  0.196475  0.553893  1
  Hf  Hf2  1  0.392947  0.196442  0.553840  1
  Hf  Hf3  1  0.192658  0.385383  0.452329  1
  Hf  Hf4  1  0.192673  0.807327  0.452302  1
  Hf  Hf5  1  0.614617  0.807342  0.452329  1
  Hf  Hf6  1  0.192658  0.385383  0.047671  1
  Hf  Hf7  1  0.192673  0.807327  0.047698  1
  Hf  Hf8  1  0.614617  0.807342  0.047671  1
  Hf  Hf9  1  0.803558  0.607053  0.946160  1
  Hf  Hf10  1  0.803525  0.196475  0.946107  1
  Hf  Hf11  1  0.392947  0.196442  0.946160  1
  Hf  Hf12  1  0.458666  0.917311  0.750000  1
  Hf  Hf13  1  0.458747  0.541253  0.750000  1
  Hf  Hf14  1  0.082689  0.541334  0.750000  1
  Hf  Hf15  1  0.541869  0.083811  0.250000  1
  Hf  Hf16  1  0.541851  0.458149  0.250000  1
  Hf  Hf17  1  0.916189  0.458131  0.250000  1
  Re  Re18  1  0.110440  0.220777  0.750000  1
  Re  Re19  1  0.110429  0.889571  0.750000  1
  Re  Re20  1  0.779223  0.889560  0.750000  1
  Re  Re21  1  0.889999  0.780121  0.250000  1
  Re  Re22  1  0.890034  0.109966  0.250000  1
  Re  Re23  1  0.219879  0.110001  0.250000  1
  Re  Re24  1  0.999989  0.000011  0.501010  1
  Re  Re25  1  0.999989  0.000011  0.998990  1
  As  As26  1  0.333350  0.666650  0.250000  1
  Os  Os27  1  0.666701  0.333299  0.750000  1
