# generated using pymatgen
data_Y8Cu3Si12Au
_symmetry_space_group_name_H-M   'P 1'
_cell_length_a   8.05118500
_cell_length_b   8.05118497
_cell_length_c   8.15435100
_cell_angle_alpha   90.00000000
_cell_angle_beta   90.00000000
_cell_angle_gamma   119.99999600
_symmetry_Int_Tables_number   1
_chemical_formula_structural   Y8Cu3Si12Au
_chemical_formula_sum   'Y8 Cu3 Si12 Au1'
_cell_volume   457.76191923
_cell_formula_units_Z   1
loop_
 _symmetry_equiv_pos_site_id
 _symmetry_equiv_pos_as_xyz
  1  'x, y, z'
loop_
 _atom_site_type_symbol
 _atom_site_label
 _atom_site_symmetry_multiplicity
 _atom_site_fract_x
 _atom_site_fract_y
 _atom_site_fract_z
 _atom_site_occupancy
  Y  Y0  1  0.501796  0.003592  0.247511  1
  Y  Y1  1  0.501293  0.002585  0.752467  1
  Y  Y2  1  0.996408  0.498204  0.247511  1
  Y  Y3  1  0.997415  0.498707  0.752467  1
  Y  Y4  1  0.501796  0.498204  0.247511  1
  Y  Y5  1  0.501293  0.498707  0.752467  1
  Y  Y6  1  0.000000  0.000000  0.247700  1
  Y  Y7  1  0.000000  0.000000  0.752257  1
  Cu  Cu8  1  0.333333  0.666667  0.002091  1
  Cu  Cu9  1  0.666667  0.333333  0.998145  1
  Cu  Cu10  1  0.666667  0.333333  0.500658  1
  Si  Si11  1  0.169775  0.339550  0.999754  1
  Si  Si12  1  0.830914  0.661828  0.000271  1
  Si  Si13  1  0.660450  0.830225  0.999754  1
  Si  Si14  1  0.829590  0.659180  0.500276  1
  Si  Si15  1  0.338172  0.169086  0.000271  1
  Si  Si16  1  0.162451  0.324902  0.499675  1
  Si  Si17  1  0.169775  0.830225  0.999754  1
  Si  Si18  1  0.340820  0.170410  0.500276  1
  Si  Si19  1  0.830914  0.169086  0.000271  1
  Si  Si20  1  0.675098  0.837549  0.499675  1
  Si  Si21  1  0.829590  0.170410  0.500276  1
  Si  Si22  1  0.162451  0.837549  0.499675  1
  Au  Au23  1  0.333333  0.666667  0.499287  1
