# generated using pymatgen
data_Nd4ZnCr3(BO2)20
_symmetry_space_group_name_H-M   'P 1'
_cell_length_a   8.65846936
_cell_length_b   7.69852311
_cell_length_c   9.50209000
_cell_angle_alpha   90.04086643
_cell_angle_beta   93.20423646
_cell_angle_gamma   90.18247554
_symmetry_Int_Tables_number   1
_chemical_formula_structural   Nd4ZnCr3(BO2)20
_chemical_formula_sum   'Nd4 Zn1 Cr3 B20 O40'
_cell_volume   632.39119371
_cell_formula_units_Z   1
loop_
 _symmetry_equiv_pos_site_id
 _symmetry_equiv_pos_as_xyz
  1  'x, y, z'
loop_
 _atom_site_type_symbol
 _atom_site_label
 _atom_site_symmetry_multiplicity
 _atom_site_fract_x
 _atom_site_fract_y
 _atom_site_fract_z
 _atom_site_occupancy
  Nd  Nd0  1  0.181814  0.180823  0.234655  1
  Nd  Nd1  1  0.318601  0.682591  0.264781  1
  Nd  Nd2  1  0.683704  0.317249  0.734426  1
  Nd  Nd3  1  0.818038  0.818480  0.767546  1
  Zn  Zn4  1  0.389545  0.591326  0.872056  1
  Cr  Cr5  1  0.602211  0.409958  0.112659  1
  Cr  Cr6  1  0.892421  0.908388  0.385345  1
  Cr  Cr7  1  0.106969  0.092015  0.616533  1
  B  B8  1  0.154829  0.401411  0.001279  1
  B  B9  1  0.779689  0.033858  0.053737  1
  B  B10  1  0.568059  0.814595  0.084615  1
  B  B11  1  0.018156  0.828452  0.107530  1
  B  B12  1  0.579817  0.079188  0.237834  1
  B  B13  1  0.918675  0.580991  0.261446  1
  B  B14  1  0.481436  0.326457  0.392945  1
  B  B15  1  0.928265  0.315679  0.409889  1
  B  B16  1  0.719218  0.532872  0.446235  1
  B  B17  1  0.349793  0.900244  0.501535  1
  B  B18  1  0.650052  0.097628  0.498701  1
  B  B19  1  0.280444  0.466285  0.554106  1
  B  B20  1  0.073074  0.685384  0.591349  1
  B  B21  1  0.518970  0.671847  0.607979  1
  B  B22  1  0.083516  0.421203  0.740503  1
  B  B23  1  0.418110  0.918384  0.762768  1
  B  B24  1  0.982106  0.174340  0.894134  1
  B  B25  1  0.429836  0.184619  0.908916  1
  B  B26  1  0.218889  0.967937  0.946180  1
  B  B27  1  0.849370  0.598831  0.001334  1
  O  O28  1  0.686597  0.875114  0.009231  1
  O  O29  1  0.041185  0.275290  0.016150  1
  O  O30  1  0.501178  0.651734  0.068484  1
  O  O31  1  0.175572  0.894616  0.084346  1
  O  O32  1  0.823034  0.537734  0.133321  1
  O  O33  1  0.238237  0.451184  0.118036  1
  O  O34  1  0.681409  0.151966  0.131901  1
  O  O35  1  0.915947  0.975837  0.143841  1
  O  O36  1  0.506417  0.914816  0.187906  1
  O  O37  1  0.035625  0.713812  0.233623  1
  O  O38  1  0.463384  0.211202  0.267169  1
  O  O39  1  0.992218  0.417360  0.309394  1
  O  O40  1  0.582885  0.474908  0.355518  1
  O  O41  1  0.817244  0.651876  0.368617  1
  O  O42  1  0.265175  0.952112  0.385797  1
  O  O43  1  0.673854  0.034605  0.366623  1
  O  O44  1  0.324291  0.391817  0.417551  1
  O  O45  1  0.992311  0.151894  0.422326  1
  O  O46  1  0.461226  0.772429  0.485762  1
  O  O47  1  0.812666  0.374853  0.488956  1
  O  O48  1  0.187819  0.624854  0.511855  1
  O  O49  1  0.539976  0.226384  0.515541  1
  O  O50  1  0.008408  0.848551  0.578948  1
  O  O51  1  0.675943  0.607114  0.584165  1
  O  O52  1  0.325295  0.962807  0.633296  1
  O  O53  1  0.735173  0.045147  0.614232  1
  O  O54  1  0.183327  0.348467  0.633503  1
  O  O55  1  0.416782  0.523873  0.645890  1
  O  O56  1  0.010583  0.584611  0.693373  1
  O  O57  1  0.533559  0.782445  0.736794  1
  O  O58  1  0.966401  0.289872  0.768917  1
  O  O59  1  0.494192  0.080763  0.809926  1
  O  O60  1  0.081727  0.025573  0.856789  1
  O  O61  1  0.314943  0.849036  0.867756  1
  O  O62  1  0.765443  0.547043  0.884961  1
  O  O63  1  0.181668  0.465630  0.869655  1
  O  O64  1  0.824006  0.109955  0.916990  1
  O  O65  1  0.494796  0.348038  0.919268  1
  O  O66  1  0.961051  0.726905  0.985108  1
  O  O67  1  0.312847  0.126745  0.987463  1
