# generated using pymatgen
data_LiEuH9W
_symmetry_space_group_name_H-M   'P 1'
_cell_length_a   8.68388900
_cell_length_b   8.68388797
_cell_length_c   5.06173800
_cell_angle_alpha   90.00000000
_cell_angle_beta   90.00000000
_cell_angle_gamma   120.00000773
_symmetry_Int_Tables_number   1
_chemical_formula_structural   LiEuH9W
_chemical_formula_sum   'Li3 Eu3 H27 W3'
_cell_volume   330.56642071
_cell_formula_units_Z   3
loop_
 _symmetry_equiv_pos_site_id
 _symmetry_equiv_pos_as_xyz
  1  'x, y, z'
loop_
 _atom_site_type_symbol
 _atom_site_label
 _atom_site_symmetry_multiplicity
 _atom_site_fract_x
 _atom_site_fract_y
 _atom_site_fract_z
 _atom_site_occupancy
  Li  Li0  1  0.000000  0.245040  0.500000  1
  Li  Li1  1  0.754960  0.754960  0.500000  1
  Li  Li2  1  0.245040  0.000000  0.500000  1
  Eu  Eu3  1  0.000000  0.599223  0.000000  1
  Eu  Eu4  1  0.400777  0.400777  0.000000  1
  Eu  Eu5  1  0.599223  0.000000  0.000000  1
  H  H6  1  0.803193  0.316235  0.751040  1
  H  H7  1  0.683765  0.486957  0.751040  1
  H  H8  1  0.513043  0.196807  0.751040  1
  H  H9  1  0.196807  0.513043  0.248960  1
  H  H10  1  0.513043  0.196807  0.248960  1
  H  H11  1  0.803193  0.316235  0.248960  1
  H  H12  1  0.683765  0.486957  0.248960  1
  H  H13  1  0.316235  0.803193  0.751040  1
  H  H14  1  0.486957  0.683765  0.751040  1
  H  H15  1  0.202437  0.000000  0.000000  1
  H  H16  1  0.797563  0.797563  0.000000  1
  H  H17  1  0.000000  0.202437  0.000000  1
  H  H18  1  0.854918  0.000000  0.250170  1
  H  H19  1  0.145082  0.145082  0.749830  1
  H  H20  1  0.000000  0.854918  0.749830  1
  H  H21  1  0.000000  0.854918  0.250170  1
  H  H22  1  0.145082  0.145082  0.250170  1
  H  H23  1  0.854918  0.000000  0.749830  1
  H  H24  1  0.124855  0.648845  0.500000  1
  H  H25  1  0.523989  0.875145  0.500000  1
  H  H26  1  0.351155  0.476011  0.500000  1
  H  H27  1  0.476011  0.351155  0.500000  1
  H  H28  1  0.875145  0.523989  0.500000  1
  H  H29  1  0.648845  0.124855  0.500000  1
  H  H30  1  0.196807  0.513043  0.751040  1
  H  H31  1  0.316235  0.803193  0.248960  1
  H  H32  1  0.486957  0.683765  0.248960  1
  W  W33  1  0.666667  0.333333  0.500000  1
  W  W34  1  0.333333  0.666667  0.500000  1
  W  W35  1  0.000000  0.000000  0.000000  1
