# generated using pymatgen
data_Na3Li(IrO3)2
_symmetry_space_group_name_H-M   'P 1'
_cell_length_a   5.28253651
_cell_length_b   11.08393945
_cell_length_c   5.28254600
_cell_angle_alpha   85.54953747
_cell_angle_beta   119.95590897
_cell_angle_gamma   85.54924044
_symmetry_Int_Tables_number   1
_chemical_formula_structural   Na3Li(IrO3)2
_chemical_formula_sum   'Na6 Li2 Ir4 O12'
_cell_volume   264.73786902
_cell_formula_units_Z   2
loop_
 _symmetry_equiv_pos_site_id
 _symmetry_equiv_pos_as_xyz
  1  'x, y, z'
loop_
 _atom_site_type_symbol
 _atom_site_label
 _atom_site_symmetry_multiplicity
 _atom_site_fract_x
 _atom_site_fract_y
 _atom_site_fract_z
 _atom_site_occupancy
  Na  Na0  1  0.249832  0.249987  0.249805  1
  Na  Na1  1  0.750200  0.750011  0.750175  1
  Na  Na2  1  0.911018  0.249649  0.590073  1
  Na  Na3  1  0.409929  0.750349  0.088989  1
  Na  Na4  1  0.588901  0.250268  0.909870  1
  Na  Na5  1  0.090124  0.749730  0.411096  1
  Li  Li6  1  0.500945  0.500014  0.499033  1
  Li  Li7  1  0.999044  0.999995  0.000964  1
  Ir  Ir8  1  0.332804  0.999991  0.667207  1
  Ir  Ir9  1  0.833489  0.500008  0.166500  1
  Ir  Ir10  1  0.167195  0.500008  0.832794  1
  Ir  Ir11  1  0.666528  0.999991  0.333483  1
  O  O12  1  0.620379  0.102015  0.621037  1
  O  O13  1  0.120942  0.602039  0.120194  1
  O  O14  1  0.879808  0.397964  0.879059  1
  O  O15  1  0.378973  0.897981  0.379629  1
  O  O16  1  0.313344  0.102116  0.967098  1
  O  O17  1  0.813855  0.602143  0.466253  1
  O  O18  1  0.966174  0.102087  0.313525  1
  O  O19  1  0.466985  0.602169  0.813589  1
  O  O20  1  0.533739  0.397860  0.186129  1
  O  O21  1  0.032912  0.897879  0.686663  1
  O  O22  1  0.186397  0.397834  0.533004  1
  O  O23  1  0.686482  0.897910  0.033833  1
