# generated using pymatgen
data_Cs6Lu(RhBr6)3
_symmetry_space_group_name_H-M   'P 1'
_cell_length_a   7.82198200
_cell_length_b   7.82199386
_cell_length_c   19.76276300
_cell_angle_alpha   90.00022316
_cell_angle_beta   90.00044009
_cell_angle_gamma   120.00023280
_symmetry_Int_Tables_number   1
_chemical_formula_structural   Cs6Lu(RhBr6)3
_chemical_formula_sum   'Cs6 Lu1 Rh3 Br18'
_cell_volume   1047.15641670
_cell_formula_units_Z   1
loop_
 _symmetry_equiv_pos_site_id
 _symmetry_equiv_pos_as_xyz
  1  'x, y, z'
loop_
 _atom_site_type_symbol
 _atom_site_label
 _atom_site_symmetry_multiplicity
 _atom_site_fract_x
 _atom_site_fract_y
 _atom_site_fract_z
 _atom_site_occupancy
  Cs  Cs0  1  0.333329  0.666659  0.431265  1
  Cs  Cs1  1  0.666663  0.333332  0.929543  1
  Cs  Cs2  1  0.000001  0.999989  0.253510  1
  Cs  Cs3  1  0.333358  0.666668  0.063826  1
  Cs  Cs4  1  0.999989  0.999981  0.749720  1
  Cs  Cs5  1  0.666658  0.333335  0.567372  1
  Lu  Lu6  1  0.666660  0.333324  0.160942  1
  Rh  Rh7  1  0.333326  0.666656  0.832427  1
  Rh  Rh8  1  0.333393  0.666713  0.666921  1
  Rh  Rh9  1  0.666658  0.333340  0.334131  1
  Br  Br10  1  0.833478  0.666958  0.089891  1
  Br  Br11  1  0.512245  0.487740  0.258111  1
  Br  Br12  1  0.512246  0.024497  0.258115  1
  Br  Br13  1  0.042752  0.521383  0.749748  1
  Br  Br14  1  0.636597  0.818310  0.595793  1
  Br  Br15  1  0.181717  0.818292  0.595805  1
  Br  Br16  1  0.975492  0.487740  0.258111  1
  Br  Br17  1  0.333018  0.166500  0.089895  1
  Br  Br18  1  0.817667  0.182319  0.406122  1
  Br  Br19  1  0.181892  0.363791  0.903771  1
  Br  Br20  1  0.478628  0.521368  0.749751  1
  Br  Br21  1  0.181738  0.363461  0.595805  1
  Br  Br22  1  0.478627  0.957267  0.749754  1
  Br  Br23  1  0.364631  0.182322  0.406120  1
  Br  Br24  1  0.833490  0.166501  0.089891  1
  Br  Br25  1  0.817665  0.635376  0.406122  1
  Br  Br26  1  0.181890  0.818089  0.903770  1
  Br  Br27  1  0.636191  0.818087  0.903769  1
