# generated using pymatgen
data_Er2Ga(AsRh2)6
_symmetry_space_group_name_H-M   'P 1'
_cell_length_a   9.97940300
_cell_length_b   9.97940181
_cell_length_c   3.93944900
_cell_angle_alpha   90.00000000
_cell_angle_beta   90.00000000
_cell_angle_gamma   119.99999401
_symmetry_Int_Tables_number   1
_chemical_formula_structural   Er2Ga(AsRh2)6
_chemical_formula_sum   'Er2 Ga1 As6 Rh12'
_cell_volume   339.76231787
_cell_formula_units_Z   1
loop_
 _symmetry_equiv_pos_site_id
 _symmetry_equiv_pos_as_xyz
  1  'x, y, z'
loop_
 _atom_site_type_symbol
 _atom_site_label
 _atom_site_symmetry_multiplicity
 _atom_site_fract_x
 _atom_site_fract_y
 _atom_site_fract_z
 _atom_site_occupancy
  Er  Er0  1  0.666667  0.333333  0.750578  1
  Er  Er1  1  0.333333  0.666667  0.249237  1
  Ga  Ga2  1  0.000000  0.000000  0.586526  1
  As  As3  1  0.286300  0.882500  0.750487  1
  As  As4  1  0.117500  0.403800  0.750487  1
  As  As5  1  0.596200  0.713700  0.750487  1
  As  As6  1  0.712175  0.115654  0.251221  1
  As  As7  1  0.884346  0.596521  0.251221  1
  As  As8  1  0.403479  0.287825  0.251221  1
  Rh  Rh9  1  0.067071  0.617872  0.751127  1
  Rh  Rh10  1  0.382128  0.449199  0.751127  1
  Rh  Rh11  1  0.550801  0.932929  0.751127  1
  Rh  Rh12  1  0.934677  0.383883  0.250721  1
  Rh  Rh13  1  0.616117  0.550793  0.250721  1
  Rh  Rh14  1  0.449207  0.065323  0.250721  1
  Rh  Rh15  1  0.279160  0.123559  0.751943  1
  Rh  Rh16  1  0.876441  0.155603  0.751943  1
  Rh  Rh17  1  0.844397  0.720840  0.751943  1
  Rh  Rh18  1  0.734079  0.880891  0.250263  1
  Rh  Rh19  1  0.119109  0.853189  0.250263  1
  Rh  Rh20  1  0.146811  0.265921  0.250263  1
