# generated using pymatgen
data_Nd7Tm3(Sn3Cl)2
_symmetry_space_group_name_H-M   'P 1'
_cell_length_a   9.34173400
_cell_length_b   9.34173404
_cell_length_c   6.65941900
_cell_angle_alpha   90.00000000
_cell_angle_beta   90.00000000
_cell_angle_gamma   119.99999988
_symmetry_Int_Tables_number   1
_chemical_formula_structural   Nd7Tm3(Sn3Cl)2
_chemical_formula_sum   'Nd7 Tm3 Sn6 Cl2'
_cell_volume   503.29424970
_cell_formula_units_Z   1
loop_
 _symmetry_equiv_pos_site_id
 _symmetry_equiv_pos_as_xyz
  1  'x, y, z'
loop_
 _atom_site_type_symbol
 _atom_site_label
 _atom_site_symmetry_multiplicity
 _atom_site_fract_x
 _atom_site_fract_y
 _atom_site_fract_z
 _atom_site_occupancy
  Nd  Nd0  1  0.666667  0.333333  0.000000  1
  Nd  Nd1  1  0.738332  0.999398  0.749153  1
  Nd  Nd2  1  0.738332  0.738934  0.250847  1
  Nd  Nd3  1  0.000602  0.261668  0.250847  1
  Nd  Nd4  1  0.000602  0.738934  0.749153  1
  Nd  Nd5  1  0.261066  0.261668  0.749153  1
  Nd  Nd6  1  0.261066  0.999398  0.250847  1
  Tm  Tm7  1  0.333333  0.666667  0.500000  1
  Tm  Tm8  1  0.666667  0.333333  0.500000  1
  Tm  Tm9  1  0.333333  0.666667  0.000000  1
  Sn  Sn10  1  0.606297  0.609584  0.747975  1
  Sn  Sn11  1  0.003287  0.609584  0.252025  1
  Sn  Sn12  1  0.606297  0.996713  0.252025  1
  Sn  Sn13  1  0.390416  0.996713  0.747975  1
  Sn  Sn14  1  0.003287  0.393703  0.747975  1
  Sn  Sn15  1  0.390416  0.393703  0.252025  1
  Cl  Cl16  1  0.000000  0.000000  0.500000  1
  Cl  Cl17  1  0.000000  0.000000  0.000000  1
