# generated using pymatgen
data_Li4La3Ge4
_symmetry_space_group_name_H-M   'P 1'
_cell_length_a   4.52507263
_cell_length_b   6.97752090
_cell_length_c   8.57724925
_cell_angle_alpha   114.00058026
_cell_angle_beta   105.29467762
_cell_angle_gamma   89.99999827
_symmetry_Int_Tables_number   1
_chemical_formula_structural   Li4La3Ge4
_chemical_formula_sum   'Li4 La3 Ge4'
_cell_volume   236.86378094
_cell_formula_units_Z   1
loop_
 _symmetry_equiv_pos_site_id
 _symmetry_equiv_pos_as_xyz
  1  'x, y, z'
loop_
 _atom_site_type_symbol
 _atom_site_label
 _atom_site_symmetry_multiplicity
 _atom_site_fract_x
 _atom_site_fract_y
 _atom_site_fract_z
 _atom_site_occupancy
  Li  Li0  1  0.670912  0.981016  0.341823  1
  Li  Li1  1  0.329088  0.018984  0.658177  1
  Li  Li2  1  0.329088  0.639193  0.658177  1
  Li  Li3  1  0.670912  0.360807  0.341823  1
  La  La4  1  0.000000  0.000000  0.000000  1
  La  La5  1  0.131988  0.631988  0.263975  1
  La  La6  1  0.868012  0.368012  0.736025  1
  Ge  Ge7  1  0.500000  0.683161  0.000000  1
  Ge  Ge8  1  0.500000  0.316839  0.000000  1
  Ge  Ge9  1  0.786736  0.786736  0.573471  1
  Ge  Ge10  1  0.213264  0.213264  0.426529  1
