# generated using pymatgen
data_Lu4As6Ir2Ru5
_symmetry_space_group_name_H-M   'P 1'
_cell_length_a   7.18811285
_cell_length_b   7.18849353
_cell_length_c   7.18849515
_cell_angle_alpha   109.59442206
_cell_angle_beta   109.41073650
_cell_angle_gamma   109.41072458
_symmetry_Int_Tables_number   1
_chemical_formula_structural   Lu4As6Ir2Ru5
_chemical_formula_sum   'Lu4 As6 Ir2 Ru5'
_cell_volume   285.92744569
_cell_formula_units_Z   1
loop_
 _symmetry_equiv_pos_site_id
 _symmetry_equiv_pos_as_xyz
  1  'x, y, z'
loop_
 _atom_site_type_symbol
 _atom_site_label
 _atom_site_symmetry_multiplicity
 _atom_site_fract_x
 _atom_site_fract_y
 _atom_site_fract_z
 _atom_site_occupancy
  Lu  Lu0  1  0.001314  0.000657  0.500657  1
  Lu  Lu1  1  0.001314  0.500657  0.000657  1
  Lu  Lu2  1  0.499008  0.998391  0.998391  1
  Lu  Lu3  1  0.499008  0.500617  0.500617  1
  As  As4  1  0.680756  0.683668  0.997089  1
  As  As5  1  0.313603  0.997446  0.316157  1
  As  As6  1  0.004788  0.317216  0.317216  1
  As  As7  1  0.313603  0.316157  0.997446  1
  As  As8  1  0.680756  0.997089  0.683668  1
  As  As9  1  0.004788  0.687572  0.687572  1
  Ir  Ir10  1  0.750612  0.250018  0.500594  1
  Ir  Ir11  1  0.750612  0.500594  0.250018  1
  Ru  Ru12  1  0.500485  0.250243  0.750243  1
  Ru  Ru13  1  0.249672  0.500226  0.749446  1
  Ru  Ru14  1  0.249672  0.749446  0.500226  1
  Ru  Ru15  1  0.500485  0.750243  0.250243  1
  Ru  Ru16  1  0.999524  0.999762  0.999762  1
