# generated using pymatgen
data_Pr3Co2Cu7(Ni2B)2
_symmetry_space_group_name_H-M   'P 1'
_cell_length_a   5.11824068
_cell_length_b   5.11824083
_cell_length_c   11.04524200
_cell_angle_alpha   90.00000000
_cell_angle_beta   90.00000000
_cell_angle_gamma   119.71166264
_symmetry_Int_Tables_number   1
_chemical_formula_structural   Pr3Co2Cu7(Ni2B)2
_chemical_formula_sum   'Pr3 Co2 Cu7 Ni4 B2'
_cell_volume   251.30539007
_cell_formula_units_Z   1
loop_
 _symmetry_equiv_pos_site_id
 _symmetry_equiv_pos_as_xyz
  1  'x, y, z'
loop_
 _atom_site_type_symbol
 _atom_site_label
 _atom_site_symmetry_multiplicity
 _atom_site_fract_x
 _atom_site_fract_y
 _atom_site_fract_z
 _atom_site_occupancy
  Pr  Pr0  1  0.000000  0.000000  0.998577  1
  Pr  Pr1  1  0.000000  0.000000  0.692806  1
  Pr  Pr2  1  0.000000  0.000000  0.315178  1
  Co  Co3  1  0.500000  0.000000  0.872886  1
  Co  Co4  1  0.000000  0.500000  0.872886  1
  Cu  Cu5  1  0.500000  0.500000  0.500240  1
  Cu  Cu6  1  0.500000  0.000000  0.500340  1
  Cu  Cu7  1  0.000000  0.500000  0.500340  1
  Cu  Cu8  1  0.667706  0.332294  0.686675  1
  Cu  Cu9  1  0.332294  0.667706  0.686675  1
  Cu  Cu10  1  0.333935  0.666065  0.312966  1
  Cu  Cu11  1  0.666065  0.333935  0.312966  1
  Ni  Ni12  1  0.500000  0.500000  0.870472  1
  Ni  Ni13  1  0.500000  0.500000  0.127101  1
  Ni  Ni14  1  0.500000  0.000000  0.128033  1
  Ni  Ni15  1  0.000000  0.500000  0.128033  1
  B  B16  1  0.669080  0.330920  0.996914  1
  B  B17  1  0.330920  0.669080  0.996914  1
