# generated using pymatgen
data_Th6Co17P12Rh
_symmetry_space_group_name_H-M   'P 1'
_cell_length_a   3.84139100
_cell_length_b   10.62570900
_cell_length_c   12.49060400
_cell_angle_alpha   90.00000000
_cell_angle_beta   90.00000000
_cell_angle_gamma   90.00000000
_symmetry_Int_Tables_number   1
_chemical_formula_structural   Th6Co17P12Rh
_chemical_formula_sum   'Th6 Co17 P12 Rh1'
_cell_volume   509.83526526
_cell_formula_units_Z   1
loop_
 _symmetry_equiv_pos_site_id
 _symmetry_equiv_pos_as_xyz
  1  'x, y, z'
loop_
 _atom_site_type_symbol
 _atom_site_label
 _atom_site_symmetry_multiplicity
 _atom_site_fract_x
 _atom_site_fract_y
 _atom_site_fract_z
 _atom_site_occupancy
  Th  Th0  1  0.000000  0.500000  0.523505  1
  Th  Th1  1  0.500000  0.000000  0.480149  1
  Th  Th2  1  0.500000  0.815384  0.207650  1
  Th  Th3  1  0.500000  0.184616  0.207650  1
  Th  Th4  1  0.000000  0.686572  0.792552  1
  Th  Th5  1  0.000000  0.313428  0.792552  1
  Co  Co6  1  0.000000  0.000000  0.842284  1
  Co  Co7  1  0.500000  0.500000  0.703694  1
  Co  Co8  1  0.000000  0.000000  0.296691  1
  Co  Co9  1  0.000000  0.500000  0.983374  1
  Co  Co10  1  0.500000  0.000000  0.017087  1
  Co  Co11  1  0.500000  0.331854  0.991957  1
  Co  Co12  1  0.500000  0.668146  0.991957  1
  Co  Co13  1  0.000000  0.163837  0.003870  1
  Co  Co14  1  0.000000  0.836163  0.003870  1
  Co  Co15  1  0.500000  0.300884  0.428294  1
  Co  Co16  1  0.500000  0.699116  0.428294  1
  Co  Co17  1  0.000000  0.199053  0.572294  1
  Co  Co18  1  0.000000  0.800947  0.572294  1
  Co  Co19  1  0.500000  0.881721  0.714522  1
  Co  Co20  1  0.500000  0.118279  0.714522  1
  Co  Co21  1  0.000000  0.619085  0.286361  1
  Co  Co22  1  0.000000  0.380915  0.286361  1
  P  P23  1  0.500000  0.500000  0.884468  1
  P  P24  1  0.000000  0.000000  0.115630  1
  P  P25  1  0.500000  0.500000  0.344589  1
  P  P26  1  0.000000  0.000000  0.662221  1
  P  P27  1  0.500000  0.304834  0.612292  1
  P  P28  1  0.500000  0.695166  0.612292  1
  P  P29  1  0.000000  0.194021  0.388483  1
  P  P30  1  0.000000  0.805979  0.388483  1
  P  P31  1  0.500000  0.851782  0.897553  1
  P  P32  1  0.500000  0.148218  0.897553  1
  P  P33  1  0.000000  0.654384  0.098583  1
  P  P34  1  0.000000  0.345616  0.098583  1
  Rh  Rh35  1  0.500000  0.500000  0.157487  1
