# generated using pymatgen
data_Hf3ZrCu3Si4Ir
_symmetry_space_group_name_H-M   'P 1'
_cell_length_a   3.87077800
_cell_length_b   6.52272111
_cell_length_c   7.40154539
_cell_angle_alpha   88.78955090
_cell_angle_beta   90.00000000
_cell_angle_gamma   90.00000000
_symmetry_Int_Tables_number   1
_chemical_formula_structural   Hf3ZrCu3Si4Ir
_chemical_formula_sum   'Hf3 Zr1 Cu3 Si4 Ir1'
_cell_volume   186.83255648
_cell_formula_units_Z   1
loop_
 _symmetry_equiv_pos_site_id
 _symmetry_equiv_pos_as_xyz
  1  'x, y, z'
loop_
 _atom_site_type_symbol
 _atom_site_label
 _atom_site_symmetry_multiplicity
 _atom_site_fract_x
 _atom_site_fract_y
 _atom_site_fract_z
 _atom_site_occupancy
  Hf  Hf0  1  0.250000  0.522297  0.684218  1
  Hf  Hf1  1  0.250000  0.013260  0.818277  1
  Hf  Hf2  1  0.750000  0.982778  0.185789  1
  Zr  Zr3  1  0.750000  0.476387  0.313735  1
  Cu  Cu4  1  0.250000  0.150810  0.437276  1
  Cu  Cu5  1  0.750000  0.338521  0.927406  1
  Cu  Cu6  1  0.250000  0.664146  0.069538  1
  Si  Si7  1  0.250000  0.274412  0.110859  1
  Si  Si8  1  0.750000  0.723867  0.888535  1
  Si  Si9  1  0.250000  0.765397  0.382696  1
  Si  Si10  1  0.750000  0.230241  0.619251  1
  Ir  Ir11  1  0.750000  0.857882  0.562419  1
