# generated using pymatgen
data_Yb12Er8Si15Ag
_symmetry_space_group_name_H-M   'P 1'
_cell_length_a   7.42943959
_cell_length_b   7.77921705
_cell_length_c   15.07725429
_cell_angle_alpha   89.55344246
_cell_angle_beta   90.60966728
_cell_angle_gamma   90.29028420
_symmetry_Int_Tables_number   1
_chemical_formula_structural   Yb12Er8Si15Ag
_chemical_formula_sum   'Yb12 Er8 Si15 Ag1'
_cell_volume   871.30665856
_cell_formula_units_Z   1
loop_
 _symmetry_equiv_pos_site_id
 _symmetry_equiv_pos_as_xyz
  1  'x, y, z'
loop_
 _atom_site_type_symbol
 _atom_site_label
 _atom_site_symmetry_multiplicity
 _atom_site_fract_x
 _atom_site_fract_y
 _atom_site_fract_z
 _atom_site_occupancy
  Yb  Yb0  1  0.979052  0.818377  0.403628  1
  Yb  Yb1  1  0.471713  0.683217  0.096302  1
  Yb  Yb2  1  0.514455  0.320325  0.596588  1
  Yb  Yb3  1  0.027245  0.183356  0.904077  1
  Yb  Yb4  1  0.028917  0.178296  0.595609  1
  Yb  Yb5  1  0.527463  0.317554  0.903662  1
  Yb  Yb6  1  0.471201  0.681318  0.404028  1
  Yb  Yb7  1  0.972863  0.816922  0.095908  1
  Yb  Yb8  1  0.351244  0.020089  0.751353  1
  Yb  Yb9  1  0.850401  0.483267  0.750600  1
  Yb  Yb10  1  0.148911  0.519237  0.250938  1
  Yb  Yb11  1  0.646712  0.979591  0.249770  1
  Er  Er12  1  0.315523  0.176254  0.120611  1
  Er  Er13  1  0.820834  0.319136  0.375099  1
  Er  Er14  1  0.184711  0.678109  0.879421  1
  Er  Er15  1  0.676496  0.829575  0.625077  1
  Er  Er16  1  0.318106  0.177631  0.377456  1
  Er  Er17  1  0.814358  0.322832  0.120618  1
  Er  Er18  1  0.190355  0.677154  0.620236  1
  Er  Er19  1  0.685483  0.823901  0.879395  1
  Si  Si20  1  0.358227  0.966530  0.961718  1
  Si  Si21  1  0.646039  0.032518  0.463280  1
  Si  Si22  1  0.141015  0.466562  0.039183  1
  Si  Si23  1  0.155169  0.461546  0.460546  1
  Si  Si24  1  0.642210  0.033285  0.038577  1
  Si  Si25  1  0.358309  0.967500  0.537267  1
  Si  Si26  1  0.858089  0.532786  0.961496  1
  Si  Si27  1  0.976596  0.880680  0.749468  1
  Si  Si28  1  0.474326  0.620191  0.753012  1
  Si  Si29  1  0.524829  0.379406  0.247059  1
  Si  Si30  1  0.023648  0.117194  0.249881  1
  Si  Si31  1  0.246209  0.396128  0.750931  1
  Si  Si32  1  0.749382  0.106520  0.750055  1
  Si  Si33  1  0.251505  0.895425  0.249340  1
  Si  Si34  1  0.751288  0.603823  0.250736  1
  Ag  Ag35  1  0.847119  0.533760  0.537075  1
