# generated using pymatgen
data_Ba6Sn8BiH
_symmetry_space_group_name_H-M   'P 1'
_cell_length_a   9.22321962
_cell_length_b   9.22321964
_cell_length_c   9.22098992
_cell_angle_alpha   120.00800399
_cell_angle_beta   120.00800376
_cell_angle_gamma   90.00000262
_symmetry_Int_Tables_number   1
_chemical_formula_structural   Ba6Sn8BiH
_chemical_formula_sum   'Ba6 Sn8 Bi1 H1'
_cell_volume   554.52678214
_cell_formula_units_Z   1
loop_
 _symmetry_equiv_pos_site_id
 _symmetry_equiv_pos_as_xyz
  1  'x, y, z'
loop_
 _atom_site_type_symbol
 _atom_site_label
 _atom_site_symmetry_multiplicity
 _atom_site_fract_x
 _atom_site_fract_y
 _atom_site_fract_z
 _atom_site_occupancy
  Ba  Ba0  1  0.229782  0.229782  0.459563  1
  Ba  Ba1  1  0.770218  0.770218  0.540437  1
  Ba  Ba2  1  0.671447  0.159251  0.000000  1
  Ba  Ba3  1  0.328553  0.840749  0.000000  1
  Ba  Ba4  1  0.840749  0.671447  0.000000  1
  Ba  Ba5  1  0.159251  0.328553  0.000000  1
  Sn  Sn6  1  0.334913  0.832041  0.384572  1
  Sn  Sn7  1  0.665087  0.167959  0.615428  1
  Sn  Sn8  1  0.049660  0.552532  0.384572  1
  Sn  Sn9  1  0.552532  0.334913  0.384572  1
  Sn  Sn10  1  0.167959  0.950340  0.615428  1
  Sn  Sn11  1  0.950340  0.447468  0.615428  1
  Sn  Sn12  1  0.447468  0.665087  0.615428  1
  Sn  Sn13  1  0.832041  0.049660  0.384572  1
  Bi  Bi14  1  0.500000  0.500000  0.000000  1
  H  H15  1  0.000000  0.000000  0.000000  1
