# generated using pymatgen
data_Ac4Pt6O19
_symmetry_space_group_name_H-M   'P 1'
_cell_length_a   7.93714682
_cell_length_b   7.93714729
_cell_length_c   7.93714700
_cell_angle_alpha   109.47121480
_cell_angle_beta   109.47121599
_cell_angle_gamma   109.47122408
_symmetry_Int_Tables_number   1
_chemical_formula_structural   Ac4Pt6O19
_chemical_formula_sum   'Ac4 Pt6 O19'
_cell_volume   384.92083926
_cell_formula_units_Z   1
loop_
 _symmetry_equiv_pos_site_id
 _symmetry_equiv_pos_as_xyz
  1  'x, y, z'
loop_
 _atom_site_type_symbol
 _atom_site_label
 _atom_site_symmetry_multiplicity
 _atom_site_fract_x
 _atom_site_fract_y
 _atom_site_fract_z
 _atom_site_occupancy
  Ac  Ac0  1  0.000000  0.000000  0.323201  1
  Ac  Ac1  1  0.000000  0.323201  0.000000  1
  Ac  Ac2  1  0.676799  0.676799  0.676799  1
  Ac  Ac3  1  0.323201  0.000000  0.000000  1
  Pt  Pt4  1  0.340636  0.500000  0.840636  1
  Pt  Pt5  1  0.840636  0.340636  0.500000  1
  Pt  Pt6  1  0.500000  0.159364  0.659364  1
  Pt  Pt7  1  0.159364  0.659364  0.500000  1
  Pt  Pt8  1  0.500000  0.840636  0.340636  1
  Pt  Pt9  1  0.659364  0.500000  0.159364  1
  O  O10  1  0.343111  0.000000  0.343111  1
  O  O11  1  0.343111  0.343111  0.000000  1
  O  O12  1  0.000000  0.656889  0.656889  1
  O  O13  1  0.656889  0.656889  0.000000  1
  O  O14  1  0.000000  0.343111  0.343111  1
  O  O15  1  0.656889  0.000000  0.656889  1
  O  O16  1  0.000000  0.000000  0.000000  1
  O  O17  1  0.361732  0.321978  0.612068  1
  O  O18  1  0.039755  0.290089  0.678022  1
  O  O19  1  0.749666  0.387932  0.709911  1
  O  O20  1  0.387932  0.709911  0.749666  1
  O  O21  1  0.250334  0.960245  0.638268  1
  O  O22  1  0.612068  0.361732  0.321978  1
  O  O23  1  0.321978  0.612068  0.361732  1
  O  O24  1  0.678022  0.039755  0.290089  1
  O  O25  1  0.960245  0.638268  0.250334  1
  O  O26  1  0.709911  0.749666  0.387932  1
  O  O27  1  0.638268  0.250334  0.960245  1
  O  O28  1  0.290089  0.678022  0.039755  1
