# generated using pymatgen
data_CaAcGaGeRu2
_symmetry_space_group_name_H-M   'P 1'
_cell_length_a   4.46660100
_cell_length_b   4.46660100
_cell_length_c   6.90354700
_cell_angle_alpha   90.00000000
_cell_angle_beta   90.00000000
_cell_angle_gamma   90.00000000
_symmetry_Int_Tables_number   1
_chemical_formula_structural   CaAcGaGeRu2
_chemical_formula_sum   'Ca1 Ac1 Ga1 Ge1 Ru2'
_cell_volume   137.72938351
_cell_formula_units_Z   1
loop_
 _symmetry_equiv_pos_site_id
 _symmetry_equiv_pos_as_xyz
  1  'x, y, z'
loop_
 _atom_site_type_symbol
 _atom_site_label
 _atom_site_symmetry_multiplicity
 _atom_site_fract_x
 _atom_site_fract_y
 _atom_site_fract_z
 _atom_site_occupancy
  Ca  Ca0  1  0.500000  0.000000  0.697801  1
  Ac  Ac1  1  0.000000  0.500000  0.308718  1
  Ga  Ga2  1  0.000000  0.500000  0.822527  1
  Ge  Ge3  1  0.500000  0.000000  0.174066  1
  Ru  Ru4  1  0.000000  0.000000  0.998444  1
  Ru  Ru5  1  0.500000  0.500000  0.998444  1
