# generated using pymatgen
data_Dy2Y3Tc5(P6Ir7)2
_symmetry_space_group_name_H-M   'P 1'
_cell_length_a   12.63267902
_cell_length_b   12.72926679
_cell_length_c   3.98475000
_cell_angle_alpha   90.00000000
_cell_angle_beta   90.00000000
_cell_angle_gamma   120.13735661
_symmetry_Int_Tables_number   1
_chemical_formula_structural   Dy2Y3Tc5(P6Ir7)2
_chemical_formula_sum   'Dy2 Y3 Tc5 P12 Ir14'
_cell_volume   554.15057763
_cell_formula_units_Z   1
loop_
 _symmetry_equiv_pos_site_id
 _symmetry_equiv_pos_as_xyz
  1  'x, y, z'
loop_
 _atom_site_type_symbol
 _atom_site_label
 _atom_site_symmetry_multiplicity
 _atom_site_fract_x
 _atom_site_fract_y
 _atom_site_fract_z
 _atom_site_occupancy
  Dy  Dy0  1  0.334254  0.667946  0.500000  1
  Dy  Dy1  1  0.666619  0.333451  0.500000  1
  Y  Y2  1  0.999424  0.811066  0.000000  1
  Y  Y3  1  0.186555  0.185081  0.000000  1
  Y  Y4  1  0.810805  0.998584  0.000000  1
  Tc  Tc5  1  0.996763  0.450316  0.500000  1
  Tc  Tc6  1  0.548346  0.544848  0.500000  1
  Tc  Tc7  1  0.456878  0.008947  0.500000  1
  Tc  Tc8  1  0.620638  0.799275  0.500000  1
  Tc  Tc9  1  0.201090  0.821936  0.500000  1
  P  P10  1  0.006393  0.639765  0.500000  1
  P  P11  1  0.363685  0.364885  0.500000  1
  P  P12  1  0.633079  0.993580  0.500000  1
  P  P13  1  0.520229  0.693776  0.000000  1
  P  P14  1  0.308243  0.829926  0.000000  1
  P  P15  1  0.169834  0.483303  0.000000  1
  P  P16  1  0.483360  0.169530  0.000000  1
  P  P17  1  0.685951  0.516519  0.000000  1
  P  P18  1  0.832300  0.314821  0.000000  1
  P  P19  1  0.999045  0.176541  0.500000  1
  P  P20  1  0.817248  0.820386  0.500000  1
  P  P21  1  0.177252  0.993841  0.500000  1
  Ir  Ir22  1  0.507860  0.874488  0.000000  1
  Ir  Ir23  1  0.127824  0.636038  0.000000  1
  Ir  Ir24  1  0.361769  0.493919  0.000000  1
  Ir  Ir25  1  0.490867  0.359157  0.000000  1
  Ir  Ir26  1  0.866008  0.506373  0.000000  1
  Ir  Ir27  1  0.643160  0.136348  0.000000  1
  Ir  Ir28  1  0.000300  0.285660  0.000000  1
  Ir  Ir29  1  0.716217  0.710972  0.000000  1
  Ir  Ir30  1  0.287431  0.005141  0.000000  1
  Ir  Ir31  1  0.179996  0.375134  0.500000  1
  Ir  Ir32  1  0.374327  0.183585  0.500000  1
  Ir  Ir33  1  0.807279  0.622622  0.500000  1
  Ir  Ir34  1  0.819336  0.192930  0.500000  1
  Ir  Ir35  1  0.999633  0.999305  0.500000  1
