# generated using pymatgen
data_Tm16MgCd3(NiIr)2
_symmetry_space_group_name_H-M   'P 1'
_cell_length_a   9.49709731
_cell_length_b   9.49710047
_cell_length_c   9.47378208
_cell_angle_alpha   59.62259235
_cell_angle_beta   59.62260844
_cell_angle_gamma   60.07408713
_symmetry_Int_Tables_number   1
_chemical_formula_structural   Tm16MgCd3(NiIr)2
_chemical_formula_sum   'Tm16 Mg1 Cd3 Ni2 Ir2'
_cell_volume   601.07544256
_cell_formula_units_Z   1
loop_
 _symmetry_equiv_pos_site_id
 _symmetry_equiv_pos_as_xyz
  1  'x, y, z'
loop_
 _atom_site_type_symbol
 _atom_site_label
 _atom_site_symmetry_multiplicity
 _atom_site_fract_x
 _atom_site_fract_y
 _atom_site_fract_z
 _atom_site_occupancy
  Tm  Tm0  1  0.596324  0.596324  0.603197  1
  Tm  Tm1  1  0.595782  0.595782  0.205473  1
  Tm  Tm2  1  0.596756  0.204980  0.601180  1
  Tm  Tm3  1  0.204980  0.596756  0.601180  1
  Tm  Tm4  1  0.061575  0.442692  0.438947  1
  Tm  Tm5  1  0.438017  0.064655  0.059222  1
  Tm  Tm6  1  0.442691  0.061575  0.438947  1
  Tm  Tm7  1  0.064655  0.438017  0.059222  1
  Tm  Tm8  1  0.440485  0.440485  0.058760  1
  Tm  Tm9  1  0.062662  0.062662  0.435543  1
  Tm  Tm10  1  0.186570  0.816520  0.813246  1
  Tm  Tm11  1  0.813401  0.187905  0.188847  1
  Tm  Tm12  1  0.816520  0.186570  0.813246  1
  Tm  Tm13  1  0.187905  0.813401  0.188848  1
  Tm  Tm14  1  0.811589  0.811589  0.188876  1
  Tm  Tm15  1  0.186059  0.186059  0.813600  1
  Mg  Mg16  1  0.825649  0.825649  0.823354  1
  Cd  Cd17  1  0.832201  0.832201  0.503348  1
  Cd  Cd18  1  0.831612  0.504742  0.830821  1
  Cd  Cd19  1  0.504742  0.831612  0.830821  1
  Ni  Ni20  1  0.390887  0.390886  0.395505  1
  Ni  Ni21  1  0.391601  0.391602  0.824494  1
  Ir  Ir22  1  0.393408  0.823928  0.391663  1
  Ir  Ir23  1  0.823928  0.393408  0.391663  1
