# generated using pymatgen
data_Dy8Si16Tc11Mo
_symmetry_space_group_name_H-M   'P 1'
_cell_length_a   6.82256778
_cell_length_b   6.81227098
_cell_length_c   12.69640649
_cell_angle_alpha   90.41657385
_cell_angle_beta   90.09449649
_cell_angle_gamma   89.88802117
_symmetry_Int_Tables_number   1
_chemical_formula_structural   Dy8Si16Tc11Mo
_chemical_formula_sum   'Dy8 Si16 Tc11 Mo1'
_cell_volume   590.07566411
_cell_formula_units_Z   1
loop_
 _symmetry_equiv_pos_site_id
 _symmetry_equiv_pos_as_xyz
  1  'x, y, z'
loop_
 _atom_site_type_symbol
 _atom_site_label
 _atom_site_symmetry_multiplicity
 _atom_site_fract_x
 _atom_site_fract_y
 _atom_site_fract_z
 _atom_site_occupancy
  Dy  Dy0  1  0.006949  0.661792  0.032075  1
  Dy  Dy1  1  0.998027  0.335365  0.529529  1
  Dy  Dy2  1  0.665475  0.002821  0.969247  1
  Dy  Dy3  1  0.160593  0.496536  0.780349  1
  Dy  Dy4  1  0.839788  0.502855  0.280627  1
  Dy  Dy5  1  0.497733  0.161526  0.220769  1
  Dy  Dy6  1  0.504286  0.837887  0.718930  1
  Dy  Dy7  1  0.339443  0.993028  0.468656  1
  Si  Si8  1  0.019615  0.726022  0.436999  1
  Si  Si9  1  0.975199  0.279725  0.936493  1
  Si  Si10  1  0.723900  0.023895  0.563688  1
  Si  Si11  1  0.234055  0.481501  0.188101  1
  Si  Si12  1  0.780249  0.528588  0.681664  1
  Si  Si13  1  0.467094  0.215421  0.815161  1
  Si  Si14  1  0.518868  0.766648  0.311214  1
  Si  Si15  1  0.279979  0.978579  0.063387  1
  Si  Si16  1  0.809239  0.886028  0.187662  1
  Si  Si17  1  0.304833  0.616219  0.563894  1
  Si  Si18  1  0.696826  0.384675  0.064025  1
  Si  Si19  1  0.613898  0.307848  0.438291  1
  Si  Si20  1  0.380180  0.697899  0.936235  1
  Si  Si21  1  0.113466  0.190882  0.313279  1
  Si  Si22  1  0.190808  0.115286  0.688237  1
  Si  Si23  1  0.883739  0.806302  0.811647  1
  Tc  Tc24  1  0.312323  0.475414  0.381778  1
  Tc  Tc25  1  0.815947  0.019613  0.372339  1
  Tc  Tc26  1  0.986777  0.179524  0.127130  1
  Tc  Tc27  1  0.019365  0.818536  0.626877  1
  Tc  Tc28  1  0.481114  0.325766  0.626208  1
  Tc  Tc29  1  0.177710  0.986853  0.873822  1
  Tc  Tc30  1  0.666394  0.666080  0.499335  1
  Tc  Tc31  1  0.834689  0.167053  0.749147  1
  Tc  Tc32  1  0.168120  0.831665  0.250544  1
  Tc  Tc33  1  0.334575  0.335580  0.000774  1
  Tc  Tc34  1  0.526227  0.687979  0.117646  1
  Mo  Mo35  1  0.672516  0.508610  0.874240  1
