# generated using pymatgen
data_Tm4Mg2Co3(P4Rh5)3
_symmetry_space_group_name_H-M   'P 1'
_cell_length_a   3.85413800
_cell_length_b   10.82129732
_cell_length_c   12.53154226
_cell_angle_alpha   89.89805163
_cell_angle_beta   90.00000000
_cell_angle_gamma   90.00000000
_symmetry_Int_Tables_number   1
_chemical_formula_structural   Tm4Mg2Co3(P4Rh5)3
_chemical_formula_sum   'Tm4 Mg2 Co3 P12 Rh15'
_cell_volume   522.64936379
_cell_formula_units_Z   1
loop_
 _symmetry_equiv_pos_site_id
 _symmetry_equiv_pos_as_xyz
  1  'x, y, z'
loop_
 _atom_site_type_symbol
 _atom_site_label
 _atom_site_symmetry_multiplicity
 _atom_site_fract_x
 _atom_site_fract_y
 _atom_site_fract_z
 _atom_site_occupancy
  Tm  Tm0  1  0.250000  0.580815  0.703252  1
  Tm  Tm1  1  0.250000  0.919441  0.207525  1
  Tm  Tm2  1  0.750000  0.420020  0.294966  1
  Tm  Tm3  1  0.750000  0.077541  0.790200  1
  Mg  Mg4  1  0.750000  0.292066  0.012193  1
  Mg  Mg5  1  0.750000  0.204235  0.513408  1
  Co  Co6  1  0.250000  0.035117  0.437227  1
  Co  Co7  1  0.750000  0.540582  0.069551  1
  Co  Co8  1  0.750000  0.959611  0.565599  1
  P  P9  1  0.250000  0.428921  0.120365  1
  P  P10  1  0.250000  0.068440  0.611067  1
  P  P11  1  0.750000  0.577780  0.891746  1
  P  P12  1  0.750000  0.925583  0.393534  1
  P  P13  1  0.250000  0.262540  0.856919  1
  P  P14  1  0.250000  0.230750  0.362947  1
  P  P15  1  0.750000  0.734357  0.129474  1
  P  P16  1  0.750000  0.767075  0.630580  1
  P  P17  1  0.250000  0.599848  0.390380  1
  P  P18  1  0.250000  0.901011  0.888703  1
  P  P19  1  0.750000  0.408505  0.611932  1
  P  P20  1  0.750000  0.092019  0.115954  1
  Rh  Rh21  1  0.250000  0.719889  0.994387  1
  Rh  Rh22  1  0.250000  0.788611  0.483798  1
  Rh  Rh23  1  0.250000  0.405756  0.477180  1
  Rh  Rh24  1  0.250000  0.094922  0.974507  1
  Rh  Rh25  1  0.750000  0.595715  0.517895  1
  Rh  Rh26  1  0.750000  0.909135  0.019944  1
  Rh  Rh27  1  0.250000  0.226296  0.174396  1
  Rh  Rh28  1  0.250000  0.269031  0.671251  1
  Rh  Rh29  1  0.750000  0.768236  0.822780  1
  Rh  Rh30  1  0.750000  0.735246  0.320152  1
  Rh  Rh31  1  0.250000  0.882267  0.699494  1
  Rh  Rh32  1  0.250000  0.615607  0.203789  1
  Rh  Rh33  1  0.750000  0.115332  0.305583  1
  Rh  Rh34  1  0.750000  0.383652  0.799428  1
  Rh  Rh35  1  0.250000  0.464044  0.937891  1
