# generated using pymatgen
data_ScBe8CrRu2
_symmetry_space_group_name_H-M   'P 1'
_cell_length_a   4.37079800
_cell_length_b   4.37079928
_cell_length_c   7.26160600
_cell_angle_alpha   90.00000000
_cell_angle_beta   90.00000000
_cell_angle_gamma   120.00000547
_symmetry_Int_Tables_number   1
_chemical_formula_structural   ScBe8CrRu2
_chemical_formula_sum   'Sc1 Be8 Cr1 Ru2'
_cell_volume   120.13924194
_cell_formula_units_Z   1
loop_
 _symmetry_equiv_pos_site_id
 _symmetry_equiv_pos_as_xyz
  1  'x, y, z'
loop_
 _atom_site_type_symbol
 _atom_site_label
 _atom_site_symmetry_multiplicity
 _atom_site_fract_x
 _atom_site_fract_y
 _atom_site_fract_z
 _atom_site_occupancy
  Sc  Sc0  1  0.333333  0.666667  0.063129  1
  Be  Be1  1  0.167025  0.334049  0.739409  1
  Be  Be2  1  0.167025  0.832975  0.739409  1
  Be  Be3  1  0.337845  0.168924  0.264755  1
  Be  Be4  1  0.831076  0.662155  0.264755  1
  Be  Be5  1  0.000000  0.000000  0.994991  1
  Be  Be6  1  0.665951  0.832975  0.739409  1
  Be  Be7  1  0.831076  0.168924  0.264755  1
  Be  Be8  1  0.000000  0.000000  0.502871  1
  Cr  Cr9  1  0.666667  0.333333  0.568016  1
  Ru  Ru10  1  0.333333  0.666667  0.443171  1
  Ru  Ru11  1  0.666667  0.333333  0.915325  1
