# generated using pymatgen
data_Pr8Ho12Si15P
_symmetry_space_group_name_H-M   'P 1'
_cell_length_a   7.49393981
_cell_length_b   7.76931306
_cell_length_c   14.82210900
_cell_angle_alpha   90.00000000
_cell_angle_beta   90.00000000
_cell_angle_gamma   90.47291214
_symmetry_Int_Tables_number   1
_chemical_formula_structural   Pr8Ho12Si15P
_chemical_formula_sum   'Pr8 Ho12 Si15 P1'
_cell_volume   862.95476489
_cell_formula_units_Z   1
loop_
 _symmetry_equiv_pos_site_id
 _symmetry_equiv_pos_as_xyz
  1  'x, y, z'
loop_
 _atom_site_type_symbol
 _atom_site_label
 _atom_site_symmetry_multiplicity
 _atom_site_fract_x
 _atom_site_fract_y
 _atom_site_fract_z
 _atom_site_occupancy
  Pr  Pr0  1  0.018643  0.179551  0.402810  1
  Pr  Pr1  1  0.517465  0.321656  0.403161  1
  Pr  Pr2  1  0.483712  0.677177  0.901630  1
  Pr  Pr3  1  0.483712  0.677177  0.598370  1
  Pr  Pr4  1  0.985774  0.823475  0.601396  1
  Pr  Pr5  1  0.985774  0.823475  0.898604  1
  Pr  Pr6  1  0.517465  0.321656  0.096839  1
  Pr  Pr7  1  0.018643  0.179551  0.097190  1
  Ho  Ho8  1  0.320390  0.171397  0.626424  1
  Ho  Ho9  1  0.675321  0.822281  0.376933  1
  Ho  Ho10  1  0.656560  0.990462  0.750000  1
  Ho  Ho11  1  0.173968  0.679229  0.377236  1
  Ho  Ho12  1  0.821718  0.325065  0.877260  1
  Ho  Ho13  1  0.821718  0.325065  0.622740  1
  Ho  Ho14  1  0.840765  0.489524  0.250000  1
  Ho  Ho15  1  0.342822  0.010628  0.250000  1
  Ho  Ho16  1  0.320390  0.171397  0.873576  1
  Ho  Ho17  1  0.173968  0.679229  0.122764  1
  Ho  Ho18  1  0.675321  0.822281  0.123067  1
  Ho  Ho19  1  0.158277  0.508703  0.750000  1
  Si  Si20  1  0.467090  0.613512  0.250000  1
  Si  Si21  1  0.017617  0.128796  0.750000  1
  Si  Si22  1  0.529029  0.382775  0.750000  1
  Si  Si23  1  0.150000  0.467118  0.540010  1
  Si  Si24  1  0.968638  0.887697  0.250000  1
  Si  Si25  1  0.724211  0.120325  0.250000  1
  Si  Si26  1  0.852562  0.534300  0.039304  1
  Si  Si27  1  0.352978  0.967725  0.038529  1
  Si  Si28  1  0.150000  0.467118  0.959990  1
  Si  Si29  1  0.646503  0.031092  0.540213  1
  Si  Si30  1  0.352978  0.967725  0.461471  1
  Si  Si31  1  0.852562  0.534300  0.460696  1
  Si  Si32  1  0.779127  0.624041  0.750000  1
  Si  Si33  1  0.223963  0.380325  0.250000  1
  Si  Si34  1  0.646503  0.031092  0.959787  1
  P  P35  1  0.293838  0.863083  0.750000  1
