# generated using pymatgen
data_La8Zn5Hg3Rh8
_symmetry_space_group_name_H-M   'P 1'
_cell_length_a   7.60227521
_cell_length_b   4.07488600
_cell_length_c   17.03331852
_cell_angle_alpha   90.00000000
_cell_angle_beta   90.44484815
_cell_angle_gamma   90.00000000
_symmetry_Int_Tables_number   1
_chemical_formula_structural   La8Zn5Hg3Rh8
_chemical_formula_sum   'La8 Zn5 Hg3 Rh8'
_cell_volume   527.64913241
_cell_formula_units_Z   1
loop_
 _symmetry_equiv_pos_site_id
 _symmetry_equiv_pos_as_xyz
  1  'x, y, z'
loop_
 _atom_site_type_symbol
 _atom_site_label
 _atom_site_symmetry_multiplicity
 _atom_site_fract_x
 _atom_site_fract_y
 _atom_site_fract_z
 _atom_site_occupancy
  La  La0  1  0.049113  0.250001  0.281146  1
  La  La1  1  0.447744  0.750000  0.788936  1
  La  La2  1  0.556262  0.250001  0.213223  1
  La  La3  1  0.947369  0.750000  0.713099  1
  La  La4  1  0.175795  0.250001  0.060857  1
  La  La5  1  0.320986  0.750000  0.558548  1
  La  La6  1  0.678877  0.250001  0.439016  1
  La  La7  1  0.822717  0.750000  0.943183  1
  Zn  Zn8  1  0.877094  0.750000  0.148726  1
  Zn  Zn9  1  0.997751  0.250001  0.559024  1
  Zn  Zn10  1  0.506554  0.750000  0.061837  1
  Zn  Zn11  1  0.501788  0.250001  0.944676  1
  Zn  Zn12  1  0.002612  0.750000  0.437680  1
  Hg  Hg13  1  0.116666  0.250001  0.849956  1
  Hg  Hg14  1  0.381461  0.750000  0.347434  1
  Hg  Hg15  1  0.617334  0.250001  0.651186  1
  Rh  Rh16  1  0.229529  0.250001  0.441213  1
  Rh  Rh17  1  0.273695  0.750000  0.944161  1
  Rh  Rh18  1  0.742230  0.250001  0.067573  1
  Rh  Rh19  1  0.770164  0.750000  0.555487  1
  Rh  Rh20  1  0.229360  0.250001  0.681979  1
  Rh  Rh21  1  0.253805  0.750000  0.179922  1
  Rh  Rh22  1  0.728451  0.250001  0.820456  1
  Rh  Rh23  1  0.772642  0.750000  0.310681  1
