# generated using pymatgen
data_Y7Co5Sn23Os
_symmetry_space_group_name_H-M   'P 1'
_cell_length_a   9.76546131
_cell_length_b   9.76546073
_cell_length_c   10.00017332
_cell_angle_alpha   90.26413448
_cell_angle_beta   89.73586430
_cell_angle_gamma   119.97761742
_symmetry_Int_Tables_number   1
_chemical_formula_structural   Y7Co5Sn23Os
_chemical_formula_sum   'Y7 Co5 Sn23 Os1'
_cell_volume   826.06726627
_cell_formula_units_Z   1
loop_
 _symmetry_equiv_pos_site_id
 _symmetry_equiv_pos_as_xyz
  1  'x, y, z'
loop_
 _atom_site_type_symbol
 _atom_site_label
 _atom_site_symmetry_multiplicity
 _atom_site_fract_x
 _atom_site_fract_y
 _atom_site_fract_z
 _atom_site_occupancy
  Y  Y0  1  0.994780  0.005220  0.006150  1
  Y  Y1  1  0.479214  0.520786  0.307238  1
  Y  Y2  1  0.521591  0.478409  0.692711  1
  Y  Y3  1  0.480321  0.957478  0.305490  1
  Y  Y4  1  0.521143  0.043684  0.693312  1
  Y  Y5  1  0.042522  0.519679  0.305490  1
  Y  Y6  1  0.956316  0.478857  0.693312  1
  Co  Co7  1  0.168152  0.831848  0.803284  1
  Co  Co8  1  0.832432  0.663843  0.196234  1
  Co  Co9  1  0.169451  0.335515  0.801706  1
  Co  Co10  1  0.336157  0.167568  0.196234  1
  Co  Co11  1  0.664485  0.830549  0.801706  1
  Sn  Sn12  1  0.343016  0.999269  0.999472  1
  Sn  Sn13  1  0.647358  0.995481  0.994881  1
  Sn  Sn14  1  0.004519  0.352642  0.994881  1
  Sn  Sn15  1  0.000731  0.656984  0.999472  1
  Sn  Sn16  1  0.654344  0.654195  0.999510  1
  Sn  Sn17  1  0.345805  0.345656  0.999510  1
  Sn  Sn18  1  0.333350  0.666650  0.816653  1
  Sn  Sn19  1  0.665742  0.334258  0.180276  1
  Sn  Sn20  1  0.999742  0.000258  0.501893  1
  Sn  Sn21  1  0.779881  0.220119  0.456641  1
  Sn  Sn22  1  0.218267  0.781733  0.549788  1
  Sn  Sn23  1  0.782227  0.563239  0.449995  1
  Sn  Sn24  1  0.218234  0.437027  0.549801  1
  Sn  Sn25  1  0.436761  0.217773  0.449995  1
  Sn  Sn26  1  0.562973  0.781766  0.549801  1
  Sn  Sn27  1  0.333879  0.666121  0.115690  1
  Sn  Sn28  1  0.665931  0.334069  0.882689  1
  Sn  Sn29  1  0.118058  0.881942  0.273120  1
  Sn  Sn30  1  0.882567  0.117433  0.726151  1
  Sn  Sn31  1  0.124641  0.236389  0.278434  1
  Sn  Sn32  1  0.883811  0.765264  0.726424  1
  Sn  Sn33  1  0.763611  0.875359  0.278434  1
  Sn  Sn34  1  0.234736  0.116189  0.726424  1
  Os  Os35  1  0.833256  0.166744  0.197199  1
