# generated using pymatgen
data_Yb8Cd(Si4Rh)3
_symmetry_space_group_name_H-M   'P 1'
_cell_length_a   8.27812600
_cell_length_b   8.27812701
_cell_length_c   8.42031300
_cell_angle_alpha   90.00000000
_cell_angle_beta   90.00000000
_cell_angle_gamma   120.00000396
_symmetry_Int_Tables_number   1
_chemical_formula_structural   Yb8Cd(Si4Rh)3
_chemical_formula_sum   'Yb8 Cd1 Si12 Rh3'
_cell_volume   499.71566934
_cell_formula_units_Z   1
loop_
 _symmetry_equiv_pos_site_id
 _symmetry_equiv_pos_as_xyz
  1  'x, y, z'
loop_
 _atom_site_type_symbol
 _atom_site_label
 _atom_site_symmetry_multiplicity
 _atom_site_fract_x
 _atom_site_fract_y
 _atom_site_fract_z
 _atom_site_occupancy
  Yb  Yb0  1  0.491995  0.508005  0.740957  1
  Yb  Yb1  1  0.493414  0.506586  0.258512  1
  Yb  Yb2  1  0.016010  0.508005  0.740957  1
  Yb  Yb3  1  0.013171  0.506586  0.258512  1
  Yb  Yb4  1  0.491995  0.983990  0.740957  1
  Yb  Yb5  1  0.493414  0.986829  0.258512  1
  Yb  Yb6  1  0.000000  0.000000  0.747210  1
  Yb  Yb7  1  0.000000  0.000000  0.253779  1
  Cd  Cd8  1  0.666667  0.333333  0.994571  1
  Si  Si9  1  0.845169  0.154831  0.001346  1
  Si  Si10  1  0.170123  0.829877  0.999644  1
  Si  Si11  1  0.309662  0.154831  0.001346  1
  Si  Si12  1  0.165833  0.834167  0.499900  1
  Si  Si13  1  0.659754  0.829877  0.999644  1
  Si  Si14  1  0.832203  0.167797  0.500178  1
  Si  Si15  1  0.845169  0.690338  0.001346  1
  Si  Si16  1  0.668333  0.834167  0.499900  1
  Si  Si17  1  0.170123  0.340246  0.999644  1
  Si  Si18  1  0.335594  0.167797  0.500178  1
  Si  Si19  1  0.165833  0.331667  0.499900  1
  Si  Si20  1  0.832203  0.664406  0.500178  1
  Rh  Rh21  1  0.333333  0.666667  0.001909  1
  Rh  Rh22  1  0.333333  0.666667  0.498040  1
  Rh  Rh23  1  0.666667  0.333333  0.502885  1
