# generated using pymatgen
data_Tb2HoPa(Al3Rh)6
_symmetry_space_group_name_H-M   'P 1'
_cell_length_a   7.57378388
_cell_length_b   7.56711347
_cell_length_c   9.43726600
_cell_angle_alpha   90.00000000
_cell_angle_beta   90.00000000
_cell_angle_gamma   119.42883199
_symmetry_Int_Tables_number   1
_chemical_formula_structural   Tb2HoPa(Al3Rh)6
_chemical_formula_sum   'Tb2 Ho1 Pa1 Al18 Rh6'
_cell_volume   471.07590127
_cell_formula_units_Z   1
loop_
 _symmetry_equiv_pos_site_id
 _symmetry_equiv_pos_as_xyz
  1  'x, y, z'
loop_
 _atom_site_type_symbol
 _atom_site_label
 _atom_site_symmetry_multiplicity
 _atom_site_fract_x
 _atom_site_fract_y
 _atom_site_fract_z
 _atom_site_occupancy
  Tb  Tb0  1  0.672736  0.994699  0.250000  1
  Tb  Tb1  1  0.328589  0.004751  0.750000  1
  Ho  Ho2  1  0.005600  0.328613  0.750000  1
  Pa  Pa3  1  0.995582  0.672023  0.250000  1
  Al  Al4  1  0.131686  0.129959  0.250000  1
  Al  Al5  1  0.873103  0.874480  0.750000  1
  Al  Al6  1  0.000753  0.333351  0.074945  1
  Al  Al7  1  0.998974  0.663848  0.921279  1
  Al  Al8  1  0.998974  0.663848  0.578721  1
  Al  Al9  1  0.338220  0.003042  0.424324  1
  Al  Al10  1  0.000753  0.333351  0.425055  1
  Al  Al11  1  0.665282  0.000544  0.576701  1
  Al  Al12  1  0.665282  0.000544  0.923299  1
  Al  Al13  1  0.338220  0.003042  0.075676  1
  Al  Al14  1  0.332147  0.332660  0.553067  1
  Al  Al15  1  0.664060  0.666050  0.450827  1
  Al  Al16  1  0.664060  0.666050  0.049173  1
  Al  Al17  1  0.332147  0.332660  0.946933  1
  Al  Al18  1  0.339014  0.548100  0.250000  1
  Al  Al19  1  0.659294  0.448529  0.750000  1
  Al  Al20  1  0.548503  0.342699  0.250000  1
  Al  Al21  1  0.449284  0.659440  0.750000  1
  Rh  Rh22  1  0.673706  0.329549  0.001662  1
  Rh  Rh23  1  0.326085  0.671875  0.001693  1
  Rh  Rh24  1  0.326085  0.671875  0.498307  1
  Rh  Rh25  1  0.673706  0.329549  0.498338  1
  Rh  Rh26  1  0.999078  0.997437  0.002484  1
  Rh  Rh27  1  0.999078  0.997437  0.497516  1
