# generated using pymatgen
data_Tm14Lu6(Ir3Rh)3
_symmetry_space_group_name_H-M   'P 1'
_cell_length_a   10.69557402
_cell_length_b   10.69655900
_cell_length_c   6.30091101
_cell_angle_alpha   90.00161809
_cell_angle_beta   89.99274514
_cell_angle_gamma   89.99897156
_symmetry_Int_Tables_number   1
_chemical_formula_structural   Tm14Lu6(Ir3Rh)3
_chemical_formula_sum   'Tm14 Lu6 Ir9 Rh3'
_cell_volume   720.86100211
_cell_formula_units_Z   1
loop_
 _symmetry_equiv_pos_site_id
 _symmetry_equiv_pos_as_xyz
  1  'x, y, z'
loop_
 _atom_site_type_symbol
 _atom_site_label
 _atom_site_symmetry_multiplicity
 _atom_site_fract_x
 _atom_site_fract_y
 _atom_site_fract_z
 _atom_site_occupancy
  Tm  Tm0  1  0.709580  0.088099  0.877595  1
  Tm  Tm1  1  0.709520  0.912122  0.377791  1
  Tm  Tm2  1  0.587949  0.790502  0.877671  1
  Tm  Tm3  1  0.587723  0.209457  0.377854  1
  Tm  Tm4  1  0.411952  0.790657  0.377826  1
  Tm  Tm5  1  0.411747  0.209390  0.877642  1
  Tm  Tm6  1  0.208964  0.412096  0.621183  1
  Tm  Tm7  1  0.209225  0.588102  0.123307  1
  Tm  Tm8  1  0.790806  0.411915  0.123355  1
  Tm  Tm9  1  0.791058  0.587892  0.621222  1
  Tm  Tm10  1  0.911955  0.709196  0.123365  1
  Tm  Tm11  1  0.912130  0.291050  0.621226  1
  Tm  Tm12  1  0.088021  0.709075  0.621301  1
  Tm  Tm13  1  0.088226  0.290679  0.123411  1
  Lu  Lu14  1  0.290666  0.087793  0.378124  1
  Lu  Lu15  1  0.290611  0.911990  0.877964  1
  Lu  Lu16  1  0.000211  0.000059  0.500211  1
  Lu  Lu17  1  0.000218  0.999931  0.000034  1
  Lu  Lu18  1  0.499962  0.500012  0.000088  1
  Lu  Lu19  1  0.499960  0.499987  0.500266  1
  Ir  Ir20  1  0.846272  0.152747  0.249806  1
  Ir  Ir21  1  0.846429  0.846960  0.750063  1
  Ir  Ir22  1  0.153912  0.152609  0.749501  1
  Ir  Ir23  1  0.154076  0.847672  0.249234  1
  Ir  Ir24  1  0.653036  0.346422  0.750099  1
  Ir  Ir25  1  0.652775  0.653729  0.249827  1
  Ir  Ir26  1  0.347163  0.345905  0.250021  1
  Ir  Ir27  1  0.346894  0.653939  0.750250  1
  Ir  Ir28  1  0.000025  0.499978  0.376608  1
  Rh  Rh29  1  0.499454  0.000029  0.122909  1
  Rh  Rh30  1  0.499450  0.999976  0.622940  1
  Rh  Rh31  1  0.000032  0.500032  0.877305  1
