# generated using pymatgen
data_Tb7Tm3(IrRu)2
_symmetry_space_group_name_H-M   'P 1'
_cell_length_a   6.42239457
_cell_length_b   7.26253210
_cell_length_c   8.48361144
_cell_angle_alpha   96.79814317
_cell_angle_beta   112.00102936
_cell_angle_gamma   89.95036437
_symmetry_Int_Tables_number   1
_chemical_formula_structural   Tb7Tm3(IrRu)2
_chemical_formula_sum   'Tb7 Tm3 Ir2 Ru2'
_cell_volume   363.89788742
_cell_formula_units_Z   1
loop_
 _symmetry_equiv_pos_site_id
 _symmetry_equiv_pos_as_xyz
  1  'x, y, z'
loop_
 _atom_site_type_symbol
 _atom_site_label
 _atom_site_symmetry_multiplicity
 _atom_site_fract_x
 _atom_site_fract_y
 _atom_site_fract_z
 _atom_site_occupancy
  Tb  Tb0  1  0.790910  0.081315  0.815431  1
  Tb  Tb1  1  0.976993  0.418870  0.185240  1
  Tb  Tb2  1  0.210501  0.915256  0.183816  1
  Tb  Tb3  1  0.027985  0.584656  0.816251  1
  Tb  Tb4  1  0.209658  0.183293  0.565166  1
  Tb  Tb5  1  0.643781  0.317834  0.435382  1
  Tb  Tb6  1  0.789604  0.813312  0.436598  1
  Tm  Tm7  1  0.354372  0.684773  0.565005  1
  Tm  Tm8  1  0.426329  0.249488  0.999741  1
  Tm  Tm9  1  0.573897  0.749928  0.998526  1
  Ir  Ir10  1  0.601057  0.426766  0.781266  1
  Ir  Ir11  1  0.819945  0.074804  0.217535  1
  Ru  Ru12  1  0.395379  0.574582  0.218689  1
  Ru  Ru13  1  0.179587  0.925122  0.781355  1
