# generated using pymatgen
data_Dy12InFe4Ag
_symmetry_space_group_name_H-M   'P 1'
_cell_length_a   8.38216406
_cell_length_b   8.38216326
_cell_length_c   8.38216360
_cell_angle_alpha   110.96515301
_cell_angle_beta   110.41934614
_cell_angle_gamma   107.05631027
_symmetry_Int_Tables_number   1
_chemical_formula_structural   Dy12InFe4Ag
_chemical_formula_sum   'Dy12 In1 Fe4 Ag1'
_cell_volume   452.75186005
_cell_formula_units_Z   1
loop_
 _symmetry_equiv_pos_site_id
 _symmetry_equiv_pos_as_xyz
  1  'x, y, z'
loop_
 _atom_site_type_symbol
 _atom_site_label
 _atom_site_symmetry_multiplicity
 _atom_site_fract_x
 _atom_site_fract_y
 _atom_site_fract_z
 _atom_site_occupancy
  Dy  Dy0  1  0.187897  0.291164  0.479062  1
  Dy  Dy1  1  0.812103  0.708836  0.520938  1
  Dy  Dy2  1  0.187897  0.708836  0.896734  1
  Dy  Dy3  1  0.812103  0.291164  0.103266  1
  Dy  Dy4  1  0.312033  0.609703  0.297671  1
  Dy  Dy5  1  0.687967  0.390297  0.702329  1
  Dy  Dy6  1  0.312033  0.014361  0.702329  1
  Dy  Dy7  1  0.687967  0.985639  0.297671  1
  Dy  Dy8  1  0.429968  0.221450  0.208518  1
  Dy  Dy9  1  0.570032  0.778550  0.791482  1
  Dy  Dy10  1  0.012932  0.221450  0.791482  1
  Dy  Dy11  1  0.987068  0.778550  0.208518  1
  In  In12  1  0.500000  0.500000  0.000000  1
  Fe  Fe13  1  0.108087  0.608087  0.500000  1
  Fe  Fe14  1  0.891913  0.391913  0.500000  1
  Fe  Fe15  1  0.387021  0.000000  0.387021  1
  Fe  Fe16  1  0.612979  0.000000  0.612979  1
  Ag  Ag17  1  0.000000  0.000000  0.000000  1
