# generated using pymatgen
data_Dy11Th5Mg3CdRu4
_symmetry_space_group_name_H-M   'P 1'
_cell_length_a   9.70488980
_cell_length_b   9.77408982
_cell_length_c   9.77408973
_cell_angle_alpha   59.81389958
_cell_angle_beta   60.23923247
_cell_angle_gamma   60.23924262
_symmetry_Int_Tables_number   1
_chemical_formula_structural   Dy11Th5Mg3CdRu4
_chemical_formula_sum   'Dy11 Th5 Mg3 Cd1 Ru4'
_cell_volume   657.00756749
_cell_formula_units_Z   1
loop_
 _symmetry_equiv_pos_site_id
 _symmetry_equiv_pos_as_xyz
  1  'x, y, z'
loop_
 _atom_site_type_symbol
 _atom_site_label
 _atom_site_symmetry_multiplicity
 _atom_site_fract_x
 _atom_site_fract_y
 _atom_site_fract_z
 _atom_site_occupancy
  Dy  Dy0  1  0.186776  0.812323  0.812323  1
  Dy  Dy1  1  0.191097  0.808897  0.186053  1
  Dy  Dy2  1  0.812462  0.185519  0.809451  1
  Dy  Dy3  1  0.191097  0.186053  0.808897  1
  Dy  Dy4  1  0.812462  0.809451  0.185519  1
  Dy  Dy5  1  0.932332  0.567226  0.567226  1
  Dy  Dy6  1  0.564146  0.935233  0.935233  1
  Dy  Dy7  1  0.562572  0.935135  0.564132  1
  Dy  Dy8  1  0.937075  0.563212  0.936313  1
  Dy  Dy9  1  0.562572  0.564132  0.935135  1
  Dy  Dy10  1  0.937075  0.936313  0.563212  1
  Th  Th11  1  0.341767  0.348125  0.348125  1
  Th  Th12  1  0.347463  0.347706  0.958592  1
  Th  Th13  1  0.347463  0.958592  0.347706  1
  Th  Th14  1  0.958095  0.350099  0.350099  1
  Th  Th15  1  0.816144  0.184102  0.184102  1
  Mg  Mg16  1  0.578547  0.581833  0.260814  1
  Mg  Mg17  1  0.578547  0.260814  0.581833  1
  Mg  Mg18  1  0.262212  0.578834  0.578834  1
  Cd  Cd19  1  0.582223  0.581380  0.581380  1
  Ru  Ru20  1  0.128929  0.147299  0.147299  1
  Ru  Ru21  1  0.145997  0.142047  0.567501  1
  Ru  Ru22  1  0.145997  0.567501  0.142047  1
  Ru  Ru23  1  0.576953  0.148175  0.148175  1
