# generated using pymatgen
data_Ce3Y5(ReB6)4
_symmetry_space_group_name_H-M   'P 1'
_cell_length_a   3.71931400
_cell_length_b   9.21385786
_cell_length_c   11.59842535
_cell_angle_alpha   89.92719870
_cell_angle_beta   90.00000000
_cell_angle_gamma   90.00000000
_symmetry_Int_Tables_number   1
_chemical_formula_structural   Ce3Y5(ReB6)4
_chemical_formula_sum   'Ce3 Y5 Re4 B24'
_cell_volume   397.46879094
_cell_formula_units_Z   1
loop_
 _symmetry_equiv_pos_site_id
 _symmetry_equiv_pos_as_xyz
  1  'x, y, z'
loop_
 _atom_site_type_symbol
 _atom_site_label
 _atom_site_symmetry_multiplicity
 _atom_site_fract_x
 _atom_site_fract_y
 _atom_site_fract_z
 _atom_site_occupancy
  Ce  Ce0  1  0.000000  0.822371  0.085869  1
  Ce  Ce1  1  0.000000  0.177416  0.913529  1
  Ce  Ce2  1  0.000000  0.324097  0.414205  1
  Y  Y3  1  0.000000  0.677035  0.586307  1
  Y  Y4  1  0.000000  0.444568  0.127189  1
  Y  Y5  1  0.000000  0.556057  0.871923  1
  Y  Y6  1  0.000000  0.942915  0.372319  1
  Y  Y7  1  0.000000  0.055902  0.628325  1
  Re  Re8  1  0.000000  0.138278  0.178899  1
  Re  Re9  1  0.000000  0.862879  0.822007  1
  Re  Re10  1  0.000000  0.638335  0.320531  1
  Re  Re11  1  0.000000  0.361135  0.678772  1
  B  B12  1  0.500000  0.054202  0.068522  1
  B  B13  1  0.500000  0.945809  0.931582  1
  B  B14  1  0.500000  0.553830  0.432179  1
  B  B15  1  0.500000  0.446161  0.567603  1
  B  B16  1  0.500000  0.248147  0.081615  1
  B  B17  1  0.500000  0.751484  0.918127  1
  B  B18  1  0.500000  0.747940  0.419165  1
  B  B19  1  0.500000  0.252178  0.581530  1
  B  B20  1  0.500000  0.291104  0.233921  1
  B  B21  1  0.500000  0.708225  0.765768  1
  B  B22  1  0.500000  0.791024  0.266792  1
  B  B23  1  0.500000  0.209019  0.733619  1
  B  B24  1  0.500000  0.131567  0.314046  1
  B  B25  1  0.500000  0.868047  0.685765  1
  B  B26  1  0.500000  0.631988  0.186299  1
  B  B27  1  0.500000  0.368592  0.813378  1
  B  B28  1  0.500000  0.484065  0.287720  1
  B  B29  1  0.500000  0.517262  0.712488  1
  B  B30  1  0.500000  0.983715  0.213012  1
  B  B31  1  0.500000  0.016050  0.786957  1
  B  B32  1  0.500000  0.103954  0.470998  1
  B  B33  1  0.500000  0.894499  0.529671  1
  B  B34  1  0.500000  0.607763  0.029633  1
  B  B35  1  0.500000  0.392387  0.969737  1
