# generated using pymatgen
data_Rb(ZrS2)2
_symmetry_space_group_name_H-M   'P 1'
_cell_length_a   6.35142300
_cell_length_b   7.33836900
_cell_length_c   16.52958800
_cell_angle_alpha   90.00000000
_cell_angle_beta   90.00000000
_cell_angle_gamma   90.00000000
_symmetry_Int_Tables_number   1
_chemical_formula_structural   Rb(ZrS2)2
_chemical_formula_sum   'Rb4 Zr8 S16'
_cell_volume   770.42898284
_cell_formula_units_Z   4
loop_
 _symmetry_equiv_pos_site_id
 _symmetry_equiv_pos_as_xyz
  1  'x, y, z'
loop_
 _atom_site_type_symbol
 _atom_site_label
 _atom_site_symmetry_multiplicity
 _atom_site_fract_x
 _atom_site_fract_y
 _atom_site_fract_z
 _atom_site_occupancy
  Rb  Rb0  1  0.347265  0.000000  0.000000  1
  Rb  Rb1  1  0.652735  0.500000  0.500000  1
  Rb  Rb2  1  0.036474  0.000000  0.500000  1
  Rb  Rb3  1  0.963526  0.500000  0.000000  1
  Zr  Zr4  1  0.999564  0.000000  0.248316  1
  Zr  Zr5  1  0.999564  0.000000  0.751684  1
  Zr  Zr6  1  0.000436  0.500000  0.251684  1
  Zr  Zr7  1  0.000436  0.500000  0.748316  1
  Zr  Zr8  1  0.500000  0.250000  0.250000  1
  Zr  Zr9  1  0.500000  0.750000  0.750000  1
  Zr  Zr10  1  0.500000  0.750000  0.250000  1
  Zr  Zr11  1  0.500000  0.250000  0.750000  1
  S  S12  1  0.834303  0.247991  0.342444  1
  S  S13  1  0.834303  0.752009  0.657556  1
  S  S14  1  0.165697  0.747991  0.157556  1
  S  S15  1  0.165697  0.252009  0.842444  1
  S  S16  1  0.165697  0.252009  0.157556  1
  S  S17  1  0.165697  0.747991  0.842444  1
  S  S18  1  0.834303  0.752009  0.342444  1
  S  S19  1  0.834303  0.247991  0.657556  1
  S  S20  1  0.667756  0.000000  0.158156  1
  S  S21  1  0.667756  0.000000  0.841844  1
  S  S22  1  0.332244  0.500000  0.341844  1
  S  S23  1  0.332244  0.500000  0.658156  1
  S  S24  1  0.335218  0.000000  0.339692  1
  S  S25  1  0.335218  0.000000  0.660308  1
  S  S26  1  0.664782  0.500000  0.160308  1
  S  S27  1  0.664782  0.500000  0.839692  1
