# generated using pymatgen
data_La15NdMgHg3Ir4
_symmetry_space_group_name_H-M   'P 1'
_cell_length_a   10.15616995
_cell_length_b   10.14300421
_cell_length_c   10.10582526
_cell_angle_alpha   59.87823109
_cell_angle_beta   59.93841971
_cell_angle_gamma   60.04287364
_symmetry_Int_Tables_number   1
_chemical_formula_structural   La15NdMgHg3Ir4
_chemical_formula_sum   'La15 Nd1 Mg1 Hg3 Ir4'
_cell_volume   735.34317515
_cell_formula_units_Z   1
loop_
 _symmetry_equiv_pos_site_id
 _symmetry_equiv_pos_as_xyz
  1  'x, y, z'
loop_
 _atom_site_type_symbol
 _atom_site_label
 _atom_site_symmetry_multiplicity
 _atom_site_fract_x
 _atom_site_fract_y
 _atom_site_fract_z
 _atom_site_occupancy
  La  La0  1  0.807426  0.807819  0.193026  1
  La  La1  1  0.061077  0.439570  0.059782  1
  La  La2  1  0.191878  0.807599  0.192924  1
  La  La3  1  0.807426  0.191730  0.193026  1
  La  La4  1  0.059864  0.059940  0.441272  1
  La  La5  1  0.653305  0.653899  0.652760  1
  La  La6  1  0.653305  0.040034  0.652760  1
  La  La7  1  0.188972  0.810197  0.812457  1
  La  La8  1  0.040875  0.653182  0.652759  1
  La  La9  1  0.059864  0.438926  0.441272  1
  La  La10  1  0.188972  0.188375  0.812457  1
  La  La11  1  0.650383  0.650400  0.048818  1
  La  La12  1  0.439526  0.061724  0.060175  1
  La  La13  1  0.810417  0.188369  0.812847  1
  La  La14  1  0.439526  0.438574  0.060175  1
  Nd  Nd15  1  0.439120  0.060073  0.440736  1
  Mg  Mg16  1  0.430046  0.430050  0.709854  1
  Hg  Hg17  1  0.752791  0.413759  0.419691  1
  Hg  Hg18  1  0.413841  0.413155  0.419939  1
  Hg  Hg19  1  0.413841  0.753065  0.419939  1
  Ir  Ir20  1  0.858046  0.858856  0.859864  1
  Ir  Ir21  1  0.858046  0.423236  0.859864  1
  Ir  Ir22  1  0.858232  0.858915  0.423938  1
  Ir  Ir23  1  0.423223  0.858557  0.859665  1
