# generated using pymatgen
data_Tb2Al9Rh2Au
_symmetry_space_group_name_H-M   'P 1'
_cell_length_a   7.65028185
_cell_length_b   7.65028093
_cell_length_c   9.48526600
_cell_angle_alpha   90.00000000
_cell_angle_beta   90.00000000
_cell_angle_gamma   119.54106293
_symmetry_Int_Tables_number   1
_chemical_formula_structural   Tb2Al9Rh2Au
_chemical_formula_sum   'Tb4 Al18 Rh4 Au2'
_cell_volume   482.97523700
_cell_formula_units_Z   2
loop_
 _symmetry_equiv_pos_site_id
 _symmetry_equiv_pos_as_xyz
  1  'x, y, z'
loop_
 _atom_site_type_symbol
 _atom_site_label
 _atom_site_symmetry_multiplicity
 _atom_site_fract_x
 _atom_site_fract_y
 _atom_site_fract_z
 _atom_site_occupancy
  Tb  Tb0  1  0.995280  0.677963  0.250000  1
  Tb  Tb1  1  0.004720  0.322037  0.750000  1
  Tb  Tb2  1  0.677963  0.995280  0.250000  1
  Tb  Tb3  1  0.322037  0.004720  0.750000  1
  Al  Al4  1  0.141948  0.141948  0.250000  1
  Al  Al5  1  0.858052  0.858052  0.750000  1
  Al  Al6  1  0.000169  0.345351  0.077323  1
  Al  Al7  1  0.999831  0.654649  0.922677  1
  Al  Al8  1  0.999831  0.654649  0.577323  1
  Al  Al9  1  0.345351  0.000169  0.422677  1
  Al  Al10  1  0.000169  0.345351  0.422677  1
  Al  Al11  1  0.654649  0.999831  0.577323  1
  Al  Al12  1  0.654649  0.999831  0.922677  1
  Al  Al13  1  0.345351  0.000169  0.077323  1
  Al  Al14  1  0.341898  0.341898  0.556887  1
  Al  Al15  1  0.658102  0.658102  0.443113  1
  Al  Al16  1  0.658102  0.658102  0.056887  1
  Al  Al17  1  0.341898  0.341898  0.943113  1
  Al  Al18  1  0.337652  0.552854  0.250000  1
  Al  Al19  1  0.662348  0.447146  0.750000  1
  Al  Al20  1  0.552854  0.337652  0.250000  1
  Al  Al21  1  0.447146  0.662348  0.750000  1
  Rh  Rh22  1  0.671560  0.328440  0.000000  1
  Rh  Rh23  1  0.328440  0.671560  0.000000  1
  Rh  Rh24  1  0.328440  0.671560  0.500000  1
  Rh  Rh25  1  0.671560  0.328440  0.500000  1
  Au  Au26  1  0.000000  0.000000  0.000000  1
  Au  Au27  1  0.000000  0.000000  0.500000  1
