# generated using pymatgen
data_Y2Cr3Ni9P7
_symmetry_space_group_name_H-M   'P 1'
_cell_length_a   9.12998300
_cell_length_b   9.12998343
_cell_length_c   3.65955900
_cell_angle_alpha   90.00000000
_cell_angle_beta   90.00000000
_cell_angle_gamma   119.99999482
_symmetry_Int_Tables_number   1
_chemical_formula_structural   Y2Cr3Ni9P7
_chemical_formula_sum   'Y2 Cr3 Ni9 P7'
_cell_volume   264.17965333
_cell_formula_units_Z   1
loop_
 _symmetry_equiv_pos_site_id
 _symmetry_equiv_pos_as_xyz
  1  'x, y, z'
loop_
 _atom_site_type_symbol
 _atom_site_label
 _atom_site_symmetry_multiplicity
 _atom_site_fract_x
 _atom_site_fract_y
 _atom_site_fract_z
 _atom_site_occupancy
  Y  Y0  1  0.333333  0.666667  0.000000  1
  Y  Y1  1  0.666667  0.333333  0.500000  1
  Cr  Cr2  1  0.218534  0.119301  0.500000  1
  Cr  Cr3  1  0.880699  0.099233  0.500000  1
  Cr  Cr4  1  0.900767  0.781466  0.500000  1
  Ni  Ni5  1  0.124291  0.278556  0.000000  1
  Ni  Ni6  1  0.721444  0.845735  0.000000  1
  Ni  Ni7  1  0.154265  0.875709  0.000000  1
  Ni  Ni8  1  0.433658  0.372399  0.000000  1
  Ni  Ni9  1  0.627601  0.061260  0.000000  1
  Ni  Ni10  1  0.938740  0.566342  0.000000  1
  Ni  Ni11  1  0.052960  0.437409  0.500000  1
  Ni  Ni12  1  0.562591  0.615552  0.500000  1
  Ni  Ni13  1  0.384448  0.947040  0.500000  1
  P  P14  1  0.290525  0.402731  0.500000  1
  P  P15  1  0.597269  0.887793  0.500000  1
  P  P16  1  0.112207  0.709475  0.500000  1
  P  P17  1  0.405605  0.112959  0.000000  1
  P  P18  1  0.887041  0.292646  0.000000  1
  P  P19  1  0.707354  0.594395  0.000000  1
  P  P20  1  0.000000  0.000000  0.000000  1
