# generated using pymatgen
data_Ti2BeCo5B2
_symmetry_space_group_name_H-M   'P 1'
_cell_length_a   8.33109300
_cell_length_b   8.33109300
_cell_length_c   2.89521300
_cell_angle_alpha   90.00000000
_cell_angle_beta   90.00000000
_cell_angle_gamma   90.00000000
_symmetry_Int_Tables_number   1
_chemical_formula_structural   Ti2BeCo5B2
_chemical_formula_sum   'Ti4 Be2 Co10 B4'
_cell_volume   200.94836883
_cell_formula_units_Z   2
loop_
 _symmetry_equiv_pos_site_id
 _symmetry_equiv_pos_as_xyz
  1  'x, y, z'
loop_
 _atom_site_type_symbol
 _atom_site_label
 _atom_site_symmetry_multiplicity
 _atom_site_fract_x
 _atom_site_fract_y
 _atom_site_fract_z
 _atom_site_occupancy
  Ti  Ti0  1  0.824964  0.324964  0.000000  1
  Ti  Ti1  1  0.324964  0.175036  0.000000  1
  Ti  Ti2  1  0.675036  0.824964  0.000000  1
  Ti  Ti3  1  0.175036  0.675036  0.000000  1
  Be  Be4  1  0.000000  0.000000  0.000000  1
  Be  Be5  1  0.500000  0.500000  0.000000  1
  Co  Co6  1  0.500000  0.000000  0.500000  1
  Co  Co7  1  0.000000  0.500000  0.500000  1
  Co  Co8  1  0.069499  0.211649  0.500000  1
  Co  Co9  1  0.211649  0.930501  0.500000  1
  Co  Co10  1  0.788351  0.069499  0.500000  1
  Co  Co11  1  0.930501  0.788351  0.500000  1
  Co  Co12  1  0.430501  0.711649  0.500000  1
  Co  Co13  1  0.569499  0.288351  0.500000  1
  Co  Co14  1  0.711649  0.569499  0.500000  1
  Co  Co15  1  0.288351  0.430501  0.500000  1
  B  B16  1  0.623832  0.123832  0.000000  1
  B  B17  1  0.123832  0.376168  0.000000  1
  B  B18  1  0.876168  0.623832  0.000000  1
  B  B19  1  0.376168  0.876168  0.000000  1
