# generated using pymatgen
data_DyHoAs2Cl2O5
_symmetry_space_group_name_H-M   'P 1'
_cell_length_a   7.04669793
_cell_length_b   7.71108209
_cell_length_c   9.49537191
_cell_angle_alpha   109.66428054
_cell_angle_beta   104.04255987
_cell_angle_gamma   102.22777225
_symmetry_Int_Tables_number   1
_chemical_formula_structural   DyHoAs2Cl2O5
_chemical_formula_sum   'Dy2 Ho2 As4 Cl4 O10'
_cell_volume   446.36663587
_cell_formula_units_Z   2
loop_
 _symmetry_equiv_pos_site_id
 _symmetry_equiv_pos_as_xyz
  1  'x, y, z'
loop_
 _atom_site_type_symbol
 _atom_site_label
 _atom_site_symmetry_multiplicity
 _atom_site_fract_x
 _atom_site_fract_y
 _atom_site_fract_z
 _atom_site_occupancy
  Dy  Dy0  1  0.397468  0.699140  0.520408  1
  Dy  Dy1  1  0.602532  0.300860  0.479592  1
  Ho  Ho2  1  0.845886  0.766357  0.334535  1
  Ho  Ho3  1  0.154114  0.233643  0.665465  1
  As  As4  1  0.885882  0.848688  0.742238  1
  As  As5  1  0.114118  0.151312  0.257762  1
  As  As6  1  0.708542  0.231725  0.796358  1
  As  As7  1  0.291458  0.768275  0.203642  1
  Cl  Cl8  1  0.234834  0.624077  0.730129  1
  Cl  Cl9  1  0.765166  0.375923  0.269871  1
  Cl  Cl10  1  0.773434  0.723864  0.040897  1
  Cl  Cl11  1  0.226566  0.276136  0.959103  1
  O  O12  1  0.844560  0.272750  0.665017  1
  O  O13  1  0.155440  0.727250  0.334983  1
  O  O14  1  0.533569  0.787561  0.341652  1
  O  O15  1  0.466431  0.212439  0.658348  1
  O  O16  1  0.665366  0.962260  0.723463  1
  O  O17  1  0.334634  0.037740  0.276537  1
  O  O18  1  0.692023  0.622331  0.592997  1
  O  O19  1  0.307977  0.377669  0.407003  1
  O  O20  1  0.989233  0.918031  0.605449  1
  O  O21  1  0.010767  0.081969  0.394551  1
