# generated using pymatgen
data_Lu10Cd3Ga
_symmetry_space_group_name_H-M   'P 1'
_cell_length_a   9.34363500
_cell_length_b   9.34363401
_cell_length_c   9.92800200
_cell_angle_alpha   90.00000000
_cell_angle_beta   90.00000000
_cell_angle_gamma   119.99999287
_symmetry_Int_Tables_number   1
_chemical_formula_structural   Lu10Cd3Ga
_chemical_formula_sum   'Lu20 Cd6 Ga2'
_cell_volume   750.62703578
_cell_formula_units_Z   2
loop_
 _symmetry_equiv_pos_site_id
 _symmetry_equiv_pos_as_xyz
  1  'x, y, z'
loop_
 _atom_site_type_symbol
 _atom_site_label
 _atom_site_symmetry_multiplicity
 _atom_site_fract_x
 _atom_site_fract_y
 _atom_site_fract_z
 _atom_site_occupancy
  Lu  Lu0  1  0.209269  0.790731  0.953271  1
  Lu  Lu1  1  0.209269  0.418540  0.953271  1
  Lu  Lu2  1  0.581460  0.790731  0.953271  1
  Lu  Lu3  1  0.790731  0.209269  0.046729  1
  Lu  Lu4  1  0.790731  0.581460  0.046729  1
  Lu  Lu5  1  0.418540  0.209269  0.046729  1
  Lu  Lu6  1  0.790731  0.209269  0.453271  1
  Lu  Lu7  1  0.790731  0.581460  0.453271  1
  Lu  Lu8  1  0.418540  0.209269  0.453271  1
  Lu  Lu9  1  0.209269  0.790731  0.546729  1
  Lu  Lu10  1  0.209269  0.418540  0.546729  1
  Lu  Lu11  1  0.581460  0.790731  0.546729  1
  Lu  Lu12  1  0.541851  0.458149  0.750000  1
  Lu  Lu13  1  0.541851  0.083703  0.750000  1
  Lu  Lu14  1  0.916297  0.458149  0.750000  1
  Lu  Lu15  1  0.458149  0.541851  0.250000  1
  Lu  Lu16  1  0.458149  0.916297  0.250000  1
  Lu  Lu17  1  0.083703  0.541851  0.250000  1
  Lu  Lu18  1  0.000000  0.000000  0.000000  1
  Lu  Lu19  1  0.000000  0.000000  0.500000  1
  Cd  Cd20  1  0.886914  0.113086  0.750000  1
  Cd  Cd21  1  0.886914  0.773828  0.750000  1
  Cd  Cd22  1  0.226172  0.113086  0.750000  1
  Cd  Cd23  1  0.113086  0.886914  0.250000  1
  Cd  Cd24  1  0.113086  0.226172  0.250000  1
  Cd  Cd25  1  0.773828  0.886914  0.250000  1
  Ga  Ga26  1  0.333333  0.666667  0.750000  1
  Ga  Ga27  1  0.666667  0.333333  0.250000  1
