# generated using pymatgen
data_Th4Sc6Ga7Si
_symmetry_space_group_name_H-M   'P 1'
_cell_length_a   7.38853824
_cell_length_b   7.66561473
_cell_length_c   14.53031400
_cell_angle_alpha   90.00000000
_cell_angle_beta   90.00000000
_cell_angle_gamma   90.08204004
_symmetry_Int_Tables_number   1
_chemical_formula_structural   Th4Sc6Ga7Si
_chemical_formula_sum   'Th8 Sc12 Ga14 Si2'
_cell_volume   822.96254132
_cell_formula_units_Z   2
loop_
 _symmetry_equiv_pos_site_id
 _symmetry_equiv_pos_as_xyz
  1  'x, y, z'
loop_
 _atom_site_type_symbol
 _atom_site_label
 _atom_site_symmetry_multiplicity
 _atom_site_fract_x
 _atom_site_fract_y
 _atom_site_fract_z
 _atom_site_occupancy
  Th  Th0  1  0.011283  0.179664  0.097973  1
  Th  Th1  1  0.988717  0.820336  0.902027  1
  Th  Th2  1  0.492648  0.676839  0.903742  1
  Th  Th3  1  0.988717  0.820336  0.597973  1
  Th  Th4  1  0.507352  0.323161  0.096258  1
  Th  Th5  1  0.011283  0.179664  0.402027  1
  Th  Th6  1  0.507352  0.323161  0.403742  1
  Th  Th7  1  0.492648  0.676839  0.596258  1
  Sc  Sc8  1  0.159521  0.498875  0.750000  1
  Sc  Sc9  1  0.840479  0.501125  0.250000  1
  Sc  Sc10  1  0.333497  0.004563  0.250000  1
  Sc  Sc11  1  0.666503  0.995437  0.750000  1
  Sc  Sc12  1  0.330935  0.172997  0.625207  1
  Sc  Sc13  1  0.669065  0.827003  0.374793  1
  Sc  Sc14  1  0.172260  0.669642  0.374418  1
  Sc  Sc15  1  0.669065  0.827003  0.125207  1
  Sc  Sc16  1  0.827740  0.330358  0.625582  1
  Sc  Sc17  1  0.330935  0.172997  0.874793  1
  Sc  Sc18  1  0.827740  0.330358  0.874418  1
  Sc  Sc19  1  0.172260  0.669642  0.125582  1
  Ga  Ga20  1  0.031509  0.122211  0.750000  1
  Ga  Ga21  1  0.968491  0.877789  0.250000  1
  Ga  Ga22  1  0.469267  0.618453  0.250000  1
  Ga  Ga23  1  0.530733  0.381547  0.750000  1
  Ga  Ga24  1  0.291837  0.877014  0.750000  1
  Ga  Ga25  1  0.708163  0.122986  0.250000  1
  Ga  Ga26  1  0.159609  0.462151  0.540297  1
  Ga  Ga27  1  0.840391  0.537849  0.459703  1
  Ga  Ga28  1  0.338611  0.960716  0.460186  1
  Ga  Ga29  1  0.840391  0.537849  0.040297  1
  Ga  Ga30  1  0.661389  0.039284  0.539814  1
  Ga  Ga31  1  0.159609  0.462151  0.959703  1
  Ga  Ga32  1  0.661389  0.039284  0.960186  1
  Ga  Ga33  1  0.338611  0.960716  0.039814  1
  Si  Si34  1  0.211502  0.376959  0.250000  1
  Si  Si35  1  0.788498  0.623041  0.750000  1
