# generated using pymatgen
data_GdErB6Os
_symmetry_space_group_name_H-M   'P 1'
_cell_length_a   3.65365300
_cell_length_b   9.15210400
_cell_length_c   11.54612000
_cell_angle_alpha   90.00000000
_cell_angle_beta   90.00000000
_cell_angle_gamma   90.00000000
_symmetry_Int_Tables_number   1
_chemical_formula_structural   GdErB6Os
_chemical_formula_sum   'Gd4 Er4 B24 Os4'
_cell_volume   386.08622951
_cell_formula_units_Z   4
loop_
 _symmetry_equiv_pos_site_id
 _symmetry_equiv_pos_as_xyz
  1  'x, y, z'
loop_
 _atom_site_type_symbol
 _atom_site_label
 _atom_site_symmetry_multiplicity
 _atom_site_fract_x
 _atom_site_fract_y
 _atom_site_fract_z
 _atom_site_occupancy
  Gd  Gd0  1  0.000000  0.322543  0.413660  1
  Gd  Gd1  1  0.000000  0.677457  0.586340  1
  Gd  Gd2  1  0.000000  0.822543  0.086340  1
  Gd  Gd3  1  0.000000  0.177457  0.913660  1
  Er  Er4  1  0.000000  0.944472  0.373076  1
  Er  Er5  1  0.000000  0.055528  0.626924  1
  Er  Er6  1  0.000000  0.444472  0.126924  1
  Er  Er7  1  0.000000  0.555528  0.873076  1
  B  B8  1  0.500000  0.554560  0.432370  1
  B  B9  1  0.500000  0.445440  0.567630  1
  B  B10  1  0.500000  0.054560  0.067630  1
  B  B11  1  0.500000  0.945440  0.932370  1
  B  B12  1  0.500000  0.748835  0.419523  1
  B  B13  1  0.500000  0.251165  0.580477  1
  B  B14  1  0.500000  0.248835  0.080477  1
  B  B15  1  0.500000  0.751165  0.919523  1
  B  B16  1  0.500000  0.791593  0.266871  1
  B  B17  1  0.500000  0.208407  0.733129  1
  B  B18  1  0.500000  0.291593  0.233129  1
  B  B19  1  0.500000  0.708407  0.766871  1
  B  B20  1  0.500000  0.631812  0.185362  1
  B  B21  1  0.500000  0.368188  0.814638  1
  B  B22  1  0.500000  0.131812  0.314638  1
  B  B23  1  0.500000  0.868188  0.685362  1
  B  B24  1  0.500000  0.984033  0.213502  1
  B  B25  1  0.500000  0.015967  0.786498  1
  B  B26  1  0.500000  0.484033  0.286498  1
  B  B27  1  0.500000  0.515967  0.713502  1
  B  B28  1  0.500000  0.606356  0.029425  1
  B  B29  1  0.500000  0.393644  0.970575  1
  B  B30  1  0.500000  0.106356  0.470575  1
  B  B31  1  0.500000  0.893644  0.529425  1
  Os  Os32  1  0.000000  0.638729  0.320547  1
  Os  Os33  1  0.000000  0.361271  0.679453  1
  Os  Os34  1  0.000000  0.138729  0.179453  1
  Os  Os35  1  0.000000  0.861271  0.820547  1
