# generated using pymatgen
data_Nd2DyY3(RuO7)2
_symmetry_space_group_name_H-M   'P 1'
_cell_length_a   6.46014046
_cell_length_b   6.46467558
_cell_length_c   7.51520100
_cell_angle_alpha   90.00000000
_cell_angle_beta   90.00000000
_cell_angle_gamma   110.24770972
_symmetry_Int_Tables_number   1
_chemical_formula_structural   Nd2DyY3(RuO7)2
_chemical_formula_sum   'Nd2 Dy1 Y3 Ru2 O14'
_cell_volume   294.46054988
_cell_formula_units_Z   1
loop_
 _symmetry_equiv_pos_site_id
 _symmetry_equiv_pos_as_xyz
  1  'x, y, z'
loop_
 _atom_site_type_symbol
 _atom_site_label
 _atom_site_symmetry_multiplicity
 _atom_site_fract_x
 _atom_site_fract_y
 _atom_site_fract_z
 _atom_site_occupancy
  Nd  Nd0  1  0.999995  0.999887  0.499840  1
  Nd  Nd1  1  0.999995  0.999887  0.000160  1
  Dy  Dy2  1  0.070682  0.518729  0.250000  1
  Y  Y3  1  0.481121  0.929627  0.750000  1
  Y  Y4  1  0.518792  0.070302  0.250000  1
  Y  Y5  1  0.929533  0.481139  0.750000  1
  Ru  Ru6  1  0.500160  0.500045  0.499868  1
  Ru  Ru7  1  0.500160  0.500045  0.000132  1
  O  O8  1  0.588930  0.588870  0.750000  1
  O  O9  1  0.410590  0.411260  0.250000  1
  O  O10  1  0.838648  0.116191  0.750000  1
  O  O11  1  0.161168  0.883578  0.250000  1
  O  O12  1  0.116152  0.838628  0.750000  1
  O  O13  1  0.883951  0.162058  0.250000  1
  O  O14  1  0.439757  0.182340  0.962932  1
  O  O15  1  0.560199  0.817663  0.462946  1
  O  O16  1  0.182051  0.439911  0.963489  1
  O  O17  1  0.818055  0.559961  0.462345  1
  O  O18  1  0.439757  0.182340  0.537068  1
  O  O19  1  0.560199  0.817663  0.037054  1
  O  O20  1  0.818055  0.559961  0.037655  1
  O  O21  1  0.182051  0.439911  0.536511  1
