# generated using pymatgen
data_Na2Dy3Ge3P9Ir19
_symmetry_space_group_name_H-M   'P 1'
_cell_length_a   12.82103400
_cell_length_b   12.83357163
_cell_length_c   3.96666100
_cell_angle_alpha   90.00000000
_cell_angle_beta   90.00000000
_cell_angle_gamma   119.96768834
_symmetry_Int_Tables_number   1
_chemical_formula_structural   Na2Dy3Ge3P9Ir19
_chemical_formula_sum   'Na2 Dy3 Ge3 P9 Ir19'
_cell_volume   565.41538346
_cell_formula_units_Z   1
loop_
 _symmetry_equiv_pos_site_id
 _symmetry_equiv_pos_as_xyz
  1  'x, y, z'
loop_
 _atom_site_type_symbol
 _atom_site_label
 _atom_site_symmetry_multiplicity
 _atom_site_fract_x
 _atom_site_fract_y
 _atom_site_fract_z
 _atom_site_occupancy
  Na  Na0  1  0.000906  0.821019  0.000000  1
  Na  Na1  1  0.179887  0.178981  0.000000  1
  Dy  Dy2  1  0.334368  0.667730  0.500000  1
  Dy  Dy3  1  0.666638  0.332270  0.500000  1
  Dy  Dy4  1  0.824063  0.000000  0.000000  1
  Ge  Ge5  1  0.999616  0.646926  0.500000  1
  Ge  Ge6  1  0.352690  0.353074  0.500000  1
  Ge  Ge7  1  0.642908  0.000000  0.500000  1
  P  P8  1  0.518699  0.689536  0.000000  1
  P  P9  1  0.309183  0.827675  0.000000  1
  P  P10  1  0.172365  0.482569  0.000000  1
  P  P11  1  0.481508  0.172325  0.000000  1
  P  P12  1  0.689795  0.517431  0.000000  1
  P  P13  1  0.829163  0.310464  0.000000  1
  P  P14  1  0.004550  0.181727  0.500000  1
  P  P15  1  0.822822  0.818273  0.500000  1
  P  P16  1  0.178553  0.000000  0.500000  1
  Ir  Ir17  1  0.502725  0.864457  0.000000  1
  Ir  Ir18  1  0.132383  0.636069  0.000000  1
  Ir  Ir19  1  0.362608  0.496710  0.000000  1
  Ir  Ir20  1  0.496315  0.363931  0.000000  1
  Ir  Ir21  1  0.865900  0.503290  0.000000  1
  Ir  Ir22  1  0.638269  0.135543  0.000000  1
  Ir  Ir23  1  0.996505  0.453952  0.500000  1
  Ir  Ir24  1  0.542553  0.546048  0.500000  1
  Ir  Ir25  1  0.453463  0.000000  0.500000  1
  Ir  Ir26  1  0.999457  0.284014  0.000000  1
  Ir  Ir27  1  0.715443  0.715986  0.000000  1
  Ir  Ir28  1  0.285853  0.000000  0.000000  1
  Ir  Ir29  1  0.621994  0.796789  0.500000  1
  Ir  Ir30  1  0.205699  0.822959  0.500000  1
  Ir  Ir31  1  0.176967  0.384746  0.500000  1
  Ir  Ir32  1  0.382741  0.177041  0.500000  1
  Ir  Ir33  1  0.792221  0.615254  0.500000  1
  Ir  Ir34  1  0.825205  0.203211  0.500000  1
  Ir  Ir35  1  0.995987  0.000000  0.500000  1
