# generated using pymatgen
data_K2Li14Pu3O14
_symmetry_space_group_name_H-M   'P 1'
_cell_length_a   8.56833171
_cell_length_b   8.56833210
_cell_length_c   8.56833142
_cell_angle_alpha   128.87505859
_cell_angle_beta   123.68050121
_cell_angle_gamma   79.50291663
_symmetry_Int_Tables_number   1
_chemical_formula_structural   K2Li14Pu3O14
_chemical_formula_sum   'K2 Li14 Pu3 O14'
_cell_volume   393.94113094
_cell_formula_units_Z   1
loop_
 _symmetry_equiv_pos_site_id
 _symmetry_equiv_pos_as_xyz
  1  'x, y, z'
loop_
 _atom_site_type_symbol
 _atom_site_label
 _atom_site_symmetry_multiplicity
 _atom_site_fract_x
 _atom_site_fract_y
 _atom_site_fract_z
 _atom_site_occupancy
  K  K0  1  0.500000  0.251111  0.751111  1
  K  K1  1  0.500000  0.748889  0.248889  1
  Li  Li2  1  0.843931  0.500000  0.343931  1
  Li  Li3  1  0.156069  0.500000  0.656069  1
  Li  Li4  1  0.412299  0.770198  0.642103  1
  Li  Li5  1  0.587701  0.229802  0.357897  1
  Li  Li6  1  0.871905  0.229802  0.642103  1
  Li  Li7  1  0.128095  0.770198  0.357897  1
  Li  Li8  1  0.707512  0.587349  0.565070  1
  Li  Li9  1  0.292488  0.857558  0.879837  1
  Li  Li10  1  0.977721  0.412651  0.120163  1
  Li  Li11  1  0.022279  0.142442  0.434930  1
  Li  Li12  1  0.292488  0.412651  0.434930  1
  Li  Li13  1  0.707512  0.142442  0.120163  1
  Li  Li14  1  0.022279  0.587349  0.879837  1
  Li  Li15  1  0.977721  0.857558  0.565070  1
  Pu  Pu16  1  0.730736  0.730736  0.000000  1
  Pu  Pu17  1  0.269264  0.269264  0.000000  1
  Pu  Pu18  1  0.000000  0.000000  0.000000  1
  O  O19  1  0.749076  0.041468  0.292391  1
  O  O20  1  0.250924  0.543315  0.292391  1
  O  O21  1  0.250924  0.958532  0.707609  1
  O  O22  1  0.749076  0.456685  0.707609  1
  O  O23  1  0.000000  0.707414  0.707414  1
  O  O24  1  0.000000  0.292586  0.292586  1
  O  O25  1  0.685825  0.868667  0.817158  1
  O  O26  1  0.314175  0.131333  0.182842  1
  O  O27  1  0.948490  0.131333  0.817158  1
  O  O28  1  0.051510  0.868667  0.182842  1
  O  O29  1  0.409638  0.625548  0.784089  1
  O  O30  1  0.590362  0.374452  0.215911  1
  O  O31  1  0.158541  0.374452  0.784089  1
  O  O32  1  0.841459  0.625548  0.215911  1
