# generated using pymatgen
data_CaTb4Yb5Si8
_symmetry_space_group_name_H-M   'P 1'
_cell_length_a   7.42714013
_cell_length_b   7.81693021
_cell_length_c   15.14160000
_cell_angle_alpha   89.99532365
_cell_angle_beta   89.98941587
_cell_angle_gamma   89.98741404
_symmetry_Int_Tables_number   1
_chemical_formula_structural   CaTb4Yb5Si8
_chemical_formula_sum   'Ca2 Tb8 Yb10 Si16'
_cell_volume   879.08243478
_cell_formula_units_Z   2
loop_
 _symmetry_equiv_pos_site_id
 _symmetry_equiv_pos_as_xyz
  1  'x, y, z'
loop_
 _atom_site_type_symbol
 _atom_site_label
 _atom_site_symmetry_multiplicity
 _atom_site_fract_x
 _atom_site_fract_y
 _atom_site_fract_z
 _atom_site_occupancy
  Ca  Ca0  1  0.970471  0.815120  0.403784  1
  Ca  Ca1  1  0.354438  0.019734  0.750015  1
  Tb  Tb2  1  0.313677  0.177261  0.121243  1
  Tb  Tb3  1  0.813543  0.322858  0.378729  1
  Tb  Tb4  1  0.186184  0.676690  0.879021  1
  Tb  Tb5  1  0.686820  0.822980  0.621076  1
  Tb  Tb6  1  0.313922  0.177602  0.378691  1
  Tb  Tb7  1  0.813604  0.322937  0.121202  1
  Tb  Tb8  1  0.186426  0.676549  0.621119  1
  Tb  Tb9  1  0.686915  0.822953  0.879020  1
  Yb  Yb10  1  0.470594  0.684949  0.096704  1
  Yb  Yb11  1  0.529566  0.315474  0.596535  1
  Yb  Yb12  1  0.028988  0.185153  0.903399  1
  Yb  Yb13  1  0.029111  0.185228  0.596657  1
  Yb  Yb14  1  0.529567  0.315397  0.903468  1
  Yb  Yb15  1  0.470529  0.684819  0.403257  1
  Yb  Yb16  1  0.970500  0.814919  0.096757  1
  Yb  Yb17  1  0.854330  0.479808  0.750026  1
  Yb  Yb18  1  0.145916  0.519826  0.249796  1
  Yb  Yb19  1  0.645485  0.979989  0.249799  1
  Si  Si20  1  0.858909  0.531980  0.538665  1
  Si  Si21  1  0.358680  0.967247  0.961610  1
  Si  Si22  1  0.640513  0.033020  0.461497  1
  Si  Si23  1  0.141178  0.467451  0.038594  1
  Si  Si24  1  0.141426  0.466941  0.461577  1
  Si  Si25  1  0.641163  0.032482  0.038564  1
  Si  Si26  1  0.358843  0.967388  0.538528  1
  Si  Si27  1  0.858790  0.532347  0.961501  1
  Si  Si28  1  0.978493  0.885623  0.750006  1
  Si  Si29  1  0.478470  0.614621  0.750006  1
  Si  Si30  1  0.521504  0.385307  0.250063  1
  Si  Si31  1  0.021867  0.115095  0.249824  1
  Si  Si32  1  0.249982  0.393947  0.750001  1
  Si  Si33  1  0.749698  0.106452  0.749963  1
  Si  Si34  1  0.250270  0.894058  0.249769  1
  Si  Si35  1  0.749627  0.605797  0.249537  1
