# generated using pymatgen
data_Zr4Si4IrRh3
_symmetry_space_group_name_H-M   'P 1'
_cell_length_a   3.96657900
_cell_length_b   6.60349879
_cell_length_c   7.48120190
_cell_angle_alpha   89.94393891
_cell_angle_beta   90.00000000
_cell_angle_gamma   90.00000000
_symmetry_Int_Tables_number   1
_chemical_formula_structural   Zr4Si4IrRh3
_chemical_formula_sum   'Zr4 Si4 Ir1 Rh3'
_cell_volume   195.95726902
_cell_formula_units_Z   1
loop_
 _symmetry_equiv_pos_site_id
 _symmetry_equiv_pos_as_xyz
  1  'x, y, z'
loop_
 _atom_site_type_symbol
 _atom_site_label
 _atom_site_symmetry_multiplicity
 _atom_site_fract_x
 _atom_site_fract_y
 _atom_site_fract_z
 _atom_site_occupancy
  Zr  Zr0  1  0.250000  0.019306  0.316547  1
  Zr  Zr1  1  0.250000  0.517449  0.183003  1
  Zr  Zr2  1  0.750000  0.981479  0.683243  1
  Zr  Zr3  1  0.750000  0.481800  0.817395  1
  Si  Si4  1  0.250000  0.278069  0.618049  1
  Si  Si5  1  0.250000  0.776905  0.882631  1
  Si  Si6  1  0.750000  0.721753  0.381802  1
  Si  Si7  1  0.750000  0.222591  0.117852  1
  Ir  Ir8  1  0.750000  0.348931  0.435359  1
  Rh  Rh9  1  0.250000  0.149906  0.934644  1
  Rh  Rh10  1  0.250000  0.650560  0.564216  1
  Rh  Rh11  1  0.750000  0.851251  0.065258  1
