# generated using pymatgen
data_Ba4Al5Ga3(SiO4)8
_symmetry_space_group_name_H-M   'P 1'
_cell_length_a   9.75817535
_cell_length_b   8.69444622
_cell_length_c   9.26866066
_cell_angle_alpha   89.58923353
_cell_angle_beta   89.99403399
_cell_angle_gamma   89.93992800
_symmetry_Int_Tables_number   1
_chemical_formula_structural   Ba4Al5Ga3(SiO4)8
_chemical_formula_sum   'Ba4 Al5 Ga3 Si8 O32'
_cell_volume   786.35042197
_cell_formula_units_Z   1
loop_
 _symmetry_equiv_pos_site_id
 _symmetry_equiv_pos_as_xyz
  1  'x, y, z'
loop_
 _atom_site_type_symbol
 _atom_site_label
 _atom_site_symmetry_multiplicity
 _atom_site_fract_x
 _atom_site_fract_y
 _atom_site_fract_z
 _atom_site_occupancy
  Ba  Ba0  1  0.086420  0.747965  0.397531  1
  Ba  Ba1  1  0.587984  0.251014  0.101119  1
  Ba  Ba2  1  0.913103  0.252754  0.600966  1
  Ba  Ba3  1  0.412646  0.748090  0.898829  1
  Al  Al4  1  0.921272  0.069877  0.222097  1
  Al  Al5  1  0.307973  0.427937  0.565853  1
  Al  Al6  1  0.807828  0.572088  0.934146  1
  Al  Al7  1  0.692502  0.571510  0.433878  1
  Al  Al8  1  0.192278  0.427896  0.065670  1
  Ga  Ga9  1  0.578903  0.069051  0.720628  1
  Ga  Ga10  1  0.077510  0.930553  0.780555  1
  Ga  Ga11  1  0.421574  0.930299  0.279962  1
  Si  Si12  1  0.585433  0.440261  0.730208  1
  Si  Si13  1  0.085421  0.559971  0.769857  1
  Si  Si14  1  0.414477  0.559587  0.269880  1
  Si  Si15  1  0.914822  0.437271  0.229396  1
  Si  Si16  1  0.298049  0.060999  0.570057  1
  Si  Si17  1  0.799416  0.940062  0.933221  1
  Si  Si18  1  0.703114  0.939913  0.428536  1
  Si  Si19  1  0.199119  0.061519  0.070968  1
  O  O20  1  0.591030  0.264490  0.797553  1
  O  O21  1  0.090538  0.735715  0.702091  1
  O  O22  1  0.409174  0.735325  0.202165  1
  O  O23  1  0.910404  0.259039  0.290305  1
  O  O24  1  0.336167  0.235405  0.522841  1
  O  O25  1  0.836258  0.764168  0.977103  1
  O  O26  1  0.667117  0.764881  0.475416  1
  O  O27  1  0.164236  0.236172  0.021292  1
  O  O28  1  0.313950  0.548569  0.410756  1
  O  O29  1  0.813682  0.451609  0.089164  1
  O  O30  1  0.685811  0.451814  0.589353  1
  O  O31  1  0.185802  0.548816  0.910805  1
  O  O32  1  0.306543  0.939312  0.435144  1
  O  O33  1  0.814280  0.056919  0.070738  1
  O  O34  1  0.693680  0.059796  0.564862  1
  O  O35  1  0.191458  0.938806  0.936595  1
  O  O36  1  0.138991  0.451836  0.635429  1
  O  O37  1  0.638830  0.548278  0.864606  1
  O  O38  1  0.861399  0.543543  0.365344  1
  O  O39  1  0.361293  0.451582  0.135392  1
  O  O40  1  0.089557  0.002059  0.195216  1
  O  O41  1  0.596387  0.004177  0.303151  1
  O  O42  1  0.902573  0.004854  0.804627  1
  O  O43  1  0.403563  0.996211  0.696403  1
  O  O44  1  0.070387  0.496647  0.192953  1
  O  O45  1  0.570320  0.502481  0.307725  1
  O  O46  1  0.929681  0.502385  0.807489  1
  O  O47  1  0.429656  0.497670  0.692402  1
  O  O48  1  0.359635  0.051280  0.127433  1
  O  O49  1  0.861835  0.954393  0.368186  1
  O  O50  1  0.638368  0.951883  0.877880  1
  O  O51  1  0.137551  0.051265  0.626223  1
