# generated using pymatgen
data_Cs2Ca2(GeO3)3
_symmetry_space_group_name_H-M   'P 1'
_cell_length_a   7.82379200
_cell_length_b   6.94327420
_cell_length_c   12.76480505
_cell_angle_alpha   60.55729507
_cell_angle_beta   90.00000000
_cell_angle_gamma   90.00000000
_symmetry_Int_Tables_number   1
_chemical_formula_structural   Cs2Ca2(GeO3)3
_chemical_formula_sum   'Cs4 Ca4 Ge6 O18'
_cell_volume   603.86241207
_cell_formula_units_Z   2
loop_
 _symmetry_equiv_pos_site_id
 _symmetry_equiv_pos_as_xyz
  1  'x, y, z'
loop_
 _atom_site_type_symbol
 _atom_site_label
 _atom_site_symmetry_multiplicity
 _atom_site_fract_x
 _atom_site_fract_y
 _atom_site_fract_z
 _atom_site_occupancy
  Cs  Cs0  1  0.403107  0.438338  0.773330  1
  Cs  Cs1  1  0.596893  0.438338  0.273330  1
  Cs  Cs2  1  0.657202  0.815935  0.902552  1
  Cs  Cs3  1  0.342798  0.815935  0.402552  1
  Ca  Ca4  1  0.834966  0.870540  0.585961  1
  Ca  Ca5  1  0.165034  0.870540  0.085961  1
  Ca  Ca6  1  0.934483  0.338393  0.856165  1
  Ca  Ca7  1  0.065517  0.338393  0.356165  1
  Ge  Ge8  1  0.584066  0.114434  0.089277  1
  Ge  Ge9  1  0.415934  0.114434  0.589277  1
  Ge  Ge10  1  0.243364  0.421663  0.052815  1
  Ge  Ge11  1  0.756636  0.421663  0.552815  1
  Ge  Ge12  1  0.127353  0.876453  0.815328  1
  Ge  Ge13  1  0.872647  0.876453  0.315328  1
  O  O14  1  0.837728  0.481477  0.661033  1
  O  O15  1  0.162272  0.481477  0.161033  1
  O  O16  1  0.464070  0.338322  0.090781  1
  O  O17  1  0.535930  0.338322  0.590781  1
  O  O18  1  0.449306  0.887964  0.129789  1
  O  O19  1  0.550694  0.887964  0.629789  1
  O  O20  1  0.029546  0.993321  0.894734  1
  O  O21  1  0.970454  0.993321  0.394734  1
  O  O22  1  0.866124  0.251905  0.510621  1
  O  O23  1  0.133876  0.251905  0.010621  1
  O  O24  1  0.685241  0.217035  0.950317  1
  O  O25  1  0.314759  0.217035  0.450317  1
  O  O26  1  0.992336  0.735324  0.765426  1
  O  O27  1  0.007664  0.735324  0.265426  1
  O  O28  1  0.285606  0.688478  0.919684  1
  O  O29  1  0.714394  0.688478  0.419684  1
  O  O30  1  0.736796  0.084317  0.203627  1
  O  O31  1  0.263204  0.084317  0.703627  1
