# generated using pymatgen
data_Cs6TbUCl12
_symmetry_space_group_name_H-M   'P 1'
_cell_length_a   9.57935800
_cell_length_b   9.58879739
_cell_length_c   7.98004200
_cell_angle_alpha   90.00000000
_cell_angle_beta   90.00000000
_cell_angle_gamma   89.86305235
_symmetry_Int_Tables_number   1
_chemical_formula_structural   Cs6TbUCl12
_chemical_formula_sum   'Cs6 Tb1 U1 Cl12'
_cell_volume   733.00085754
_cell_formula_units_Z   1
loop_
 _symmetry_equiv_pos_site_id
 _symmetry_equiv_pos_as_xyz
  1  'x, y, z'
loop_
 _atom_site_type_symbol
 _atom_site_label
 _atom_site_symmetry_multiplicity
 _atom_site_fract_x
 _atom_site_fract_y
 _atom_site_fract_z
 _atom_site_occupancy
  Cs  Cs0  1  0.000000  0.000000  0.500000  1
  Cs  Cs1  1  0.000000  0.000000  0.000000  1
  Cs  Cs2  1  0.234611  0.579819  0.500000  1
  Cs  Cs3  1  0.765389  0.420181  0.500000  1
  Cs  Cs4  1  0.419829  0.237473  0.000000  1
  Cs  Cs5  1  0.580171  0.762527  0.000000  1
  Tb  Tb6  1  0.000000  0.500000  0.000000  1
  U  U7  1  0.500000  0.000000  0.500000  1
  Cl  Cl8  1  0.696167  0.055939  0.744722  1
  Cl  Cl9  1  0.303833  0.944061  0.744722  1
  Cl  Cl10  1  0.945419  0.690092  0.237366  1
  Cl  Cl11  1  0.054581  0.309908  0.237366  1
  Cl  Cl12  1  0.303833  0.944061  0.255278  1
  Cl  Cl13  1  0.696167  0.055939  0.255278  1
  Cl  Cl14  1  0.054581  0.309908  0.762634  1
  Cl  Cl15  1  0.945419  0.690092  0.762634  1
  Cl  Cl16  1  0.569618  0.722577  0.500000  1
  Cl  Cl17  1  0.430382  0.277423  0.500000  1
  Cl  Cl18  1  0.268971  0.568352  0.000000  1
  Cl  Cl19  1  0.731029  0.431648  0.000000  1
