# generated using pymatgen
data_Tb12Pr8Si15Sn
_symmetry_space_group_name_H-M   'P 1'
_cell_length_a   7.58955071
_cell_length_b   7.87567117
_cell_length_c   15.00205525
_cell_angle_alpha   90.13368472
_cell_angle_beta   89.34756663
_cell_angle_gamma   90.08409010
_symmetry_Int_Tables_number   1
_chemical_formula_structural   Tb12Pr8Si15Sn
_chemical_formula_sum   'Tb12 Pr8 Si15 Sn1'
_cell_volume   896.65342614
_cell_formula_units_Z   1
loop_
 _symmetry_equiv_pos_site_id
 _symmetry_equiv_pos_as_xyz
  1  'x, y, z'
loop_
 _atom_site_type_symbol
 _atom_site_label
 _atom_site_symmetry_multiplicity
 _atom_site_fract_x
 _atom_site_fract_y
 _atom_site_fract_z
 _atom_site_occupancy
  Tb  Tb0  1  0.332154  0.166428  0.628801  1
  Tb  Tb1  1  0.673665  0.821820  0.375060  1
  Tb  Tb2  1  0.655792  0.987799  0.752632  1
  Tb  Tb3  1  0.171617  0.687384  0.371641  1
  Tb  Tb4  1  0.820216  0.320820  0.878434  1
  Tb  Tb5  1  0.817382  0.320997  0.623586  1
  Tb  Tb6  1  0.844996  0.487963  0.249509  1
  Tb  Tb7  1  0.346670  0.012806  0.249078  1
  Tb  Tb8  1  0.320122  0.178605  0.878447  1
  Tb  Tb9  1  0.179404  0.678988  0.122194  1
  Tb  Tb10  1  0.677549  0.820216  0.121636  1
  Tb  Tb11  1  0.154063  0.510503  0.753682  1
  Pr  Pr12  1  0.018059  0.173965  0.398092  1
  Pr  Pr13  1  0.521770  0.319592  0.399744  1
  Pr  Pr14  1  0.476071  0.680748  0.902406  1
  Pr  Pr15  1  0.488420  0.686594  0.601607  1
  Pr  Pr16  1  0.976833  0.824343  0.599740  1
  Pr  Pr17  1  0.975411  0.819672  0.902678  1
  Pr  Pr18  1  0.523393  0.319616  0.098440  1
  Pr  Pr19  1  0.024047  0.181258  0.098233  1
  Si  Si20  1  0.270153  0.876845  0.752511  1
  Si  Si21  1  0.470075  0.611187  0.248306  1
  Si  Si22  1  0.028407  0.112490  0.751393  1
  Si  Si23  1  0.528761  0.389671  0.752536  1
  Si  Si24  1  0.969160  0.890932  0.246680  1
  Si  Si25  1  0.728309  0.119563  0.247833  1
  Si  Si26  1  0.856687  0.530031  0.040230  1
  Si  Si27  1  0.355838  0.970025  0.040228  1
  Si  Si28  1  0.142662  0.469793  0.960663  1
  Si  Si29  1  0.648543  0.032761  0.537594  1
  Si  Si30  1  0.352259  0.968866  0.460755  1
  Si  Si31  1  0.842271  0.533848  0.457684  1
  Si  Si32  1  0.773004  0.619705  0.751342  1
  Si  Si33  1  0.228451  0.381087  0.249156  1
  Si  Si34  1  0.642755  0.030816  0.960628  1
  Sn  Sn35  1  0.165030  0.462258  0.536819  1
