# generated using pymatgen
data_Ta5Al2P
_symmetry_space_group_name_H-M   'P 1'
_cell_length_a   6.66087300
_cell_length_b   7.60955147
_cell_length_c   6.65222000
_cell_angle_alpha   115.91878675
_cell_angle_beta   90.00000000
_cell_angle_gamma   115.95500746
_symmetry_Int_Tables_number   1
_chemical_formula_structural   Ta5Al2P
_chemical_formula_sum   'Ta10 Al4 P2'
_cell_volume   264.93454241
_cell_formula_units_Z   2
loop_
 _symmetry_equiv_pos_site_id
 _symmetry_equiv_pos_as_xyz
  1  'x, y, z'
loop_
 _atom_site_type_symbol
 _atom_site_label
 _atom_site_symmetry_multiplicity
 _atom_site_fract_x
 _atom_site_fract_y
 _atom_site_fract_z
 _atom_site_occupancy
  Ta  Ta0  1  0.991261  0.000000  0.997582  1
  Ta  Ta1  1  0.508739  0.000000  0.497582  1
  Ta  Ta2  1  0.522871  0.705483  0.689053  1
  Ta  Ta3  1  0.191325  0.695697  0.011783  1
  Ta  Ta4  1  0.682611  0.705483  0.189053  1
  Ta  Ta5  1  0.004371  0.695697  0.511783  1
  Ta  Ta6  1  0.495629  0.304303  0.316087  1
  Ta  Ta7  1  0.817389  0.294517  0.983571  1
  Ta  Ta8  1  0.308675  0.304303  0.816087  1
  Ta  Ta9  1  0.977129  0.294517  0.483571  1
  Al  Al10  1  0.750000  0.500000  0.756908  1
  Al  Al11  1  0.250000  0.500000  0.256908  1
  Al  Al12  1  0.135312  0.000000  0.366465  1
  Al  Al13  1  0.364688  0.000000  0.866465  1
  P  P14  1  0.873903  0.000000  0.628551  1
  P  P15  1  0.626097  0.000000  0.128551  1
