# generated using pymatgen
data_Dy2Tm8(InSb)3
_symmetry_space_group_name_H-M   'P 1'
_cell_length_a   6.43048400
_cell_length_b   8.87036306
_cell_length_c   8.87578200
_cell_angle_alpha   59.98356199
_cell_angle_beta   89.99978242
_cell_angle_gamma   90.00062660
_symmetry_Int_Tables_number   1
_chemical_formula_structural   Dy2Tm8(InSb)3
_chemical_formula_sum   'Dy2 Tm8 In3 Sb3'
_cell_volume   438.37961981
_cell_formula_units_Z   1
loop_
 _symmetry_equiv_pos_site_id
 _symmetry_equiv_pos_as_xyz
  1  'x, y, z'
loop_
 _atom_site_type_symbol
 _atom_site_label
 _atom_site_symmetry_multiplicity
 _atom_site_fract_x
 _atom_site_fract_y
 _atom_site_fract_z
 _atom_site_occupancy
  Dy  Dy0  1  0.250028  0.762002  0.237846  1
  Dy  Dy1  1  0.250000  0.238057  0.999817  1
  Tm  Tm2  1  0.503284  0.333449  0.333251  1
  Tm  Tm3  1  0.503278  0.666574  0.666749  1
  Tm  Tm4  1  0.996710  0.666515  0.666716  1
  Tm  Tm5  1  0.996711  0.333485  0.333307  1
  Tm  Tm6  1  0.749989  0.238193  0.761574  1
  Tm  Tm7  1  0.750020  0.761807  0.999794  1
  Tm  Tm8  1  0.750021  0.999980  0.238911  1
  Tm  Tm9  1  0.250000  0.000028  0.761563  1
  In  In10  1  0.749911  0.606289  0.393679  1
  In  In11  1  0.750018  0.393617  0.000026  1
  In  In12  1  0.750041  0.999963  0.606185  1
  Sb  Sb13  1  0.250046  0.395301  0.603967  1
  Sb  Sb14  1  0.249974  0.604747  0.999284  1
  Sb  Sb15  1  0.249969  0.999995  0.397331  1
