# generated using pymatgen
data_Y4HoIrRh2
_symmetry_space_group_name_H-M   'P 1'
_cell_length_a   10.92963100
_cell_length_b   10.92963100
_cell_length_c   6.37966000
_cell_angle_alpha   90.00000000
_cell_angle_beta   90.00000000
_cell_angle_gamma   90.00000000
_symmetry_Int_Tables_number   1
_chemical_formula_structural   Y4HoIrRh2
_chemical_formula_sum   'Y16 Ho4 Ir4 Rh8'
_cell_volume   762.09398430
_cell_formula_units_Z   4
loop_
 _symmetry_equiv_pos_site_id
 _symmetry_equiv_pos_as_xyz
  1  'x, y, z'
loop_
 _atom_site_type_symbol
 _atom_site_label
 _atom_site_symmetry_multiplicity
 _atom_site_fract_x
 _atom_site_fract_y
 _atom_site_fract_z
 _atom_site_occupancy
  Y  Y0  1  0.290862  0.089820  0.377897  1
  Y  Y1  1  0.290862  0.910180  0.877897  1
  Y  Y2  1  0.709138  0.089820  0.877897  1
  Y  Y3  1  0.709138  0.910180  0.377897  1
  Y  Y4  1  0.587480  0.789507  0.879206  1
  Y  Y5  1  0.587480  0.210493  0.379206  1
  Y  Y6  1  0.412520  0.789507  0.379206  1
  Y  Y7  1  0.412520  0.210493  0.879206  1
  Y  Y8  1  0.210493  0.412520  0.620794  1
  Y  Y9  1  0.210493  0.587480  0.120794  1
  Y  Y10  1  0.789507  0.412520  0.120794  1
  Y  Y11  1  0.789507  0.587480  0.620794  1
  Y  Y12  1  0.910180  0.709138  0.122103  1
  Y  Y13  1  0.910180  0.290862  0.622103  1
  Y  Y14  1  0.089820  0.709138  0.622103  1
  Y  Y15  1  0.089820  0.290862  0.122103  1
  Ho  Ho16  1  0.000000  0.000000  0.500000  1
  Ho  Ho17  1  0.000000  0.000000  0.000000  1
  Ho  Ho18  1  0.500000  0.500000  0.000000  1
  Ho  Ho19  1  0.500000  0.500000  0.500000  1
  Ir  Ir20  1  0.653488  0.346512  0.750000  1
  Ir  Ir21  1  0.653488  0.653488  0.250000  1
  Ir  Ir22  1  0.346512  0.346512  0.250000  1
  Ir  Ir23  1  0.346512  0.653488  0.750000  1
  Rh  Rh24  1  0.848098  0.151902  0.250000  1
  Rh  Rh25  1  0.848098  0.848098  0.750000  1
  Rh  Rh26  1  0.151902  0.151902  0.750000  1
  Rh  Rh27  1  0.151902  0.848098  0.250000  1
  Rh  Rh28  1  0.500000  0.000000  0.122973  1
  Rh  Rh29  1  0.500000  0.000000  0.622973  1
  Rh  Rh30  1  0.000000  0.500000  0.877027  1
  Rh  Rh31  1  0.000000  0.500000  0.377027  1
