# generated using pymatgen
data_DyHo5Al19Si5Os8
_symmetry_space_group_name_H-M   'P 1'
_cell_length_a   8.68913200
_cell_length_b   8.67517797
_cell_length_c   9.57598700
_cell_angle_alpha   90.00000000
_cell_angle_beta   90.00000000
_cell_angle_gamma   120.05322306
_symmetry_Int_Tables_number   1
_chemical_formula_structural   DyHo5Al19Si5Os8
_chemical_formula_sum   'Dy1 Ho5 Al19 Si5 Os8'
_cell_volume   624.79248983
_cell_formula_units_Z   1
loop_
 _symmetry_equiv_pos_site_id
 _symmetry_equiv_pos_as_xyz
  1  'x, y, z'
loop_
 _atom_site_type_symbol
 _atom_site_label
 _atom_site_symmetry_multiplicity
 _atom_site_fract_x
 _atom_site_fract_y
 _atom_site_fract_z
 _atom_site_occupancy
  Dy  Dy0  1  0.805719  0.611438  0.749999  1
  Ho  Ho1  1  0.195012  0.390023  0.249997  1
  Ho  Ho2  1  0.608046  0.806269  0.249998  1
  Ho  Ho3  1  0.389787  0.195092  0.750003  1
  Ho  Ho4  1  0.198223  0.806269  0.249998  1
  Ho  Ho5  1  0.805305  0.195092  0.750003  1
  Al  Al6  1  0.164582  0.329163  0.578364  1
  Al  Al7  1  0.834830  0.669660  0.421753  1
  Al  Al8  1  0.670028  0.835409  0.577063  1
  Al  Al9  1  0.834830  0.669660  0.078247  1
  Al  Al10  1  0.328937  0.165431  0.421943  1
  Al  Al11  1  0.164581  0.329162  0.921637  1
  Al  Al12  1  0.165381  0.835409  0.577063  1
  Al  Al13  1  0.328937  0.165431  0.078057  1
  Al  Al14  1  0.836494  0.165431  0.421943  1
  Al  Al15  1  0.670028  0.835409  0.922937  1
  Al  Al16  1  0.836495  0.165431  0.078057  1
  Al  Al17  1  0.165381  0.835409  0.922937  1
  Al  Al18  1  0.437120  0.874240  0.750000  1
  Al  Al19  1  0.873035  0.433733  0.249999  1
  Al  Al20  1  0.127464  0.564264  0.750001  1
  Al  Al21  1  0.560696  0.433733  0.249999  1
  Al  Al22  1  0.436801  0.564264  0.750001  1
  Al  Al23  1  0.999978  0.999958  0.249999  1
  Al  Al24  1  0.000442  0.000885  0.750001  1
  Si  Si25  1  0.332599  0.665199  0.037743  1
  Si  Si26  1  0.667154  0.334306  0.960947  1
  Si  Si27  1  0.667154  0.334307  0.539053  1
  Si  Si28  1  0.332599  0.665197  0.462257  1
  Si  Si29  1  0.563771  0.127543  0.250000  1
  Os  Os30  1  0.500720  0.001438  0.006249  1
  Os  Os31  1  0.999039  0.498981  0.000531  1
  Os  Os32  1  0.500720  0.001439  0.493750  1
  Os  Os33  1  0.499942  0.498981  0.000531  1
  Os  Os34  1  0.999038  0.498982  0.499471  1
  Os  Os35  1  0.499944  0.498982  0.499471  1
  Os  Os36  1  0.999594  0.999188  0.000026  1
  Os  Os37  1  0.999594  0.999189  0.499974  1
