# generated using pymatgen
data_Ho4Tc7Mo
_symmetry_space_group_name_H-M   'P 1'
_cell_length_a   5.41490100
_cell_length_b   5.41490140
_cell_length_c   8.80598200
_cell_angle_alpha   90.00000000
_cell_angle_beta   90.00000000
_cell_angle_gamma   120.00000366
_symmetry_Int_Tables_number   1
_chemical_formula_structural   Ho4Tc7Mo
_chemical_formula_sum   'Ho4 Tc7 Mo1'
_cell_volume   223.60910486
_cell_formula_units_Z   1
loop_
 _symmetry_equiv_pos_site_id
 _symmetry_equiv_pos_as_xyz
  1  'x, y, z'
loop_
 _atom_site_type_symbol
 _atom_site_label
 _atom_site_symmetry_multiplicity
 _atom_site_fract_x
 _atom_site_fract_y
 _atom_site_fract_z
 _atom_site_occupancy
  Ho  Ho0  1  0.333333  0.666667  0.434745  1
  Ho  Ho1  1  0.666667  0.333333  0.565255  1
  Ho  Ho2  1  0.666667  0.333333  0.937574  1
  Ho  Ho3  1  0.333333  0.666667  0.062426  1
  Tc  Tc4  1  0.000000  0.000000  0.000000  1
  Tc  Tc5  1  0.828181  0.171819  0.250560  1
  Tc  Tc6  1  0.828181  0.656363  0.250560  1
  Tc  Tc7  1  0.343637  0.171819  0.250560  1
  Tc  Tc8  1  0.171819  0.828181  0.749440  1
  Tc  Tc9  1  0.171819  0.343637  0.749440  1
  Tc  Tc10  1  0.656363  0.828181  0.749440  1
  Mo  Mo11  1  0.000000  0.000000  0.500000  1
