# generated using pymatgen
data_KRb3Ir2O9
_symmetry_space_group_name_H-M   'P 1'
_cell_length_a   6.40419319
_cell_length_b   6.40419338
_cell_length_c   15.49243485
_cell_angle_alpha   89.24946479
_cell_angle_beta   89.24946776
_cell_angle_gamma   119.66883405
_symmetry_Int_Tables_number   1
_chemical_formula_structural   KRb3Ir2O9
_chemical_formula_sum   'K2 Rb6 Ir4 O18'
_cell_volume   551.91370431
_cell_formula_units_Z   2
loop_
 _symmetry_equiv_pos_site_id
 _symmetry_equiv_pos_as_xyz
  1  'x, y, z'
loop_
 _atom_site_type_symbol
 _atom_site_label
 _atom_site_symmetry_multiplicity
 _atom_site_fract_x
 _atom_site_fract_y
 _atom_site_fract_z
 _atom_site_occupancy
  K  K0  1  0.000000  0.000000  0.000000  1
  K  K1  1  0.000000  0.000000  0.500000  1
  Rb  Rb2  1  0.989348  0.010652  0.250000  1
  Rb  Rb3  1  0.010652  0.989348  0.750000  1
  Rb  Rb4  1  0.320152  0.656063  0.103383  1
  Rb  Rb5  1  0.679848  0.343937  0.896617  1
  Rb  Rb6  1  0.656063  0.320152  0.603383  1
  Rb  Rb7  1  0.343937  0.679848  0.396617  1
  Ir  Ir8  1  0.686407  0.355301  0.341853  1
  Ir  Ir9  1  0.313593  0.644699  0.658147  1
  Ir  Ir10  1  0.355301  0.686407  0.841853  1
  Ir  Ir11  1  0.644699  0.313593  0.158147  1
  O  O12  1  0.657215  0.845626  0.887854  1
  O  O13  1  0.535182  0.464818  0.250000  1
  O  O14  1  0.152607  0.773426  0.600142  1
  O  O15  1  0.538105  0.076657  0.260540  1
  O  O16  1  0.226574  0.847393  0.899858  1
  O  O17  1  0.923343  0.461895  0.239460  1
  O  O18  1  0.342785  0.154374  0.112146  1
  O  O19  1  0.847393  0.226574  0.399858  1
  O  O20  1  0.461895  0.923343  0.739460  1
  O  O21  1  0.464818  0.535182  0.750000  1
  O  O22  1  0.845626  0.657215  0.387854  1
  O  O23  1  0.770928  0.583168  0.087086  1
  O  O24  1  0.583168  0.770928  0.587086  1
  O  O25  1  0.229072  0.416832  0.912914  1
  O  O26  1  0.076657  0.538105  0.760540  1
  O  O27  1  0.416832  0.229072  0.412914  1
  O  O28  1  0.154374  0.342785  0.612146  1
  O  O29  1  0.773426  0.152607  0.100142  1
