# generated using pymatgen
data_Y4Ho4Si12Ir3Rh
_symmetry_space_group_name_H-M   'P 1'
_cell_length_a   8.16345780
_cell_length_b   8.16971981
_cell_length_c   7.92213000
_cell_angle_alpha   89.99993365
_cell_angle_beta   90.00244299
_cell_angle_gamma   120.02534264
_symmetry_Int_Tables_number   1
_chemical_formula_structural   Y4Ho4Si12Ir3Rh
_chemical_formula_sum   'Y4 Ho4 Si12 Ir3 Rh1'
_cell_volume   457.44928003
_cell_formula_units_Z   1
loop_
 _symmetry_equiv_pos_site_id
 _symmetry_equiv_pos_as_xyz
  1  'x, y, z'
loop_
 _atom_site_type_symbol
 _atom_site_label
 _atom_site_symmetry_multiplicity
 _atom_site_fract_x
 _atom_site_fract_y
 _atom_site_fract_z
 _atom_site_occupancy
  Y  Y0  1  0.999968  0.999983  0.248746  1
  Y  Y1  1  0.999986  0.999995  0.750391  1
  Y  Y2  1  0.510137  0.490010  0.250148  1
  Y  Y3  1  0.510137  0.020128  0.250145  1
  Ho  Ho4  1  0.980557  0.490279  0.250235  1
  Ho  Ho5  1  0.490680  0.509368  0.749852  1
  Ho  Ho6  1  0.490680  0.981312  0.749853  1
  Ho  Ho7  1  0.018747  0.509374  0.749857  1
  Si  Si8  1  0.166892  0.832892  0.499058  1
  Si  Si9  1  0.166892  0.334001  0.499058  1
  Si  Si10  1  0.665888  0.832944  0.499311  1
  Si  Si11  1  0.833189  0.167110  0.501133  1
  Si  Si12  1  0.833189  0.666079  0.501133  1
  Si  Si13  1  0.333895  0.166947  0.501519  1
  Si  Si14  1  0.833314  0.166999  0.999001  1
  Si  Si15  1  0.833313  0.666315  0.999001  1
  Si  Si16  1  0.333636  0.166818  0.998622  1
  Si  Si17  1  0.167337  0.832420  0.999673  1
  Si  Si18  1  0.167337  0.334918  0.999673  1
  Si  Si19  1  0.665030  0.832515  0.999402  1
  Ir  Ir20  1  0.332558  0.666278  0.469741  1
  Ir  Ir21  1  0.667158  0.333579  0.534967  1
  Ir  Ir22  1  0.667132  0.333566  0.963580  1
  Rh  Rh23  1  0.332347  0.666173  0.035904  1
