# generated using pymatgen
data_LiHo3Ag2Pb3
_symmetry_space_group_name_H-M   'P 1'
_cell_length_a   7.43400125
_cell_length_b   7.43400003
_cell_length_c   4.61078200
_cell_angle_alpha   90.00000000
_cell_angle_beta   90.00000000
_cell_angle_gamma   120.46269742
_symmetry_Int_Tables_number   1
_chemical_formula_structural   LiHo3Ag2Pb3
_chemical_formula_sum   'Li1 Ho3 Ag2 Pb3'
_cell_volume   219.63755158
_cell_formula_units_Z   1
loop_
 _symmetry_equiv_pos_site_id
 _symmetry_equiv_pos_as_xyz
  1  'x, y, z'
loop_
 _atom_site_type_symbol
 _atom_site_label
 _atom_site_symmetry_multiplicity
 _atom_site_fract_x
 _atom_site_fract_y
 _atom_site_fract_z
 _atom_site_occupancy
  Li  Li0  1  0.770622  0.770622  0.000000  1
  Ho  Ho1  1  0.562710  0.004817  0.500000  1
  Ho  Ho2  1  0.420896  0.420896  0.500000  1
  Ho  Ho3  1  0.004817  0.562710  0.500000  1
  Ag  Ag4  1  0.999248  0.241657  0.000000  1
  Ag  Ag5  1  0.241657  0.999248  0.000000  1
  Pb  Pb6  1  0.981977  0.981977  0.500000  1
  Pb  Pb7  1  0.348237  0.669835  0.000000  1
  Pb  Pb8  1  0.669835  0.348237  0.000000  1
