# generated using pymatgen
data_Ba3Tb2IrO9
_symmetry_space_group_name_H-M   'P 1'
_cell_length_a   6.11369600
_cell_length_b   6.11369596
_cell_length_c   7.45544300
_cell_angle_alpha   90.00000000
_cell_angle_beta   90.00000000
_cell_angle_gamma   120.00000022
_symmetry_Int_Tables_number   1
_chemical_formula_structural   Ba3Tb2IrO9
_chemical_formula_sum   'Ba3 Tb2 Ir1 O9'
_cell_volume   241.33024945
_cell_formula_units_Z   1
loop_
 _symmetry_equiv_pos_site_id
 _symmetry_equiv_pos_as_xyz
  1  'x, y, z'
loop_
 _atom_site_type_symbol
 _atom_site_label
 _atom_site_symmetry_multiplicity
 _atom_site_fract_x
 _atom_site_fract_y
 _atom_site_fract_z
 _atom_site_occupancy
  Ba  Ba0  1  0.000000  0.000000  0.500000  1
  Ba  Ba1  1  0.666667  0.333333  0.817687  1
  Ba  Ba2  1  0.333333  0.666667  0.182313  1
  Tb  Tb3  1  0.666667  0.333333  0.328466  1
  Tb  Tb4  1  0.333333  0.666667  0.671534  1
  Ir  Ir5  1  0.000000  0.000000  0.000000  1
  O  O6  1  0.695589  0.847795  0.850248  1
  O  O7  1  0.304411  0.152205  0.149752  1
  O  O8  1  0.000000  0.500000  0.500000  1
  O  O9  1  0.500000  0.000000  0.500000  1
  O  O10  1  0.152205  0.304411  0.850248  1
  O  O11  1  0.847795  0.695589  0.149752  1
  O  O12  1  0.500000  0.500000  0.500000  1
  O  O13  1  0.152205  0.847795  0.850248  1
  O  O14  1  0.847795  0.152205  0.149752  1
