# generated using pymatgen
data_Tm12InFe2AgIr
_symmetry_space_group_name_H-M   'P 1'
_cell_length_a   8.23961595
_cell_length_b   8.23961587
_cell_length_c   8.23961648
_cell_angle_alpha   110.30611814
_cell_angle_beta   106.67149394
_cell_angle_gamma   111.47407815
_symmetry_Int_Tables_number   1
_chemical_formula_structural   Tm12InFe2AgIr
_chemical_formula_sum   'Tm12 In1 Fe2 Ag1 Ir1'
_cell_volume   429.81133623
_cell_formula_units_Z   1
loop_
 _symmetry_equiv_pos_site_id
 _symmetry_equiv_pos_as_xyz
  1  'x, y, z'
loop_
 _atom_site_type_symbol
 _atom_site_label
 _atom_site_symmetry_multiplicity
 _atom_site_fract_x
 _atom_site_fract_y
 _atom_site_fract_z
 _atom_site_occupancy
  Tm  Tm0  1  0.193806  0.445737  0.251931  1
  Tm  Tm1  1  0.806194  0.554263  0.748069  1
  Tm  Tm2  1  0.193806  0.941875  0.748069  1
  Tm  Tm3  1  0.960819  0.191299  0.769518  1
  Tm  Tm4  1  0.806194  0.058125  0.251931  1
  Tm  Tm5  1  0.039181  0.808701  0.230482  1
  Tm  Tm6  1  0.421781  0.191299  0.230482  1
  Tm  Tm7  1  0.578219  0.808701  0.769518  1
  Tm  Tm8  1  0.310123  0.308979  0.619103  1
  Tm  Tm9  1  0.689877  0.691021  0.380897  1
  Tm  Tm10  1  0.689877  0.308979  0.998856  1
  Tm  Tm11  1  0.310123  0.691021  0.001144  1
  In  In12  1  0.500000  0.000000  0.500000  1
  Fe  Fe13  1  0.382959  0.382959  0.000000  1
  Fe  Fe14  1  0.617041  0.617041  0.000000  1
  Ag  Ag15  1  0.000000  0.500000  0.500000  1
  Ir  Ir16  1  0.000000  0.000000  0.000000  1
