# generated using pymatgen
data_Cs3Ba(USe3)2
_symmetry_space_group_name_H-M   'P 1'
_cell_length_a   7.76889876
_cell_length_b   7.76889898
_cell_length_c   8.81496382
_cell_angle_alpha   81.50070828
_cell_angle_beta   81.50070121
_cell_angle_gamma   119.95591246
_symmetry_Int_Tables_number   1
_chemical_formula_structural   Cs3Ba(USe3)2
_chemical_formula_sum   'Cs3 Ba1 U2 Se6'
_cell_volume   440.38899981
_cell_formula_units_Z   1
loop_
 _symmetry_equiv_pos_site_id
 _symmetry_equiv_pos_as_xyz
  1  'x, y, z'
loop_
 _atom_site_type_symbol
 _atom_site_label
 _atom_site_symmetry_multiplicity
 _atom_site_fract_x
 _atom_site_fract_y
 _atom_site_fract_z
 _atom_site_occupancy
  Cs  Cs0  1  0.657122  0.342878  0.500000  1
  Cs  Cs1  1  0.342878  0.657122  0.500000  1
  Cs  Cs2  1  0.000000  0.000000  0.500000  1
  Ba  Ba3  1  0.500000  0.500000  0.000000  1
  U  U4  1  0.832452  0.167548  0.000000  1
  U  U5  1  0.167548  0.832452  0.000000  1
  Se  Se6  1  0.804657  0.804657  0.187241  1
  Se  Se7  1  0.195343  0.195343  0.812759  1
  Se  Se8  1  0.435257  0.067389  0.191573  1
  Se  Se9  1  0.564743  0.932611  0.808427  1
  Se  Se10  1  0.932611  0.564743  0.808427  1
  Se  Se11  1  0.067389  0.435257  0.191573  1
