# generated using pymatgen
data_Ga6CoNi3
_symmetry_space_group_name_H-M   'P 1'
_cell_length_a   4.06806700
_cell_length_b   4.06806607
_cell_length_c   9.79807700
_cell_angle_alpha   90.00000000
_cell_angle_beta   90.00000000
_cell_angle_gamma   120.00001572
_symmetry_Int_Tables_number   1
_chemical_formula_structural   Ga6CoNi3
_chemical_formula_sum   'Ga6 Co1 Ni3'
_cell_volume   140.42599359
_cell_formula_units_Z   1
loop_
 _symmetry_equiv_pos_site_id
 _symmetry_equiv_pos_as_xyz
  1  'x, y, z'
loop_
 _atom_site_type_symbol
 _atom_site_label
 _atom_site_symmetry_multiplicity
 _atom_site_fract_x
 _atom_site_fract_y
 _atom_site_fract_z
 _atom_site_occupancy
  Ga  Ga0  1  0.666667  0.333333  0.183393  1
  Ga  Ga1  1  0.666667  0.333333  0.678595  1
  Ga  Ga2  1  0.000000  0.000000  0.321680  1
  Ga  Ga3  1  0.000000  0.000000  0.819902  1
  Ga  Ga4  1  0.333333  0.666667  0.001797  1
  Ga  Ga5  1  0.333333  0.666667  0.490689  1
  Co  Co6  1  0.666667  0.333333  0.429969  1
  Ni  Ni7  1  0.666667  0.333333  0.930707  1
  Ni  Ni8  1  0.000000  0.000000  0.070493  1
  Ni  Ni9  1  0.000000  0.000000  0.572775  1
