# generated using pymatgen
data_Ho3Er7(Bi2Os)2
_symmetry_space_group_name_H-M   'P 1'
_cell_length_a   7.90563808
_cell_length_b   8.99794800
_cell_length_c   12.46242813
_cell_angle_alpha   90.00000000
_cell_angle_beta   89.98336113
_cell_angle_gamma   90.00000000
_symmetry_Int_Tables_number   1
_chemical_formula_structural   Ho3Er7(Bi2Os)2
_chemical_formula_sum   'Ho6 Er14 Bi8 Os4'
_cell_volume   886.50881052
_cell_formula_units_Z   2
loop_
 _symmetry_equiv_pos_site_id
 _symmetry_equiv_pos_as_xyz
  1  'x, y, z'
loop_
 _atom_site_type_symbol
 _atom_site_label
 _atom_site_symmetry_multiplicity
 _atom_site_fract_x
 _atom_site_fract_y
 _atom_site_fract_z
 _atom_site_occupancy
  Ho  Ho0  1  0.662822  0.750000  0.708770  1
  Ho  Ho1  1  0.337178  0.250000  0.291230  1
  Ho  Ho2  1  0.162880  0.250000  0.791158  1
  Ho  Ho3  1  0.837120  0.750000  0.208842  1
  Ho  Ho4  1  0.128665  0.750000  0.811958  1
  Ho  Ho5  1  0.871335  0.250000  0.188042  1
  Er  Er6  1  0.628401  0.250000  0.687740  1
  Er  Er7  1  0.371599  0.750000  0.312260  1
  Er  Er8  1  0.557838  0.750000  0.995036  1
  Er  Er9  1  0.442162  0.250000  0.004964  1
  Er  Er10  1  0.058049  0.250000  0.504940  1
  Er  Er11  1  0.941951  0.750000  0.495060  1
  Er  Er12  1  0.828284  0.458609  0.933751  1
  Er  Er13  1  0.171716  0.541391  0.066249  1
  Er  Er14  1  0.328547  0.541231  0.566068  1
  Er  Er15  1  0.171716  0.958609  0.066249  1
  Er  Er16  1  0.671453  0.458769  0.433932  1
  Er  Er17  1  0.828284  0.041391  0.933751  1
  Er  Er18  1  0.671453  0.041231  0.433932  1
  Er  Er19  1  0.328547  0.958769  0.566068  1
  Bi  Bi20  1  0.937433  0.005187  0.672247  1
  Bi  Bi21  1  0.062567  0.994813  0.327753  1
  Bi  Bi22  1  0.437812  0.995117  0.827700  1
  Bi  Bi23  1  0.062567  0.505187  0.327753  1
  Bi  Bi24  1  0.562188  0.004883  0.172300  1
  Bi  Bi25  1  0.937433  0.494813  0.672247  1
  Bi  Bi26  1  0.562188  0.495117  0.172300  1
  Bi  Bi27  1  0.437812  0.504883  0.827700  1
  Os  Os28  1  0.925529  0.750000  0.991688  1
  Os  Os29  1  0.074471  0.250000  0.008312  1
  Os  Os30  1  0.425768  0.250000  0.508522  1
  Os  Os31  1  0.574232  0.750000  0.491478  1
