# generated using pymatgen
data_Si12P12OsRh3
_symmetry_space_group_name_H-M   'P 1'
_cell_length_a   5.88897676
_cell_length_b   6.12620913
_cell_length_c   13.08693874
_cell_angle_alpha   90.10815546
_cell_angle_beta   89.99027013
_cell_angle_gamma   89.96952637
_symmetry_Int_Tables_number   1
_chemical_formula_structural   Si12P12OsRh3
_chemical_formula_sum   'Si12 P12 Os1 Rh3'
_cell_volume   472.13792504
_cell_formula_units_Z   1
loop_
 _symmetry_equiv_pos_site_id
 _symmetry_equiv_pos_as_xyz
  1  'x, y, z'
loop_
 _atom_site_type_symbol
 _atom_site_label
 _atom_site_symmetry_multiplicity
 _atom_site_fract_x
 _atom_site_fract_y
 _atom_site_fract_z
 _atom_site_occupancy
  Si  Si0  1  0.969849  0.160547  0.318437  1
  Si  Si1  1  0.468641  0.838774  0.681088  1
  Si  Si2  1  0.931133  0.626563  0.215764  1
  Si  Si3  1  0.431005  0.372902  0.785946  1
  Si  Si4  1  0.342209  0.913066  0.950760  1
  Si  Si5  1  0.843899  0.089657  0.048538  1
  Si  Si6  1  0.915461  0.529918  0.672931  1
  Si  Si7  1  0.412523  0.470991  0.327136  1
  Si  Si8  1  0.997934  0.063069  0.569592  1
  Si  Si9  1  0.496764  0.936522  0.429016  1
  Si  Si10  1  0.911916  0.627643  0.927541  1
  Si  Si11  1  0.409885  0.373528  0.073263  1
  P  P12  1  0.577638  0.028782  0.825016  1
  P  P13  1  0.076768  0.971313  0.174442  1
  P  P14  1  0.519163  0.560399  0.930550  1
  P  P15  1  0.018131  0.440906  0.069922  1
  P  P16  1  0.609474  0.113070  0.572960  1
  P  P17  1  0.110162  0.883796  0.425688  1
  P  P18  1  0.542717  0.642886  0.181222  1
  P  P19  1  0.043105  0.357340  0.818474  1
  P  P20  1  0.579440  0.131000  0.289164  1
  P  P21  1  0.079164  0.867924  0.709508  1
  P  P22  1  0.152111  0.404330  0.552312  1
  P  P23  1  0.656204  0.596363  0.447535  1
  Os  Os24  1  0.031423  0.515724  0.383206  1
  Rh  Rh25  1  0.965776  0.988505  0.878489  1
  Rh  Rh26  1  0.465504  0.011247  0.121416  1
  Rh  Rh27  1  0.535802  0.483234  0.620086  1
