# generated using pymatgen
data_NiHgPtO4
_symmetry_space_group_name_H-M   'P 1'
_cell_length_a   6.33752924
_cell_length_b   6.33752895
_cell_length_c   6.21964200
_cell_angle_alpha   60.61344532
_cell_angle_beta   60.61344678
_cell_angle_gamma   60.52261097
_symmetry_Int_Tables_number   1
_chemical_formula_structural   NiHgPtO4
_chemical_formula_sum   'Ni2 Hg2 Pt2 O8'
_cell_volume   178.96699079
_cell_formula_units_Z   2
loop_
 _symmetry_equiv_pos_site_id
 _symmetry_equiv_pos_as_xyz
  1  'x, y, z'
loop_
 _atom_site_type_symbol
 _atom_site_label
 _atom_site_symmetry_multiplicity
 _atom_site_fract_x
 _atom_site_fract_y
 _atom_site_fract_z
 _atom_site_occupancy
  Ni  Ni0  1  0.624994  0.624994  0.125027  1
  Ni  Ni1  1  0.624995  0.624995  0.624984  1
  Hg  Hg2  1  0.025403  0.025403  0.974597  1
  Hg  Hg3  1  0.224640  0.224640  0.275358  1
  Pt  Pt4  1  0.624969  0.125068  0.624980  1
  Pt  Pt5  1  0.125068  0.624969  0.624980  1
  O  O6  1  0.388005  0.388005  0.403595  1
  O  O7  1  0.807341  0.392717  0.399971  1
  O  O8  1  0.392717  0.807341  0.399971  1
  O  O9  1  0.861987  0.861987  0.429589  1
  O  O10  1  0.388005  0.388005  0.820398  1
  O  O11  1  0.861986  0.861986  0.846437  1
  O  O12  1  0.857231  0.442662  0.850054  1
  O  O13  1  0.442662  0.857231  0.850054  1
