# generated using pymatgen
data_DyCdNi3Pt
_symmetry_space_group_name_H-M   'P 1'
_cell_length_a   5.01942116
_cell_length_b   5.01942199
_cell_length_c   5.13779411
_cell_angle_alpha   60.75925760
_cell_angle_beta   60.75925250
_cell_angle_gamma   60.00000175
_symmetry_Int_Tables_number   1
_chemical_formula_structural   DyCdNi3Pt
_chemical_formula_sum   'Dy1 Cd1 Ni3 Pt1'
_cell_volume   92.56757553
_cell_formula_units_Z   1
loop_
 _symmetry_equiv_pos_site_id
 _symmetry_equiv_pos_as_xyz
  1  'x, y, z'
loop_
 _atom_site_type_symbol
 _atom_site_label
 _atom_site_symmetry_multiplicity
 _atom_site_fract_x
 _atom_site_fract_y
 _atom_site_fract_z
 _atom_site_occupancy
  Dy  Dy0  1  0.248874  0.248874  0.253377  1
  Cd  Cd1  1  0.003735  0.003735  0.988796  1
  Ni  Ni2  1  0.625165  0.122137  0.627533  1
  Ni  Ni3  1  0.122137  0.625165  0.627533  1
  Ni  Ni4  1  0.625165  0.625165  0.627533  1
  Pt  Pt5  1  0.624924  0.624924  0.125230  1
