# generated using pymatgen
data_CsHf3ScO8
_symmetry_space_group_name_H-M   'P 1'
_cell_length_a   7.75023216
_cell_length_b   7.75023207
_cell_length_c   10.76730200
_cell_angle_alpha   46.89250017
_cell_angle_beta   46.89250081
_cell_angle_gamma   24.32751379
_symmetry_Int_Tables_number   1
_chemical_formula_structural   CsHf3ScO8
_chemical_formula_sum   'Cs1 Hf3 Sc1 O8'
_cell_volume   190.51316181
_cell_formula_units_Z   1
loop_
 _symmetry_equiv_pos_site_id
 _symmetry_equiv_pos_as_xyz
  1  'x, y, z'
loop_
 _atom_site_type_symbol
 _atom_site_label
 _atom_site_symmetry_multiplicity
 _atom_site_fract_x
 _atom_site_fract_y
 _atom_site_fract_z
 _atom_site_occupancy
  Cs  Cs0  1  0.498089  0.498089  0.998258  1
  Hf  Hf1  1  0.657798  0.657798  0.174908  1
  Hf  Hf2  1  0.159775  0.159775  0.492527  1
  Hf  Hf3  1  0.840623  0.840623  0.511390  1
  Sc  Sc4  1  0.347498  0.347498  0.814686  1
  O  O5  1  0.152456  0.152456  0.058434  1
  O  O6  1  0.840183  0.840183  0.953221  1
  O  O7  1  0.212559  0.212559  0.629344  1
  O  O8  1  0.788459  0.788459  0.369754  1
  O  O9  1  0.541947  0.541947  0.625815  1
  O  O10  1  0.460994  0.460994  0.372703  1
  O  O11  1  0.166689  0.166689  0.294250  1
  O  O12  1  0.832932  0.832932  0.704711  1
