# generated using pymatgen
data_K2YTa5O15
_symmetry_space_group_name_H-M   'P 1'
_cell_length_a   9.29109235
_cell_length_b   9.29109261
_cell_length_c   3.95399300
_cell_angle_alpha   90.00000000
_cell_angle_beta   90.00000000
_cell_angle_gamma   111.77617983
_symmetry_Int_Tables_number   1
_chemical_formula_structural   K2YTa5O15
_chemical_formula_sum   'K2 Y1 Ta5 O15'
_cell_volume   316.96909042
_cell_formula_units_Z   1
loop_
 _symmetry_equiv_pos_site_id
 _symmetry_equiv_pos_as_xyz
  1  'x, y, z'
loop_
 _atom_site_type_symbol
 _atom_site_label
 _atom_site_symmetry_multiplicity
 _atom_site_fract_x
 _atom_site_fract_y
 _atom_site_fract_z
 _atom_site_occupancy
  K  K0  1  0.300036  0.699964  0.000000  1
  K  K1  1  0.699964  0.300036  0.000000  1
  Y  Y2  1  0.000000  0.000000  0.000000  1
  Ta  Ta3  1  0.318641  0.059658  0.500000  1
  Ta  Ta4  1  0.059658  0.318641  0.500000  1
  Ta  Ta5  1  0.681359  0.940342  0.500000  1
  Ta  Ta6  1  0.940342  0.681359  0.500000  1
  Ta  Ta7  1  0.500000  0.500000  0.500000  1
  O  O8  1  0.128508  0.128508  0.500000  1
  O  O9  1  0.160409  0.839591  0.500000  1
  O  O10  1  0.273076  0.457661  0.500000  1
  O  O11  1  0.839591  0.160409  0.500000  1
  O  O12  1  0.871492  0.871492  0.500000  1
  O  O13  1  0.282377  0.048247  0.000000  1
  O  O14  1  0.717623  0.951753  0.000000  1
  O  O15  1  0.542339  0.726924  0.500000  1
  O  O16  1  0.048247  0.282377  0.000000  1
  O  O17  1  0.500000  0.000000  0.500000  1
  O  O18  1  0.457661  0.273076  0.500000  1
  O  O19  1  0.951753  0.717623  0.000000  1
  O  O20  1  0.500000  0.500000  0.000000  1
  O  O21  1  0.726924  0.542339  0.500000  1
  O  O22  1  0.000000  0.500000  0.500000  1
