# generated using pymatgen
data_Ho(ErSe2)3
_symmetry_space_group_name_H-M   'P 1'
_cell_length_a   7.03824887
_cell_length_b   7.03470927
_cell_length_c   12.83854318
_cell_angle_alpha   100.65690609
_cell_angle_beta   100.66748667
_cell_angle_gamma   108.95658105
_symmetry_Int_Tables_number   1
_chemical_formula_structural   Ho(ErSe2)3
_chemical_formula_sum   'Ho2 Er6 Se12'
_cell_volume   569.89091663
_cell_formula_units_Z   2
loop_
 _symmetry_equiv_pos_site_id
 _symmetry_equiv_pos_as_xyz
  1  'x, y, z'
loop_
 _atom_site_type_symbol
 _atom_site_label
 _atom_site_symmetry_multiplicity
 _atom_site_fract_x
 _atom_site_fract_y
 _atom_site_fract_z
 _atom_site_occupancy
  Ho  Ho0  1  0.041136  0.791130  0.082267  1
  Ho  Ho1  1  0.622402  0.872403  0.244808  1
  Er  Er2  1  0.127625  0.377616  0.255240  1
  Er  Er3  1  0.208784  0.958774  0.417587  1
  Er  Er4  1  0.791242  0.041254  0.582473  1
  Er  Er5  1  0.872436  0.622417  0.744830  1
  Er  Er6  1  0.377416  0.127403  0.754849  1
  Er  Er7  1  0.958626  0.208647  0.917304  1
  Se  Se8  1  0.804699  0.049987  0.087646  1
  Se  Se9  1  0.283131  0.537805  0.087689  1
  Se  Se10  1  0.367499  0.118488  0.250560  1
  Se  Se11  1  0.882929  0.632056  0.250491  1
  Se  Se12  1  0.952111  0.195877  0.412640  1
  Se  Se13  1  0.460463  0.716565  0.412583  1
  Se  Se14  1  0.539219  0.283218  0.587918  1
  Se  Se15  1  0.048609  0.804804  0.587834  1
  Se  Se16  1  0.117438  0.367386  0.750023  1
  Se  Se17  1  0.632649  0.882406  0.749891  1
  Se  Se18  1  0.716211  0.460190  0.911638  1
  Se  Se19  1  0.195375  0.951573  0.911730  1
