# generated using pymatgen
data_Er3Lu(Sc4Bi3)4
_symmetry_space_group_name_H-M   'P 1'
_cell_length_a   7.87567443
_cell_length_b   9.05654600
_cell_length_c   11.53813062
_cell_angle_alpha   90.00000000
_cell_angle_beta   90.03771425
_cell_angle_gamma   90.00000000
_symmetry_Int_Tables_number   1
_chemical_formula_structural   Er3Lu(Sc4Bi3)4
_chemical_formula_sum   'Er3 Lu1 Sc16 Bi12'
_cell_volume   822.97323105
_cell_formula_units_Z   1
loop_
 _symmetry_equiv_pos_site_id
 _symmetry_equiv_pos_as_xyz
  1  'x, y, z'
loop_
 _atom_site_type_symbol
 _atom_site_label
 _atom_site_symmetry_multiplicity
 _atom_site_fract_x
 _atom_site_fract_y
 _atom_site_fract_z
 _atom_site_occupancy
  Er  Er0  1  0.815007  0.250000  0.281967  1
  Er  Er1  1  0.684876  0.750000  0.781892  1
  Er  Er2  1  0.184889  0.750000  0.718040  1
  Lu  Lu3  1  0.314997  0.250000  0.217758  1
  Sc  Sc4  1  0.349371  0.750000  0.219874  1
  Sc  Sc5  1  0.849282  0.750000  0.280139  1
  Sc  Sc6  1  0.650658  0.250000  0.780059  1
  Sc  Sc7  1  0.150759  0.250000  0.719893  1
  Sc  Sc8  1  0.692799  0.568056  0.061432  1
  Sc  Sc9  1  0.192750  0.932039  0.438490  1
  Sc  Sc10  1  0.307206  0.068035  0.938658  1
  Sc  Sc11  1  0.807271  0.432012  0.561446  1
  Sc  Sc12  1  0.307206  0.431965  0.938658  1
  Sc  Sc13  1  0.807271  0.067988  0.561446  1
  Sc  Sc14  1  0.692799  0.931944  0.061432  1
  Sc  Sc15  1  0.192750  0.567961  0.438490  1
  Sc  Sc16  1  0.481635  0.250000  0.488809  1
  Sc  Sc17  1  0.982040  0.250000  0.011181  1
  Sc  Sc18  1  0.518203  0.750000  0.511011  1
  Sc  Sc19  1  0.018260  0.750000  0.989005  1
  Bi  Bi20  1  0.401670  0.750000  0.965423  1
  Bi  Bi21  1  0.901604  0.750000  0.534614  1
  Bi  Bi22  1  0.597759  0.250000  0.035105  1
  Bi  Bi23  1  0.098605  0.250000  0.465210  1
  Bi  Bi24  1  0.563208  0.991219  0.327327  1
  Bi  Bi25  1  0.064076  0.508627  0.172595  1
  Bi  Bi26  1  0.436455  0.490919  0.672542  1
  Bi  Bi27  1  0.936427  0.009068  0.827519  1
  Bi  Bi28  1  0.436455  0.009081  0.672542  1
  Bi  Bi29  1  0.936427  0.490932  0.827519  1
  Bi  Bi30  1  0.563208  0.508781  0.327327  1
  Bi  Bi31  1  0.064076  0.991373  0.172595  1
