# generated using pymatgen
data_Pr10Tl2GaSi3
_symmetry_space_group_name_H-M   'P 1'
_cell_length_a   8.06122427
_cell_length_b   8.06122512
_cell_length_c   9.25724300
_cell_angle_alpha   115.69704599
_cell_angle_beta   115.69704889
_cell_angle_gamma   90.23534361
_symmetry_Int_Tables_number   1
_chemical_formula_structural   Pr10Tl2GaSi3
_chemical_formula_sum   'Pr10 Tl2 Ga1 Si3'
_cell_volume   474.58941623
_cell_formula_units_Z   1
loop_
 _symmetry_equiv_pos_site_id
 _symmetry_equiv_pos_as_xyz
  1  'x, y, z'
loop_
 _atom_site_type_symbol
 _atom_site_label
 _atom_site_symmetry_multiplicity
 _atom_site_fract_x
 _atom_site_fract_y
 _atom_site_fract_z
 _atom_site_occupancy
  Pr  Pr0  1  0.497354  0.497712  0.000000  1
  Pr  Pr1  1  0.002288  0.002646  0.000000  1
  Pr  Pr2  1  0.973775  0.809720  0.283495  1
  Pr  Pr3  1  0.312319  0.468996  0.281316  1
  Pr  Pr4  1  0.813289  0.316589  0.278914  1
  Pr  Pr5  1  0.462324  0.965624  0.278914  1
  Pr  Pr6  1  0.031004  0.187681  0.718684  1
  Pr  Pr7  1  0.690280  0.526225  0.716505  1
  Pr  Pr8  1  0.183411  0.686711  0.721086  1
  Pr  Pr9  1  0.534376  0.037676  0.721086  1
  Tl  Tl10  1  0.748657  0.751343  0.500000  1
  Tl  Tl11  1  0.248657  0.251343  0.500000  1
  Ga  Ga12  1  0.622511  0.877489  0.000000  1
  Si  Si13  1  0.379184  0.120816  0.000000  1
  Si  Si14  1  0.883050  0.382480  0.000000  1
  Si  Si15  1  0.117520  0.616950  0.000000  1
