# generated using pymatgen
data_YLu3Al18Rh5Au
_symmetry_space_group_name_H-M   'P 1'
_cell_length_a   7.56063886
_cell_length_b   7.56275250
_cell_length_c   9.41388258
_cell_angle_alpha   89.92901229
_cell_angle_beta   89.97744760
_cell_angle_gamma   119.38724026
_symmetry_Int_Tables_number   1
_chemical_formula_structural   YLu3Al18Rh5Au
_chemical_formula_sum   'Y1 Lu3 Al18 Rh5 Au1'
_cell_volume   469.01396431
_cell_formula_units_Z   1
loop_
 _symmetry_equiv_pos_site_id
 _symmetry_equiv_pos_as_xyz
  1  'x, y, z'
loop_
 _atom_site_type_symbol
 _atom_site_label
 _atom_site_symmetry_multiplicity
 _atom_site_fract_x
 _atom_site_fract_y
 _atom_site_fract_z
 _atom_site_occupancy
  Y  Y0  1  0.995698  0.676189  0.250538  1
  Lu  Lu1  1  0.003925  0.322591  0.749022  1
  Lu  Lu2  1  0.676163  0.996017  0.251358  1
  Lu  Lu3  1  0.323086  0.004169  0.749122  1
  Al  Al4  1  0.136705  0.137561  0.257049  1
  Al  Al5  1  0.862854  0.863405  0.743297  1
  Al  Al6  1  0.001191  0.344030  0.079261  1
  Al  Al7  1  0.999275  0.654186  0.917230  1
  Al  Al8  1  0.001259  0.663065  0.577500  1
  Al  Al9  1  0.337761  0.000250  0.425585  1
  Al  Al10  1  0.999166  0.336046  0.425670  1
  Al  Al11  1  0.662919  0.001308  0.576162  1
  Al  Al12  1  0.654746  0.999269  0.918689  1
  Al  Al13  1  0.346539  0.001921  0.079630  1
  Al  Al14  1  0.332348  0.332536  0.553033  1
  Al  Al15  1  0.667074  0.667948  0.450156  1
  Al  Al16  1  0.658213  0.659046  0.055783  1
  Al  Al17  1  0.340855  0.340839  0.941151  1
  Al  Al18  1  0.341629  0.554019  0.251346  1
  Al  Al19  1  0.659142  0.445468  0.748595  1
  Al  Al20  1  0.552790  0.339466  0.251329  1
  Al  Al21  1  0.445295  0.659784  0.748606  1
  Rh  Rh22  1  0.672524  0.327542  0.999547  1
  Rh  Rh23  1  0.327604  0.672215  0.999665  1
  Rh  Rh24  1  0.327660  0.672532  0.500127  1
  Rh  Rh25  1  0.672694  0.327796  0.500416  1
  Rh  Rh26  1  0.000722  0.001197  0.500973  1
  Au  Au27  1  0.000163  0.999604  0.999162  1
