# generated using pymatgen
data_La8YbEr11Si16
_symmetry_space_group_name_H-M   'P 1'
_cell_length_a   7.78250161
_cell_length_b   7.78250141
_cell_length_c   14.37581500
_cell_angle_alpha   90.02260174
_cell_angle_beta   89.97739826
_cell_angle_gamma   89.97392489
_symmetry_Int_Tables_number   1
_chemical_formula_structural   La8YbEr11Si16
_chemical_formula_sum   'La8 Yb1 Er11 Si16'
_cell_volume   870.70450158
_cell_formula_units_Z   1
loop_
 _symmetry_equiv_pos_site_id
 _symmetry_equiv_pos_as_xyz
  1  'x, y, z'
loop_
 _atom_site_type_symbol
 _atom_site_label
 _atom_site_symmetry_multiplicity
 _atom_site_fract_x
 _atom_site_fract_y
 _atom_site_fract_z
 _atom_site_occupancy
  La  La0  1  0.990465  0.639640  0.041903  1
  La  La1  1  0.011646  0.359685  0.541357  1
  La  La2  1  0.639640  0.990465  0.958097  1
  La  La3  1  0.139745  0.509974  0.792167  1
  La  La4  1  0.858423  0.489234  0.291233  1
  La  La5  1  0.509974  0.139745  0.207833  1
  La  La6  1  0.489234  0.858423  0.708767  1
  La  La7  1  0.359685  0.011646  0.458643  1
  Yb  Yb8  1  0.316420  0.316420  0.000000  1
  Er  Er9  1  0.362516  0.491462  0.376330  1
  Er  Er10  1  0.860914  0.007826  0.374478  1
  Er  Er11  1  0.994439  0.136383  0.124344  1
  Er  Er12  1  0.007826  0.860914  0.625522  1
  Er  Er13  1  0.636647  0.506879  0.875275  1
  Er  Er14  1  0.491462  0.362516  0.623670  1
  Er  Er15  1  0.506879  0.636647  0.124725  1
  Er  Er16  1  0.136383  0.994439  0.875656  1
  Er  Er17  1  0.683909  0.683909  0.500000  1
  Er  Er18  1  0.817094  0.185888  0.749020  1
  Er  Er19  1  0.185888  0.817094  0.250980  1
  Si  Si20  1  0.065661  0.713386  0.437791  1
  Si  Si21  1  0.925066  0.286944  0.936614  1
  Si  Si22  1  0.713386  0.065661  0.562209  1
  Si  Si23  1  0.211482  0.435257  0.191677  1
  Si  Si24  1  0.787008  0.565883  0.687981  1
  Si  Si25  1  0.435257  0.211482  0.808323  1
  Si  Si26  1  0.565883  0.787008  0.312019  1
  Si  Si27  1  0.286944  0.925066  0.063386  1
  Si  Si28  1  0.846522  0.797488  0.808748  1
  Si  Si29  1  0.154129  0.202187  0.308220  1
  Si  Si30  1  0.797488  0.846522  0.191252  1
  Si  Si31  1  0.296701  0.653820  0.558984  1
  Si  Si32  1  0.710526  0.348753  0.061264  1
  Si  Si33  1  0.653820  0.296701  0.441016  1
  Si  Si34  1  0.348753  0.710526  0.938736  1
  Si  Si35  1  0.202187  0.154129  0.691780  1
