# generated using pymatgen
data_TbHo2Al3Ga2Ni
_symmetry_space_group_name_H-M   'P 1'
_cell_length_a   6.90871281
_cell_length_b   6.89318447
_cell_length_c   4.26425900
_cell_angle_alpha   90.00000000
_cell_angle_beta   90.00000000
_cell_angle_gamma   119.92568178
_symmetry_Int_Tables_number   1
_chemical_formula_structural   TbHo2Al3Ga2Ni
_chemical_formula_sum   'Tb1 Ho2 Al3 Ga2 Ni1'
_cell_volume   176.00134821
_cell_formula_units_Z   1
loop_
 _symmetry_equiv_pos_site_id
 _symmetry_equiv_pos_as_xyz
  1  'x, y, z'
loop_
 _atom_site_type_symbol
 _atom_site_label
 _atom_site_symmetry_multiplicity
 _atom_site_fract_x
 _atom_site_fract_y
 _atom_site_fract_z
 _atom_site_occupancy
  Tb  Tb0  1  0.000000  0.591494  0.500000  1
  Ho  Ho1  1  0.592556  0.999763  0.500000  1
  Ho  Ho2  1  0.407444  0.407207  0.500000  1
  Al  Al3  1  0.232098  0.000549  0.000000  1
  Al  Al4  1  0.767902  0.768451  0.000000  1
  Al  Al5  1  0.000000  0.231388  0.000000  1
  Ga  Ga6  1  0.334572  0.667172  0.000000  1
  Ga  Ga7  1  0.665428  0.332599  0.000000  1
  Ni  Ni8  1  0.000000  0.001376  0.500000  1
