# generated using pymatgen
data_Na5Li3(SiS4)2
_symmetry_space_group_name_H-M   'P 1'
_cell_length_a   9.94497309
_cell_length_b   9.94497399
_cell_length_c   12.14652807
_cell_angle_alpha   52.89535420
_cell_angle_beta   52.89534864
_cell_angle_gamma   57.91215110
_symmetry_Int_Tables_number   1
_chemical_formula_structural   Na5Li3(SiS4)2
_chemical_formula_sum   'Na10 Li6 Si4 S16'
_cell_volume   737.21637943
_cell_formula_units_Z   2
loop_
 _symmetry_equiv_pos_site_id
 _symmetry_equiv_pos_as_xyz
  1  'x, y, z'
loop_
 _atom_site_type_symbol
 _atom_site_label
 _atom_site_symmetry_multiplicity
 _atom_site_fract_x
 _atom_site_fract_y
 _atom_site_fract_z
 _atom_site_occupancy
  Na  Na0  1  0.418821  0.385803  0.728205  1
  Na  Na1  1  0.014327  0.985673  0.250000  1
  Na  Na2  1  0.390977  0.899822  0.482512  1
  Na  Na3  1  0.609023  0.100178  0.517488  1
  Na  Na4  1  0.581179  0.614197  0.271795  1
  Na  Na5  1  0.985673  0.014327  0.750000  1
  Na  Na6  1  0.899822  0.390977  0.982512  1
  Na  Na7  1  0.100178  0.609023  0.017488  1
  Na  Na8  1  0.385803  0.418821  0.228205  1
  Na  Na9  1  0.614197  0.581179  0.771795  1
  Li  Li10  1  0.807392  0.817709  0.748761  1
  Li  Li11  1  0.182291  0.192608  0.751239  1
  Li  Li12  1  0.817709  0.807392  0.248761  1
  Li  Li13  1  0.500000  0.000000  0.000000  1
  Li  Li14  1  0.000000  0.500000  0.500000  1
  Li  Li15  1  0.192608  0.182291  0.251239  1
  Si  Si16  1  0.855195  0.318404  0.464366  1
  Si  Si17  1  0.144805  0.681596  0.535634  1
  Si  Si18  1  0.318404  0.855195  0.964366  1
  Si  Si19  1  0.681596  0.144805  0.035634  1
  S  S20  1  0.436571  0.295406  0.015093  1
  S  S21  1  0.129286  0.716412  0.162378  1
  S  S22  1  0.563429  0.704594  0.984907  1
  S  S23  1  0.753615  0.890823  0.049851  1
  S  S24  1  0.105440  0.662324  0.740905  1
  S  S25  1  0.704594  0.563429  0.484907  1
  S  S26  1  0.246385  0.109177  0.950149  1
  S  S27  1  0.283588  0.870714  0.337622  1
  S  S28  1  0.337676  0.894560  0.759095  1
  S  S29  1  0.662324  0.105440  0.240905  1
  S  S30  1  0.890823  0.753615  0.549851  1
  S  S31  1  0.109177  0.246385  0.450149  1
  S  S32  1  0.870714  0.283588  0.837622  1
  S  S33  1  0.716412  0.129286  0.662378  1
  S  S34  1  0.295406  0.436571  0.515093  1
  S  S35  1  0.894560  0.337676  0.259095  1
