# generated using pymatgen
data_Hf18CoMo8S
_symmetry_space_group_name_H-M   'P 1'
_cell_length_a   8.66229300
_cell_length_b   8.66229293
_cell_length_c   8.54273200
_cell_angle_alpha   90.00000000
_cell_angle_beta   90.00000000
_cell_angle_gamma   119.99999645
_symmetry_Int_Tables_number   1
_chemical_formula_structural   Hf18CoMo8S
_chemical_formula_sum   'Hf18 Co1 Mo8 S1'
_cell_volume   555.12804041
_cell_formula_units_Z   1
loop_
 _symmetry_equiv_pos_site_id
 _symmetry_equiv_pos_as_xyz
  1  'x, y, z'
loop_
 _atom_site_type_symbol
 _atom_site_label
 _atom_site_symmetry_multiplicity
 _atom_site_fract_x
 _atom_site_fract_y
 _atom_site_fract_z
 _atom_site_occupancy
  Hf  Hf0  1  0.202165  0.797835  0.442849  1
  Hf  Hf1  1  0.202165  0.404331  0.442849  1
  Hf  Hf2  1  0.595669  0.797835  0.442849  1
  Hf  Hf3  1  0.803303  0.196697  0.549734  1
  Hf  Hf4  1  0.803303  0.606604  0.549734  1
  Hf  Hf5  1  0.393396  0.196697  0.549734  1
  Hf  Hf6  1  0.803303  0.196697  0.950266  1
  Hf  Hf7  1  0.803303  0.606604  0.950266  1
  Hf  Hf8  1  0.393396  0.196697  0.950266  1
  Hf  Hf9  1  0.202165  0.797835  0.057151  1
  Hf  Hf10  1  0.202165  0.404331  0.057151  1
  Hf  Hf11  1  0.595669  0.797835  0.057151  1
  Hf  Hf12  1  0.541596  0.458404  0.250000  1
  Hf  Hf13  1  0.541596  0.083192  0.250000  1
  Hf  Hf14  1  0.916808  0.458404  0.250000  1
  Hf  Hf15  1  0.455707  0.544293  0.750000  1
  Hf  Hf16  1  0.455707  0.911414  0.750000  1
  Hf  Hf17  1  0.088586  0.544293  0.750000  1
  Co  Co18  1  0.333333  0.666667  0.250000  1
  Mo  Mo19  1  0.888148  0.111852  0.250000  1
  Mo  Mo20  1  0.888148  0.776294  0.250000  1
  Mo  Mo21  1  0.223706  0.111852  0.250000  1
  Mo  Mo22  1  0.111225  0.888775  0.750000  1
  Mo  Mo23  1  0.111225  0.222450  0.750000  1
  Mo  Mo24  1  0.777550  0.888775  0.750000  1
  Mo  Mo25  1  0.000000  0.000000  0.498269  1
  Mo  Mo26  1  0.000000  0.000000  0.001731  1
  S  S27  1  0.666667  0.333333  0.750000  1
