# generated using pymatgen
data_YbZn2CdAg2
_symmetry_space_group_name_H-M   'P 1'
_cell_length_a   5.43838341
_cell_length_b   5.35681149
_cell_length_c   5.43838250
_cell_angle_alpha   60.49495228
_cell_angle_beta   62.19109616
_cell_angle_gamma   60.49493817
_symmetry_Int_Tables_number   1
_chemical_formula_structural   YbZn2CdAg2
_chemical_formula_sum   'Yb1 Zn2 Cd1 Ag2'
_cell_volume   114.63804767
_cell_formula_units_Z   1
loop_
 _symmetry_equiv_pos_site_id
 _symmetry_equiv_pos_as_xyz
  1  'x, y, z'
loop_
 _atom_site_type_symbol
 _atom_site_label
 _atom_site_symmetry_multiplicity
 _atom_site_fract_x
 _atom_site_fract_y
 _atom_site_fract_z
 _atom_site_occupancy
  Yb  Yb0  1  0.751144  0.748856  0.751144  1
  Zn  Zn1  1  0.372161  0.878136  0.372161  1
  Zn  Zn2  1  0.372161  0.377541  0.372161  1
  Cd  Cd3  1  0.004456  0.995544  0.004456  1
  Ag  Ag4  1  0.875004  0.374961  0.375074  1
  Ag  Ag5  1  0.375074  0.374961  0.875004  1
