# generated using pymatgen
data_Dy8LuMg(Ni2Bi)2
_symmetry_space_group_name_H-M   'P 1'
_cell_length_a   8.81361520
_cell_length_b   8.81361576
_cell_length_c   8.81361523
_cell_angle_alpha   129.73711244
_cell_angle_beta   129.73712499
_cell_angle_gamma   73.82737124
_symmetry_Int_Tables_number   1
_chemical_formula_structural   Dy8LuMg(Ni2Bi)2
_chemical_formula_sum   'Dy8 Lu1 Mg1 Ni4 Bi2'
_cell_volume   394.92993677
_cell_formula_units_Z   1
loop_
 _symmetry_equiv_pos_site_id
 _symmetry_equiv_pos_as_xyz
  1  'x, y, z'
loop_
 _atom_site_type_symbol
 _atom_site_label
 _atom_site_symmetry_multiplicity
 _atom_site_fract_x
 _atom_site_fract_y
 _atom_site_fract_z
 _atom_site_occupancy
  Dy  Dy0  1  0.798736  0.283293  0.824913  1
  Dy  Dy1  1  0.201264  0.716707  0.175087  1
  Dy  Dy2  1  0.458379  0.973823  0.175087  1
  Dy  Dy3  1  0.283293  0.458379  0.484557  1
  Dy  Dy4  1  0.026177  0.201264  0.484557  1
  Dy  Dy5  1  0.541621  0.026177  0.824913  1
  Dy  Dy6  1  0.716707  0.541621  0.515443  1
  Dy  Dy7  1  0.973823  0.798736  0.515443  1
  Lu  Lu8  1  0.500000  0.500000  0.000000  1
  Mg  Mg9  1  0.000000  0.000000  0.000000  1
  Ni  Ni10  1  0.131533  0.624456  0.755988  1
  Ni  Ni11  1  0.868467  0.375544  0.244012  1
  Ni  Ni12  1  0.624456  0.868467  0.492924  1
  Ni  Ni13  1  0.375544  0.131533  0.507076  1
  Bi  Bi14  1  0.258997  0.258997  0.000000  1
  Bi  Bi15  1  0.741003  0.741003  0.000000  1
