# generated using pymatgen
data_MnHg2(P3Pd10)2
_symmetry_space_group_name_H-M   'P 1'
_cell_length_a   8.60562623
_cell_length_b   8.60562605
_cell_length_c   8.60562600
_cell_angle_alpha   60.00000019
_cell_angle_beta   60.00000089
_cell_angle_gamma   59.99999546
_symmetry_Int_Tables_number   1
_chemical_formula_structural   MnHg2(P3Pd10)2
_chemical_formula_sum   'Mn1 Hg2 P6 Pd20'
_cell_volume   450.64277061
_cell_formula_units_Z   1
loop_
 _symmetry_equiv_pos_site_id
 _symmetry_equiv_pos_as_xyz
  1  'x, y, z'
loop_
 _atom_site_type_symbol
 _atom_site_label
 _atom_site_symmetry_multiplicity
 _atom_site_fract_x
 _atom_site_fract_y
 _atom_site_fract_z
 _atom_site_occupancy
  Mn  Mn0  1  0.000000  0.000000  0.000000  1
  Hg  Hg1  1  0.250000  0.250000  0.250000  1
  Hg  Hg2  1  0.750000  0.750000  0.750000  1
  P  P3  1  0.734313  0.734313  0.265687  1
  P  P4  1  0.265687  0.265687  0.734313  1
  P  P5  1  0.265687  0.734313  0.734313  1
  P  P6  1  0.734313  0.265687  0.734313  1
  P  P7  1  0.265687  0.734313  0.265687  1
  P  P8  1  0.734313  0.265687  0.265687  1
  Pd  Pd9  1  0.616044  0.616044  0.616044  1
  Pd  Pd10  1  0.383956  0.848130  0.383956  1
  Pd  Pd11  1  0.659302  0.340698  0.000000  1
  Pd  Pd12  1  0.000000  0.340698  0.659302  1
  Pd  Pd13  1  0.659302  0.000000  0.000000  1
  Pd  Pd14  1  0.616044  0.616044  0.151870  1
  Pd  Pd15  1  0.000000  0.000000  0.659302  1
  Pd  Pd16  1  0.000000  0.340698  0.000000  1
  Pd  Pd17  1  0.659302  0.000000  0.340698  1
  Pd  Pd18  1  0.340698  0.000000  0.000000  1
  Pd  Pd19  1  0.000000  0.659302  0.000000  1
  Pd  Pd20  1  0.340698  0.000000  0.659302  1
  Pd  Pd21  1  0.000000  0.659302  0.340698  1
  Pd  Pd22  1  0.340698  0.659302  0.000000  1
  Pd  Pd23  1  0.151870  0.616044  0.616044  1
  Pd  Pd24  1  0.383956  0.383956  0.383956  1
  Pd  Pd25  1  0.848130  0.383956  0.383956  1
  Pd  Pd26  1  0.383956  0.383956  0.848130  1
  Pd  Pd27  1  0.616044  0.151870  0.616044  1
  Pd  Pd28  1  0.000000  0.000000  0.340698  1
