# generated using pymatgen
data_Tm4Mg4Re(TcB8)3
_symmetry_space_group_name_H-M   'P 1'
_cell_length_a   3.55147900
_cell_length_b   8.94298235
_cell_length_c   11.23675315
_cell_angle_alpha   90.00653930
_cell_angle_beta   90.00000000
_cell_angle_gamma   90.00000000
_symmetry_Int_Tables_number   1
_chemical_formula_structural   Tm4Mg4Re(TcB8)3
_chemical_formula_sum   'Tm4 Mg4 Re1 Tc3 B24'
_cell_volume   356.88842470
_cell_formula_units_Z   1
loop_
 _symmetry_equiv_pos_site_id
 _symmetry_equiv_pos_as_xyz
  1  'x, y, z'
loop_
 _atom_site_type_symbol
 _atom_site_label
 _atom_site_symmetry_multiplicity
 _atom_site_fract_x
 _atom_site_fract_y
 _atom_site_fract_z
 _atom_site_occupancy
  Tm  Tm0  1  0.000000  0.324399  0.413715  1
  Tm  Tm1  1  0.000000  0.675155  0.585790  1
  Tm  Tm2  1  0.000000  0.824369  0.086679  1
  Tm  Tm3  1  0.000000  0.176102  0.914015  1
  Mg  Mg4  1  0.000000  0.943824  0.371422  1
  Mg  Mg5  1  0.000000  0.057464  0.627098  1
  Mg  Mg6  1  0.000000  0.443530  0.128505  1
  Mg  Mg7  1  0.000000  0.554221  0.872057  1
  Re  Re8  1  0.000000  0.857739  0.817879  1
  Tc  Tc9  1  0.000000  0.641882  0.317883  1
  Tc  Tc10  1  0.000000  0.357878  0.681947  1
  Tc  Tc11  1  0.000000  0.141853  0.182129  1
  B  B12  1  0.500000  0.554734  0.433351  1
  B  B13  1  0.500000  0.445410  0.566540  1
  B  B14  1  0.500000  0.054930  0.066765  1
  B  B15  1  0.500000  0.945530  0.933705  1
  B  B16  1  0.500000  0.755689  0.419017  1
  B  B17  1  0.500000  0.244325  0.580896  1
  B  B18  1  0.500000  0.255778  0.081067  1
  B  B19  1  0.500000  0.744192  0.919315  1
  B  B20  1  0.500000  0.795138  0.262115  1
  B  B21  1  0.500000  0.205142  0.738004  1
  B  B22  1  0.500000  0.295129  0.238041  1
  B  B23  1  0.500000  0.704584  0.762046  1
  B  B24  1  0.500000  0.628476  0.181103  1
  B  B25  1  0.500000  0.371702  0.819048  1
  B  B26  1  0.500000  0.128545  0.319092  1
  B  B27  1  0.500000  0.871911  0.680770  1
  B  B28  1  0.500000  0.979867  0.212419  1
  B  B29  1  0.500000  0.020487  0.787522  1
  B  B30  1  0.500000  0.479883  0.287711  1
  B  B31  1  0.500000  0.519899  0.712194  1
  B  B32  1  0.500000  0.592602  0.025509  1
  B  B33  1  0.500000  0.407429  0.975033  1
  B  B34  1  0.500000  0.092864  0.474616  1
  B  B35  1  0.500000  0.907340  0.525000  1
