# generated using pymatgen
data_La4CeHo3AlPd24
_symmetry_space_group_name_H-M   'P 1'
_cell_length_a   8.44813280
_cell_length_b   8.45624875
_cell_length_c   8.45422479
_cell_angle_alpha   89.65880517
_cell_angle_beta   90.06132922
_cell_angle_gamma   89.80669655
_symmetry_Int_Tables_number   1
_chemical_formula_structural   La4CeHo3AlPd24
_chemical_formula_sum   'La4 Ce1 Ho3 Al1 Pd24'
_cell_volume   603.95119226
_cell_formula_units_Z   1
loop_
 _symmetry_equiv_pos_site_id
 _symmetry_equiv_pos_as_xyz
  1  'x, y, z'
loop_
 _atom_site_type_symbol
 _atom_site_label
 _atom_site_symmetry_multiplicity
 _atom_site_fract_x
 _atom_site_fract_y
 _atom_site_fract_z
 _atom_site_occupancy
  La  La0  1  0.746916  0.252161  0.748548  1
  La  La1  1  0.253006  0.252522  0.748297  1
  La  La2  1  0.252839  0.747926  0.252931  1
  La  La3  1  0.252610  0.746509  0.746165  1
  Ce  Ce4  1  0.746949  0.254108  0.254641  1
  Ho  Ho5  1  0.250637  0.252230  0.251953  1
  Ho  Ho6  1  0.748451  0.747891  0.748421  1
  Ho  Ho7  1  0.747237  0.748943  0.251553  1
  Al  Al8  1  0.003104  0.998598  0.996463  1
  Pd  Pd9  1  0.259261  0.498370  0.004662  1
  Pd  Pd10  1  0.739367  0.500133  0.006299  1
  Pd  Pd11  1  0.997810  0.259565  0.494524  1
  Pd  Pd12  1  0.503428  0.259890  0.010985  1
  Pd  Pd13  1  0.991343  0.740295  0.497013  1
  Pd  Pd14  1  0.504986  0.740045  0.000267  1
  Pd  Pd15  1  0.504495  0.005455  0.260485  1
  Pd  Pd16  1  0.259152  0.004168  0.495918  1
  Pd  Pd17  1  0.504026  0.994907  0.740603  1
  Pd  Pd18  1  0.739707  0.997682  0.495906  1
  Pd  Pd19  1  0.993548  0.498684  0.260430  1
  Pd  Pd20  1  0.995313  0.501479  0.740557  1
  Pd  Pd21  1  0.252347  0.496342  0.495382  1
  Pd  Pd22  1  0.746030  0.502505  0.496277  1
  Pd  Pd23  1  0.501307  0.253524  0.492723  1
  Pd  Pd24  1  0.507321  0.747462  0.498739  1
  Pd  Pd25  1  0.504250  0.497394  0.253811  1
  Pd  Pd26  1  0.504627  0.503601  0.747616  1
  Pd  Pd27  1  0.293093  0.003281  0.003657  1
  Pd  Pd28  1  0.713278  0.996172  0.004062  1
  Pd  Pd29  1  0.999371  0.288814  0.008168  1
  Pd  Pd30  1  0.992522  0.710011  0.999992  1
  Pd  Pd31  1  0.995375  0.003734  0.286058  1
  Pd  Pd32  1  0.996293  0.995599  0.706894  1
