# generated using pymatgen
data_Zr2InPtRh4
_symmetry_space_group_name_H-M   'P 1'
_cell_length_a   5.66231841
_cell_length_b   5.66231780
_cell_length_c   8.36516200
_cell_angle_alpha   90.00000000
_cell_angle_beta   90.00000000
_cell_angle_gamma   97.00288131
_symmetry_Int_Tables_number   1
_chemical_formula_structural   Zr2InPtRh4
_chemical_formula_sum   'Zr4 In2 Pt2 Rh8'
_cell_volume   266.20175368
_cell_formula_units_Z   2
loop_
 _symmetry_equiv_pos_site_id
 _symmetry_equiv_pos_as_xyz
  1  'x, y, z'
loop_
 _atom_site_type_symbol
 _atom_site_label
 _atom_site_symmetry_multiplicity
 _atom_site_fract_x
 _atom_site_fract_y
 _atom_site_fract_z
 _atom_site_occupancy
  Zr  Zr0  1  0.775102  0.224898  0.500000  1
  Zr  Zr1  1  0.224898  0.775102  0.000000  1
  Zr  Zr2  1  0.224898  0.775102  0.500000  1
  Zr  Zr3  1  0.775102  0.224898  0.000000  1
  In  In4  1  0.501124  0.501124  0.750000  1
  In  In5  1  0.498876  0.498876  0.250000  1
  Pt  Pt6  1  0.000404  0.000404  0.250000  1
  Pt  Pt7  1  0.999596  0.999596  0.750000  1
  Rh  Rh8  1  0.735665  0.735665  0.000565  1
  Rh  Rh9  1  0.735665  0.735665  0.499435  1
  Rh  Rh10  1  0.264335  0.264335  0.999435  1
  Rh  Rh11  1  0.264335  0.264335  0.500565  1
  Rh  Rh12  1  0.499792  0.000723  0.750000  1
  Rh  Rh13  1  0.500208  0.999277  0.250000  1
  Rh  Rh14  1  0.000723  0.499792  0.750000  1
  Rh  Rh15  1  0.999277  0.500208  0.250000  1
