# generated using pymatgen
data_Mg(Al2Au5)2
_symmetry_space_group_name_H-M   'P 1'
_cell_length_a   3.40672900
_cell_length_b   8.96879600
_cell_length_c   16.97400500
_cell_angle_alpha   90.00000000
_cell_angle_beta   90.00000000
_cell_angle_gamma   90.00000000
_symmetry_Int_Tables_number   1
_chemical_formula_structural   Mg(Al2Au5)2
_chemical_formula_sum   'Mg2 Al8 Au20'
_cell_volume   518.62811836
_cell_formula_units_Z   2
loop_
 _symmetry_equiv_pos_site_id
 _symmetry_equiv_pos_as_xyz
  1  'x, y, z'
loop_
 _atom_site_type_symbol
 _atom_site_label
 _atom_site_symmetry_multiplicity
 _atom_site_fract_x
 _atom_site_fract_y
 _atom_site_fract_z
 _atom_site_occupancy
  Mg  Mg0  1  0.000000  0.000000  0.000000  1
  Mg  Mg1  1  0.500000  0.500000  0.500000  1
  Al  Al2  1  0.000000  0.976149  0.198880  1
  Al  Al3  1  0.000000  0.023851  0.801120  1
  Al  Al4  1  0.500000  0.476149  0.301120  1
  Al  Al5  1  0.500000  0.523851  0.698880  1
  Al  Al6  1  0.000000  0.023290  0.401820  1
  Al  Al7  1  0.000000  0.976710  0.598180  1
  Al  Al8  1  0.500000  0.523290  0.098180  1
  Al  Al9  1  0.500000  0.476710  0.901820  1
  Au  Au10  1  0.000000  0.340574  0.013846  1
  Au  Au11  1  0.000000  0.659426  0.986154  1
  Au  Au12  1  0.500000  0.840574  0.486154  1
  Au  Au13  1  0.500000  0.159426  0.513846  1
  Au  Au14  1  0.000000  0.362892  0.187869  1
  Au  Au15  1  0.000000  0.637108  0.812131  1
  Au  Au16  1  0.500000  0.862892  0.312131  1
  Au  Au17  1  0.500000  0.137108  0.687869  1
  Au  Au18  1  0.000000  0.319809  0.401490  1
  Au  Au19  1  0.000000  0.680191  0.598510  1
  Au  Au20  1  0.500000  0.819809  0.098510  1
  Au  Au21  1  0.500000  0.180191  0.901490  1
  Au  Au22  1  0.000000  0.363481  0.610612  1
  Au  Au23  1  0.000000  0.636519  0.389388  1
  Au  Au24  1  0.500000  0.863481  0.889388  1
  Au  Au25  1  0.500000  0.136519  0.110612  1
  Au  Au26  1  0.000000  0.330701  0.785633  1
  Au  Au27  1  0.000000  0.669299  0.214367  1
  Au  Au28  1  0.500000  0.830701  0.714367  1
  Au  Au29  1  0.500000  0.169299  0.285633  1
