# generated using pymatgen
data_Ho2LuThCdIr
_symmetry_space_group_name_H-M   'P 1'
_cell_length_a   9.67903615
_cell_length_b   9.67903714
_cell_length_c   9.68983700
_cell_angle_alpha   59.96307937
_cell_angle_beta   59.96307600
_cell_angle_gamma   60.07384461
_symmetry_Int_Tables_number   1
_chemical_formula_structural   Ho2LuThCdIr
_chemical_formula_sum   'Ho8 Lu4 Th4 Cd4 Ir4'
_cell_volume   641.89598445
_cell_formula_units_Z   4
loop_
 _symmetry_equiv_pos_site_id
 _symmetry_equiv_pos_as_xyz
  1  'x, y, z'
loop_
 _atom_site_type_symbol
 _atom_site_label
 _atom_site_symmetry_multiplicity
 _atom_site_fract_x
 _atom_site_fract_y
 _atom_site_fract_z
 _atom_site_occupancy
  Ho  Ho0  1  0.436334  0.436334  0.063666  1
  Ho  Ho1  1  0.063666  0.063666  0.436334  1
  Ho  Ho2  1  0.185451  0.814549  0.814549  1
  Ho  Ho3  1  0.814549  0.185451  0.185451  1
  Ho  Ho4  1  0.814549  0.185451  0.814549  1
  Ho  Ho5  1  0.185451  0.814549  0.185451  1
  Ho  Ho6  1  0.814608  0.814608  0.185392  1
  Ho  Ho7  1  0.185392  0.185392  0.814608  1
  Lu  Lu8  1  0.063002  0.436998  0.436998  1
  Lu  Lu9  1  0.436998  0.063002  0.063002  1
  Lu  Lu10  1  0.436998  0.063002  0.436998  1
  Lu  Lu11  1  0.063002  0.436998  0.063002  1
  Th  Th12  1  0.600686  0.600686  0.599412  1
  Th  Th13  1  0.600686  0.600686  0.199217  1
  Th  Th14  1  0.599412  0.199217  0.600686  1
  Th  Th15  1  0.199217  0.599412  0.600686  1
  Cd  Cd16  1  0.832812  0.832812  0.833044  1
  Cd  Cd17  1  0.832812  0.832812  0.501332  1
  Cd  Cd18  1  0.833044  0.501332  0.832812  1
  Cd  Cd19  1  0.501332  0.833044  0.832812  1
  Ir  Ir20  1  0.391566  0.391566  0.393661  1
  Ir  Ir21  1  0.391566  0.391566  0.823206  1
  Ir  Ir22  1  0.393661  0.823206  0.391566  1
  Ir  Ir23  1  0.823206  0.393661  0.391566  1
