# generated using pymatgen
data_CsCaZrF7
_symmetry_space_group_name_H-M   'P 1'
_cell_length_a   6.63360200
_cell_length_b   6.63360181
_cell_length_c   8.61232800
_cell_angle_alpha   90.00000000
_cell_angle_beta   90.00000000
_cell_angle_gamma   116.91493837
_symmetry_Int_Tables_number   1
_chemical_formula_structural   CsCaZrF7
_chemical_formula_sum   'Cs2 Ca2 Zr2 F14'
_cell_volume   337.93110834
_cell_formula_units_Z   2
loop_
 _symmetry_equiv_pos_site_id
 _symmetry_equiv_pos_as_xyz
  1  'x, y, z'
loop_
 _atom_site_type_symbol
 _atom_site_label
 _atom_site_symmetry_multiplicity
 _atom_site_fract_x
 _atom_site_fract_y
 _atom_site_fract_z
 _atom_site_occupancy
  Cs  Cs0  1  0.000000  0.000000  0.000000  1
  Cs  Cs1  1  0.000000  0.000000  0.500000  1
  Ca  Ca2  1  0.309368  0.690632  0.750000  1
  Ca  Ca3  1  0.690632  0.309368  0.250000  1
  Zr  Zr4  1  0.693233  0.306767  0.750000  1
  Zr  Zr5  1  0.306767  0.693233  0.250000  1
  F  F6  1  0.349083  0.064169  0.750000  1
  F  F7  1  0.650917  0.935831  0.250000  1
  F  F8  1  0.935831  0.650917  0.750000  1
  F  F9  1  0.064169  0.349083  0.250000  1
  F  F10  1  0.510071  0.489929  0.750000  1
  F  F11  1  0.489929  0.510071  0.250000  1
  F  F12  1  0.702853  0.297147  0.987749  1
  F  F13  1  0.297147  0.702853  0.012251  1
  F  F14  1  0.297147  0.702853  0.487749  1
  F  F15  1  0.702853  0.297147  0.512251  1
  F  F16  1  0.669952  0.976414  0.750000  1
  F  F17  1  0.330048  0.023586  0.250000  1
  F  F18  1  0.023586  0.330048  0.750000  1
  F  F19  1  0.976414  0.669952  0.250000  1
