# generated using pymatgen
data_La7Pr6Nd3(CdIr)4
_symmetry_space_group_name_H-M   'P 1'
_cell_length_a   10.04449292
_cell_length_b   10.05720038
_cell_length_c   10.10347538
_cell_angle_alpha   59.76435550
_cell_angle_beta   60.13556016
_cell_angle_gamma   60.34669209
_symmetry_Int_Tables_number   1
_chemical_formula_structural   La7Pr6Nd3(CdIr)4
_chemical_formula_sum   'La7 Pr6 Nd3 Cd4 Ir4'
_cell_volume   723.01322829
_cell_formula_units_Z   1
loop_
 _symmetry_equiv_pos_site_id
 _symmetry_equiv_pos_as_xyz
  1  'x, y, z'
loop_
 _atom_site_type_symbol
 _atom_site_label
 _atom_site_symmetry_multiplicity
 _atom_site_fract_x
 _atom_site_fract_y
 _atom_site_fract_z
 _atom_site_occupancy
  La  La0  1  0.346854  0.347266  0.349046  1
  La  La1  1  0.348439  0.346636  0.956383  1
  La  La2  1  0.349046  0.956833  0.346854  1
  La  La3  1  0.956383  0.348541  0.348439  1
  La  La4  1  0.810532  0.189587  0.187440  1
  La  La5  1  0.187440  0.812442  0.810532  1
  La  La6  1  0.189287  0.810713  0.189287  1
  Pr  Pr7  1  0.937546  0.561765  0.562602  1
  Pr  Pr8  1  0.562602  0.938087  0.937546  1
  Pr  Pr9  1  0.562061  0.937939  0.562061  1
  Pr  Pr10  1  0.938363  0.561637  0.938363  1
  Pr  Pr11  1  0.562550  0.560990  0.937888  1
  Pr  Pr12  1  0.937888  0.938572  0.562550  1
  Nd  Nd13  1  0.809353  0.190647  0.809353  1
  Nd  Nd14  1  0.190168  0.192646  0.807719  1
  Nd  Nd15  1  0.807719  0.809467  0.190168  1
  Cd  Cd16  1  0.581260  0.579315  0.579316  1
  Cd  Cd17  1  0.580715  0.580641  0.259940  1
  Cd  Cd18  1  0.579316  0.260108  0.581260  1
  Cd  Cd19  1  0.259940  0.578703  0.580715  1
  Ir  Ir20  1  0.139593  0.139571  0.144132  1
  Ir  Ir21  1  0.143283  0.138335  0.575529  1
  Ir  Ir22  1  0.144132  0.576705  0.139593  1
  Ir  Ir23  1  0.575529  0.142854  0.143283  1
