# generated using pymatgen
data_Cs7Sr(US5)2
_symmetry_space_group_name_H-M   'P 1'
_cell_length_a   8.17768724
_cell_length_b   12.15320575
_cell_length_c   8.03299200
_cell_angle_alpha   101.35293811
_cell_angle_beta   102.29381962
_cell_angle_gamma   110.40113400
_symmetry_Int_Tables_number   1
_chemical_formula_structural   Cs7Sr(US5)2
_chemical_formula_sum   'Cs7 Sr1 U2 S10'
_cell_volume   698.35936907
_cell_formula_units_Z   1
loop_
 _symmetry_equiv_pos_site_id
 _symmetry_equiv_pos_as_xyz
  1  'x, y, z'
loop_
 _atom_site_type_symbol
 _atom_site_label
 _atom_site_symmetry_multiplicity
 _atom_site_fract_x
 _atom_site_fract_y
 _atom_site_fract_z
 _atom_site_occupancy
  Cs  Cs0  1  0.000871  0.500584  0.000281  1
  Cs  Cs1  1  0.425621  0.907286  0.209340  1
  Cs  Cs2  1  0.593968  0.595157  0.292264  1
  Cs  Cs3  1  0.792877  0.294859  0.423283  1
  Cs  Cs4  1  0.207378  0.705653  0.576604  1
  Cs  Cs5  1  0.406379  0.405285  0.707908  1
  Cs  Cs6  1  0.574592  0.092699  0.790965  1
  Sr  Sr7  1  0.999771  0.999695  0.499872  1
  U  U8  1  0.178140  0.183567  0.095645  1
  U  U9  1  0.821003  0.815555  0.903885  1
  S  S10  1  0.491929  0.296154  0.070108  1
  S  S11  1  0.855551  0.033618  0.122405  1
  S  S12  1  0.976721  0.783761  0.202016  1
  S  S13  1  0.169069  0.374763  0.282948  1
  S  S14  1  0.324948  0.143617  0.386971  1
  S  S15  1  0.674971  0.856543  0.612481  1
  S  S16  1  0.831049  0.624314  0.716214  1
  S  S17  1  0.023530  0.216290  0.798715  1
  S  S18  1  0.145043  0.967163  0.878107  1
  S  S19  1  0.506594  0.703434  0.929989  1
