# generated using pymatgen
data_Lu6Al24GaOs7
_symmetry_space_group_name_H-M   'P 1'
_cell_length_a   8.82643078
_cell_length_b   8.82643085
_cell_length_c   9.49916659
_cell_angle_alpha   89.96400700
_cell_angle_beta   90.03599322
_cell_angle_gamma   119.87199642
_symmetry_Int_Tables_number   1
_chemical_formula_structural   Lu6Al24GaOs7
_chemical_formula_sum   'Lu6 Al24 Ga1 Os7'
_cell_volume   641.71914243
_cell_formula_units_Z   1
loop_
 _symmetry_equiv_pos_site_id
 _symmetry_equiv_pos_as_xyz
  1  'x, y, z'
loop_
 _atom_site_type_symbol
 _atom_site_label
 _atom_site_symmetry_multiplicity
 _atom_site_fract_x
 _atom_site_fract_y
 _atom_site_fract_z
 _atom_site_occupancy
  Lu  Lu0  1  0.192082  0.388246  0.247130  1
  Lu  Lu1  1  0.807918  0.611754  0.752870  1
  Lu  Lu2  1  0.611754  0.807918  0.247130  1
  Lu  Lu3  1  0.388246  0.192082  0.752870  1
  Lu  Lu4  1  0.196177  0.803823  0.255360  1
  Lu  Lu5  1  0.803823  0.196177  0.744640  1
  Al  Al6  1  0.328111  0.671889  0.024079  1
  Al  Al7  1  0.671889  0.328111  0.975921  1
  Al  Al8  1  0.666143  0.333857  0.520188  1
  Al  Al9  1  0.333857  0.666143  0.479812  1
  Al  Al10  1  0.162434  0.325497  0.572646  1
  Al  Al11  1  0.837566  0.674503  0.427354  1
  Al  Al12  1  0.674503  0.837566  0.572646  1
  Al  Al13  1  0.851791  0.678572  0.082526  1
  Al  Al14  1  0.325497  0.162434  0.427354  1
  Al  Al15  1  0.148209  0.321428  0.917474  1
  Al  Al16  1  0.162945  0.837055  0.576685  1
  Al  Al17  1  0.321428  0.148209  0.082526  1
  Al  Al18  1  0.837055  0.162945  0.423315  1
  Al  Al19  1  0.678572  0.851791  0.917474  1
  Al  Al20  1  0.836930  0.163070  0.078050  1
  Al  Al21  1  0.163070  0.836930  0.921950  1
  Al  Al22  1  0.561743  0.120834  0.249730  1
  Al  Al23  1  0.438257  0.879166  0.750270  1
  Al  Al24  1  0.879166  0.438257  0.249730  1
  Al  Al25  1  0.120834  0.561743  0.750270  1
  Al  Al26  1  0.564877  0.435123  0.257141  1
  Al  Al27  1  0.435123  0.564877  0.742859  1
  Al  Al28  1  0.998833  0.001167  0.250661  1
  Al  Al29  1  0.001167  0.998833  0.749339  1
  Ga  Ga30  1  0.500000  0.500000  0.000000  1
  Os  Os31  1  0.500000  0.000000  0.000000  1
  Os  Os32  1  0.000000  0.500000  0.000000  1
  Os  Os33  1  0.500000  0.000000  0.500000  1
  Os  Os34  1  0.000000  0.500000  0.500000  1
  Os  Os35  1  0.500000  0.500000  0.500000  1
  Os  Os36  1  0.000000  0.000000  0.000000  1
  Os  Os37  1  0.000000  0.000000  0.500000  1
