# generated using pymatgen
data_Hf8Fe2Co5Si14Ir
_symmetry_space_group_name_H-M   'P 1'
_cell_length_a   9.48043951
_cell_length_b   9.47105561
_cell_length_c   9.48204341
_cell_angle_alpha   94.14726390
_cell_angle_beta   94.19426286
_cell_angle_gamma   148.74905987
_symmetry_Int_Tables_number   1
_chemical_formula_structural   Hf8Fe2Co5Si14Ir
_chemical_formula_sum   'Hf8 Fe2 Co5 Si14 Ir1'
_cell_volume   425.28382681
_cell_formula_units_Z   1
loop_
 _symmetry_equiv_pos_site_id
 _symmetry_equiv_pos_as_xyz
  1  'x, y, z'
loop_
 _atom_site_type_symbol
 _atom_site_label
 _atom_site_symmetry_multiplicity
 _atom_site_fract_x
 _atom_site_fract_y
 _atom_site_fract_z
 _atom_site_occupancy
  Hf  Hf0  1  0.137171  0.137231  0.274741  1
  Hf  Hf1  1  0.862115  0.862016  0.723759  1
  Hf  Hf2  1  0.135351  0.860764  0.999132  1
  Hf  Hf3  1  0.863530  0.138436  0.999292  1
  Hf  Hf4  1  0.303634  0.498935  0.802288  1
  Hf  Hf5  1  0.695368  0.501105  0.194899  1
  Hf  Hf6  1  0.499803  0.694472  0.195864  1
  Hf  Hf7  1  0.499523  0.304564  0.803260  1
  Fe  Fe8  1  0.395013  0.893946  0.791007  1
  Fe  Fe9  1  0.900736  0.103057  0.503292  1
  Co  Co10  1  0.602571  0.400547  0.503125  1
  Co  Co11  1  0.601503  0.102278  0.203316  1
  Co  Co12  1  0.898440  0.399128  0.798690  1
  Co  Co13  1  0.101482  0.897770  0.499362  1
  Co  Co14  1  0.398111  0.601352  0.499109  1
  Si  Si15  1  0.289102  0.289482  0.580137  1
  Si  Si16  1  0.710643  0.711039  0.419586  1
  Si  Si17  1  0.301553  0.719107  0.994104  1
  Si  Si18  1  0.692449  0.274714  0.994119  1
  Si  Si19  1  0.089397  0.497178  0.591466  1
  Si  Si20  1  0.893012  0.488181  0.413087  1
  Si  Si21  1  0.526062  0.930884  0.414607  1
  Si  Si22  1  0.497267  0.088926  0.593070  1
  Si  Si23  1  0.249385  0.249602  0.999203  1
  Si  Si24  1  0.749867  0.749930  0.999542  1
  Si  Si25  1  0.307531  0.013542  0.301757  1
  Si  Si26  1  0.700400  0.000711  0.699620  1
  Si  Si27  1  0.001824  0.701052  0.700342  1
  Si  Si28  1  0.992865  0.286680  0.302556  1
  Ir  Ir29  1  0.104293  0.603370  0.205665  1
