# generated using pymatgen
data_MgScMn12P7
_symmetry_space_group_name_H-M   'P 1'
_cell_length_a   9.36264100
_cell_length_b   9.36264129
_cell_length_c   3.40327800
_cell_angle_alpha   90.00000000
_cell_angle_beta   90.00000000
_cell_angle_gamma   120.00000250
_symmetry_Int_Tables_number   1
_chemical_formula_structural   MgScMn12P7
_chemical_formula_sum   'Mg1 Sc1 Mn12 P7'
_cell_volume   258.35971862
_cell_formula_units_Z   1
loop_
 _symmetry_equiv_pos_site_id
 _symmetry_equiv_pos_as_xyz
  1  'x, y, z'
loop_
 _atom_site_type_symbol
 _atom_site_label
 _atom_site_symmetry_multiplicity
 _atom_site_fract_x
 _atom_site_fract_y
 _atom_site_fract_z
 _atom_site_occupancy
  Mg  Mg0  1  0.666667  0.333333  0.500000  1
  Sc  Sc1  1  0.000000  0.000000  0.000000  1
  Mn  Mn2  1  0.388480  0.287911  0.000000  1
  Mn  Mn3  1  0.899431  0.611520  0.000000  1
  Mn  Mn4  1  0.712089  0.100569  0.000000  1
  Mn  Mn5  1  0.609013  0.782858  0.000000  1
  Mn  Mn6  1  0.173847  0.390987  0.000000  1
  Mn  Mn7  1  0.217142  0.826153  0.000000  1
  Mn  Mn8  1  0.768818  0.717814  0.500000  1
  Mn  Mn9  1  0.948996  0.231182  0.500000  1
  Mn  Mn10  1  0.282186  0.051004  0.500000  1
  Mn  Mn11  1  0.433142  0.536657  0.500000  1
  Mn  Mn12  1  0.103515  0.566858  0.500000  1
  Mn  Mn13  1  0.463343  0.896485  0.500000  1
  P  P14  1  0.621925  0.537581  0.000000  1
  P  P15  1  0.915656  0.378075  0.000000  1
  P  P16  1  0.462419  0.084344  0.000000  1
  P  P17  1  0.751021  0.957472  0.500000  1
  P  P18  1  0.206451  0.248979  0.500000  1
  P  P19  1  0.042528  0.793549  0.500000  1
  P  P20  1  0.333333  0.666667  0.000000  1
