# generated using pymatgen
data_Sm11Ho(SiCl3)4
_symmetry_space_group_name_H-M   'P 1'
_cell_length_a   10.03092797
_cell_length_b   10.02403637
_cell_length_c   9.99740300
_cell_angle_alpha   109.48649019
_cell_angle_beta   109.51852148
_cell_angle_gamma   109.52923010
_symmetry_Int_Tables_number   1
_chemical_formula_structural   Sm11Ho(SiCl3)4
_chemical_formula_sum   'Sm11 Ho1 Si4 Cl12'
_cell_volume   772.68242924
_cell_formula_units_Z   1
loop_
 _symmetry_equiv_pos_site_id
 _symmetry_equiv_pos_as_xyz
  1  'x, y, z'
loop_
 _atom_site_type_symbol
 _atom_site_label
 _atom_site_symmetry_multiplicity
 _atom_site_fract_x
 _atom_site_fract_y
 _atom_site_fract_z
 _atom_site_occupancy
  Sm  Sm0  1  0.257975  0.007989  0.015959  1
  Sm  Sm1  1  0.016338  0.258589  0.007763  1
  Sm  Sm2  1  0.491446  0.749189  0.007744  1
  Sm  Sm3  1  0.750149  0.241455  0.258577  1
  Sm  Sm4  1  0.008413  0.017142  0.258573  1
  Sm  Sm5  1  0.008821  0.493410  0.751357  1
  Sm  Sm6  1  0.242544  0.257972  0.751383  1
  Sm  Sm7  1  0.258199  0.748750  0.241737  1
  Sm  Sm8  1  0.242551  0.484352  0.493059  1
  Sm  Sm9  1  0.483559  0.492998  0.241758  1
  Sm  Sm10  1  0.750522  0.008705  0.493060  1
  Ho  Ho11  1  0.488869  0.238823  0.477773  1
  Si  Si12  1  0.000095  0.250097  0.500183  1
  Si  Si13  1  0.250100  0.500107  0.000177  1
  Si  Si14  1  0.500246  0.001705  0.251879  1
  Si  Si15  1  0.251663  0.250175  0.251915  1
  Cl  Cl16  1  0.752162  0.749187  0.250788  1
  Cl  Cl17  1  0.501776  0.250155  0.999604  1
  Cl  Cl18  1  0.258796  0.007164  0.502895  1
  Cl  Cl19  1  0.502612  0.494108  0.745902  1
  Cl  Cl20  1  0.998450  0.996779  0.748774  1
  Cl  Cl21  1  0.748854  0.998867  0.997718  1
  Cl  Cl22  1  0.501770  0.751759  0.503517  1
  Cl  Cl23  1  0.744045  0.495644  0.502872  1
  Cl  Cl24  1  0.998606  0.501625  0.250767  1
  Cl  Cl25  1  0.997847  0.749476  0.999601  1
  Cl  Cl26  1  0.250309  0.751999  0.748768  1
  Cl  Cl27  1  0.743278  0.251778  0.745899  1
