# generated using pymatgen
data_Lu6Zn21PAu2
_symmetry_space_group_name_H-M   'P 1'
_cell_length_a   8.99235968
_cell_length_b   9.02968318
_cell_length_c   9.02943100
_cell_angle_alpha   59.81051829
_cell_angle_beta   60.14032115
_cell_angle_gamma   60.14071152
_symmetry_Int_Tables_number   1
_chemical_formula_structural   Lu6Zn21PAu2
_chemical_formula_sum   'Lu6 Zn21 P1 Au2'
_cell_volume   518.77891743
_cell_formula_units_Z   1
loop_
 _symmetry_equiv_pos_site_id
 _symmetry_equiv_pos_as_xyz
  1  'x, y, z'
loop_
 _atom_site_type_symbol
 _atom_site_label
 _atom_site_symmetry_multiplicity
 _atom_site_fract_x
 _atom_site_fract_y
 _atom_site_fract_z
 _atom_site_occupancy
  Lu  Lu0  1  0.710662  0.289337  0.289350  1
  Lu  Lu1  1  0.710890  0.289876  0.710098  1
  Lu  Lu2  1  0.710889  0.710096  0.289892  1
  Lu  Lu3  1  0.289338  0.710663  0.710650  1
  Lu  Lu4  1  0.289110  0.710124  0.289902  1
  Lu  Lu5  1  0.289111  0.289904  0.710108  1
  Zn  Zn6  1  0.626087  0.125804  0.125810  1
  Zn  Zn7  1  0.124984  0.625847  0.124176  1
  Zn  Zn8  1  0.124992  0.124179  0.625848  1
  Zn  Zn9  1  0.122304  0.125811  0.125809  1
  Zn  Zn10  1  0.373913  0.874196  0.874190  1
  Zn  Zn11  1  0.875016  0.374153  0.875824  1
  Zn  Zn12  1  0.875008  0.875821  0.374152  1
  Zn  Zn13  1  0.877696  0.874189  0.874191  1
  Zn  Zn14  1  0.500000  0.000000  0.500000  1
  Zn  Zn15  1  0.500000  0.500000  0.000000  1
  Zn  Zn16  1  0.000000  0.500000  0.500000  1
  Zn  Zn17  1  0.000000  0.500000  0.000000  1
  Zn  Zn18  1  0.000000  0.000000  0.500000  1
  Zn  Zn19  1  0.006336  0.331600  0.331601  1
  Zn  Zn20  1  0.328852  0.006393  0.335886  1
  Zn  Zn21  1  0.328863  0.335885  0.006392  1
  Zn  Zn22  1  0.330465  0.331599  0.331607  1
  Zn  Zn23  1  0.993664  0.668400  0.668399  1
  Zn  Zn24  1  0.671148  0.993607  0.664114  1
  Zn  Zn25  1  0.671137  0.664115  0.993608  1
  Zn  Zn26  1  0.669535  0.668401  0.668393  1
  P  P27  1  0.500000  0.500000  0.500000  1
  Au  Au28  1  0.500000  0.000000  0.000000  1
  Au  Au29  1  0.000000  0.000000  0.000000  1
