# generated using pymatgen
data_Tb3DyAl16(GeIr3)2
_symmetry_space_group_name_H-M   'P 1'
_cell_length_a   7.56160423
_cell_length_b   7.56177823
_cell_length_c   9.45403200
_cell_angle_alpha   90.00000000
_cell_angle_beta   90.00000000
_cell_angle_gamma   119.73045479
_symmetry_Int_Tables_number   1
_chemical_formula_structural   Tb3DyAl16(GeIr3)2
_chemical_formula_sum   'Tb3 Dy1 Al16 Ge2 Ir6'
_cell_volume   469.41696020
_cell_formula_units_Z   1
loop_
 _symmetry_equiv_pos_site_id
 _symmetry_equiv_pos_as_xyz
  1  'x, y, z'
loop_
 _atom_site_type_symbol
 _atom_site_label
 _atom_site_symmetry_multiplicity
 _atom_site_fract_x
 _atom_site_fract_y
 _atom_site_fract_z
 _atom_site_occupancy
  Tb  Tb0  1  0.995463  0.675502  0.750000  1
  Tb  Tb1  1  0.004556  0.324490  0.250000  1
  Tb  Tb2  1  0.675476  0.995447  0.750000  1
  Dy  Dy3  1  0.324486  0.004553  0.250000  1
  Al  Al4  1  0.000680  0.337393  0.573898  1
  Al  Al5  1  0.999453  0.662751  0.426010  1
  Al  Al6  1  0.999453  0.662751  0.073990  1
  Al  Al7  1  0.337383  0.000678  0.926224  1
  Al  Al8  1  0.000680  0.337393  0.926102  1
  Al  Al9  1  0.662484  0.999332  0.073979  1
  Al  Al10  1  0.662484  0.999332  0.426021  1
  Al  Al11  1  0.337383  0.000678  0.573776  1
  Al  Al12  1  0.335838  0.335709  0.058584  1
  Al  Al13  1  0.664152  0.664149  0.941548  1
  Al  Al14  1  0.664152  0.664149  0.558452  1
  Al  Al15  1  0.335838  0.335709  0.441416  1
  Al  Al16  1  0.335899  0.552613  0.750000  1
  Al  Al17  1  0.663962  0.447212  0.250000  1
  Al  Al18  1  0.552603  0.335878  0.750000  1
  Al  Al19  1  0.447334  0.664188  0.250000  1
  Ge  Ge20  1  0.134440  0.134421  0.750000  1
  Ge  Ge21  1  0.865701  0.865615  0.250000  1
  Ir  Ir22  1  0.670909  0.328981  0.499932  1
  Ir  Ir23  1  0.329038  0.671030  0.499938  1
  Ir  Ir24  1  0.329038  0.671030  0.000062  1
  Ir  Ir25  1  0.670909  0.328981  0.000068  1
  Ir  Ir26  1  0.000102  0.000018  0.499913  1
  Ir  Ir27  1  0.000102  0.000018  0.000087  1
