# generated using pymatgen
data_Sc4Pa4Re(B8Mo)3
_symmetry_space_group_name_H-M   'P 1'
_cell_length_a   3.67515200
_cell_length_b   9.01757802
_cell_length_c   11.39097303
_cell_angle_alpha   90.00796753
_cell_angle_beta   90.00000000
_cell_angle_gamma   90.00000000
_symmetry_Int_Tables_number   1
_chemical_formula_structural   Sc4Pa4Re(B8Mo)3
_chemical_formula_sum   'Sc4 Pa4 Re1 B24 Mo3'
_cell_volume   377.50789061
_cell_formula_units_Z   1
loop_
 _symmetry_equiv_pos_site_id
 _symmetry_equiv_pos_as_xyz
  1  'x, y, z'
loop_
 _atom_site_type_symbol
 _atom_site_label
 _atom_site_symmetry_multiplicity
 _atom_site_fract_x
 _atom_site_fract_y
 _atom_site_fract_z
 _atom_site_occupancy
  Sc  Sc0  1  0.000000  0.946055  0.374201  1
  Sc  Sc1  1  0.000000  0.054701  0.625725  1
  Sc  Sc2  1  0.000000  0.446126  0.125913  1
  Sc  Sc3  1  0.000000  0.553673  0.874085  1
  Pa  Pa4  1  0.000000  0.320409  0.413344  1
  Pa  Pa5  1  0.000000  0.678859  0.585175  1
  Pa  Pa6  1  0.000000  0.820339  0.087277  1
  Pa  Pa7  1  0.000000  0.180662  0.914288  1
  Re  Re8  1  0.000000  0.859574  0.819463  1
  B  B9  1  0.500000  0.554445  0.432863  1
  B  B10  1  0.500000  0.445719  0.567274  1
  B  B11  1  0.500000  0.054110  0.066746  1
  B  B12  1  0.500000  0.944875  0.932134  1
  B  B13  1  0.500000  0.753628  0.419580  1
  B  B14  1  0.500000  0.246308  0.580608  1
  B  B15  1  0.500000  0.253868  0.080508  1
  B  B16  1  0.500000  0.746571  0.918856  1
  B  B17  1  0.500000  0.794828  0.264364  1
  B  B18  1  0.500000  0.204724  0.735746  1
  B  B19  1  0.500000  0.294613  0.235673  1
  B  B20  1  0.500000  0.706067  0.764763  1
  B  B21  1  0.500000  0.629987  0.182620  1
  B  B22  1  0.500000  0.370073  0.817497  1
  B  B23  1  0.500000  0.129585  0.317155  1
  B  B24  1  0.500000  0.870361  0.683251  1
  B  B25  1  0.500000  0.981108  0.214028  1
  B  B26  1  0.500000  0.017733  0.786024  1
  B  B27  1  0.500000  0.481290  0.285778  1
  B  B28  1  0.500000  0.518959  0.714397  1
  B  B29  1  0.500000  0.600924  0.027035  1
  B  B30  1  0.500000  0.399568  0.972393  1
  B  B31  1  0.500000  0.100378  0.472505  1
  B  B32  1  0.500000  0.899609  0.528115  1
  Mo  Mo33  1  0.000000  0.640717  0.319315  1
  Mo  Mo34  1  0.000000  0.359484  0.681236  1
  Mo  Mo35  1  0.000000  0.140069  0.180066  1
