# generated using pymatgen
data_Ba2CaAl2FeF14
_symmetry_space_group_name_H-M   'P 1'
_cell_length_a   7.45915516
_cell_length_b   7.45915563
_cell_length_c   14.89589857
_cell_angle_alpha   88.61726045
_cell_angle_beta   88.61726154
_cell_angle_gamma   41.76583003
_symmetry_Int_Tables_number   1
_chemical_formula_structural   Ba2CaAl2FeF14
_chemical_formula_sum   'Ba4 Ca2 Al4 Fe2 F28'
_cell_volume   551.86464704
_cell_formula_units_Z   2
loop_
 _symmetry_equiv_pos_site_id
 _symmetry_equiv_pos_as_xyz
  1  'x, y, z'
loop_
 _atom_site_type_symbol
 _atom_site_label
 _atom_site_symmetry_multiplicity
 _atom_site_fract_x
 _atom_site_fract_y
 _atom_site_fract_z
 _atom_site_occupancy
  Ba  Ba0  1  0.644486  0.734415  0.880104  1
  Ba  Ba1  1  0.355514  0.265585  0.119896  1
  Ba  Ba2  1  0.265585  0.355514  0.619896  1
  Ba  Ba3  1  0.734415  0.644486  0.380104  1
  Ca  Ca4  1  0.940989  0.059011  0.750000  1
  Ca  Ca5  1  0.059011  0.940989  0.250000  1
  Al  Al6  1  0.615811  0.622111  0.623359  1
  Al  Al7  1  0.384189  0.377889  0.376641  1
  Al  Al8  1  0.377889  0.384189  0.876641  1
  Al  Al9  1  0.622111  0.615811  0.123359  1
  Fe  Fe10  1  0.000000  0.000000  0.500000  1
  Fe  Fe11  1  0.000000  0.000000  0.000000  1
  F  F12  1  0.348212  0.892722  0.697870  1
  F  F13  1  0.651788  0.107278  0.302130  1
  F  F14  1  0.107278  0.651788  0.802130  1
  F  F15  1  0.892722  0.348212  0.197870  1
  F  F16  1  0.656084  0.094081  0.950417  1
  F  F17  1  0.343916  0.905919  0.049583  1
  F  F18  1  0.905919  0.343916  0.549583  1
  F  F19  1  0.094081  0.656084  0.450417  1
  F  F20  1  0.400413  0.764923  0.524381  1
  F  F21  1  0.599587  0.235077  0.475619  1
  F  F22  1  0.235077  0.599587  0.975619  1
  F  F23  1  0.764923  0.400413  0.024381  1
  F  F24  1  0.541682  0.138921  0.783198  1
  F  F25  1  0.458318  0.861079  0.216802  1
  F  F26  1  0.861079  0.458318  0.716802  1
  F  F27  1  0.138921  0.541682  0.283198  1
  F  F28  1  0.576261  0.418235  0.654563  1
  F  F29  1  0.423739  0.581765  0.345437  1
  F  F30  1  0.581765  0.423739  0.845437  1
  F  F31  1  0.418235  0.576261  0.154563  1
  F  F32  1  0.870980  0.994932  0.121426  1
  F  F33  1  0.129020  0.005068  0.878574  1
  F  F34  1  0.005068  0.129020  0.378574  1
  F  F35  1  0.994932  0.870980  0.621426  1
  F  F36  1  0.682836  0.801629  0.588499  1
  F  F37  1  0.317164  0.198371  0.411501  1
  F  F38  1  0.198371  0.317164  0.911501  1
  F  F39  1  0.801629  0.682836  0.088499  1
