# generated using pymatgen
data_Sc5Ti3P12Ir11Ru5
_symmetry_space_group_name_H-M   'P 1'
_cell_length_a   12.68485181
_cell_length_b   12.57915241
_cell_length_c   3.89405800
_cell_angle_alpha   90.00000000
_cell_angle_beta   90.00000000
_cell_angle_gamma   120.09409968
_symmetry_Int_Tables_number   1
_chemical_formula_structural   Sc5Ti3P12Ir11Ru5
_chemical_formula_sum   'Sc5 Ti3 P12 Ir11 Ru5'
_cell_volume   537.59749993
_cell_formula_units_Z   1
loop_
 _symmetry_equiv_pos_site_id
 _symmetry_equiv_pos_as_xyz
  1  'x, y, z'
loop_
 _atom_site_type_symbol
 _atom_site_label
 _atom_site_symmetry_multiplicity
 _atom_site_fract_x
 _atom_site_fract_y
 _atom_site_fract_z
 _atom_site_occupancy
  Sc  Sc0  1  0.333161  0.666829  0.000000  1
  Sc  Sc1  1  0.667072  0.334448  0.000000  1
  Sc  Sc2  1  0.808778  0.999765  0.500000  1
  Sc  Sc3  1  0.001952  0.810935  0.500000  1
  Sc  Sc4  1  0.190755  0.190473  0.500000  1
  Ti  Ti5  1  0.442276  0.000024  0.000000  1
  Ti  Ti6  1  0.000353  0.444134  0.000000  1
  Ti  Ti7  1  0.558773  0.553830  0.000000  1
  P  P8  1  0.173436  0.996748  0.000000  1
  P  P9  1  0.997008  0.176577  0.000000  1
  P  P10  1  0.819798  0.822316  0.000000  1
  P  P11  1  0.171768  0.479595  0.500000  1
  P  P12  1  0.519194  0.689186  0.500000  1
  P  P13  1  0.309435  0.830208  0.500000  1
  P  P14  1  0.695065  0.521425  0.500000  1
  P  P15  1  0.829582  0.309280  0.500000  1
  P  P16  1  0.482912  0.170123  0.500000  1
  P  P17  1  0.639697  0.999295  0.000000  1
  P  P18  1  0.000724  0.643230  0.000000  1
  P  P19  1  0.355315  0.361032  0.000000  1
  Ir  Ir20  1  0.362947  0.488714  0.500000  1
  Ir  Ir21  1  0.505052  0.868080  0.500000  1
  Ir  Ir22  1  0.133450  0.637195  0.500000  1
  Ir  Ir23  1  0.872790  0.508211  0.500000  1
  Ir  Ir24  1  0.638280  0.130205  0.500000  1
  Ir  Ir25  1  0.501225  0.363249  0.500000  1
  Ir  Ir26  1  0.369416  0.183419  0.000000  1
  Ir  Ir27  1  0.278019  0.003144  0.500000  1
  Ir  Ir28  1  0.999380  0.275794  0.500000  1
  Ir  Ir29  1  0.723230  0.723631  0.500000  1
  Ir  Ir30  1  0.998009  0.999308  0.000000  1
  Ru  Ru31  1  0.179353  0.375256  0.000000  1
  Ru  Ru32  1  0.622952  0.804408  0.000000  1
  Ru  Ru33  1  0.193316  0.819950  0.000000  1
  Ru  Ru34  1  0.807204  0.626028  0.000000  1
  Ru  Ru35  1  0.818322  0.193951  0.000000  1
