# generated using pymatgen
data_YbY3(Os3Ru)2
_symmetry_space_group_name_H-M   'P 1'
_cell_length_a   5.25428402
_cell_length_b   5.25423652
_cell_length_c   9.06673500
_cell_angle_alpha   89.99984868
_cell_angle_beta   90.00028079
_cell_angle_gamma   120.00549167
_symmetry_Int_Tables_number   1
_chemical_formula_structural   YbY3(Os3Ru)2
_chemical_formula_sum   'Yb1 Y3 Os6 Ru2'
_cell_volume   216.76076850
_cell_formula_units_Z   1
loop_
 _symmetry_equiv_pos_site_id
 _symmetry_equiv_pos_as_xyz
  1  'x, y, z'
loop_
 _atom_site_type_symbol
 _atom_site_label
 _atom_site_symmetry_multiplicity
 _atom_site_fract_x
 _atom_site_fract_y
 _atom_site_fract_z
 _atom_site_occupancy
  Yb  Yb0  1  0.666665  0.333335  0.936222  1
  Y  Y1  1  0.666657  0.333340  0.571056  1
  Y  Y2  1  0.333334  0.666665  0.432882  1
  Y  Y3  1  0.333340  0.666661  0.061744  1
  Os  Os4  1  0.170005  0.340042  0.749818  1
  Os  Os5  1  0.170005  0.829994  0.749817  1
  Os  Os6  1  0.659958  0.829995  0.749818  1
  Os  Os7  1  0.829629  0.659250  0.250142  1
  Os  Os8  1  0.829627  0.170373  0.250145  1
  Os  Os9  1  0.340750  0.170371  0.250141  1
  Ru  Ru10  1  0.000013  0.999990  0.499012  1
  Ru  Ru11  1  0.000017  0.999984  0.999202  1
