# generated using pymatgen
data_Tb3Pr5S11Br
_symmetry_space_group_name_H-M   'P 1'
_cell_length_a   3.98948900
_cell_length_b   10.71934039
_cell_length_c   11.08614226
_cell_angle_alpha   90.04154070
_cell_angle_beta   90.00000000
_cell_angle_gamma   90.00000000
_symmetry_Int_Tables_number   1
_chemical_formula_structural   Tb3Pr5S11Br
_chemical_formula_sum   'Tb3 Pr5 S11 Br1'
_cell_volume   474.09531867
_cell_formula_units_Z   1
loop_
 _symmetry_equiv_pos_site_id
 _symmetry_equiv_pos_as_xyz
  1  'x, y, z'
loop_
 _atom_site_type_symbol
 _atom_site_label
 _atom_site_symmetry_multiplicity
 _atom_site_fract_x
 _atom_site_fract_y
 _atom_site_fract_z
 _atom_site_occupancy
  Tb  Tb0  1  0.750000  0.817367  0.504724  1
  Tb  Tb1  1  0.750000  0.683137  0.011667  1
  Tb  Tb2  1  0.250000  0.310554  0.006499  1
  Pr  Pr3  1  0.250000  0.986153  0.808865  1
  Pr  Pr4  1  0.750000  0.995882  0.188497  1
  Pr  Pr5  1  0.750000  0.524836  0.692453  1
  Pr  Pr6  1  0.250000  0.507357  0.309463  1
  Pr  Pr7  1  0.250000  0.181493  0.477977  1
  S  S8  1  0.750000  0.704349  0.267994  1
  S  S9  1  0.750000  0.791611  0.770385  1
  S  S10  1  0.250000  0.197752  0.224863  1
  S  S11  1  0.250000  0.940864  0.377592  1
  S  S12  1  0.750000  0.049041  0.619854  1
  S  S13  1  0.750000  0.446303  0.120447  1
  S  S14  1  0.250000  0.548487  0.890098  1
  S  S15  1  0.250000  0.862559  0.041564  1
  S  S16  1  0.750000  0.133717  0.953143  1
  S  S17  1  0.750000  0.377133  0.459948  1
  S  S18  1  0.250000  0.641467  0.543249  1
  Br  Br19  1  0.250000  0.299941  0.730718  1
