# generated using pymatgen
data_Zr3Al3CoNiPt
_symmetry_space_group_name_H-M   'P 1'
_cell_length_a   7.01184500
_cell_length_b   7.01184584
_cell_length_c   3.54185900
_cell_angle_alpha   90.00000000
_cell_angle_beta   90.00000000
_cell_angle_gamma   120.00001020
_symmetry_Int_Tables_number   1
_chemical_formula_structural   Zr3Al3CoNiPt
_chemical_formula_sum   'Zr3 Al3 Co1 Ni1 Pt1'
_cell_volume   150.80874354
_cell_formula_units_Z   1
loop_
 _symmetry_equiv_pos_site_id
 _symmetry_equiv_pos_as_xyz
  1  'x, y, z'
loop_
 _atom_site_type_symbol
 _atom_site_label
 _atom_site_symmetry_multiplicity
 _atom_site_fract_x
 _atom_site_fract_y
 _atom_site_fract_z
 _atom_site_occupancy
  Zr  Zr0  1  0.018547  0.416495  0.500000  1
  Zr  Zr1  1  0.583505  0.602050  0.500000  1
  Zr  Zr2  1  0.397950  0.981453  0.500000  1
  Al  Al3  1  0.998662  0.751805  0.000000  1
  Al  Al4  1  0.248195  0.246857  0.000000  1
  Al  Al5  1  0.753143  0.001338  0.000000  1
  Co  Co6  1  0.333333  0.666667  0.000000  1
  Ni  Ni7  1  0.000000  0.000000  0.500000  1
  Pt  Pt8  1  0.666667  0.333333  0.000000  1
