# generated using pymatgen
data_DyYPa2(Al3Rh)6
_symmetry_space_group_name_H-M   'P 1'
_cell_length_a   7.60219300
_cell_length_b   7.60261796
_cell_length_c   9.39895300
_cell_angle_alpha   90.00000000
_cell_angle_beta   90.00000000
_cell_angle_gamma   119.62280657
_symmetry_Int_Tables_number   1
_chemical_formula_structural   DyYPa2(Al3Rh)6
_chemical_formula_sum   'Dy1 Y1 Pa2 Al18 Rh6'
_cell_volume   472.22648457
_cell_formula_units_Z   1
loop_
 _symmetry_equiv_pos_site_id
 _symmetry_equiv_pos_as_xyz
  1  'x, y, z'
loop_
 _atom_site_type_symbol
 _atom_site_label
 _atom_site_symmetry_multiplicity
 _atom_site_fract_x
 _atom_site_fract_y
 _atom_site_fract_z
 _atom_site_occupancy
  Dy  Dy0  1  0.669806  0.993751  0.250000  1
  Y  Y1  1  0.330196  0.006257  0.750000  1
  Pa  Pa2  1  0.996764  0.670828  0.250000  1
  Pa  Pa3  1  0.003242  0.329178  0.750000  1
  Al  Al4  1  0.129294  0.126610  0.250000  1
  Al  Al5  1  0.870676  0.873413  0.750000  1
  Al  Al6  1  0.000332  0.332348  0.076809  1
  Al  Al7  1  0.999636  0.667599  0.923189  1
  Al  Al8  1  0.999636  0.667599  0.576811  1
  Al  Al9  1  0.337335  0.002474  0.425155  1
  Al  Al10  1  0.000332  0.332348  0.423191  1
  Al  Al11  1  0.662715  0.997545  0.574800  1
  Al  Al12  1  0.662715  0.997545  0.925200  1
  Al  Al13  1  0.337335  0.002474  0.074845  1
  Al  Al14  1  0.334850  0.333351  0.552531  1
  Al  Al15  1  0.665129  0.666674  0.447451  1
  Al  Al16  1  0.665129  0.666674  0.052549  1
  Al  Al17  1  0.334850  0.333351  0.947469  1
  Al  Al18  1  0.339719  0.548594  0.250000  1
  Al  Al19  1  0.660345  0.451446  0.750000  1
  Al  Al20  1  0.549027  0.341235  0.250000  1
  Al  Al21  1  0.450937  0.658705  0.750000  1
  Rh  Rh22  1  0.674957  0.329355  0.999729  1
  Rh  Rh23  1  0.325049  0.670666  0.000305  1
  Rh  Rh24  1  0.325049  0.670666  0.499695  1
  Rh  Rh25  1  0.674957  0.329355  0.500271  1
  Rh  Rh26  1  0.999995  0.999981  0.000024  1
  Rh  Rh27  1  0.999995  0.999981  0.499976  1
