# generated using pymatgen
data_CeLu8Hg3
_symmetry_space_group_name_H-M   'P 1'
_cell_length_a   4.99584500
_cell_length_b   6.69331165
_cell_length_c   9.72890262
_cell_angle_alpha   83.91837599
_cell_angle_beta   90.00000000
_cell_angle_gamma   90.00000000
_symmetry_Int_Tables_number   1
_chemical_formula_structural   CeLu8Hg3
_chemical_formula_sum   'Ce1 Lu8 Hg3'
_cell_volume   323.49139607
_cell_formula_units_Z   1
loop_
 _symmetry_equiv_pos_site_id
 _symmetry_equiv_pos_as_xyz
  1  'x, y, z'
loop_
 _atom_site_type_symbol
 _atom_site_label
 _atom_site_symmetry_multiplicity
 _atom_site_fract_x
 _atom_site_fract_y
 _atom_site_fract_z
 _atom_site_occupancy
  Ce  Ce0  1  0.750000  0.183030  0.401759  1
  Lu  Lu1  1  0.250000  0.826279  0.929772  1
  Lu  Lu2  1  0.250000  0.371588  0.576280  1
  Lu  Lu3  1  0.750000  0.151505  0.062245  1
  Lu  Lu4  1  0.750000  0.666852  0.426176  1
  Lu  Lu5  1  0.250000  0.939322  0.275431  1
  Lu  Lu6  1  0.250000  0.439418  0.206174  1
  Lu  Lu7  1  0.750000  0.055798  0.721830  1
  Lu  Lu8  1  0.750000  0.541969  0.797368  1
  Hg  Hg9  1  0.250000  0.286447  0.894050  1
  Hg  Hg10  1  0.250000  0.840501  0.601923  1
  Hg  Hg11  1  0.750000  0.697291  0.106991  1
