# generated using pymatgen
data_Gd7SCl12
_symmetry_space_group_name_H-M   'P 1'
_cell_length_a   8.97895594
_cell_length_b   8.97895499
_cell_length_c   8.97895600
_cell_angle_alpha   107.82958897
_cell_angle_beta   107.82959373
_cell_angle_gamma   107.82960393
_symmetry_Int_Tables_number   1
_chemical_formula_structural   Gd7SCl12
_chemical_formula_sum   'Gd7 S1 Cl12'
_cell_volume   588.69347819
_cell_formula_units_Z   1
loop_
 _symmetry_equiv_pos_site_id
 _symmetry_equiv_pos_as_xyz
  1  'x, y, z'
loop_
 _atom_site_type_symbol
 _atom_site_label
 _atom_site_symmetry_multiplicity
 _atom_site_fract_x
 _atom_site_fract_y
 _atom_site_fract_z
 _atom_site_occupancy
  Gd  Gd0  1  0.971872  0.891599  0.680761  1
  Gd  Gd1  1  0.028128  0.108401  0.319239  1
  Gd  Gd2  1  0.108401  0.319239  0.028128  1
  Gd  Gd3  1  0.319239  0.028128  0.108401  1
  Gd  Gd4  1  0.500000  0.500000  0.500000  1
  Gd  Gd5  1  0.891599  0.680761  0.971872  1
  Gd  Gd6  1  0.680761  0.971872  0.891599  1
  S  S7  1  0.000000  0.000000  0.000000  1
  Cl  Cl8  1  0.540981  0.621219  0.838888  1
  Cl  Cl9  1  0.459019  0.378781  0.161112  1
  Cl  Cl10  1  0.314958  0.926224  0.783251  1
  Cl  Cl11  1  0.378781  0.161112  0.459019  1
  Cl  Cl12  1  0.926224  0.783251  0.314958  1
  Cl  Cl13  1  0.685042  0.073776  0.216749  1
  Cl  Cl14  1  0.073776  0.216749  0.685042  1
  Cl  Cl15  1  0.783251  0.314958  0.926224  1
  Cl  Cl16  1  0.216749  0.685042  0.073776  1
  Cl  Cl17  1  0.838888  0.540981  0.621219  1
  Cl  Cl18  1  0.161112  0.459019  0.378781  1
  Cl  Cl19  1  0.621219  0.838888  0.540981  1
