# generated using pymatgen
data_CaPrMnIr3
_symmetry_space_group_name_H-M   'P 1'
_cell_length_a   5.53621482
_cell_length_b   5.53621404
_cell_length_c   5.27454806
_cell_angle_alpha   58.34489652
_cell_angle_beta   58.34490057
_cell_angle_gamma   59.99998459
_symmetry_Int_Tables_number   1
_chemical_formula_structural   CaPrMnIr3
_chemical_formula_sum   'Ca1 Pr1 Mn1 Ir3'
_cell_volume   111.36935535
_cell_formula_units_Z   1
loop_
 _symmetry_equiv_pos_site_id
 _symmetry_equiv_pos_as_xyz
  1  'x, y, z'
loop_
 _atom_site_type_symbol
 _atom_site_label
 _atom_site_symmetry_multiplicity
 _atom_site_fract_x
 _atom_site_fract_y
 _atom_site_fract_z
 _atom_site_occupancy
  Ca  Ca0  1  0.999996  0.999996  0.000010  1
  Pr  Pr1  1  0.248388  0.248388  0.254836  1
  Mn  Mn2  1  0.625248  0.625248  0.124257  1
  Ir  Ir3  1  0.626114  0.626114  0.623632  1
  Ir  Ir4  1  0.124141  0.626114  0.623632  1
  Ir  Ir5  1  0.626114  0.124141  0.623632  1
