# generated using pymatgen
data_Y3Lu(Si5Os3)2
_symmetry_space_group_name_H-M   'P 1'
_cell_length_a   8.12669427
_cell_length_b   8.12051226
_cell_length_c   5.79041476
_cell_angle_alpha   70.56380393
_cell_angle_beta   70.52172719
_cell_angle_gamma   93.98700114
_symmetry_Int_Tables_number   1
_chemical_formula_structural   Y3Lu(Si5Os3)2
_chemical_formula_sum   'Y3 Lu1 Si10 Os6'
_cell_volume   332.65195487
_cell_formula_units_Z   1
loop_
 _symmetry_equiv_pos_site_id
 _symmetry_equiv_pos_as_xyz
  1  'x, y, z'
loop_
 _atom_site_type_symbol
 _atom_site_label
 _atom_site_symmetry_multiplicity
 _atom_site_fract_x
 _atom_site_fract_y
 _atom_site_fract_z
 _atom_site_occupancy
  Y  Y0  1  0.869231  0.601724  0.752176  1
  Y  Y1  1  0.398318  0.132006  0.745927  1
  Y  Y2  1  0.132369  0.397859  0.246507  1
  Lu  Lu3  1  0.599846  0.869510  0.255684  1
  Si  Si4  1  0.067384  0.261703  0.834115  1
  Si  Si5  1  0.737438  0.932439  0.668188  1
  Si  Si6  1  0.929852  0.739588  0.165637  1
  Si  Si7  1  0.262125  0.065943  0.333607  1
  Si  Si8  1  0.206910  0.793729  0.748951  1
  Si  Si9  1  0.792975  0.205584  0.250900  1
  Si  Si10  1  0.513792  0.487590  0.750307  1
  Si  Si11  1  0.488370  0.513704  0.248674  1
  Si  Si12  1  0.774046  0.225028  0.750165  1
  Si  Si13  1  0.226734  0.774791  0.249869  1
  Os  Os14  1  0.257541  0.543958  0.630612  1
  Os  Os15  1  0.456421  0.744403  0.868456  1
  Os  Os16  1  0.743955  0.456514  0.368319  1
  Os  Os17  1  0.544382  0.254364  0.131031  1
  Os  Os18  1  0.001899  0.997719  0.749931  1
  Os  Os19  1  0.996416  0.001843  0.250942  1
