# generated using pymatgen
data_Tm4GePt3F28
_symmetry_space_group_name_H-M   'P 1'
_cell_length_a   5.45353317
_cell_length_b   8.75863788
_cell_length_c   11.79387319
_cell_angle_alpha   62.38591581
_cell_angle_beta   90.09130642
_cell_angle_gamma   90.04587451
_symmetry_Int_Tables_number   1
_chemical_formula_structural   Tm4GePt3F28
_chemical_formula_sum   'Tm4 Ge1 Pt3 F28'
_cell_volume   499.16957124
_cell_formula_units_Z   1
loop_
 _symmetry_equiv_pos_site_id
 _symmetry_equiv_pos_as_xyz
  1  'x, y, z'
loop_
 _atom_site_type_symbol
 _atom_site_label
 _atom_site_symmetry_multiplicity
 _atom_site_fract_x
 _atom_site_fract_y
 _atom_site_fract_z
 _atom_site_occupancy
  Tm  Tm0  1  0.260138  0.814396  0.260650  1
  Tm  Tm1  1  0.738578  0.180980  0.738519  1
  Tm  Tm2  1  0.761253  0.187223  0.234792  1
  Tm  Tm3  1  0.237384  0.813612  0.767956  1
  Ge  Ge4  1  0.758515  0.725423  0.043722  1
  Pt  Pt5  1  0.242423  0.272188  0.958081  1
  Pt  Pt6  1  0.259046  0.272780  0.456935  1
  Pt  Pt7  1  0.739951  0.726714  0.543509  1
  F  F8  1  0.933544  0.702945  0.411871  1
  F  F9  1  0.062926  0.297109  0.586996  1
  F  F10  1  0.437775  0.299095  0.087546  1
  F  F11  1  0.558419  0.708925  0.925650  1
  F  F12  1  0.492461  0.730157  0.136752  1
  F  F13  1  0.543820  0.269616  0.868318  1
  F  F14  1  0.960372  0.277064  0.361848  1
  F  F15  1  0.039018  0.723497  0.638097  1
  F  F16  1  0.955752  0.743205  0.164514  1
  F  F17  1  0.051910  0.254125  0.823148  1
  F  F18  1  0.449584  0.257604  0.320924  1
  F  F19  1  0.551618  0.743160  0.680389  1
  F  F20  1  0.772988  0.491395  0.135790  1
  F  F21  1  0.232178  0.524468  0.860225  1
  F  F22  1  0.272274  0.525190  0.354531  1
  F  F23  1  0.724525  0.473974  0.644244  1
  F  F24  1  0.934505  0.282974  0.041553  1
  F  F25  1  0.037737  0.719403  0.956892  1
  F  F26  1  0.433803  0.721094  0.456034  1
  F  F27  1  0.565525  0.277944  0.543729  1
  F  F28  1  0.743892  0.979439  0.448497  1
  F  F29  1  0.258870  0.020339  0.552444  1
  F  F30  1  0.241979  0.019653  0.049681  1
  F  F31  1  0.760374  0.960861  0.951216  1
  F  F32  1  0.584317  0.972234  0.230542  1
  F  F33  1  0.407680  0.031757  0.770255  1
  F  F34  1  0.084499  0.030259  0.265461  1
  F  F35  1  0.910366  0.969196  0.728691  1
