# generated using pymatgen
data_YbHo9(In2Pt)4
_symmetry_space_group_name_H-M   'P 1'
_cell_length_a   3.59763300
_cell_length_b   8.17104043
_cell_length_c   18.28595711
_cell_angle_alpha   89.86802119
_cell_angle_beta   90.00000000
_cell_angle_gamma   90.00000000
_symmetry_Int_Tables_number   1
_chemical_formula_structural   YbHo9(In2Pt)4
_chemical_formula_sum   'Yb1 Ho9 In8 Pt4'
_cell_volume   537.53996920
_cell_formula_units_Z   1
loop_
 _symmetry_equiv_pos_site_id
 _symmetry_equiv_pos_as_xyz
  1  'x, y, z'
loop_
 _atom_site_type_symbol
 _atom_site_label
 _atom_site_symmetry_multiplicity
 _atom_site_fract_x
 _atom_site_fract_y
 _atom_site_fract_z
 _atom_site_occupancy
  Yb  Yb0  1  0.000000  0.000000  0.000000  1
  Ho  Ho1  1  0.000000  0.117390  0.414901  1
  Ho  Ho2  1  0.000000  0.882610  0.585099  1
  Ho  Ho3  1  0.000000  0.381165  0.914195  1
  Ho  Ho4  1  0.000000  0.618835  0.085805  1
  Ho  Ho5  1  0.000000  0.242168  0.221020  1
  Ho  Ho6  1  0.000000  0.757832  0.778980  1
  Ho  Ho7  1  0.000000  0.258027  0.720515  1
  Ho  Ho8  1  0.000000  0.741973  0.279485  1
  Ho  Ho9  1  0.000000  0.500000  0.500000  1
  In  In10  1  0.500000  0.423295  0.351432  1
  In  In11  1  0.500000  0.576705  0.648568  1
  In  In12  1  0.500000  0.074932  0.850640  1
  In  In13  1  0.500000  0.925068  0.149360  1
  In  In14  1  0.500000  0.293099  0.067380  1
  In  In15  1  0.500000  0.706901  0.932620  1
  In  In16  1  0.500000  0.208243  0.566833  1
  In  In17  1  0.500000  0.791757  0.433167  1
  Pt  Pt18  1  0.500000  0.024102  0.304074  1
  Pt  Pt19  1  0.500000  0.975898  0.695926  1
  Pt  Pt20  1  0.500000  0.477460  0.803066  1
  Pt  Pt21  1  0.500000  0.522540  0.196934  1
