# generated using pymatgen
data_Dy4Er(In2Ni)2
_symmetry_space_group_name_H-M   'P 1'
_cell_length_a   3.59268400
_cell_length_b   7.98127100
_cell_length_c   17.92313100
_cell_angle_alpha   90.00000000
_cell_angle_beta   90.00000000
_cell_angle_gamma   90.00000000
_symmetry_Int_Tables_number   1
_chemical_formula_structural   Dy4Er(In2Ni)2
_chemical_formula_sum   'Dy8 Er2 In8 Ni4'
_cell_volume   513.93116729
_cell_formula_units_Z   2
loop_
 _symmetry_equiv_pos_site_id
 _symmetry_equiv_pos_as_xyz
  1  'x, y, z'
loop_
 _atom_site_type_symbol
 _atom_site_label
 _atom_site_symmetry_multiplicity
 _atom_site_fract_x
 _atom_site_fract_y
 _atom_site_fract_z
 _atom_site_occupancy
  Dy  Dy0  1  0.500000  0.117226  0.087554  1
  Dy  Dy1  1  0.500000  0.754617  0.721401  1
  Dy  Dy2  1  0.500000  0.254617  0.778599  1
  Dy  Dy3  1  0.500000  0.499977  0.999913  1
  Dy  Dy4  1  0.500000  0.745467  0.221406  1
  Dy  Dy5  1  0.500000  0.245467  0.278594  1
  Dy  Dy6  1  0.500000  0.999977  0.500087  1
  Dy  Dy7  1  0.500000  0.617226  0.412446  1
  Er  Er8  1  0.500000  0.383186  0.588255  1
  Er  Er9  1  0.500000  0.883186  0.911745  1
  In  In10  1  0.000000  0.793963  0.068839  1
  In  In11  1  0.000000  0.926248  0.347722  1
  In  In12  1  0.000000  0.074929  0.652106  1
  In  In13  1  0.000000  0.574929  0.847894  1
  In  In14  1  0.000000  0.704854  0.569293  1
  In  In15  1  0.000000  0.204854  0.930707  1
  In  In16  1  0.000000  0.293963  0.431161  1
  In  In17  1  0.000000  0.426248  0.152278  1
  Ni  Ni18  1  0.000000  0.974634  0.804691  1
  Ni  Ni19  1  0.000000  0.524900  0.304359  1
  Ni  Ni20  1  0.000000  0.474634  0.695309  1
  Ni  Ni21  1  0.000000  0.024900  0.195641  1
