# generated using pymatgen
data_Tb9ErIn8PdAu3
_symmetry_space_group_name_H-M   'P 1'
_cell_length_a   3.67001700
_cell_length_b   8.22382252
_cell_length_c   18.47129653
_cell_angle_alpha   89.98750830
_cell_angle_beta   90.00000000
_cell_angle_gamma   90.00000000
_symmetry_Int_Tables_number   1
_chemical_formula_structural   Tb9ErIn8PdAu3
_chemical_formula_sum   'Tb9 Er1 In8 Pd1 Au3'
_cell_volume   557.49268746
_cell_formula_units_Z   1
loop_
 _symmetry_equiv_pos_site_id
 _symmetry_equiv_pos_as_xyz
  1  'x, y, z'
loop_
 _atom_site_type_symbol
 _atom_site_label
 _atom_site_symmetry_multiplicity
 _atom_site_fract_x
 _atom_site_fract_y
 _atom_site_fract_z
 _atom_site_occupancy
  Tb  Tb0  1  0.000000  0.500186  0.499327  1
  Tb  Tb1  1  0.000000  0.000247  0.000559  1
  Tb  Tb2  1  0.000000  0.747079  0.283315  1
  Tb  Tb3  1  0.000000  0.263713  0.716536  1
  Tb  Tb4  1  0.000000  0.763487  0.782827  1
  Tb  Tb5  1  0.000000  0.231245  0.219583  1
  Tb  Tb6  1  0.000000  0.619118  0.080686  1
  Tb  Tb7  1  0.000000  0.380730  0.920793  1
  Tb  Tb8  1  0.000000  0.879901  0.578762  1
  Er  Er9  1  0.000000  0.115172  0.416289  1
  In  In10  1  0.500000  0.710860  0.933664  1
  In  In11  1  0.500000  0.288867  0.067847  1
  In  In12  1  0.500000  0.792042  0.432076  1
  In  In13  1  0.500000  0.209577  0.564451  1
  In  In14  1  0.500000  0.580236  0.646744  1
  In  In15  1  0.500000  0.415845  0.352483  1
  In  In16  1  0.500000  0.922278  0.149063  1
  In  In17  1  0.500000  0.081178  0.852934  1
  Pd  Pd18  1  0.500000  0.026712  0.304648  1
  Au  Au19  1  0.500000  0.526355  0.198027  1
  Au  Au20  1  0.500000  0.472526  0.803320  1
  Au  Au21  1  0.500000  0.972645  0.696062  1
