# generated using pymatgen
data_La7PrSbPd24
_symmetry_space_group_name_H-M   'P 1'
_cell_length_a   8.59854631
_cell_length_b   8.59854661
_cell_length_c   8.59854600
_cell_angle_alpha   90.01529923
_cell_angle_beta   90.01529923
_cell_angle_gamma   90.01529514
_symmetry_Int_Tables_number   1
_chemical_formula_structural   La7PrSbPd24
_chemical_formula_sum   'La7 Pr1 Sb1 Pd24'
_cell_volume   635.73344102
_cell_formula_units_Z   1
loop_
 _symmetry_equiv_pos_site_id
 _symmetry_equiv_pos_as_xyz
  1  'x, y, z'
loop_
 _atom_site_type_symbol
 _atom_site_label
 _atom_site_symmetry_multiplicity
 _atom_site_fract_x
 _atom_site_fract_y
 _atom_site_fract_z
 _atom_site_occupancy
  La  La0  1  0.748246  0.748246  0.748246  1
  La  La1  1  0.748294  0.748294  0.251780  1
  La  La2  1  0.748294  0.251780  0.748294  1
  La  La3  1  0.251941  0.251941  0.747924  1
  La  La4  1  0.251941  0.747924  0.251941  1
  La  La5  1  0.251780  0.748294  0.748294  1
  La  La6  1  0.747924  0.251941  0.251941  1
  Pr  Pr7  1  0.251151  0.251151  0.251151  1
  Sb  Sb8  1  0.999722  0.999722  0.999722  1
  Pd  Pd9  1  0.267287  0.500000  0.000019  1
  Pd  Pd10  1  0.732873  0.499993  0.000101  1
  Pd  Pd11  1  0.000019  0.267287  0.500000  1
  Pd  Pd12  1  0.500000  0.267287  0.000019  1
  Pd  Pd13  1  0.000101  0.732873  0.499993  1
  Pd  Pd14  1  0.499993  0.732873  0.000101  1
  Pd  Pd15  1  0.500000  0.000019  0.267287  1
  Pd  Pd16  1  0.267287  0.000019  0.500000  1
  Pd  Pd17  1  0.499993  0.000101  0.732873  1
  Pd  Pd18  1  0.732873  0.000101  0.499993  1
  Pd  Pd19  1  0.000019  0.500000  0.267287  1
  Pd  Pd20  1  0.000101  0.499993  0.732873  1
  Pd  Pd21  1  0.255663  0.499862  0.499862  1
  Pd  Pd22  1  0.744395  0.500048  0.500048  1
  Pd  Pd23  1  0.499862  0.255663  0.499862  1
  Pd  Pd24  1  0.500048  0.744395  0.500048  1
  Pd  Pd25  1  0.499862  0.499862  0.255663  1
  Pd  Pd26  1  0.500048  0.500048  0.744395  1
  Pd  Pd27  1  0.313486  0.000180  0.000180  1
  Pd  Pd28  1  0.686279  0.000083  0.000083  1
  Pd  Pd29  1  0.000180  0.313486  0.000180  1
  Pd  Pd30  1  0.000083  0.686279  0.000083  1
  Pd  Pd31  1  0.000180  0.000180  0.313486  1
  Pd  Pd32  1  0.000083  0.000083  0.686279  1
