# generated using pymatgen
data_Ac2Sn2Pd
_symmetry_space_group_name_H-M   'P 1'
_cell_length_a   6.51649930
_cell_length_b   6.51649984
_cell_length_c   12.63597500
_cell_angle_alpha   118.71239683
_cell_angle_beta   118.71239942
_cell_angle_gamma   43.14399556
_symmetry_Int_Tables_number   1
_chemical_formula_structural   Ac2Sn2Pd
_chemical_formula_sum   'Ac4 Sn4 Pd2'
_cell_volume   314.17953446
_cell_formula_units_Z   2
loop_
 _symmetry_equiv_pos_site_id
 _symmetry_equiv_pos_as_xyz
  1  'x, y, z'
loop_
 _atom_site_type_symbol
 _atom_site_label
 _atom_site_symmetry_multiplicity
 _atom_site_fract_x
 _atom_site_fract_y
 _atom_site_fract_z
 _atom_site_occupancy
  Ac  Ac0  1  0.940585  0.940585  0.142167  1
  Ac  Ac1  1  0.800853  0.800853  0.393040  1
  Ac  Ac2  1  0.199147  0.199147  0.606960  1
  Ac  Ac3  1  0.059415  0.059415  0.857833  1
  Sn  Sn4  1  0.635456  0.635456  0.086961  1
  Sn  Sn5  1  0.508441  0.508441  0.382559  1
  Sn  Sn6  1  0.491559  0.491559  0.617441  1
  Sn  Sn7  1  0.364544  0.364544  0.913039  1
  Pd  Pd8  1  0.249828  0.249828  0.192205  1
  Pd  Pd9  1  0.750172  0.750172  0.807795  1
