# generated using pymatgen
data_U2Al3Zn
_symmetry_space_group_name_H-M   'P 1'
_cell_length_a   5.60690500
_cell_length_b   5.60690870
_cell_length_c   8.36182000
_cell_angle_alpha   90.00000367
_cell_angle_beta   89.99989409
_cell_angle_gamma   120.00001787
_symmetry_Int_Tables_number   1
_chemical_formula_structural   U2Al3Zn
_chemical_formula_sum   'U4 Al6 Zn2'
_cell_volume   227.65544934
_cell_formula_units_Z   2
loop_
 _symmetry_equiv_pos_site_id
 _symmetry_equiv_pos_as_xyz
  1  'x, y, z'
loop_
 _atom_site_type_symbol
 _atom_site_label
 _atom_site_symmetry_multiplicity
 _atom_site_fract_x
 _atom_site_fract_y
 _atom_site_fract_z
 _atom_site_occupancy
  U  U0  1  0.333333  0.666667  0.404497  1
  U  U1  1  0.666665  0.333332  0.904310  1
  U  U2  1  0.666667  0.333333  0.595503  1
  U  U3  1  0.333335  0.666668  0.095690  1
  Al  Al4  1  0.655697  0.827849  0.749973  1
  Al  Al5  1  0.344303  0.172151  0.250027  1
  Al  Al6  1  0.172151  0.344303  0.749973  1
  Al  Al7  1  0.827849  0.172151  0.250027  1
  Al  Al8  1  0.827849  0.655697  0.250027  1
  Al  Al9  1  0.172151  0.827849  0.749973  1
  Zn  Zn10  1  0.000000  0.000000  0.500000  1
  Zn  Zn11  1  0.000000  0.000000  0.000000  1
