# generated using pymatgen
data_TaNb5(GaC)2
_symmetry_space_group_name_H-M   'P 1'
_cell_length_a   5.67597014
_cell_length_b   5.67597098
_cell_length_c   8.47139200
_cell_angle_alpha   90.00000000
_cell_angle_beta   90.00000000
_cell_angle_gamma   146.43458058
_symmetry_Int_Tables_number   1
_chemical_formula_structural   TaNb5(GaC)2
_chemical_formula_sum   'Ta1 Nb5 Ga2 C2'
_cell_volume   150.89428608
_cell_formula_units_Z   1
loop_
 _symmetry_equiv_pos_site_id
 _symmetry_equiv_pos_as_xyz
  1  'x, y, z'
loop_
 _atom_site_type_symbol
 _atom_site_label
 _atom_site_symmetry_multiplicity
 _atom_site_fract_x
 _atom_site_fract_y
 _atom_site_fract_z
 _atom_site_occupancy
  Ta  Ta0  1  0.951732  0.048269  0.750000  1
  Nb  Nb1  1  0.368613  0.631388  0.048955  1
  Nb  Nb2  1  0.048391  0.951610  0.250000  1
  Nb  Nb3  1  0.368613  0.631388  0.451044  1
  Nb  Nb4  1  0.631329  0.368672  0.549510  1
  Nb  Nb5  1  0.631329  0.368672  0.950490  1
  Ga  Ga6  1  0.744007  0.255994  0.250000  1
  Ga  Ga7  1  0.256133  0.743868  0.750000  1
  C  C8  1  0.999929  0.000071  0.998895  1
  C  C9  1  0.999929  0.000071  0.501104  1
