# generated using pymatgen
data_Ho3TmTa4(Fe4P3)4
_symmetry_space_group_name_H-M   'P 1'
_cell_length_a   3.67019400
_cell_length_b   10.43508602
_cell_length_c   12.34084703
_cell_angle_alpha   89.99268300
_cell_angle_beta   90.00000000
_cell_angle_gamma   90.00000000
_symmetry_Int_Tables_number   1
_chemical_formula_structural   Ho3TmTa4(Fe4P3)4
_chemical_formula_sum   'Ho3 Tm1 Ta4 Fe16 P12'
_cell_volume   472.63950608
_cell_formula_units_Z   1
loop_
 _symmetry_equiv_pos_site_id
 _symmetry_equiv_pos_as_xyz
  1  'x, y, z'
loop_
 _atom_site_type_symbol
 _atom_site_label
 _atom_site_symmetry_multiplicity
 _atom_site_fract_x
 _atom_site_fract_y
 _atom_site_fract_z
 _atom_site_occupancy
  Ho  Ho0  1  0.250000  0.916438  0.213228  1
  Ho  Ho1  1  0.750000  0.416685  0.286776  1
  Ho  Ho2  1  0.750000  0.083389  0.786706  1
  Tm  Tm3  1  0.250000  0.583346  0.713447  1
  Ta  Ta4  1  0.250000  0.703554  0.992350  1
  Ta  Ta5  1  0.250000  0.796015  0.492613  1
  Ta  Ta6  1  0.750000  0.296411  0.007586  1
  Ta  Ta7  1  0.750000  0.204040  0.507856  1
  Fe  Fe8  1  0.250000  0.417267  0.491969  1
  Fe  Fe9  1  0.250000  0.083163  0.991600  1
  Fe  Fe10  1  0.750000  0.583260  0.509093  1
  Fe  Fe11  1  0.750000  0.916846  0.008384  1
  Fe  Fe12  1  0.250000  0.216140  0.170624  1
  Fe  Fe13  1  0.250000  0.284344  0.670628  1
  Fe  Fe14  1  0.750000  0.783331  0.829028  1
  Fe  Fe15  1  0.750000  0.716033  0.329387  1
  Fe  Fe16  1  0.250000  0.878629  0.697580  1
  Fe  Fe17  1  0.250000  0.620634  0.197458  1
  Fe  Fe18  1  0.750000  0.120721  0.302473  1
  Fe  Fe19  1  0.750000  0.379986  0.802141  1
  Fe  Fe20  1  0.250000  0.464325  0.933642  1
  Fe  Fe21  1  0.250000  0.035984  0.434152  1
  Fe  Fe22  1  0.750000  0.536029  0.065659  1
  Fe  Fe23  1  0.750000  0.963669  0.566087  1
  P  P24  1  0.250000  0.424786  0.113243  1
  P  P25  1  0.250000  0.075203  0.613393  1
  P  P26  1  0.750000  0.575596  0.885944  1
  P  P27  1  0.750000  0.924450  0.386707  1
  P  P28  1  0.250000  0.273527  0.854529  1
  P  P29  1  0.250000  0.226545  0.354524  1
  P  P30  1  0.750000  0.726455  0.145506  1
  P  P31  1  0.750000  0.772299  0.645533  1
  P  P32  1  0.250000  0.596700  0.375860  1
  P  P33  1  0.250000  0.903217  0.875897  1
  P  P34  1  0.750000  0.404360  0.624309  1
  P  P35  1  0.750000  0.096623  0.124085  1
