# generated using pymatgen
data_Nd4Th2Fe3(Co5P4)3
_symmetry_space_group_name_H-M   'P 1'
_cell_length_a   3.78250000
_cell_length_b   10.69261900
_cell_length_c   12.35899000
_cell_angle_alpha   90.00000000
_cell_angle_beta   90.00000000
_cell_angle_gamma   90.00000000
_symmetry_Int_Tables_number   1
_chemical_formula_structural   Nd4Th2Fe3(Co5P4)3
_chemical_formula_sum   'Nd4 Th2 Fe3 Co15 P12'
_cell_volume   499.85726642
_cell_formula_units_Z   1
loop_
 _symmetry_equiv_pos_site_id
 _symmetry_equiv_pos_as_xyz
  1  'x, y, z'
loop_
 _atom_site_type_symbol
 _atom_site_label
 _atom_site_symmetry_multiplicity
 _atom_site_fract_x
 _atom_site_fract_y
 _atom_site_fract_z
 _atom_site_occupancy
  Nd  Nd0  1  0.500000  0.816302  0.204597  1
  Nd  Nd1  1  0.500000  0.183698  0.204597  1
  Nd  Nd2  1  0.000000  0.682562  0.795809  1
  Nd  Nd3  1  0.000000  0.317438  0.795809  1
  Th  Th4  1  0.000000  0.500000  0.523044  1
  Th  Th5  1  0.500000  0.000000  0.476426  1
  Fe  Fe6  1  0.500000  0.500000  0.153434  1
  Fe  Fe7  1  0.000000  0.000000  0.845144  1
  Fe  Fe8  1  0.000000  0.500000  0.988927  1
  Co  Co9  1  0.500000  0.500000  0.699291  1
  Co  Co10  1  0.000000  0.000000  0.300523  1
  Co  Co11  1  0.500000  0.000000  0.013604  1
  Co  Co12  1  0.500000  0.331782  0.995707  1
  Co  Co13  1  0.500000  0.668218  0.995707  1
  Co  Co14  1  0.000000  0.165507  0.003804  1
  Co  Co15  1  0.000000  0.834493  0.003804  1
  Co  Co16  1  0.500000  0.299176  0.430671  1
  Co  Co17  1  0.500000  0.700824  0.430671  1
  Co  Co18  1  0.000000  0.201210  0.569371  1
  Co  Co19  1  0.000000  0.798790  0.569371  1
  Co  Co20  1  0.500000  0.881550  0.710876  1
  Co  Co21  1  0.500000  0.118450  0.710876  1
  Co  Co22  1  0.000000  0.618612  0.288983  1
  Co  Co23  1  0.000000  0.381388  0.288983  1
  P  P24  1  0.500000  0.500000  0.887620  1
  P  P25  1  0.000000  0.000000  0.115018  1
  P  P26  1  0.500000  0.500000  0.336133  1
  P  P27  1  0.000000  0.000000  0.662848  1
  P  P28  1  0.500000  0.303870  0.615098  1
  P  P29  1  0.500000  0.696130  0.615098  1
  P  P30  1  0.000000  0.196023  0.385055  1
  P  P31  1  0.000000  0.803977  0.385055  1
  P  P32  1  0.500000  0.848913  0.895715  1
  P  P33  1  0.500000  0.151087  0.895715  1
  P  P34  1  0.000000  0.651891  0.103308  1
  P  P35  1  0.000000  0.348109  0.103308  1
