# generated using pymatgen
data_Tb6Er(TmSb2)3
_symmetry_space_group_name_H-M   'P 1'
_cell_length_a   8.98932900
_cell_length_b   8.98932851
_cell_length_c   6.27951400
_cell_angle_alpha   90.00000000
_cell_angle_beta   90.00000000
_cell_angle_gamma   119.99999812
_symmetry_Int_Tables_number   1
_chemical_formula_structural   Tb6Er(TmSb2)3
_chemical_formula_sum   'Tb6 Er1 Tm3 Sb6'
_cell_volume   439.45175190
_cell_formula_units_Z   1
loop_
 _symmetry_equiv_pos_site_id
 _symmetry_equiv_pos_as_xyz
  1  'x, y, z'
loop_
 _atom_site_type_symbol
 _atom_site_label
 _atom_site_symmetry_multiplicity
 _atom_site_fract_x
 _atom_site_fract_y
 _atom_site_fract_z
 _atom_site_occupancy
  Tb  Tb0  1  0.000016  0.752464  0.750013  1
  Tb  Tb1  1  0.000016  0.247553  0.249987  1
  Tb  Tb2  1  0.752447  0.752464  0.249987  1
  Tb  Tb3  1  0.752447  0.999984  0.750013  1
  Tb  Tb4  1  0.247536  0.247553  0.750013  1
  Tb  Tb5  1  0.247536  0.999984  0.249987  1
  Er  Er6  1  0.333333  0.666667  0.000000  1
  Tm  Tm7  1  0.333333  0.666667  0.500000  1
  Tm  Tm8  1  0.666667  0.333333  0.000000  1
  Tm  Tm9  1  0.666667  0.333333  0.500000  1
  Sb  Sb10  1  0.389902  0.000191  0.749866  1
  Sb  Sb11  1  0.389902  0.389710  0.250134  1
  Sb  Sb12  1  0.999809  0.610098  0.250134  1
  Sb  Sb13  1  0.999809  0.389710  0.749866  1
  Sb  Sb14  1  0.610290  0.610098  0.749866  1
  Sb  Sb15  1  0.610290  0.000191  0.250134  1
