# generated using pymatgen
data_MgZr2(Co3B2)3
_symmetry_space_group_name_H-M   'P 1'
_cell_length_a   5.69453406
_cell_length_b   5.69453444
_cell_length_c   5.69453417
_cell_angle_alpha   95.27597276
_cell_angle_beta   95.27597276
_cell_angle_gamma   95.27598139
_symmetry_Int_Tables_number   1
_chemical_formula_structural   MgZr2(Co3B2)3
_chemical_formula_sum   'Mg1 Zr2 Co9 B6'
_cell_volume   182.15816867
_cell_formula_units_Z   1
loop_
 _symmetry_equiv_pos_site_id
 _symmetry_equiv_pos_as_xyz
  1  'x, y, z'
loop_
 _atom_site_type_symbol
 _atom_site_label
 _atom_site_symmetry_multiplicity
 _atom_site_fract_x
 _atom_site_fract_y
 _atom_site_fract_z
 _atom_site_occupancy
  Mg  Mg0  1  0.000000  0.000000  0.000000  1
  Zr  Zr1  1  0.675280  0.675280  0.675280  1
  Zr  Zr2  1  0.324720  0.324720  0.324720  1
  Co  Co3  1  0.000000  0.000000  0.500000  1
  Co  Co4  1  0.500000  0.000000  0.000000  1
  Co  Co5  1  0.000000  0.500000  0.000000  1
  Co  Co6  1  0.699638  0.199542  0.699638  1
  Co  Co7  1  0.699638  0.699638  0.199542  1
  Co  Co8  1  0.199542  0.699638  0.699638  1
  Co  Co9  1  0.300362  0.800458  0.300362  1
  Co  Co10  1  0.300362  0.300362  0.800458  1
  Co  Co11  1  0.800458  0.300362  0.300362  1
  B  B12  1  0.618349  0.381651  0.000000  1
  B  B13  1  0.000000  0.618349  0.381651  1
  B  B14  1  0.381651  0.000000  0.618349  1
  B  B15  1  0.000000  0.381651  0.618349  1
  B  B16  1  0.618349  0.000000  0.381651  1
  B  B17  1  0.381651  0.618349  0.000000  1
