# generated using pymatgen
data_LiLa8Ir5Pt
_symmetry_space_group_name_H-M   'P 1'
_cell_length_a   7.78660104
_cell_length_b   7.79028942
_cell_length_c   7.80097486
_cell_angle_alpha   69.41278878
_cell_angle_beta   69.68080519
_cell_angle_gamma   69.35237968
_symmetry_Int_Tables_number   1
_chemical_formula_structural   LiLa8Ir5Pt
_chemical_formula_sum   'Li1 La8 Ir5 Pt1'
_cell_volume   400.84340279
_cell_formula_units_Z   1
loop_
 _symmetry_equiv_pos_site_id
 _symmetry_equiv_pos_as_xyz
  1  'x, y, z'
loop_
 _atom_site_type_symbol
 _atom_site_label
 _atom_site_symmetry_multiplicity
 _atom_site_fract_x
 _atom_site_fract_y
 _atom_site_fract_z
 _atom_site_occupancy
  Li  Li0  1  0.000013  0.999803  0.000690  1
  La  La1  1  0.811429  0.810646  0.814188  1
  La  La2  1  0.187803  0.185824  0.181252  1
  La  La3  1  0.141701  0.385487  0.687773  1
  La  La4  1  0.682933  0.137424  0.379016  1
  La  La5  1  0.381031  0.685963  0.138983  1
  La  La6  1  0.862141  0.622187  0.311614  1
  La  La7  1  0.318795  0.857649  0.618821  1
  La  La8  1  0.612706  0.315886  0.867491  1
  Ir  Ir9  1  0.573139  0.949369  0.185548  1
  Ir  Ir10  1  0.187404  0.573392  0.948242  1
  Ir  Ir11  1  0.051758  0.813667  0.427086  1
  Ir  Ir12  1  0.426527  0.052885  0.812114  1
  Ir  Ir13  1  0.813859  0.424980  0.052018  1
  Pt  Pt14  1  0.948759  0.184839  0.575164  1
