# generated using pymatgen
data_Zr6Nb4Al12Fe(Ir2Ru)2
_symmetry_space_group_name_H-M   'P 1'
_cell_length_a   8.84755768
_cell_length_b   8.84605224
_cell_length_c   8.84420000
_cell_angle_alpha   60.02156045
_cell_angle_beta   59.98744292
_cell_angle_gamma   59.99438197
_symmetry_Int_Tables_number   1
_chemical_formula_structural   Zr6Nb4Al12Fe(Ir2Ru)2
_chemical_formula_sum   'Zr6 Nb4 Al12 Fe1 Ir4 Ru2'
_cell_volume   489.47158411
_cell_formula_units_Z   1
loop_
 _symmetry_equiv_pos_site_id
 _symmetry_equiv_pos_as_xyz
  1  'x, y, z'
loop_
 _atom_site_type_symbol
 _atom_site_label
 _atom_site_symmetry_multiplicity
 _atom_site_fract_x
 _atom_site_fract_y
 _atom_site_fract_z
 _atom_site_occupancy
  Zr  Zr0  1  0.692452  0.692498  0.307743  1
  Zr  Zr1  1  0.307306  0.692498  0.307743  1
  Zr  Zr2  1  0.685196  0.314302  0.315305  1
  Zr  Zr3  1  0.308325  0.307971  0.691502  1
  Zr  Zr4  1  0.692202  0.307971  0.691502  1
  Zr  Zr5  1  0.314371  0.686095  0.685162  1
  Nb  Nb6  1  0.881042  0.885327  0.352588  1
  Nb  Nb7  1  0.883037  0.350845  0.883081  1
  Nb  Nb8  1  0.351710  0.884115  0.879836  1
  Nb  Nb9  1  0.884340  0.884115  0.879836  1
  Al  Al10  1  0.120784  0.118522  0.639909  1
  Al  Al11  1  0.119510  0.641213  0.119767  1
  Al  Al12  1  0.640576  0.118439  0.121924  1
  Al  Al13  1  0.119062  0.118439  0.121924  1
  Al  Al14  1  0.661263  0.662215  0.015258  1
  Al  Al15  1  0.662682  0.012252  0.662384  1
  Al  Al16  1  0.013941  0.662652  0.661180  1
  Al  Al17  1  0.662225  0.662652  0.661180  1
  Al  Al18  1  0.337271  0.336536  0.988924  1
  Al  Al19  1  0.335920  0.990908  0.337255  1
  Al  Al20  1  0.989631  0.335471  0.337724  1
  Al  Al21  1  0.337174  0.335471  0.337724  1
  Fe  Fe22  1  0.999968  0.001767  0.998297  1
  Ir  Ir23  1  0.998373  0.501393  0.501861  1
  Ir  Ir24  1  0.501753  0.501465  0.998119  1
  Ir  Ir25  1  0.998664  0.501465  0.998119  1
  Ir  Ir26  1  0.501676  0.998733  0.997914  1
  Ru  Ru27  1  0.997168  0.997336  0.503119  1
  Ru  Ru28  1  0.502376  0.997336  0.503119  1
