# generated using pymatgen
data_Hf5PaPBr15
_symmetry_space_group_name_H-M   'P 1'
_cell_length_a   9.53302686
_cell_length_b   9.53302708
_cell_length_c   9.53302700
_cell_angle_alpha   113.52373563
_cell_angle_beta   101.63885782
_cell_angle_gamma   113.52373437
_symmetry_Int_Tables_number   1
_chemical_formula_structural   Hf5PaPBr15
_chemical_formula_sum   'Hf5 Pa1 P1 Br15'
_cell_volume   657.74921602
_cell_formula_units_Z   1
loop_
 _symmetry_equiv_pos_site_id
 _symmetry_equiv_pos_as_xyz
  1  'x, y, z'
loop_
 _atom_site_type_symbol
 _atom_site_label
 _atom_site_symmetry_multiplicity
 _atom_site_fract_x
 _atom_site_fract_y
 _atom_site_fract_z
 _atom_site_occupancy
  Hf  Hf0  1  0.232318  0.233013  0.999304  1
  Hf  Hf1  1  0.814105  0.000000  0.814105  1
  Hf  Hf2  1  0.999304  0.233013  0.232318  1
  Hf  Hf3  1  0.999304  0.766987  0.766290  1
  Hf  Hf4  1  0.766290  0.766987  0.999304  1
  Pa  Pa5  1  0.236577  0.000000  0.236577  1
  P  P6  1  0.016309  0.000000  0.016309  1
  Br  Br7  1  0.948613  0.728162  0.220451  1
  Br  Br8  1  0.220451  0.728162  0.948613  1
  Br  Br9  1  0.529303  0.752091  0.777212  1
  Br  Br10  1  0.025121  0.247909  0.777212  1
  Br  Br11  1  0.745259  0.000000  0.254876  1
  Br  Br12  1  0.254876  0.509618  0.254876  1
  Br  Br13  1  0.777212  0.247909  0.025121  1
  Br  Br14  1  0.490034  0.500000  0.990034  1
  Br  Br15  1  0.220451  0.271838  0.492291  1
  Br  Br16  1  0.745259  0.490382  0.745259  1
  Br  Br17  1  0.777212  0.752091  0.529303  1
  Br  Br18  1  0.492291  0.271838  0.220451  1
  Br  Br19  1  0.254876  0.000000  0.745259  1
  Br  Br20  1  0.990034  0.500000  0.490034  1
  Br  Br21  1  0.464800  0.000000  0.464800  1
