# generated using pymatgen
data_Sr4AlRhO8
_symmetry_space_group_name_H-M   'P 1'
_cell_length_a   6.89923265
_cell_length_b   6.89923207
_cell_length_c   5.48814800
_cell_angle_alpha   90.00000000
_cell_angle_beta   90.00000000
_cell_angle_gamma   133.10543957
_symmetry_Int_Tables_number   1
_chemical_formula_structural   Sr4AlRhO8
_chemical_formula_sum   'Sr4 Al1 Rh1 O8'
_cell_volume   190.72523656
_cell_formula_units_Z   1
loop_
 _symmetry_equiv_pos_site_id
 _symmetry_equiv_pos_as_xyz
  1  'x, y, z'
loop_
 _atom_site_type_symbol
 _atom_site_label
 _atom_site_symmetry_multiplicity
 _atom_site_fract_x
 _atom_site_fract_y
 _atom_site_fract_z
 _atom_site_occupancy
  Sr  Sr0  1  0.645999  0.354001  0.000000  1
  Sr  Sr1  1  0.142982  0.857018  0.500000  1
  Sr  Sr2  1  0.857018  0.142982  0.500000  1
  Sr  Sr3  1  0.354001  0.645999  0.000000  1
  Al  Al4  1  0.000000  0.000000  0.000000  1
  Rh  Rh5  1  0.500000  0.500000  0.500000  1
  O  O6  1  0.753864  0.753864  0.246504  1
  O  O7  1  0.246136  0.246136  0.753496  1
  O  O8  1  0.246136  0.246136  0.246504  1
  O  O9  1  0.753864  0.753864  0.753496  1
  O  O10  1  0.846261  0.153739  0.000000  1
  O  O11  1  0.338670  0.661330  0.500000  1
  O  O12  1  0.661330  0.338670  0.500000  1
  O  O13  1  0.153739  0.846261  0.000000  1
