# generated using pymatgen
data_Rb2ThSe3
_symmetry_space_group_name_H-M   'P 1'
_cell_length_a   7.88569884
_cell_length_b   7.88569887
_cell_length_c   8.46267599
_cell_angle_alpha   80.85116361
_cell_angle_beta   80.85116600
_cell_angle_gamma   119.97224883
_symmetry_Int_Tables_number   1
_chemical_formula_structural   Rb2ThSe3
_chemical_formula_sum   'Rb4 Th2 Se6'
_cell_volume   432.22570061
_cell_formula_units_Z   2
loop_
 _symmetry_equiv_pos_site_id
 _symmetry_equiv_pos_as_xyz
  1  'x, y, z'
loop_
 _atom_site_type_symbol
 _atom_site_label
 _atom_site_symmetry_multiplicity
 _atom_site_fract_x
 _atom_site_fract_y
 _atom_site_fract_z
 _atom_site_occupancy
  Rb  Rb0  1  0.500000  0.500000  0.000000  1
  Rb  Rb1  1  0.655206  0.344794  0.500000  1
  Rb  Rb2  1  0.344794  0.655206  0.500000  1
  Rb  Rb3  1  0.000000  0.000000  0.500000  1
  Th  Th4  1  0.832278  0.167722  0.000000  1
  Th  Th5  1  0.167722  0.832278  0.000000  1
  Se  Se6  1  0.810266  0.810266  0.202308  1
  Se  Se7  1  0.189734  0.189734  0.797692  1
  Se  Se8  1  0.430349  0.049616  0.204512  1
  Se  Se9  1  0.569651  0.950384  0.795488  1
  Se  Se10  1  0.950384  0.569651  0.795488  1
  Se  Se11  1  0.049616  0.430349  0.204512  1
