# generated using pymatgen
data_Dy7Er(AlRu)8
_symmetry_space_group_name_H-M   'P 1'
_cell_length_a   4.08157400
_cell_length_b   7.01022824
_cell_length_c   15.97256393
_cell_angle_alpha   90.12471206
_cell_angle_beta   90.00000000
_cell_angle_gamma   90.00000000
_symmetry_Int_Tables_number   1
_chemical_formula_structural   Dy7Er(AlRu)8
_chemical_formula_sum   'Dy7 Er1 Al8 Ru8'
_cell_volume   457.01814065
_cell_formula_units_Z   1
loop_
 _symmetry_equiv_pos_site_id
 _symmetry_equiv_pos_as_xyz
  1  'x, y, z'
loop_
 _atom_site_type_symbol
 _atom_site_label
 _atom_site_symmetry_multiplicity
 _atom_site_fract_x
 _atom_site_fract_y
 _atom_site_fract_z
 _atom_site_occupancy
  Dy  Dy0  1  0.750000  0.964038  0.219422  1
  Dy  Dy1  1  0.250000  0.161174  0.563296  1
  Dy  Dy2  1  0.750000  0.842426  0.436954  1
  Dy  Dy3  1  0.750000  0.464147  0.280763  1
  Dy  Dy4  1  0.750000  0.339579  0.062880  1
  Dy  Dy5  1  0.250000  0.657174  0.936655  1
  Dy  Dy6  1  0.250000  0.035608  0.780386  1
  Er  Er7  1  0.250000  0.537206  0.718632  1
  Al  Al8  1  0.750000  0.503066  0.565788  1
  Al  Al9  1  0.750000  0.363823  0.848677  1
  Al  Al10  1  0.750000  0.997702  0.934189  1
  Al  Al11  1  0.750000  0.866549  0.651254  1
  Al  Al12  1  0.250000  0.501054  0.434760  1
  Al  Al13  1  0.250000  0.997742  0.065548  1
  Al  Al14  1  0.250000  0.633996  0.151013  1
  Al  Al15  1  0.250000  0.135782  0.349057  1
  Ru  Ru16  1  0.750000  0.742341  0.811879  1
  Ru  Ru17  1  0.250000  0.232179  0.936555  1
  Ru  Ru18  1  0.750000  0.266389  0.436752  1
  Ru  Ru19  1  0.250000  0.753537  0.312153  1
  Ru  Ru20  1  0.750000  0.764068  0.063564  1
  Ru  Ru21  1  0.750000  0.250767  0.688205  1
  Ru  Ru22  1  0.250000  0.253071  0.187569  1
  Ru  Ru23  1  0.250000  0.736584  0.564051  1
