# generated using pymatgen
data_Y4Tm6Si5P
_symmetry_space_group_name_H-M   'P 1'
_cell_length_a   8.33942100
_cell_length_b   8.35209699
_cell_length_c   6.22184300
_cell_angle_alpha   90.00000000
_cell_angle_beta   90.00000000
_cell_angle_gamma   119.94980356
_symmetry_Int_Tables_number   1
_chemical_formula_structural   Y4Tm6Si5P
_chemical_formula_sum   'Y4 Tm6 Si5 P1'
_cell_volume   375.49188637
_cell_formula_units_Z   1
loop_
 _symmetry_equiv_pos_site_id
 _symmetry_equiv_pos_as_xyz
  1  'x, y, z'
loop_
 _atom_site_type_symbol
 _atom_site_label
 _atom_site_symmetry_multiplicity
 _atom_site_fract_x
 _atom_site_fract_y
 _atom_site_fract_z
 _atom_site_occupancy
  Y  Y0  1  0.000431  0.755894  0.750000  1
  Y  Y1  1  0.754510  0.000000  0.750000  1
  Y  Y2  1  0.244536  0.244106  0.750000  1
  Y  Y3  1  0.244190  0.000000  0.250000  1
  Tm  Tm4  1  0.000795  0.244749  0.250000  1
  Tm  Tm5  1  0.756046  0.755251  0.250000  1
  Tm  Tm6  1  0.333809  0.667348  0.500026  1
  Tm  Tm7  1  0.666462  0.332652  0.999974  1
  Tm  Tm8  1  0.666462  0.332652  0.500026  1
  Tm  Tm9  1  0.333809  0.667348  0.999974  1
  Si  Si10  1  0.394539  0.394510  0.250000  1
  Si  Si11  1  0.000030  0.605490  0.250000  1
  Si  Si12  1  0.000089  0.394179  0.750000  1
  Si  Si13  1  0.605910  0.605821  0.750000  1
  Si  Si14  1  0.608138  0.000000  0.250000  1
  P  P15  1  0.390242  0.000000  0.750000  1
