# generated using pymatgen
data_TbYbCo5B4
_symmetry_space_group_name_H-M   'P 1'
_cell_length_a   7.04055630
_cell_length_b   5.89866533
_cell_length_c   5.26293959
_cell_angle_alpha   77.98642024
_cell_angle_beta   55.03104945
_cell_angle_gamma   46.98254045
_symmetry_Int_Tables_number   1
_chemical_formula_structural   TbYbCo5B4
_chemical_formula_sum   'Tb1 Yb1 Co5 B4'
_cell_volume   124.70698940
_cell_formula_units_Z   1
loop_
 _symmetry_equiv_pos_site_id
 _symmetry_equiv_pos_as_xyz
  1  'x, y, z'
loop_
 _atom_site_type_symbol
 _atom_site_label
 _atom_site_symmetry_multiplicity
 _atom_site_fract_x
 _atom_site_fract_y
 _atom_site_fract_z
 _atom_site_occupancy
  Tb  Tb0  1  0.857060  0.857058  0.142941  1
  Yb  Yb1  1  0.144418  0.144417  0.855583  1
  Co  Co2  1  0.500519  0.500521  0.999480  1
  Co  Co3  1  0.249000  0.249002  0.250999  1
  Co  Co4  1  0.000520  0.000520  0.499481  1
  Co  Co5  1  0.500170  0.500168  0.499831  1
  Co  Co6  1  0.749001  0.749002  0.750999  1
  B  B7  1  0.470101  0.788844  0.211155  1
  B  B8  1  0.210546  0.529819  0.470180  1
  B  B9  1  0.788846  0.470099  0.529900  1
  B  B10  1  0.529820  0.210545  0.789455  1
