# generated using pymatgen
data_Yb14YPa5Pt16
_symmetry_space_group_name_H-M   'P 1'
_cell_length_a   7.54396083
_cell_length_b   7.64555946
_cell_length_c   14.59352803
_cell_angle_alpha   90.11711335
_cell_angle_beta   89.92193897
_cell_angle_gamma   90.14576596
_symmetry_Int_Tables_number   1
_chemical_formula_structural   Yb14YPa5Pt16
_chemical_formula_sum   'Yb14 Y1 Pa5 Pt16'
_cell_volume   841.71734934
_cell_formula_units_Z   1
loop_
 _symmetry_equiv_pos_site_id
 _symmetry_equiv_pos_as_xyz
  1  'x, y, z'
loop_
 _atom_site_type_symbol
 _atom_site_label
 _atom_site_symmetry_multiplicity
 _atom_site_fract_x
 _atom_site_fract_y
 _atom_site_fract_z
 _atom_site_occupancy
  Yb  Yb0  1  0.646340  0.161644  0.879697  1
  Yb  Yb1  1  0.147923  0.335482  0.621204  1
  Yb  Yb2  1  0.494781  0.676098  0.598982  1
  Yb  Yb3  1  0.991792  0.827453  0.900559  1
  Yb  Yb4  1  0.504376  0.319676  0.091082  1
  Yb  Yb5  1  0.003805  0.178863  0.409034  1
  Yb  Yb6  1  0.502718  0.320302  0.408456  1
  Yb  Yb7  1  0.000980  0.179289  0.092881  1
  Yb  Yb8  1  0.498660  0.683308  0.900557  1
  Yb  Yb9  1  0.992233  0.817389  0.599319  1
  Yb  Yb10  1  0.806291  0.508652  0.748163  1
  Yb  Yb11  1  0.313392  0.989426  0.750349  1
  Yb  Yb12  1  0.198106  0.475930  0.249948  1
  Yb  Yb13  1  0.699273  0.022682  0.249357  1
  Y  Y14  1  0.649144  0.156487  0.622733  1
  Pa  Pa15  1  0.153166  0.346617  0.877565  1
  Pa  Pa16  1  0.350288  0.843091  0.120490  1
  Pa  Pa17  1  0.850485  0.658006  0.378451  1
  Pa  Pa18  1  0.352872  0.840994  0.378463  1
  Pa  Pa19  1  0.854067  0.656895  0.120179  1
  Pt  Pt20  1  0.687094  0.946290  0.453856  1
  Pt  Pt21  1  0.194870  0.553545  0.039369  1
  Pt  Pt22  1  0.297462  0.052999  0.964578  1
  Pt  Pt23  1  0.805277  0.459558  0.534233  1
  Pt  Pt24  1  0.311342  0.027247  0.536958  1
  Pt  Pt25  1  0.821108  0.465431  0.959215  1
  Pt  Pt26  1  0.678685  0.943275  0.045684  1
  Pt  Pt27  1  0.180654  0.555372  0.454671  1
  Pt  Pt28  1  0.442155  0.366239  0.750847  1
  Pt  Pt29  1  0.954942  0.136320  0.760810  1
  Pt  Pt30  1  0.550884  0.643886  0.248995  1
  Pt  Pt31  1  0.052592  0.853119  0.249281  1
  Pt  Pt32  1  0.692257  0.869092  0.747678  1
  Pt  Pt33  1  0.176901  0.629641  0.755459  1
  Pt  Pt34  1  0.322270  0.118243  0.250652  1
  Pt  Pt35  1  0.820817  0.381458  0.250244  1
