# generated using pymatgen
data_Zr3(TaSi2)2
_symmetry_space_group_name_H-M   'P 1'
_cell_length_a   6.96761834
_cell_length_b   6.96875287
_cell_length_c   12.85079376
_cell_angle_alpha   90.36626068
_cell_angle_beta   89.96943654
_cell_angle_gamma   89.98158134
_symmetry_Int_Tables_number   1
_chemical_formula_structural   Zr3(TaSi2)2
_chemical_formula_sum   'Zr12 Ta8 Si16'
_cell_volume   623.96526333
_cell_formula_units_Z   4
loop_
 _symmetry_equiv_pos_site_id
 _symmetry_equiv_pos_as_xyz
  1  'x, y, z'
loop_
 _atom_site_type_symbol
 _atom_site_label
 _atom_site_symmetry_multiplicity
 _atom_site_fract_x
 _atom_site_fract_y
 _atom_site_fract_z
 _atom_site_occupancy
  Zr  Zr0  1  0.650024  0.497373  0.876384  1
  Zr  Zr1  1  0.502416  0.351692  0.622455  1
  Zr  Zr2  1  0.499400  0.647544  0.125559  1
  Zr  Zr3  1  0.146957  0.999277  0.873797  1
  Zr  Zr4  1  0.001404  0.653005  0.036367  1
  Zr  Zr5  1  0.001463  0.346058  0.529405  1
  Zr  Zr6  1  0.653747  0.999374  0.967649  1
  Zr  Zr7  1  0.151260  0.498963  0.781838  1
  Zr  Zr8  1  0.846938  0.500485  0.282521  1
  Zr  Zr9  1  0.501380  0.153156  0.220801  1
  Zr  Zr10  1  0.501324  0.846992  0.714269  1
  Zr  Zr11  1  0.343538  0.001290  0.467301  1
  Ta  Ta12  1  0.350047  0.507385  0.375602  1
  Ta  Ta13  1  0.853710  0.996498  0.374338  1
  Ta  Ta14  1  0.006838  0.148145  0.127193  1
  Ta  Ta15  1  0.995431  0.851875  0.624415  1
  Ta  Ta16  1  0.673575  0.674299  0.498214  1
  Ta  Ta17  1  0.828363  0.171146  0.748124  1
  Ta  Ta18  1  0.171270  0.830265  0.251977  1
  Ta  Ta19  1  0.326200  0.324532  0.001901  1
  Si  Si20  1  0.047232  0.703587  0.436320  1
  Si  Si21  1  0.954412  0.298809  0.938111  1
  Si  Si22  1  0.704628  0.046086  0.561506  1
  Si  Si23  1  0.201262  0.449808  0.187917  1
  Si  Si24  1  0.801507  0.550040  0.683776  1
  Si  Si25  1  0.452228  0.198516  0.813901  1
  Si  Si26  1  0.549561  0.799225  0.315642  1
  Si  Si27  1  0.299053  0.954503  0.065803  1
  Si  Si28  1  0.854175  0.797169  0.817578  1
  Si  Si29  1  0.139206  0.207979  0.323262  1
  Si  Si30  1  0.798207  0.863584  0.180151  1
  Si  Si31  1  0.291122  0.643874  0.570693  1
  Si  Si32  1  0.708636  0.351933  0.074154  1
  Si  Si33  1  0.638889  0.294074  0.424681  1
  Si  Si34  1  0.353708  0.701175  0.929991  1
  Si  Si35  1  0.200889  0.140282  0.676404  1
