# generated using pymatgen
data_Y2TmIn5
_symmetry_space_group_name_H-M   'P 1'
_cell_length_a   6.55259700
_cell_length_b   10.36951700
_cell_length_c   12.19938700
_cell_angle_alpha   90.00000000
_cell_angle_beta   90.00000000
_cell_angle_gamma   90.00000000
_symmetry_Int_Tables_number   1
_chemical_formula_structural   Y2TmIn5
_chemical_formula_sum   'Y8 Tm4 In20'
_cell_volume   828.91499335
_cell_formula_units_Z   4
loop_
 _symmetry_equiv_pos_site_id
 _symmetry_equiv_pos_as_xyz
  1  'x, y, z'
loop_
 _atom_site_type_symbol
 _atom_site_label
 _atom_site_symmetry_multiplicity
 _atom_site_fract_x
 _atom_site_fract_y
 _atom_site_fract_z
 _atom_site_occupancy
  Y  Y0  1  0.887157  0.488978  0.142029  1
  Y  Y1  1  0.612843  0.011022  0.642029  1
  Y  Y2  1  0.112843  0.988978  0.857971  1
  Y  Y3  1  0.387157  0.511022  0.357971  1
  Y  Y4  1  0.112843  0.511022  0.857971  1
  Y  Y5  1  0.387157  0.988978  0.357971  1
  Y  Y6  1  0.887157  0.011022  0.142029  1
  Y  Y7  1  0.612843  0.488978  0.642029  1
  Tm  Tm8  1  0.352769  0.750000  0.052576  1
  Tm  Tm9  1  0.147231  0.750000  0.552576  1
  Tm  Tm10  1  0.647231  0.250000  0.947424  1
  Tm  Tm11  1  0.852769  0.250000  0.447424  1
  In  In12  1  0.610817  0.750000  0.505562  1
  In  In13  1  0.889183  0.750000  0.005562  1
  In  In14  1  0.389183  0.250000  0.494438  1
  In  In15  1  0.110817  0.250000  0.994438  1
  In  In16  1  0.650629  0.750000  0.241688  1
  In  In17  1  0.849371  0.750000  0.741688  1
  In  In18  1  0.349371  0.250000  0.758312  1
  In  In19  1  0.150629  0.250000  0.258312  1
  In  In20  1  0.117140  0.750000  0.278309  1
  In  In21  1  0.382860  0.750000  0.778309  1
  In  In22  1  0.882860  0.250000  0.721691  1
  In  In23  1  0.617140  0.250000  0.221691  1
  In  In24  1  0.871433  0.543517  0.401294  1
  In  In25  1  0.628567  0.956483  0.901294  1
  In  In26  1  0.128567  0.043517  0.598706  1
  In  In27  1  0.371433  0.456483  0.098706  1
  In  In28  1  0.128567  0.456483  0.598706  1
  In  In29  1  0.371433  0.043517  0.098706  1
  In  In30  1  0.871433  0.956483  0.401294  1
  In  In31  1  0.628567  0.543517  0.901294  1
