# generated using pymatgen
data_Na2Fe(Si2O5)2
_symmetry_space_group_name_H-M   'P 1'
_cell_length_a   7.03115676
_cell_length_b   7.90981524
_cell_length_c   9.91720685
_cell_angle_alpha   102.20081082
_cell_angle_beta   101.91830693
_cell_angle_gamma   115.06736331
_symmetry_Int_Tables_number   1
_chemical_formula_structural   Na2Fe(Si2O5)2
_chemical_formula_sum   'Na4 Fe2 Si8 O20'
_cell_volume   460.20164944
_cell_formula_units_Z   2
loop_
 _symmetry_equiv_pos_site_id
 _symmetry_equiv_pos_as_xyz
  1  'x, y, z'
loop_
 _atom_site_type_symbol
 _atom_site_label
 _atom_site_symmetry_multiplicity
 _atom_site_fract_x
 _atom_site_fract_y
 _atom_site_fract_z
 _atom_site_occupancy
  Na  Na0  1  0.656387  0.768740  0.984298  1
  Na  Na1  1  0.738684  0.274065  0.421100  1
  Na  Na2  1  0.261316  0.725935  0.578900  1
  Na  Na3  1  0.343613  0.231260  0.015702  1
  Fe  Fe4  1  0.754044  0.696478  0.579674  1
  Fe  Fe5  1  0.245956  0.303522  0.420326  1
  Si  Si6  1  0.091336  0.712491  0.861640  1
  Si  Si7  1  0.908664  0.287509  0.138360  1
  Si  Si8  1  0.234478  0.925757  0.196397  1
  Si  Si9  1  0.765522  0.074243  0.803603  1
  Si  Si10  1  0.386899  0.628268  0.258320  1
  Si  Si11  1  0.189581  0.381470  0.752537  1
  Si  Si12  1  0.810419  0.618530  0.247463  1
  Si  Si13  1  0.613101  0.371732  0.741680  1
  O  O14  1  0.981614  0.792140  0.197916  1
  O  O15  1  0.018386  0.207860  0.802084  1
  O  O16  1  0.848389  0.553285  0.866679  1
  O  O17  1  0.151611  0.446715  0.133321  1
  O  O18  1  0.574809  0.621732  0.183430  1
  O  O19  1  0.425191  0.378268  0.816570  1
  O  O20  1  0.246354  0.601127  0.860502  1
  O  O21  1  0.753646  0.398873  0.139498  1
  O  O22  1  0.886894  0.643578  0.416939  1
  O  O23  1  0.113106  0.356422  0.583061  1
  O  O24  1  0.425301  0.600251  0.415496  1
  O  O25  1  0.574699  0.399749  0.584504  1
  O  O26  1  0.070628  0.794147  0.729330  1
  O  O27  1  0.929372  0.205853  0.270670  1
  O  O28  1  0.786148  0.105897  0.978272  1
  O  O29  1  0.213852  0.894103  0.021728  1
  O  O30  1  0.605762  0.158714  0.732161  1
  O  O31  1  0.394238  0.841286  0.267839  1
  O  O32  1  0.343293  0.158166  0.278422  1
  O  O33  1  0.656707  0.841834  0.721578  1
