# generated using pymatgen
data_Ca8Zn3Si12Pd
_symmetry_space_group_name_H-M   'P 1'
_cell_length_a   8.18242700
_cell_length_b   8.18242792
_cell_length_c   8.74869800
_cell_angle_alpha   90.00000000
_cell_angle_beta   90.00000000
_cell_angle_gamma   119.99999223
_symmetry_Int_Tables_number   1
_chemical_formula_structural   Ca8Zn3Si12Pd
_chemical_formula_sum   'Ca8 Zn3 Si12 Pd1'
_cell_volume   507.26911207
_cell_formula_units_Z   1
loop_
 _symmetry_equiv_pos_site_id
 _symmetry_equiv_pos_as_xyz
  1  'x, y, z'
loop_
 _atom_site_type_symbol
 _atom_site_label
 _atom_site_symmetry_multiplicity
 _atom_site_fract_x
 _atom_site_fract_y
 _atom_site_fract_z
 _atom_site_occupancy
  Ca  Ca0  1  0.501234  0.498766  0.746045  1
  Ca  Ca1  1  0.502250  0.497750  0.253881  1
  Ca  Ca2  1  0.997531  0.498766  0.746045  1
  Ca  Ca3  1  0.995499  0.497750  0.253881  1
  Ca  Ca4  1  0.501234  0.002469  0.746045  1
  Ca  Ca5  1  0.502250  0.004501  0.253881  1
  Ca  Ca6  1  0.000000  0.000000  0.748521  1
  Ca  Ca7  1  0.000000  0.000000  0.251802  1
  Zn  Zn8  1  0.666667  0.333333  0.996477  1
  Zn  Zn9  1  0.333333  0.666667  0.002522  1
  Zn  Zn10  1  0.333333  0.666667  0.498225  1
  Si  Si11  1  0.834357  0.165643  0.001034  1
  Si  Si12  1  0.165865  0.834135  0.999274  1
  Si  Si13  1  0.331285  0.165643  0.001034  1
  Si  Si14  1  0.162725  0.837275  0.499891  1
  Si  Si15  1  0.668272  0.834135  0.999274  1
  Si  Si16  1  0.832106  0.167894  0.500288  1
  Si  Si17  1  0.834357  0.668715  0.001034  1
  Si  Si18  1  0.674550  0.837275  0.499891  1
  Si  Si19  1  0.165865  0.331728  0.999274  1
  Si  Si20  1  0.335789  0.167894  0.500288  1
  Si  Si21  1  0.162725  0.325450  0.499891  1
  Si  Si22  1  0.832106  0.664211  0.500288  1
  Pd  Pd23  1  0.666667  0.333333  0.501212  1
