# generated using pymatgen
data_Nd3In4Te
_symmetry_space_group_name_H-M   'P 1'
_cell_length_a   8.60817351
_cell_length_b   8.60817359
_cell_length_c   8.60817367
_cell_angle_alpha   119.36206408
_cell_angle_beta   119.36206108
_cell_angle_gamma   91.10853917
_symmetry_Int_Tables_number   1
_chemical_formula_structural   Nd3In4Te
_chemical_formula_sum   'Nd6 In8 Te2'
_cell_volume   455.30000814
_cell_formula_units_Z   2
loop_
 _symmetry_equiv_pos_site_id
 _symmetry_equiv_pos_as_xyz
  1  'x, y, z'
loop_
 _atom_site_type_symbol
 _atom_site_label
 _atom_site_symmetry_multiplicity
 _atom_site_fract_x
 _atom_site_fract_y
 _atom_site_fract_z
 _atom_site_occupancy
  Nd  Nd0  1  0.750000  0.750000  0.000000  1
  Nd  Nd1  1  0.250000  0.250000  0.000000  1
  Nd  Nd2  1  0.660185  0.160185  0.820371  1
  Nd  Nd3  1  0.339815  0.839815  0.179629  1
  Nd  Nd4  1  0.160185  0.339815  0.500000  1
  Nd  Nd5  1  0.839815  0.660185  0.500000  1
  In  In6  1  0.331976  0.831976  0.790761  1
  In  In7  1  0.668024  0.168024  0.209239  1
  In  In8  1  0.041214  0.541214  0.209239  1
  In  In9  1  0.831976  0.041214  0.500000  1
  In  In10  1  0.458786  0.668024  0.500000  1
  In  In11  1  0.958786  0.458786  0.790761  1
  In  In12  1  0.168024  0.958786  0.500000  1
  In  In13  1  0.541214  0.331976  0.500000  1
  Te  Te14  1  0.500000  0.500000  0.000000  1
  Te  Te15  1  0.000000  0.000000  0.000000  1
