# generated using pymatgen
data_K14Fe5Cu3Se16
_symmetry_space_group_name_H-M   'P 1'
_cell_length_a   10.05009807
_cell_length_b   10.10652039
_cell_length_c   16.46728700
_cell_angle_alpha   66.82866525
_cell_angle_beta   65.81569783
_cell_angle_gamma   48.86349277
_symmetry_Int_Tables_number   1
_chemical_formula_structural   K14Fe5Cu3Se16
_chemical_formula_sum   'K14 Fe5 Cu3 Se16'
_cell_volume   1130.28852501
_cell_formula_units_Z   1
loop_
 _symmetry_equiv_pos_site_id
 _symmetry_equiv_pos_as_xyz
  1  'x, y, z'
loop_
 _atom_site_type_symbol
 _atom_site_label
 _atom_site_symmetry_multiplicity
 _atom_site_fract_x
 _atom_site_fract_y
 _atom_site_fract_z
 _atom_site_occupancy
  K  K0  1  0.263442  0.743465  0.744825  1
  K  K1  1  0.742954  0.238474  0.262263  1
  K  K2  1  0.226281  0.749576  0.988806  1
  K  K3  1  0.264369  0.736027  0.507009  1
  K  K4  1  0.735029  0.267787  0.009404  1
  K  K5  1  0.748015  0.244019  0.492329  1
  K  K6  1  0.000827  0.515164  0.604213  1
  K  K7  1  0.486565  0.999006  0.894912  1
  K  K8  1  0.999584  0.489224  0.392587  1
  K  K9  1  0.481406  0.041610  0.118850  1
  K  K10  1  0.026195  0.491573  0.857461  1
  K  K11  1  0.504197  0.988709  0.633056  1
  K  K12  1  0.966677  0.517419  0.140428  1
  K  K13  1  0.501309  0.005813  0.370490  1
  Fe  Fe14  1  0.440209  0.686172  0.154635  1
  Fe  Fe15  1  0.920059  0.197138  0.778995  1
  Fe  Fe16  1  0.803175  0.080605  0.721812  1
  Fe  Fe17  1  0.083494  0.800319  0.220526  1
  Fe  Fe18  1  0.200793  0.917169  0.278257  1
  Cu  Cu19  1  0.691886  0.429357  0.657948  1
  Cu  Cu20  1  0.562537  0.313642  0.844797  1
  Cu  Cu21  1  0.313159  0.565005  0.342605  1
  Se  Se22  1  0.677392  0.498768  0.795045  1
  Se  Se23  1  0.500430  0.320534  0.708564  1
  Se  Se24  1  0.338677  0.501390  0.199831  1
  Se  Se25  1  0.509698  0.671599  0.284000  1
  Se  Se26  1  0.003894  0.162931  0.624338  1
  Se  Se27  1  0.831368  0.003315  0.875301  1
  Se  Se28  1  0.996648  0.831502  0.380116  1
  Se  Se29  1  0.183996  0.985974  0.120945  1
  Se  Se30  1  0.686985  0.606630  0.034359  1
  Se  Se31  1  0.398807  0.313333  0.461472  1
  Se  Se32  1  0.302096  0.398558  0.964514  1
  Se  Se33  1  0.602212  0.681419  0.539784  1
  Se  Se34  1  0.898112  0.830785  0.680834  1
  Se  Se35  1  0.170127  0.099397  0.821621  1
  Se  Se36  1  0.108122  0.171874  0.316424  1
  Se  Se37  1  0.829272  0.904720  0.176639  1
