# generated using pymatgen
data_AlIn11I24
_symmetry_space_group_name_H-M   'P 1'
_cell_length_a   16.00748006
_cell_length_b   16.02475104
_cell_length_c   16.02682198
_cell_angle_alpha   117.04869941
_cell_angle_beta   117.18655776
_cell_angle_gamma   117.01849398
_symmetry_Int_Tables_number   1
_chemical_formula_structural   AlIn11I24
_chemical_formula_sum   'Al1 In11 I24'
_cell_volume   1788.78344199
_cell_formula_units_Z   1
loop_
 _symmetry_equiv_pos_site_id
 _symmetry_equiv_pos_as_xyz
  1  'x, y, z'
loop_
 _atom_site_type_symbol
 _atom_site_label
 _atom_site_symmetry_multiplicity
 _atom_site_fract_x
 _atom_site_fract_y
 _atom_site_fract_z
 _atom_site_occupancy
  Al  Al0  1  0.079935  0.700663  0.890177  1
  In  In1  1  0.748640  0.054866  0.896214  1
  In  In2  1  0.702619  0.894415  0.086010  1
  In  In3  1  0.202066  0.585813  0.394363  1
  In  In4  1  0.894530  0.085864  0.702353  1
  In  In5  1  0.553224  0.246025  0.394084  1
  In  In6  1  0.248600  0.396780  0.555082  1
  In  In7  1  0.395804  0.554890  0.248102  1
  In  In8  1  0.586336  0.394625  0.202628  1
  In  In9  1  0.056037  0.895890  0.749277  1
  In  In10  1  0.394418  0.202077  0.585878  1
  In  In11  1  0.896519  0.747807  0.054682  1
  I  I12  1  0.867502  0.465731  0.796606  1
  I  I13  1  0.966126  0.565300  0.630626  1
  I  I14  1  0.410045  0.599262  0.505424  1
  I  I15  1  0.785619  0.849731  0.445822  1
  I  I16  1  0.655721  0.397235  0.906556  1
  I  I17  1  0.005255  0.098986  0.909965  1
  I  I18  1  0.610350  0.954977  0.551932  1
  I  I19  1  0.051972  0.454637  0.110366  1
  I  I20  1  0.349629  0.285393  0.945302  1
  I  I21  1  0.504121  0.408146  0.597487  1
  I  I22  1  0.907499  0.653927  0.398342  1
  I  I23  1  0.152388  0.404973  0.895216  1
  I  I24  1  0.444982  0.784902  0.848992  1
  I  I25  1  0.552991  0.611192  0.955443  1
  I  I26  1  0.094733  0.895158  0.995788  1
  I  I27  1  0.598220  0.503634  0.409057  1
  I  I28  1  0.895198  0.152621  0.405024  1
  I  I29  1  0.394917  0.904843  0.652279  1
  I  I30  1  0.909932  0.005057  0.098898  1
  I  I31  1  0.945426  0.349623  0.285585  1
  I  I32  1  0.458249  0.113381  0.055801  1
  I  I33  1  0.375591  0.875444  0.127711  1
  I  I34  1  0.110880  0.052565  0.455434  1
  I  I35  1  0.287925  0.947565  0.351497  1
