# generated using pymatgen
data_HoTm7(PaGa5)4
_symmetry_space_group_name_H-M   'P 1'
_cell_length_a   6.03529176
_cell_length_b   9.49807905
_cell_length_c   11.60302421
_cell_angle_alpha   89.94225061
_cell_angle_beta   89.99618377
_cell_angle_gamma   89.94943231
_symmetry_Int_Tables_number   1
_chemical_formula_structural   HoTm7(PaGa5)4
_chemical_formula_sum   'Ho1 Tm7 Pa4 Ga20'
_cell_volume   665.12742854
_cell_formula_units_Z   1
loop_
 _symmetry_equiv_pos_site_id
 _symmetry_equiv_pos_as_xyz
  1  'x, y, z'
loop_
 _atom_site_type_symbol
 _atom_site_label
 _atom_site_symmetry_multiplicity
 _atom_site_fract_x
 _atom_site_fract_y
 _atom_site_fract_z
 _atom_site_occupancy
  Ho  Ho0  1  0.884594  0.502982  0.349995  1
  Tm  Tm1  1  0.856851  0.745983  0.073510  1
  Tm  Tm2  1  0.637713  0.752843  0.573260  1
  Tm  Tm3  1  0.142003  0.246146  0.927562  1
  Tm  Tm4  1  0.355414  0.254419  0.427656  1
  Tm  Tm5  1  0.385203  0.001746  0.149085  1
  Tm  Tm6  1  0.882472  0.998923  0.349971  1
  Tm  Tm7  1  0.617557  0.502114  0.851317  1
  Pa  Pa8  1  0.621374  0.995831  0.852020  1
  Pa  Pa9  1  0.119171  0.003154  0.647947  1
  Pa  Pa10  1  0.382714  0.496641  0.148717  1
  Pa  Pa11  1  0.118332  0.499044  0.646685  1
  Ga  Ga12  1  0.868050  0.050262  0.091944  1
  Ga  Ga13  1  0.628288  0.450081  0.593001  1
  Ga  Ga14  1  0.134439  0.549832  0.909065  1
  Ga  Ga15  1  0.366076  0.950220  0.407208  1
  Ga  Ga16  1  0.129473  0.944028  0.909353  1
  Ga  Ga17  1  0.367632  0.557222  0.409883  1
  Ga  Ga18  1  0.872778  0.444010  0.091575  1
  Ga  Ga19  1  0.627303  0.054778  0.590550  1
  Ga  Ga20  1  0.160823  0.752148  0.259389  1
  Ga  Ga21  1  0.341283  0.749032  0.764363  1
  Ga  Ga22  1  0.843245  0.251021  0.737167  1
  Ga  Ga23  1  0.657692  0.249078  0.239604  1
  Ga  Ga24  1  0.391938  0.749260  0.998336  1
  Ga  Ga25  1  0.104843  0.753396  0.497047  1
  Ga  Ga26  1  0.609717  0.248792  0.002855  1
  Ga  Ga27  1  0.889940  0.251321  0.503400  1
  Ga  Ga28  1  0.600769  0.751038  0.295804  1
  Ga  Ga29  1  0.900994  0.747030  0.792918  1
  Ga  Ga30  1  0.397461  0.249928  0.705327  1
  Ga  Ga31  1  0.103864  0.247699  0.203487  1
