# generated using pymatgen
data_NaTh3(Al8Pd3)3
_symmetry_space_group_name_H-M   'P 1'
_cell_length_a   7.61052180
_cell_length_b   7.61415457
_cell_length_c   13.32261300
_cell_angle_alpha   84.61941919
_cell_angle_beta   100.88801708
_cell_angle_gamma   119.83456649
_symmetry_Int_Tables_number   1
_chemical_formula_structural   NaTh3(Al8Pd3)3
_chemical_formula_sum   'Na1 Th3 Al24 Pd9'
_cell_volume   657.64031622
_cell_formula_units_Z   1
loop_
 _symmetry_equiv_pos_site_id
 _symmetry_equiv_pos_as_xyz
  1  'x, y, z'
loop_
 _atom_site_type_symbol
 _atom_site_label
 _atom_site_symmetry_multiplicity
 _atom_site_fract_x
 _atom_site_fract_y
 _atom_site_fract_z
 _atom_site_occupancy
  Na  Na0  1  0.233722  0.498352  0.195809  1
  Th  Th1  1  0.436453  0.829930  0.807704  1
  Th  Th2  1  0.563875  0.168837  0.193682  1
  Th  Th3  1  0.769694  0.503426  0.807518  1
  Al  Al4  1  0.477401  0.166289  0.947218  1
  Al  Al5  1  0.516683  0.828075  0.056531  1
  Al  Al6  1  0.021799  0.167261  0.558558  1
  Al  Al7  1  0.979072  0.833719  0.438846  1
  Al  Al8  1  0.352577  0.832396  0.557423  1
  Al  Al9  1  0.647345  0.166834  0.441890  1
  Al  Al10  1  0.616238  0.829495  0.331705  1
  Al  Al11  1  0.377930  0.165614  0.664661  1
  Al  Al12  1  0.054122  0.489564  0.663792  1
  Al  Al13  1  0.949388  0.510674  0.332388  1
  Al  Al14  1  0.732660  0.843628  0.662752  1
  Al  Al15  1  0.265254  0.160954  0.332566  1
  Al  Al16  1  0.149925  0.495308  0.952997  1
  Al  Al17  1  0.858379  0.503500  0.056282  1
  Al  Al18  1  0.821817  0.836107  0.959846  1
  Al  Al19  1  0.180856  0.167458  0.047568  1
  Al  Al20  1  0.312651  0.500019  0.439979  1
  Al  Al21  1  0.687221  0.501573  0.557522  1
  Al  Al22  1  0.103026  0.840159  0.183685  1
  Al  Al23  1  0.900495  0.164046  0.816315  1
  Al  Al24  1  0.301964  0.364722  0.814625  1
  Al  Al25  1  0.695819  0.630881  0.184875  1
  Al  Al26  1  0.101557  0.964270  0.815304  1
  Al  Al27  1  0.894424  0.038182  0.183219  1
  Pd  Pd28  1  0.386393  0.506746  0.637384  1
  Pd  Pd29  1  0.614935  0.493498  0.363504  1
  Pd  Pd30  1  0.171093  0.829629  0.997402  1
  Pd  Pd31  1  0.823883  0.168997  0.998051  1
  Pd  Pd32  1  0.294188  0.834456  0.363691  1
  Pd  Pd33  1  0.705521  0.166477  0.637025  1
  Pd  Pd34  1  0.047390  0.826212  0.636980  1
  Pd  Pd35  1  0.952613  0.172672  0.363051  1
  Pd  Pd36  1  0.501635  0.500040  0.997653  1
