# generated using pymatgen
data_Rb4CeBi11Se20
_symmetry_space_group_name_H-M   'P 1'
_cell_length_a   4.22842800
_cell_length_b   12.57544524
_cell_length_c   22.52128932
_cell_angle_alpha   90.02079883
_cell_angle_beta   90.00000000
_cell_angle_gamma   90.00000000
_symmetry_Int_Tables_number   1
_chemical_formula_structural   Rb4CeBi11Se20
_chemical_formula_sum   'Rb4 Ce1 Bi11 Se20'
_cell_volume   1197.55517414
_cell_formula_units_Z   1
loop_
 _symmetry_equiv_pos_site_id
 _symmetry_equiv_pos_as_xyz
  1  'x, y, z'
loop_
 _atom_site_type_symbol
 _atom_site_label
 _atom_site_symmetry_multiplicity
 _atom_site_fract_x
 _atom_site_fract_y
 _atom_site_fract_z
 _atom_site_occupancy
  Rb  Rb0  1  0.250000  0.490004  0.214140  1
  Rb  Rb1  1  0.750000  0.509691  0.787284  1
  Rb  Rb2  1  0.750000  0.989762  0.287649  1
  Rb  Rb3  1  0.250000  0.009848  0.712032  1
  Ce  Ce4  1  0.250000  0.363080  0.024077  1
  Bi  Bi5  1  0.750000  0.636411  0.975266  1
  Bi  Bi6  1  0.750000  0.864272  0.476080  1
  Bi  Bi7  1  0.250000  0.135727  0.523902  1
  Bi  Bi8  1  0.250000  0.803044  0.125012  1
  Bi  Bi9  1  0.750000  0.194416  0.873619  1
  Bi  Bi10  1  0.750000  0.304095  0.375195  1
  Bi  Bi11  1  0.250000  0.695761  0.624954  1
  Bi  Bi12  1  0.250000  0.592523  0.425802  1
  Bi  Bi13  1  0.750000  0.407491  0.574344  1
  Bi  Bi14  1  0.750000  0.092075  0.075687  1
  Bi  Bi15  1  0.250000  0.908120  0.925903  1
  Se  Se16  1  0.250000  0.808151  0.388888  1
  Se  Se17  1  0.750000  0.191802  0.611098  1
  Se  Se18  1  0.750000  0.308732  0.110317  1
  Se  Se19  1  0.250000  0.693294  0.888577  1
  Se  Se20  1  0.250000  0.250270  0.298050  1
  Se  Se21  1  0.750000  0.749630  0.702165  1
  Se  Se22  1  0.750000  0.749386  0.201900  1
  Se  Se23  1  0.250000  0.248780  0.797237  1
  Se  Se24  1  0.250000  0.361552  0.480635  1
  Se  Se25  1  0.750000  0.638526  0.519538  1
  Se  Se26  1  0.750000  0.862525  0.019312  1
  Se  Se27  1  0.250000  0.140641  0.979600  1
  Se  Se28  1  0.250000  0.026340  0.156899  1
  Se  Se29  1  0.750000  0.973347  0.842990  1
  Se  Se30  1  0.750000  0.526814  0.343609  1
  Se  Se31  1  0.250000  0.473276  0.656613  1
  Se  Se32  1  0.250000  0.583927  0.065263  1
  Se  Se33  1  0.750000  0.416704  0.936416  1
  Se  Se34  1  0.750000  0.085055  0.435311  1
  Se  Se35  1  0.250000  0.914927  0.564637  1
