# generated using pymatgen
data_La2Ga3GeIrRh3
_symmetry_space_group_name_H-M   'P 1'
_cell_length_a   4.31617300
_cell_length_b   4.31617300
_cell_length_c   10.31273200
_cell_angle_alpha   90.00000000
_cell_angle_beta   90.00000000
_cell_angle_gamma   90.00000000
_symmetry_Int_Tables_number   1
_chemical_formula_structural   La2Ga3GeIrRh3
_chemical_formula_sum   'La2 Ga3 Ge1 Ir1 Rh3'
_cell_volume   192.11948735
_cell_formula_units_Z   1
loop_
 _symmetry_equiv_pos_site_id
 _symmetry_equiv_pos_as_xyz
  1  'x, y, z'
loop_
 _atom_site_type_symbol
 _atom_site_label
 _atom_site_symmetry_multiplicity
 _atom_site_fract_x
 _atom_site_fract_y
 _atom_site_fract_z
 _atom_site_occupancy
  La  La0  1  0.000000  0.500000  0.245741  1
  La  La1  1  0.500000  0.000000  0.751454  1
  Ga  Ga2  1  0.000000  0.000000  0.498710  1
  Ga  Ga3  1  0.500000  0.500000  0.498710  1
  Ga  Ga4  1  0.000000  0.500000  0.876464  1
  Ge  Ge5  1  0.500000  0.000000  0.123029  1
  Ir  Ir6  1  0.000000  0.500000  0.631347  1
  Rh  Rh7  1  0.000000  0.000000  0.003955  1
  Rh  Rh8  1  0.500000  0.500000  0.003955  1
  Rh  Rh9  1  0.500000  0.000000  0.366635  1
