# generated using pymatgen
data_YbLuU2(B4Ru)4
_symmetry_space_group_name_H-M   'P 1'
_cell_length_a   3.53743700
_cell_length_b   5.94120716
_cell_length_c   11.48798702
_cell_angle_alpha   89.87813515
_cell_angle_beta   90.00000000
_cell_angle_gamma   90.00000000
_symmetry_Int_Tables_number   1
_chemical_formula_structural   YbLuU2(B4Ru)4
_chemical_formula_sum   'Yb1 Lu1 U2 B16 Ru4'
_cell_volume   241.43841047
_cell_formula_units_Z   1
loop_
 _symmetry_equiv_pos_site_id
 _symmetry_equiv_pos_as_xyz
  1  'x, y, z'
loop_
 _atom_site_type_symbol
 _atom_site_label
 _atom_site_symmetry_multiplicity
 _atom_site_fract_x
 _atom_site_fract_y
 _atom_site_fract_z
 _atom_site_occupancy
  Yb  Yb0  1  0.000000  0.128834  0.147927  1
  Lu  Lu1  1  0.000000  0.871610  0.852327  1
  U  U2  1  0.000000  0.628286  0.348097  1
  U  U3  1  0.000000  0.371976  0.651230  1
  B  B4  1  0.500000  0.788731  0.186286  1
  B  B5  1  0.500000  0.208290  0.813811  1
  B  B6  1  0.500000  0.290943  0.313111  1
  B  B7  1  0.500000  0.708953  0.687911  1
  B  B8  1  0.500000  0.864306  0.030374  1
  B  B9  1  0.500000  0.135848  0.968867  1
  B  B10  1  0.500000  0.368630  0.467087  1
  B  B11  1  0.500000  0.632043  0.532497  1
  B  B12  1  0.500000  0.885987  0.452555  1
  B  B13  1  0.500000  0.114377  0.547554  1
  B  B14  1  0.500000  0.386209  0.045854  1
  B  B15  1  0.500000  0.614365  0.953905  1
  B  B16  1  0.500000  0.974784  0.307843  1
  B  B17  1  0.500000  0.024145  0.693377  1
  B  B18  1  0.500000  0.475882  0.191312  1
  B  B19  1  0.500000  0.527124  0.808457  1
  Ru  Ru20  1  0.000000  0.638459  0.093160  1
  Ru  Ru21  1  0.000000  0.360777  0.904387  1
  Ru  Ru22  1  0.000000  0.141590  0.407655  1
  Ru  Ru23  1  0.000000  0.857852  0.594416  1
