# generated using pymatgen
data_Nd8Ho12Si15B
_symmetry_space_group_name_H-M   'P 1'
_cell_length_a   7.47819942
_cell_length_b   7.71622423
_cell_length_c   14.67324251
_cell_angle_alpha   89.64259751
_cell_angle_beta   90.72056356
_cell_angle_gamma   89.92761797
_symmetry_Int_Tables_number   1
_chemical_formula_structural   Nd8Ho12Si15B
_chemical_formula_sum   'Nd8 Ho12 Si15 B1'
_cell_volume   846.61272504
_cell_formula_units_Z   1
loop_
 _symmetry_equiv_pos_site_id
 _symmetry_equiv_pos_as_xyz
  1  'x, y, z'
loop_
 _atom_site_type_symbol
 _atom_site_label
 _atom_site_symmetry_multiplicity
 _atom_site_fract_x
 _atom_site_fract_y
 _atom_site_fract_z
 _atom_site_occupancy
  Nd  Nd0  1  0.970947  0.816128  0.096343  1
  Nd  Nd1  1  0.474142  0.679875  0.401934  1
  Nd  Nd2  1  0.535499  0.324567  0.903605  1
  Nd  Nd3  1  0.024882  0.178588  0.599371  1
  Nd  Nd4  1  0.026334  0.183196  0.902643  1
  Nd  Nd5  1  0.525734  0.320261  0.599121  1
  Nd  Nd6  1  0.464620  0.683352  0.100397  1
  Nd  Nd7  1  0.974207  0.821836  0.401191  1
  Ho  Ho8  1  0.647634  0.992983  0.249249  1
  Ho  Ho9  1  0.144435  0.509810  0.249244  1
  Ho  Ho10  1  0.853798  0.488644  0.755242  1
  Ho  Ho11  1  0.354632  0.007881  0.752724  1
  Ho  Ho12  1  0.694832  0.799239  0.886411  1
  Ho  Ho13  1  0.181512  0.678758  0.623697  1
  Ho  Ho14  1  0.808781  0.336205  0.114648  1
  Ho  Ho15  1  0.316497  0.178243  0.375607  1
  Ho  Ho16  1  0.315013  0.182044  0.120190  1
  Ho  Ho17  1  0.818572  0.321679  0.376257  1
  Ho  Ho18  1  0.178509  0.675027  0.878134  1
  Ho  Ho19  1  0.681401  0.821259  0.623727  1
  Si  Si20  1  0.765025  0.623836  0.249825  1
  Si  Si21  1  0.264304  0.880332  0.248576  1
  Si  Si22  1  0.734100  0.116253  0.752736  1
  Si  Si23  1  0.236330  0.378040  0.750471  1
  Si  Si24  1  0.019257  0.116690  0.245954  1
  Si  Si25  1  0.520610  0.389266  0.248201  1
  Si  Si26  1  0.478696  0.611892  0.751962  1
  Si  Si27  1  0.975826  0.887596  0.751243  1
  Si  Si28  1  0.354495  0.969811  0.540158  1
  Si  Si29  1  0.641692  0.030206  0.040972  1
  Si  Si30  1  0.144779  0.468502  0.460527  1
  Si  Si31  1  0.126679  0.471969  0.036278  1
  Si  Si32  1  0.643314  0.031666  0.459786  1
  Si  Si33  1  0.358607  0.968833  0.958737  1
  Si  Si34  1  0.854788  0.531480  0.539656  1
  B  B35  1  0.889517  0.524051  0.955185  1
