# generated using pymatgen
data_Pr3CuSi4Rh3
_symmetry_space_group_name_H-M   'P 1'
_cell_length_a   4.16135923
_cell_length_b   4.16300828
_cell_length_c   12.62556355
_cell_angle_alpha   80.51065930
_cell_angle_beta   80.51443812
_cell_angle_gamma   90.00001332
_symmetry_Int_Tables_number   1
_chemical_formula_structural   Pr3CuSi4Rh3
_chemical_formula_sum   'Pr3 Cu1 Si4 Rh3'
_cell_volume   212.69682751
_cell_formula_units_Z   1
loop_
 _symmetry_equiv_pos_site_id
 _symmetry_equiv_pos_as_xyz
  1  'x, y, z'
loop_
 _atom_site_type_symbol
 _atom_site_label
 _atom_site_symmetry_multiplicity
 _atom_site_fract_x
 _atom_site_fract_y
 _atom_site_fract_z
 _atom_site_occupancy
  Pr  Pr0  1  0.999025  0.999025  0.001949  1
  Pr  Pr1  1  0.856152  0.356152  0.287697  1
  Pr  Pr2  1  0.146628  0.646628  0.706743  1
  Cu  Cu3  1  0.598184  0.098184  0.803632  1
  Si  Si4  1  0.698207  0.198207  0.603588  1
  Si  Si5  1  0.300785  0.800785  0.398429  1
  Si  Si6  1  0.452532  0.452532  0.094935  1
  Si  Si7  1  0.550720  0.550720  0.898559  1
  Rh  Rh8  1  0.399757  0.899757  0.200486  1
  Rh  Rh9  1  0.248338  0.248338  0.503323  1
  Rh  Rh10  1  0.749670  0.749670  0.500660  1
