# generated using pymatgen
data_Hf4TiNb3P4
_symmetry_space_group_name_H-M   'P 1'
_cell_length_a   3.52464200
_cell_length_b   6.85547354
_cell_length_c   8.29813782
_cell_angle_alpha   90.24403977
_cell_angle_beta   90.00000000
_cell_angle_gamma   90.00000000
_symmetry_Int_Tables_number   1
_chemical_formula_structural   Hf4TiNb3P4
_chemical_formula_sum   'Hf4 Ti1 Nb3 P4'
_cell_volume   200.50683207
_cell_formula_units_Z   1
loop_
 _symmetry_equiv_pos_site_id
 _symmetry_equiv_pos_as_xyz
  1  'x, y, z'
loop_
 _atom_site_type_symbol
 _atom_site_label
 _atom_site_symmetry_multiplicity
 _atom_site_fract_x
 _atom_site_fract_y
 _atom_site_fract_z
 _atom_site_occupancy
  Hf  Hf0  1  0.250000  0.031882  0.669317  1
  Hf  Hf1  1  0.250000  0.533147  0.833398  1
  Hf  Hf2  1  0.750000  0.467302  0.166001  1
  Hf  Hf3  1  0.750000  0.966373  0.331653  1
  Ti  Ti4  1  0.750000  0.862429  0.939881  1
  Nb  Nb5  1  0.250000  0.641404  0.440332  1
  Nb  Nb6  1  0.750000  0.359447  0.560436  1
  Nb  Nb7  1  0.250000  0.138532  0.059632  1
  P  P8  1  0.250000  0.262823  0.355684  1
  P  P9  1  0.250000  0.762701  0.137593  1
  P  P10  1  0.750000  0.738335  0.648387  1
  P  P11  1  0.750000  0.235627  0.857685  1
