# generated using pymatgen
data_LiY12Co4Sn
_symmetry_space_group_name_H-M   'P 1'
_cell_length_a   8.40864005
_cell_length_b   8.40864096
_cell_length_c   8.40864106
_cell_angle_alpha   110.82284612
_cell_angle_beta   110.65872360
_cell_angle_gamma   106.96092781
_symmetry_Int_Tables_number   1
_chemical_formula_structural   LiY12Co4Sn
_chemical_formula_sum   'Li1 Y12 Co4 Sn1'
_cell_volume   457.01694314
_cell_formula_units_Z   1
loop_
 _symmetry_equiv_pos_site_id
 _symmetry_equiv_pos_as_xyz
  1  'x, y, z'
loop_
 _atom_site_type_symbol
 _atom_site_label
 _atom_site_symmetry_multiplicity
 _atom_site_fract_x
 _atom_site_fract_y
 _atom_site_fract_z
 _atom_site_occupancy
  Li  Li0  1  0.000000  0.000000  0.000000  1
  Y  Y1  1  0.423867  0.220145  0.203722  1
  Y  Y2  1  0.576133  0.779855  0.796278  1
  Y  Y3  1  0.016424  0.220145  0.796278  1
  Y  Y4  1  0.983576  0.779855  0.203722  1
  Y  Y5  1  0.187746  0.292516  0.480262  1
  Y  Y6  1  0.812254  0.707484  0.519738  1
  Y  Y7  1  0.187746  0.707484  0.895230  1
  Y  Y8  1  0.812254  0.292516  0.104770  1
  Y  Y9  1  0.312748  0.616844  0.304096  1
  Y  Y10  1  0.687252  0.383156  0.695904  1
  Y  Y11  1  0.312748  0.008651  0.695904  1
  Y  Y12  1  0.687252  0.991349  0.304096  1
  Co  Co13  1  0.379261  0.000000  0.379261  1
  Co  Co14  1  0.620739  0.000000  0.620739  1
  Co  Co15  1  0.111151  0.611151  0.500000  1
  Co  Co16  1  0.888849  0.388849  0.500000  1
  Sn  Sn17  1  0.500000  0.500000  0.000000  1
