# generated using pymatgen
data_SmThURu3
_symmetry_space_group_name_H-M   'P 1'
_cell_length_a   5.27341113
_cell_length_b   5.27341086
_cell_length_c   5.27341200
_cell_angle_alpha   68.06172425
_cell_angle_beta   68.06172544
_cell_angle_gamma   68.06173381
_symmetry_Int_Tables_number   1
_chemical_formula_structural   SmThURu3
_chemical_formula_sum   'Sm1 Th1 U1 Ru3'
_cell_volume   121.42124459
_cell_formula_units_Z   1
loop_
 _symmetry_equiv_pos_site_id
 _symmetry_equiv_pos_as_xyz
  1  'x, y, z'
loop_
 _atom_site_type_symbol
 _atom_site_label
 _atom_site_symmetry_multiplicity
 _atom_site_fract_x
 _atom_site_fract_y
 _atom_site_fract_z
 _atom_site_occupancy
  Sm  Sm0  1  0.873895  0.873895  0.873895  1
  Th  Th1  1  0.125012  0.125012  0.125012  1
  U  U2  1  0.502704  0.502704  0.502704  1
  Ru  Ru3  1  0.498941  0.000507  0.498941  1
  Ru  Ru4  1  0.000507  0.498941  0.498941  1
  Ru  Ru5  1  0.498941  0.498941  0.000507  1
