# generated using pymatgen
data_Y4SiPPd28
_symmetry_space_group_name_H-M   'P 1'
_cell_length_a   8.92871700
_cell_length_b   8.92871700
_cell_length_c   7.09213500
_cell_angle_alpha   90.00000000
_cell_angle_beta   90.00000000
_cell_angle_gamma   90.00000000
_symmetry_Int_Tables_number   1
_chemical_formula_structural   Y4SiPPd28
_chemical_formula_sum   'Y4 Si1 P1 Pd28'
_cell_volume   565.39909616
_cell_formula_units_Z   1
loop_
 _symmetry_equiv_pos_site_id
 _symmetry_equiv_pos_as_xyz
  1  'x, y, z'
loop_
 _atom_site_type_symbol
 _atom_site_label
 _atom_site_symmetry_multiplicity
 _atom_site_fract_x
 _atom_site_fract_y
 _atom_site_fract_z
 _atom_site_occupancy
  Y  Y0  1  0.500000  0.000000  0.934491  1
  Y  Y1  1  0.000000  0.500000  0.066410  1
  Y  Y2  1  0.000000  0.000000  0.500034  1
  Y  Y3  1  0.500000  0.500000  0.500034  1
  Si  Si4  1  0.000000  0.500000  0.550782  1
  P  P5  1  0.500000  0.000000  0.448367  1
  Pd  Pd6  1  0.336104  0.836104  0.614947  1
  Pd  Pd7  1  0.336104  0.163896  0.614947  1
  Pd  Pd8  1  0.663896  0.836104  0.614947  1
  Pd  Pd9  1  0.663896  0.163896  0.614947  1
  Pd  Pd10  1  0.165741  0.665741  0.383896  1
  Pd  Pd11  1  0.165741  0.334259  0.383896  1
  Pd  Pd12  1  0.834259  0.665741  0.383896  1
  Pd  Pd13  1  0.834259  0.334259  0.383896  1
  Pd  Pd14  1  0.500000  0.771358  0.258002  1
  Pd  Pd15  1  0.500000  0.228642  0.258002  1
  Pd  Pd16  1  0.271358  0.000000  0.258002  1
  Pd  Pd17  1  0.728642  0.000000  0.258002  1
  Pd  Pd18  1  0.000000  0.729808  0.743341  1
  Pd  Pd19  1  0.000000  0.270192  0.743341  1
  Pd  Pd20  1  0.229808  0.500000  0.743341  1
  Pd  Pd21  1  0.770192  0.500000  0.743341  1
  Pd  Pd22  1  0.500000  0.348514  0.853510  1
  Pd  Pd23  1  0.500000  0.651486  0.853510  1
  Pd  Pd24  1  0.848514  0.000000  0.853510  1
  Pd  Pd25  1  0.151486  0.000000  0.853510  1
  Pd  Pd26  1  0.000000  0.150638  0.146700  1
  Pd  Pd27  1  0.000000  0.849362  0.146700  1
  Pd  Pd28  1  0.650638  0.500000  0.146700  1
  Pd  Pd29  1  0.349362  0.500000  0.146700  1
  Pd  Pd30  1  0.249319  0.749319  0.999573  1
  Pd  Pd31  1  0.249319  0.250681  0.999573  1
  Pd  Pd32  1  0.750681  0.749319  0.999573  1
  Pd  Pd33  1  0.750681  0.250681  0.999573  1
