# generated using pymatgen
data_Y4(PbO4)3
_symmetry_space_group_name_H-M   'P 1'
_cell_length_a   6.54663413
_cell_length_b   6.62098694
_cell_length_c   13.27407100
_cell_angle_alpha   99.28926507
_cell_angle_beta   99.85065181
_cell_angle_gamma   99.06080004
_symmetry_Int_Tables_number   1
_chemical_formula_structural   Y4(PbO4)3
_chemical_formula_sum   'Y8 Pb6 O24'
_cell_volume   549.21986421
_cell_formula_units_Z   2
loop_
 _symmetry_equiv_pos_site_id
 _symmetry_equiv_pos_as_xyz
  1  'x, y, z'
loop_
 _atom_site_type_symbol
 _atom_site_label
 _atom_site_symmetry_multiplicity
 _atom_site_fract_x
 _atom_site_fract_y
 _atom_site_fract_z
 _atom_site_occupancy
  Y  Y0  1  0.392314  0.862134  0.097540  1
  Y  Y1  1  0.308809  0.608626  0.817551  1
  Y  Y2  1  0.293941  0.605723  0.316981  1
  Y  Y3  1  0.863690  0.689988  0.446984  1
  Y  Y4  1  0.691191  0.391374  0.182449  1
  Y  Y5  1  0.136310  0.310012  0.553016  1
  Y  Y6  1  0.706059  0.394277  0.683019  1
  Y  Y7  1  0.607686  0.137866  0.902460  1
  Pb  Pb8  1  0.988692  0.993952  0.247323  1
  Pb  Pb9  1  0.399634  0.857381  0.593811  1
  Pb  Pb10  1  0.011308  0.006048  0.752677  1
  Pb  Pb11  1  0.855624  0.680066  0.948416  1
  Pb  Pb12  1  0.144376  0.319934  0.051584  1
  Pb  Pb13  1  0.600366  0.142619  0.406189  1
  O  O14  1  0.323323  0.941666  0.792012  1
  O  O15  1  0.046447  0.896001  0.089025  1
  O  O16  1  0.319126  0.948524  0.288755  1
  O  O17  1  0.070756  0.924035  0.592214  1
  O  O18  1  0.581088  0.820020  0.960435  1
  O  O19  1  0.175641  0.583018  0.962727  1
  O  O20  1  0.927102  0.690882  0.788294  1
  O  O21  1  0.570164  0.828684  0.456470  1
  O  O22  1  0.415429  0.571071  0.161064  1
  O  O23  1  0.182687  0.581514  0.465179  1
  O  O24  1  0.928250  0.675645  0.281816  1
  O  O25  1  0.584571  0.428929  0.838936  1
  O  O26  1  0.423666  0.579370  0.658454  1
  O  O27  1  0.072898  0.309118  0.211706  1
  O  O28  1  0.824359  0.416982  0.037273  1
  O  O29  1  0.576334  0.420630  0.341546  1
  O  O30  1  0.418912  0.179980  0.039565  1
  O  O31  1  0.071750  0.324355  0.718184  1
  O  O32  1  0.817313  0.418486  0.534821  1
  O  O33  1  0.429836  0.171316  0.543530  1
  O  O34  1  0.953553  0.103999  0.910975  1
  O  O35  1  0.676677  0.058334  0.207988  1
  O  O36  1  0.929244  0.075965  0.407786  1
  O  O37  1  0.680874  0.051476  0.711245  1
