# generated using pymatgen
data_DyEr2P4Rh7
_symmetry_space_group_name_H-M   'P 1'
_cell_length_a   7.72751957
_cell_length_b   7.72751881
_cell_length_c   9.16623027
_cell_angle_alpha   56.74985264
_cell_angle_beta   56.74985410
_cell_angle_gamma   29.42971456
_symmetry_Int_Tables_number   1
_chemical_formula_structural   DyEr2P4Rh7
_chemical_formula_sum   'Dy1 Er2 P4 Rh7'
_cell_volume   221.55715976
_cell_formula_units_Z   1
loop_
 _symmetry_equiv_pos_site_id
 _symmetry_equiv_pos_as_xyz
  1  'x, y, z'
loop_
 _atom_site_type_symbol
 _atom_site_label
 _atom_site_symmetry_multiplicity
 _atom_site_fract_x
 _atom_site_fract_y
 _atom_site_fract_z
 _atom_site_occupancy
  Dy  Dy0  1  0.500000  0.500000  0.500000  1
  Er  Er1  1  0.828953  0.828953  0.168156  1
  Er  Er2  1  0.171047  0.171047  0.831844  1
  P  P3  1  0.391083  0.391083  0.324559  1
  P  P4  1  0.608917  0.608917  0.675441  1
  P  P5  1  0.832379  0.832379  0.774220  1
  P  P6  1  0.167621  0.167621  0.225780  1
  Rh  Rh7  1  0.668727  0.668727  0.077994  1
  Rh  Rh8  1  0.007047  0.007047  0.229719  1
  Rh  Rh9  1  0.992953  0.992953  0.770281  1
  Rh  Rh10  1  0.500000  0.500000  0.000000  1
  Rh  Rh11  1  0.198045  0.198045  0.453752  1
  Rh  Rh12  1  0.801955  0.801955  0.546248  1
  Rh  Rh13  1  0.331273  0.331273  0.922006  1
