# generated using pymatgen
data_Ac7Er(AgSn)8
_symmetry_space_group_name_H-M   'P 1'
_cell_length_a   9.78648794
_cell_length_b   9.78648755
_cell_length_c   8.26581695
_cell_angle_alpha   89.82689029
_cell_angle_beta   90.17311001
_cell_angle_gamma   120.11478107
_symmetry_Int_Tables_number   1
_chemical_formula_structural   Ac7Er(AgSn)8
_chemical_formula_sum   'Ac7 Er1 Ag8 Sn8'
_cell_volume   684.80041687
_cell_formula_units_Z   1
loop_
 _symmetry_equiv_pos_site_id
 _symmetry_equiv_pos_as_xyz
  1  'x, y, z'
loop_
 _atom_site_type_symbol
 _atom_site_label
 _atom_site_symmetry_multiplicity
 _atom_site_fract_x
 _atom_site_fract_y
 _atom_site_fract_z
 _atom_site_occupancy
  Ac  Ac0  1  0.996697  0.003303  0.002071  1
  Ac  Ac1  1  0.512772  0.025883  0.003229  1
  Ac  Ac2  1  0.513077  0.486923  0.003224  1
  Ac  Ac3  1  0.974117  0.487228  0.003229  1
  Ac  Ac4  1  0.998124  0.001876  0.502232  1
  Ac  Ac5  1  0.485321  0.968500  0.503946  1
  Ac  Ac6  1  0.031500  0.514679  0.503946  1
  Er  Er7  1  0.489687  0.510313  0.504833  1
  Ag  Ag8  1  0.169353  0.333835  0.238675  1
  Ag  Ag9  1  0.165851  0.834149  0.220965  1
  Ag  Ag10  1  0.666165  0.830647  0.238675  1
  Ag  Ag11  1  0.665011  0.334989  0.323324  1
  Ag  Ag12  1  0.829433  0.663507  0.699701  1
  Ag  Ag13  1  0.336493  0.170567  0.699701  1
  Ag  Ag14  1  0.833687  0.166313  0.720850  1
  Ag  Ag15  1  0.332740  0.667260  0.803292  1
  Sn  Sn16  1  0.336282  0.663718  0.225150  1
  Sn  Sn17  1  0.828473  0.664174  0.286098  1
  Sn  Sn18  1  0.335826  0.171527  0.286098  1
  Sn  Sn19  1  0.831737  0.168263  0.267910  1
  Sn  Sn20  1  0.665624  0.334376  0.718917  1
  Sn  Sn21  1  0.174816  0.336885  0.760801  1
  Sn  Sn22  1  0.164096  0.835904  0.780315  1
  Sn  Sn23  1  0.663115  0.825184  0.760801  1
