# generated using pymatgen
data_Y2Lu2ReB12Rh
_symmetry_space_group_name_H-M   'P 1'
_cell_length_a   3.64617100
_cell_length_b   9.08786427
_cell_length_c   11.49519371
_cell_angle_alpha   90.34671669
_cell_angle_beta   90.00000000
_cell_angle_gamma   90.00000000
_symmetry_Int_Tables_number   1
_chemical_formula_structural   Y2Lu2ReB12Rh
_chemical_formula_sum   'Y4 Lu4 Re2 B24 Rh2'
_cell_volume   380.89669720
_cell_formula_units_Z   2
loop_
 _symmetry_equiv_pos_site_id
 _symmetry_equiv_pos_as_xyz
  1  'x, y, z'
loop_
 _atom_site_type_symbol
 _atom_site_label
 _atom_site_symmetry_multiplicity
 _atom_site_fract_x
 _atom_site_fract_y
 _atom_site_fract_z
 _atom_site_occupancy
  Y  Y0  1  0.000000  0.317910  0.411359  1
  Y  Y1  1  0.000000  0.682090  0.588641  1
  Y  Y2  1  0.000000  0.825063  0.082997  1
  Y  Y3  1  0.000000  0.174937  0.917003  1
  Lu  Lu4  1  0.000000  0.945786  0.371939  1
  Lu  Lu5  1  0.000000  0.054214  0.628061  1
  Lu  Lu6  1  0.000000  0.442519  0.126616  1
  Lu  Lu7  1  0.000000  0.557481  0.873384  1
  Re  Re8  1  0.000000  0.139344  0.180654  1
  Re  Re9  1  0.000000  0.860656  0.819346  1
  B  B10  1  0.500000  0.555014  0.433932  1
  B  B11  1  0.500000  0.444986  0.566068  1
  B  B12  1  0.500000  0.053443  0.067827  1
  B  B13  1  0.500000  0.946557  0.932173  1
  B  B14  1  0.500000  0.750678  0.420740  1
  B  B15  1  0.500000  0.249322  0.579260  1
  B  B16  1  0.500000  0.250244  0.081794  1
  B  B17  1  0.500000  0.749756  0.918206  1
  B  B18  1  0.500000  0.791899  0.265193  1
  B  B19  1  0.500000  0.208101  0.734807  1
  B  B20  1  0.500000  0.293686  0.234904  1
  B  B21  1  0.500000  0.706314  0.765096  1
  B  B22  1  0.500000  0.631280  0.182929  1
  B  B23  1  0.500000  0.368720  0.817071  1
  B  B24  1  0.500000  0.130947  0.315555  1
  B  B25  1  0.500000  0.869053  0.684445  1
  B  B26  1  0.500000  0.982446  0.213924  1
  B  B27  1  0.500000  0.017554  0.786076  1
  B  B28  1  0.500000  0.483370  0.287008  1
  B  B29  1  0.500000  0.516630  0.712992  1
  B  B30  1  0.500000  0.602496  0.028429  1
  B  B31  1  0.500000  0.397504  0.971571  1
  B  B32  1  0.500000  0.103825  0.472197  1
  B  B33  1  0.500000  0.896175  0.527803  1
  Rh  Rh34  1  0.000000  0.638955  0.320497  1
  Rh  Rh35  1  0.000000  0.361045  0.679503  1
