# generated using pymatgen
data_Hf18TaRe4Mo3As2
_symmetry_space_group_name_H-M   'P 1'
_cell_length_a   8.68242823
_cell_length_b   8.67252935
_cell_length_c   8.67737500
_cell_angle_alpha   90.00000000
_cell_angle_beta   90.00000000
_cell_angle_gamma   119.83778159
_symmetry_Int_Tables_number   1
_chemical_formula_structural   Hf18TaRe4Mo3As2
_chemical_formula_sum   'Hf18 Ta1 Re4 Mo3 As2'
_cell_volume   566.77875988
_cell_formula_units_Z   1
loop_
 _symmetry_equiv_pos_site_id
 _symmetry_equiv_pos_as_xyz
  1  'x, y, z'
loop_
 _atom_site_type_symbol
 _atom_site_label
 _atom_site_symmetry_multiplicity
 _atom_site_fract_x
 _atom_site_fract_y
 _atom_site_fract_z
 _atom_site_occupancy
  Hf  Hf0  1  0.805229  0.610946  0.543977  1
  Hf  Hf1  1  0.805434  0.193880  0.543184  1
  Hf  Hf2  1  0.389714  0.194731  0.543081  1
  Hf  Hf3  1  0.192505  0.385799  0.450284  1
  Hf  Hf4  1  0.193493  0.806868  0.450878  1
  Hf  Hf5  1  0.612162  0.806596  0.448855  1
  Hf  Hf6  1  0.192505  0.385799  0.049716  1
  Hf  Hf7  1  0.193493  0.806868  0.049122  1
  Hf  Hf8  1  0.612162  0.806596  0.051145  1
  Hf  Hf9  1  0.805229  0.610946  0.956023  1
  Hf  Hf10  1  0.805434  0.193880  0.956816  1
  Hf  Hf11  1  0.389714  0.194731  0.956919  1
  Hf  Hf12  1  0.459610  0.923672  0.750000  1
  Hf  Hf13  1  0.459132  0.536316  0.750000  1
  Hf  Hf14  1  0.077801  0.538846  0.750000  1
  Hf  Hf15  1  0.541100  0.082704  0.250000  1
  Hf  Hf16  1  0.540397  0.457860  0.250000  1
  Hf  Hf17  1  0.916810  0.457740  0.250000  1
  Ta  Ta18  1  0.782389  0.891151  0.750000  1
  Re  Re19  1  0.890713  0.110283  0.250000  1
  Re  Re20  1  0.219160  0.109701  0.250000  1
  Re  Re21  1  0.001395  0.001022  0.499792  1
  Re  Re22  1  0.001395  0.001022  0.000208  1
  Mo  Mo23  1  0.111653  0.220483  0.750000  1
  Mo  Mo24  1  0.112106  0.891092  0.750000  1
  Mo  Mo25  1  0.891605  0.782887  0.250000  1
  As  As26  1  0.666281  0.332722  0.750000  1
  As  As27  1  0.331378  0.664862  0.250000  1
