# generated using pymatgen
data_DyTcN2
_symmetry_space_group_name_H-M   'P 1'
_cell_length_a   3.15019900
_cell_length_b   5.65034600
_cell_length_c   10.74030200
_cell_angle_alpha   90.00000000
_cell_angle_beta   90.00000000
_cell_angle_gamma   90.00000000
_symmetry_Int_Tables_number   1
_chemical_formula_structural   DyTcN2
_chemical_formula_sum   'Dy4 Tc4 N8'
_cell_volume   191.17430730
_cell_formula_units_Z   4
loop_
 _symmetry_equiv_pos_site_id
 _symmetry_equiv_pos_as_xyz
  1  'x, y, z'
loop_
 _atom_site_type_symbol
 _atom_site_label
 _atom_site_symmetry_multiplicity
 _atom_site_fract_x
 _atom_site_fract_y
 _atom_site_fract_z
 _atom_site_occupancy
  Dy  Dy0  1  0.250000  0.078488  0.852119  1
  Dy  Dy1  1  0.250000  0.578488  0.647881  1
  Dy  Dy2  1  0.750000  0.921512  0.147881  1
  Dy  Dy3  1  0.750000  0.421512  0.352119  1
  Tc  Tc4  1  0.250000  0.437147  0.097233  1
  Tc  Tc5  1  0.250000  0.937147  0.402767  1
  Tc  Tc6  1  0.750000  0.562853  0.902767  1
  Tc  Tc7  1  0.750000  0.062853  0.597233  1
  N  N8  1  0.250000  0.168037  0.245044  1
  N  N9  1  0.250000  0.668037  0.254956  1
  N  N10  1  0.750000  0.831963  0.754956  1
  N  N11  1  0.750000  0.331963  0.745044  1
  N  N12  1  0.250000  0.748743  0.996817  1
  N  N13  1  0.250000  0.248743  0.503183  1
  N  N14  1  0.750000  0.251257  0.003183  1
  N  N15  1  0.750000  0.751257  0.496817  1
