# generated using pymatgen
data_CsRb5(HgH5)2
_symmetry_space_group_name_H-M   'P 1'
_cell_length_a   8.40274300
_cell_length_b   8.40274348
_cell_length_c   8.40274295
_cell_angle_alpha   122.17714589
_cell_angle_beta   122.17714523
_cell_angle_gamma   86.26869385
_symmetry_Int_Tables_number   1
_chemical_formula_structural   CsRb5(HgH5)2
_chemical_formula_sum   'Cs1 Rb5 Hg2 H10'
_cell_volume   404.77580144
_cell_formula_units_Z   1
loop_
 _symmetry_equiv_pos_site_id
 _symmetry_equiv_pos_as_xyz
  1  'x, y, z'
loop_
 _atom_site_type_symbol
 _atom_site_label
 _atom_site_symmetry_multiplicity
 _atom_site_fract_x
 _atom_site_fract_y
 _atom_site_fract_z
 _atom_site_occupancy
  Cs  Cs0  1  0.750000  0.750000  0.000000  1
  Rb  Rb1  1  0.818400  0.318400  0.136799  1
  Rb  Rb2  1  0.681600  0.818400  0.500000  1
  Rb  Rb3  1  0.318400  0.181600  0.500000  1
  Rb  Rb4  1  0.181600  0.681600  0.863201  1
  Rb  Rb5  1  0.250000  0.250000  0.000000  1
  Hg  Hg6  1  0.250000  0.750000  0.500000  1
  Hg  Hg7  1  0.750000  0.250000  0.500000  1
  H  H8  1  0.006110  0.006110  0.000000  1
  H  H9  1  0.493890  0.493890  0.000000  1
  H  H10  1  0.286132  0.532829  0.499473  1
  H  H11  1  0.033357  0.786660  0.500527  1
  H  H12  1  0.786660  0.286132  0.753303  1
  H  H13  1  0.532829  0.033357  0.246697  1
  H  H14  1  0.466643  0.967171  0.753303  1
  H  H15  1  0.213868  0.713340  0.246697  1
  H  H16  1  0.967171  0.213868  0.500527  1
  H  H17  1  0.713340  0.466643  0.499473  1
