# generated using pymatgen
data_HoNb5FeB4Ru9
_symmetry_space_group_name_H-M   'P 1'
_cell_length_a   9.44373599
_cell_length_b   9.44373549
_cell_length_c   3.05733500
_cell_angle_alpha   90.00000000
_cell_angle_beta   90.00000000
_cell_angle_gamma   90.04917985
_symmetry_Int_Tables_number   1
_chemical_formula_structural   HoNb5FeB4Ru9
_chemical_formula_sum   'Ho1 Nb5 Fe1 B4 Ru9'
_cell_volume   272.66570674
_cell_formula_units_Z   1
loop_
 _symmetry_equiv_pos_site_id
 _symmetry_equiv_pos_as_xyz
  1  'x, y, z'
loop_
 _atom_site_type_symbol
 _atom_site_label
 _atom_site_symmetry_multiplicity
 _atom_site_fract_x
 _atom_site_fract_y
 _atom_site_fract_z
 _atom_site_occupancy
  Ho  Ho0  1  0.822847  0.677153  0.000000  1
  Nb  Nb1  1  0.179468  0.320532  0.000000  1
  Nb  Nb2  1  0.329371  0.830964  0.000000  1
  Nb  Nb3  1  0.669036  0.170629  0.000000  1
  Nb  Nb4  1  0.501020  0.500226  0.000000  1
  Nb  Nb5  1  0.999774  0.998980  0.000000  1
  Fe  Fe6  1  0.496433  0.003567  0.500000  1
  B  B7  1  0.610066  0.889934  0.000000  1
  B  B8  1  0.386844  0.113156  0.000000  1
  B  B9  1  0.124130  0.620465  0.000000  1
  B  B10  1  0.879535  0.375870  0.000000  1
  Ru  Ru11  1  0.556632  0.729702  0.500000  1
  Ru  Ru12  1  0.430136  0.277654  0.500000  1
  Ru  Ru13  1  0.081416  0.782969  0.500000  1
  Ru  Ru14  1  0.930796  0.215320  0.500000  1
  Ru  Ru15  1  0.284680  0.569204  0.500000  1
  Ru  Ru16  1  0.717031  0.418584  0.500000  1
  Ru  Ru17  1  0.222346  0.069864  0.500000  1
  Ru  Ru18  1  0.770298  0.943368  0.500000  1
  Ru  Ru19  1  0.008141  0.491859  0.500000  1
