# generated using pymatgen
data_HoEr(In2Rh)2
_symmetry_space_group_name_H-M   'P 1'
_cell_length_a   5.47509011
_cell_length_b   5.47508985
_cell_length_c   8.36666600
_cell_angle_alpha   90.00000000
_cell_angle_beta   90.00000000
_cell_angle_gamma   135.49059640
_symmetry_Int_Tables_number   1
_chemical_formula_structural   HoEr(In2Rh)2
_chemical_formula_sum   'Ho1 Er1 In4 Rh2'
_cell_volume   175.82040467
_cell_formula_units_Z   1
loop_
 _symmetry_equiv_pos_site_id
 _symmetry_equiv_pos_as_xyz
  1  'x, y, z'
loop_
 _atom_site_type_symbol
 _atom_site_label
 _atom_site_symmetry_multiplicity
 _atom_site_fract_x
 _atom_site_fract_y
 _atom_site_fract_z
 _atom_site_occupancy
  Ho  Ho0  1  0.067885  0.932115  0.250000  1
  Er  Er1  1  0.931795  0.068205  0.750000  1
  In  In2  1  0.643029  0.356971  0.549274  1
  In  In3  1  0.357072  0.642928  0.451780  1
  In  In4  1  0.643029  0.356971  0.950726  1
  In  In5  1  0.357072  0.642928  0.048220  1
  Rh  Rh6  1  0.225067  0.774933  0.750000  1
  Rh  Rh7  1  0.775054  0.224946  0.250000  1
