# generated using pymatgen
data_Pr2MgSi4(PPd10)2
_symmetry_space_group_name_H-M   'P 1'
_cell_length_a   8.72182032
_cell_length_b   8.72182000
_cell_length_c   8.72520400
_cell_angle_alpha   59.98717209
_cell_angle_beta   59.98717329
_cell_angle_gamma   60.02566888
_symmetry_Int_Tables_number   1
_chemical_formula_structural   Pr2MgSi4(PPd10)2
_chemical_formula_sum   'Pr2 Mg1 Si4 P2 Pd20'
_cell_volume   469.32616106
_cell_formula_units_Z   1
loop_
 _symmetry_equiv_pos_site_id
 _symmetry_equiv_pos_as_xyz
  1  'x, y, z'
loop_
 _atom_site_type_symbol
 _atom_site_label
 _atom_site_symmetry_multiplicity
 _atom_site_fract_x
 _atom_site_fract_y
 _atom_site_fract_z
 _atom_site_occupancy
  Pr  Pr0  1  0.250000  0.250000  0.250000  1
  Pr  Pr1  1  0.750000  0.750000  0.750000  1
  Mg  Mg2  1  0.000000  0.000000  0.000000  1
  Si  Si3  1  0.735978  0.264022  0.264022  1
  Si  Si4  1  0.264022  0.735978  0.735978  1
  Si  Si5  1  0.264022  0.735978  0.264022  1
  Si  Si6  1  0.735978  0.264022  0.735978  1
  P  P7  1  0.263936  0.263936  0.736064  1
  P  P8  1  0.736064  0.736064  0.263936  1
  Pd  Pd9  1  0.385582  0.385582  0.387218  1
  Pd  Pd10  1  0.614418  0.614418  0.612782  1
  Pd  Pd11  1  0.385582  0.385582  0.841620  1
  Pd  Pd12  1  0.387218  0.841620  0.385582  1
  Pd  Pd13  1  0.614418  0.614418  0.158380  1
  Pd  Pd14  1  0.612782  0.158380  0.614418  1
  Pd  Pd15  1  0.841620  0.387218  0.385582  1
  Pd  Pd16  1  0.158380  0.612782  0.614418  1
  Pd  Pd17  1  0.343536  0.001823  0.998177  1
  Pd  Pd18  1  0.656464  0.998177  0.001823  1
  Pd  Pd19  1  0.001823  0.343536  0.656464  1
  Pd  Pd20  1  0.998177  0.656464  0.343536  1
  Pd  Pd21  1  0.001823  0.343536  0.998177  1
  Pd  Pd22  1  0.656464  0.998177  0.343536  1
  Pd  Pd23  1  0.998177  0.656464  0.001823  1
  Pd  Pd24  1  0.343536  0.001823  0.656464  1
  Pd  Pd25  1  0.000000  0.000000  0.344953  1
  Pd  Pd26  1  0.000000  0.000000  0.655047  1
  Pd  Pd27  1  0.655047  0.344953  0.000000  1
  Pd  Pd28  1  0.344953  0.655047  0.000000  1
