# generated using pymatgen
data_LaGd2Si2Rh3
_symmetry_space_group_name_H-M   'P 1'
_cell_length_a   5.71489600
_cell_length_b   7.73980900
_cell_length_c   14.96461400
_cell_angle_alpha   90.00000000
_cell_angle_beta   90.00000000
_cell_angle_gamma   90.00000000
_symmetry_Int_Tables_number   1
_chemical_formula_structural   LaGd2Si2Rh3
_chemical_formula_sum   'La4 Gd8 Si8 Rh12'
_cell_volume   661.91785167
_cell_formula_units_Z   4
loop_
 _symmetry_equiv_pos_site_id
 _symmetry_equiv_pos_as_xyz
  1  'x, y, z'
loop_
 _atom_site_type_symbol
 _atom_site_label
 _atom_site_symmetry_multiplicity
 _atom_site_fract_x
 _atom_site_fract_y
 _atom_site_fract_z
 _atom_site_occupancy
  La  La0  1  0.607727  0.331536  0.750000  1
  La  La1  1  0.392273  0.668464  0.250000  1
  La  La2  1  0.892273  0.831536  0.750000  1
  La  La3  1  0.107727  0.168464  0.250000  1
  Gd  Gd4  1  0.140895  0.471933  0.894266  1
  Gd  Gd5  1  0.359105  0.971933  0.894266  1
  Gd  Gd6  1  0.640895  0.028067  0.394266  1
  Gd  Gd7  1  0.859105  0.528067  0.105734  1
  Gd  Gd8  1  0.859105  0.528067  0.394266  1
  Gd  Gd9  1  0.359105  0.971933  0.605734  1
  Gd  Gd10  1  0.140895  0.471933  0.605734  1
  Gd  Gd11  1  0.640895  0.028067  0.105734  1
  Si  Si12  1  0.368666  0.374208  0.097822  1
  Si  Si13  1  0.631334  0.625792  0.902178  1
  Si  Si14  1  0.868666  0.125792  0.902178  1
  Si  Si15  1  0.368666  0.374208  0.402178  1
  Si  Si16  1  0.868666  0.125792  0.597822  1
  Si  Si17  1  0.631334  0.625792  0.597822  1
  Si  Si18  1  0.131334  0.874208  0.402178  1
  Si  Si19  1  0.131334  0.874208  0.097822  1
  Rh  Rh20  1  0.603708  0.336712  0.962939  1
  Rh  Rh21  1  0.396292  0.663288  0.037061  1
  Rh  Rh22  1  0.575951  0.320847  0.250000  1
  Rh  Rh23  1  0.396292  0.663288  0.462939  1
  Rh  Rh24  1  0.075951  0.179153  0.750000  1
  Rh  Rh25  1  0.103708  0.163288  0.462939  1
  Rh  Rh26  1  0.424049  0.679153  0.750000  1
  Rh  Rh27  1  0.924049  0.820847  0.250000  1
  Rh  Rh28  1  0.103708  0.163288  0.037061  1
  Rh  Rh29  1  0.603708  0.336712  0.537061  1
  Rh  Rh30  1  0.896292  0.836712  0.537061  1
  Rh  Rh31  1  0.896292  0.836712  0.962939  1
