# generated using pymatgen
data_Pr5Sn3N
_symmetry_space_group_name_H-M   'P 1'
_cell_length_a   9.34314600
_cell_length_b   9.34314618
_cell_length_c   6.73748100
_cell_angle_alpha   90.00000000
_cell_angle_beta   90.00000000
_cell_angle_gamma   119.99999935
_symmetry_Int_Tables_number   1
_chemical_formula_structural   Pr5Sn3N
_chemical_formula_sum   'Pr10 Sn6 N2'
_cell_volume   509.34783830
_cell_formula_units_Z   2
loop_
 _symmetry_equiv_pos_site_id
 _symmetry_equiv_pos_as_xyz
  1  'x, y, z'
loop_
 _atom_site_type_symbol
 _atom_site_label
 _atom_site_symmetry_multiplicity
 _atom_site_fract_x
 _atom_site_fract_y
 _atom_site_fract_z
 _atom_site_occupancy
  Pr  Pr0  1  0.666667  0.333333  0.000000  1
  Pr  Pr1  1  0.333333  0.666667  0.000000  1
  Pr  Pr2  1  0.333333  0.666667  0.500000  1
  Pr  Pr3  1  0.666667  0.333333  0.500000  1
  Pr  Pr4  1  0.784638  0.784638  0.750000  1
  Pr  Pr5  1  0.215362  0.000000  0.750000  1
  Pr  Pr6  1  0.000000  0.215362  0.750000  1
  Pr  Pr7  1  0.215362  0.215362  0.250000  1
  Pr  Pr8  1  0.784638  0.000000  0.250000  1
  Pr  Pr9  1  0.000000  0.784638  0.250000  1
  Sn  Sn10  1  0.403661  0.403661  0.750000  1
  Sn  Sn11  1  0.596339  0.000000  0.750000  1
  Sn  Sn12  1  0.000000  0.596339  0.750000  1
  Sn  Sn13  1  0.596339  0.596339  0.250000  1
  Sn  Sn14  1  0.403661  0.000000  0.250000  1
  Sn  Sn15  1  0.000000  0.403661  0.250000  1
  N  N16  1  0.000000  0.000000  0.000000  1
  N  N17  1  0.000000  0.000000  0.500000  1
