# generated using pymatgen
data_YbMoPO6
_symmetry_space_group_name_H-M   'P 1'
_cell_length_a   8.71164900
_cell_length_b   4.99287389
_cell_length_c   11.80199337
_cell_angle_alpha   70.83881696
_cell_angle_beta   90.00000000
_cell_angle_gamma   90.00000000
_symmetry_Int_Tables_number   1
_chemical_formula_structural   YbMoPO6
_chemical_formula_sum   'Yb4 Mo4 P4 O24'
_cell_volume   484.90179613
_cell_formula_units_Z   4
loop_
 _symmetry_equiv_pos_site_id
 _symmetry_equiv_pos_as_xyz
  1  'x, y, z'
loop_
 _atom_site_type_symbol
 _atom_site_label
 _atom_site_symmetry_multiplicity
 _atom_site_fract_x
 _atom_site_fract_y
 _atom_site_fract_z
 _atom_site_occupancy
  Yb  Yb0  1  0.830307  0.671248  0.421558  1
  Yb  Yb1  1  0.330307  0.328752  0.078442  1
  Yb  Yb2  1  0.669693  0.671248  0.921558  1
  Yb  Yb3  1  0.169693  0.328752  0.578442  1
  Mo  Mo4  1  0.909130  0.989849  0.112731  1
  Mo  Mo5  1  0.090870  0.010151  0.887269  1
  Mo  Mo6  1  0.409130  0.010151  0.387269  1
  Mo  Mo7  1  0.590870  0.989849  0.612731  1
  P  P8  1  0.557334  0.685030  0.208057  1
  P  P9  1  0.442666  0.314970  0.791943  1
  P  P10  1  0.057334  0.314970  0.291943  1
  P  P11  1  0.942666  0.685030  0.708057  1
  O  O12  1  0.391655  0.129637  0.535341  1
  O  O13  1  0.018251  0.590338  0.191040  1
  O  O14  1  0.537608  0.058782  0.777362  1
  O  O15  1  0.462392  0.941218  0.222638  1
  O  O16  1  0.979109  0.664482  0.583941  1
  O  O17  1  0.037608  0.941218  0.722638  1
  O  O18  1  0.608345  0.870363  0.464659  1
  O  O19  1  0.479109  0.335518  0.916059  1
  O  O20  1  0.481749  0.590338  0.691040  1
  O  O21  1  0.981749  0.409662  0.808960  1
  O  O22  1  0.518251  0.409662  0.308960  1
  O  O23  1  0.108345  0.129637  0.035341  1
  O  O24  1  0.715168  0.277941  0.559649  1
  O  O25  1  0.230679  0.258509  0.275224  1
  O  O26  1  0.520891  0.664482  0.083941  1
  O  O27  1  0.269321  0.258509  0.775224  1
  O  O28  1  0.769321  0.741491  0.724776  1
  O  O29  1  0.284832  0.722059  0.440351  1
  O  O30  1  0.730679  0.741491  0.224776  1
  O  O31  1  0.962392  0.058782  0.277362  1
  O  O32  1  0.891655  0.870363  0.964659  1
  O  O33  1  0.020891  0.335518  0.416059  1
  O  O34  1  0.215168  0.722059  0.940351  1
  O  O35  1  0.784832  0.277941  0.059649  1
