# generated using pymatgen
data_Er8V8Si16MoW3
_symmetry_space_group_name_H-M   'P 1'
_cell_length_a   6.81761118
_cell_length_b   6.81760900
_cell_length_c   12.65021609
_cell_angle_alpha   90.02564970
_cell_angle_beta   89.97434859
_cell_angle_gamma   89.99132644
_symmetry_Int_Tables_number   1
_chemical_formula_structural   Er8V8Si16MoW3
_chemical_formula_sum   'Er8 V8 Si16 Mo1 W3'
_cell_volume   587.97948256
_cell_formula_units_Z   1
loop_
 _symmetry_equiv_pos_site_id
 _symmetry_equiv_pos_as_xyz
  1  'x, y, z'
loop_
 _atom_site_type_symbol
 _atom_site_label
 _atom_site_symmetry_multiplicity
 _atom_site_fract_x
 _atom_site_fract_y
 _atom_site_fract_z
 _atom_site_occupancy
  Er  Er0  1  0.337398  0.999541  0.470007  1
  Er  Er1  1  0.500370  0.837408  0.719950  1
  Er  Er2  1  0.499731  0.162298  0.219985  1
  Er  Er3  1  0.837408  0.500370  0.280050  1
  Er  Er4  1  0.162298  0.499731  0.780015  1
  Er  Er5  1  0.662620  0.000530  0.969994  1
  Er  Er6  1  0.999541  0.337398  0.529993  1
  Er  Er7  1  0.000530  0.662620  0.030006  1
  V  V8  1  0.159441  0.006521  0.875439  1
  V  V9  1  0.493453  0.660324  0.125211  1
  V  V10  1  0.506182  0.339543  0.625694  1
  V  V11  1  0.660324  0.493453  0.874789  1
  V  V12  1  0.339543  0.506182  0.374306  1
  V  V13  1  0.841365  0.993074  0.375402  1
  V  V14  1  0.006521  0.159441  0.124561  1
  V  V15  1  0.993074  0.841365  0.624598  1
  Si  Si16  1  0.202295  0.122900  0.683353  1
  Si  Si17  1  0.377359  0.702073  0.933209  1
  Si  Si18  1  0.622561  0.297982  0.433435  1
  Si  Si19  1  0.702073  0.377359  0.066791  1
  Si  Si20  1  0.297982  0.622561  0.566565  1
  Si  Si21  1  0.797926  0.876997  0.183427  1
  Si  Si22  1  0.122900  0.202295  0.316647  1
  Si  Si23  1  0.876997  0.797926  0.816573  1
  Si  Si24  1  0.289350  0.959673  0.064161  1
  Si  Si25  1  0.540739  0.788918  0.314335  1
  Si  Si26  1  0.459392  0.210754  0.814256  1
  Si  Si27  1  0.788918  0.540739  0.685665  1
  Si  Si28  1  0.210754  0.459392  0.185744  1
  Si  Si29  1  0.710638  0.040881  0.564114  1
  Si  Si30  1  0.959673  0.289350  0.935839  1
  Si  Si31  1  0.040881  0.710638  0.435886  1
  Mo  Mo32  1  0.668043  0.668043  0.500000  1
  W  W33  1  0.331859  0.331859  0.000000  1
  W  W34  1  0.168189  0.831674  0.249994  1
  W  W35  1  0.831674  0.168189  0.750006  1
