# generated using pymatgen
data_Ho3Pb4F17
_symmetry_space_group_name_H-M   'P 1'
_cell_length_a   9.19837114
_cell_length_b   9.14823746
_cell_length_c   9.14697600
_cell_angle_alpha   73.16159635
_cell_angle_beta   73.21886654
_cell_angle_gamma   72.98348455
_symmetry_Int_Tables_number   1
_chemical_formula_structural   Ho3Pb4F17
_chemical_formula_sum   'Ho6 Pb8 F34'
_cell_volume   686.74151598
_cell_formula_units_Z   2
loop_
 _symmetry_equiv_pos_site_id
 _symmetry_equiv_pos_as_xyz
  1  'x, y, z'
loop_
 _atom_site_type_symbol
 _atom_site_label
 _atom_site_symmetry_multiplicity
 _atom_site_fract_x
 _atom_site_fract_y
 _atom_site_fract_z
 _atom_site_occupancy
  Ho  Ho0  1  0.162220  0.607537  0.469566  1
  Ho  Ho1  1  0.468644  0.160125  0.608360  1
  Ho  Ho2  1  0.605136  0.474179  0.184720  1
  Ho  Ho3  1  0.391816  0.529899  0.839700  1
  Ho  Ho4  1  0.534297  0.815411  0.394060  1
  Ho  Ho5  1  0.823265  0.398238  0.524769  1
  Pb  Pb6  1  0.032593  0.304582  0.902379  1
  Pb  Pb7  1  0.264397  0.259938  0.266695  1
  Pb  Pb8  1  0.317113  0.892642  0.047498  1
  Pb  Pb9  1  0.099769  0.962542  0.690367  1
  Pb  Pb10  1  0.892982  0.040904  0.312150  1
  Pb  Pb11  1  0.690264  0.103253  0.964513  1
  Pb  Pb12  1  0.735640  0.732146  0.739824  1
  Pb  Pb13  1  0.958201  0.686158  0.103146  1
  F  F14  1  0.989734  0.011846  0.997314  1
  F  F15  1  0.137612  0.134869  0.139907  1
  F  F16  1  0.018831  0.179488  0.455540  1
  F  F17  1  0.044303  0.489622  0.357602  1
  F  F18  1  0.179254  0.452054  0.019819  1
  F  F19  1  0.081174  0.790347  0.254897  1
  F  F20  1  0.254599  0.085553  0.789895  1
  F  F21  1  0.356174  0.036047  0.493136  1
  F  F22  1  0.265555  0.348352  0.541984  1
  F  F23  1  0.450567  0.019229  0.183798  1
  F  F24  1  0.343870  0.550130  0.258484  1
  F  F25  1  0.214913  0.587432  0.695983  1
  F  F26  1  0.488679  0.356133  0.047875  1
  F  F27  1  0.298016  0.792514  0.406762  1
  F  F28  1  0.544549  0.256292  0.349213  1
  F  F29  1  0.209864  0.745415  0.917640  1
  F  F30  1  0.419881  0.301680  0.785738  1
  F  F31  1  0.594518  0.723080  0.175856  1
  F  F32  1  0.553670  0.525603  0.440783  1
  F  F33  1  0.780820  0.259457  0.088798  1
  F  F34  1  0.457020  0.735836  0.654533  1
  F  F35  1  0.701043  0.205428  0.579334  1
  F  F36  1  0.507847  0.641657  0.960952  1
  F  F37  1  0.821857  0.408416  0.279601  1
  F  F38  1  0.650845  0.458483  0.738689  1
  F  F39  1  0.545151  0.978002  0.822467  1
  F  F40  1  0.759639  0.662347  0.451193  1
  F  F41  1  0.641428  0.952978  0.510213  1
  F  F42  1  0.742160  0.916672  0.213173  1
  F  F43  1  0.908161  0.215717  0.741245  1
  F  F44  1  0.819021  0.547069  0.979576  1
  F  F45  1  0.957601  0.506441  0.645386  1
  F  F46  1  0.980175  0.820214  0.548843  1
  F  F47  1  0.863133  0.862038  0.862025  1
