# generated using pymatgen
data_Tm3Lu7(InBi)3
_symmetry_space_group_name_H-M   'P 1'
_cell_length_a   6.44589400
_cell_length_b   8.89752391
_cell_length_c   8.89744900
_cell_angle_alpha   120.00027994
_cell_angle_beta   89.99878152
_cell_angle_gamma   90.00244316
_symmetry_Int_Tables_number   1
_chemical_formula_structural   Tm3Lu7(InBi)3
_chemical_formula_sum   'Tm3 Lu7 In3 Bi3'
_cell_volume   441.92364293
_cell_formula_units_Z   1
loop_
 _symmetry_equiv_pos_site_id
 _symmetry_equiv_pos_as_xyz
  1  'x, y, z'
loop_
 _atom_site_type_symbol
 _atom_site_label
 _atom_site_symmetry_multiplicity
 _atom_site_fract_x
 _atom_site_fract_y
 _atom_site_fract_z
 _atom_site_occupancy
  Tm  Tm0  1  0.749801  0.234711  0.000000  1
  Tm  Tm1  1  0.749917  0.765356  0.765309  1
  Tm  Tm2  1  0.749917  0.000049  0.234691  1
  Lu  Lu3  1  0.491834  0.333370  0.666739  1
  Lu  Lu4  1  0.491834  0.666631  0.333261  1
  Lu  Lu5  1  0.008221  0.666716  0.333382  1
  Lu  Lu6  1  0.008221  0.333336  0.666618  1
  Lu  Lu7  1  0.249915  0.763157  0.000000  1
  Lu  Lu8  1  0.249888  0.236877  0.236881  1
  Lu  Lu9  1  0.249888  0.999997  0.763119  1
  In  In10  1  0.249982  0.392897  0.000000  1
  In  In11  1  0.250312  0.606912  0.606937  1
  In  In12  1  0.250312  0.999975  0.393063  1
  Bi  Bi13  1  0.750029  0.602337  0.000000  1
  Bi  Bi14  1  0.749965  0.397679  0.397673  1
  Bi  Bi15  1  0.749965  0.000005  0.602327  1
