# generated using pymatgen
data_Nd2Y2GeBr6
_symmetry_space_group_name_H-M   'P 1'
_cell_length_a   4.16802100
_cell_length_b   13.56189300
_cell_length_c   14.29491000
_cell_angle_alpha   90.00000000
_cell_angle_beta   90.00000000
_cell_angle_gamma   90.00000000
_symmetry_Int_Tables_number   1
_chemical_formula_structural   Nd2Y2GeBr6
_chemical_formula_sum   'Nd4 Y4 Ge2 Br12'
_cell_volume   808.03772534
_cell_formula_units_Z   2
loop_
 _symmetry_equiv_pos_site_id
 _symmetry_equiv_pos_as_xyz
  1  'x, y, z'
loop_
 _atom_site_type_symbol
 _atom_site_label
 _atom_site_symmetry_multiplicity
 _atom_site_fract_x
 _atom_site_fract_y
 _atom_site_fract_z
 _atom_site_occupancy
  Nd  Nd0  1  0.000000  0.121849  0.581143  1
  Nd  Nd1  1  0.000000  0.878151  0.418857  1
  Nd  Nd2  1  0.000000  0.621849  0.918857  1
  Nd  Nd3  1  0.000000  0.378151  0.081143  1
  Y  Y4  1  0.500000  0.117693  0.341337  1
  Y  Y5  1  0.500000  0.882307  0.658663  1
  Y  Y6  1  0.500000  0.617693  0.158663  1
  Y  Y7  1  0.500000  0.382307  0.841337  1
  Ge  Ge8  1  0.500000  0.000000  0.500000  1
  Ge  Ge9  1  0.500000  0.500000  0.000000  1
  Br  Br10  1  0.500000  0.238540  0.167574  1
  Br  Br11  1  0.500000  0.761460  0.832426  1
  Br  Br12  1  0.500000  0.738540  0.332426  1
  Br  Br13  1  0.500000  0.261460  0.667574  1
  Br  Br14  1  0.000000  0.252026  0.406175  1
  Br  Br15  1  0.000000  0.747974  0.593825  1
  Br  Br16  1  0.000000  0.752026  0.093825  1
  Br  Br17  1  0.000000  0.247974  0.906175  1
  Br  Br18  1  0.000000  0.007746  0.244163  1
  Br  Br19  1  0.000000  0.992254  0.755837  1
  Br  Br20  1  0.000000  0.507746  0.255837  1
  Br  Br21  1  0.000000  0.492254  0.744163  1
