# generated using pymatgen
data_Tb11Dy5(InRu)4
_symmetry_space_group_name_H-M   'P 1'
_cell_length_a   9.68596683
_cell_length_b   9.66416483
_cell_length_c   9.66416506
_cell_angle_alpha   59.86722262
_cell_angle_beta   59.92533991
_cell_angle_gamma   59.92534503
_symmetry_Int_Tables_number   1
_chemical_formula_structural   Tb11Dy5(InRu)4
_chemical_formula_sum   'Tb11 Dy5 In4 Ru4'
_cell_volume   638.30601128
_cell_formula_units_Z   1
loop_
 _symmetry_equiv_pos_site_id
 _symmetry_equiv_pos_as_xyz
  1  'x, y, z'
loop_
 _atom_site_type_symbol
 _atom_site_label
 _atom_site_symmetry_multiplicity
 _atom_site_fract_x
 _atom_site_fract_y
 _atom_site_fract_z
 _atom_site_occupancy
  Tb  Tb0  1  0.441527  0.442099  0.058750  1
  Tb  Tb1  1  0.057624  0.442099  0.058750  1
  Tb  Tb2  1  0.442552  0.057448  0.057448  1
  Tb  Tb3  1  0.057624  0.058750  0.442099  1
  Tb  Tb4  1  0.441527  0.058750  0.442099  1
  Tb  Tb5  1  0.058583  0.441417  0.441417  1
  Tb  Tb6  1  0.807033  0.809022  0.191998  1
  Tb  Tb7  1  0.191947  0.809022  0.191998  1
  Tb  Tb8  1  0.807574  0.192426  0.192426  1
  Tb  Tb9  1  0.191947  0.191998  0.809022  1
  Tb  Tb10  1  0.807033  0.191998  0.809022  1
  Dy  Dy11  1  0.191885  0.808115  0.808115  1
  Dy  Dy12  1  0.653087  0.651922  0.041904  1
  Dy  Dy13  1  0.653087  0.041904  0.651922  1
  Dy  Dy14  1  0.042727  0.652390  0.652390  1
  Dy  Dy15  1  0.652494  0.652390  0.652390  1
  In  In16  1  0.417339  0.418087  0.747236  1
  In  In17  1  0.417339  0.747236  0.418087  1
  In  In18  1  0.746264  0.417971  0.417971  1
  In  In19  1  0.417794  0.417971  0.417971  1
  Ru  Ru20  1  0.861971  0.859080  0.416978  1
  Ru  Ru21  1  0.861971  0.416978  0.859080  1
  Ru  Ru22  1  0.416128  0.860464  0.860464  1
  Ru  Ru23  1  0.862944  0.860464  0.860464  1
