# generated using pymatgen
data_LiHo4Lu3(B6Os)4
_symmetry_space_group_name_H-M   'P 1'
_cell_length_a   3.59342500
_cell_length_b   9.01722413
_cell_length_c   11.39629143
_cell_angle_alpha   89.94265061
_cell_angle_beta   90.00000000
_cell_angle_gamma   90.00000000
_symmetry_Int_Tables_number   1
_chemical_formula_structural   LiHo4Lu3(B6Os)4
_chemical_formula_sum   'Li1 Ho4 Lu3 B24 Os4'
_cell_volume   369.27063941
_cell_formula_units_Z   1
loop_
 _symmetry_equiv_pos_site_id
 _symmetry_equiv_pos_as_xyz
  1  'x, y, z'
loop_
 _atom_site_type_symbol
 _atom_site_label
 _atom_site_symmetry_multiplicity
 _atom_site_fract_x
 _atom_site_fract_y
 _atom_site_fract_z
 _atom_site_occupancy
  Li  Li0  1  0.000000  0.944645  0.373270  1
  Ho  Ho1  1  0.000000  0.320108  0.410862  1
  Ho  Ho2  1  0.000000  0.680615  0.581357  1
  Ho  Ho3  1  0.000000  0.823394  0.091534  1
  Ho  Ho4  1  0.000000  0.177846  0.917130  1
  Lu  Lu5  1  0.000000  0.055431  0.624817  1
  Lu  Lu6  1  0.000000  0.443246  0.129695  1
  Lu  Lu7  1  0.000000  0.556742  0.872089  1
  B  B8  1  0.500000  0.556175  0.432428  1
  B  B9  1  0.500000  0.446113  0.565905  1
  B  B10  1  0.500000  0.053281  0.068802  1
  B  B11  1  0.500000  0.946431  0.933314  1
  B  B12  1  0.500000  0.755759  0.417845  1
  B  B13  1  0.500000  0.248717  0.579479  1
  B  B14  1  0.500000  0.249087  0.082054  1
  B  B15  1  0.500000  0.750316  0.919264  1
  B  B16  1  0.500000  0.795485  0.266638  1
  B  B17  1  0.500000  0.207117  0.733901  1
  B  B18  1  0.500000  0.289380  0.235482  1
  B  B19  1  0.500000  0.708312  0.764517  1
  B  B20  1  0.500000  0.631404  0.186274  1
  B  B21  1  0.500000  0.369125  0.815411  1
  B  B22  1  0.500000  0.124538  0.317328  1
  B  B23  1  0.500000  0.869921  0.682587  1
  B  B24  1  0.500000  0.979898  0.215545  1
  B  B25  1  0.500000  0.018094  0.785915  1
  B  B26  1  0.500000  0.482531  0.287864  1
  B  B27  1  0.500000  0.517871  0.712395  1
  B  B28  1  0.500000  0.603528  0.029043  1
  B  B29  1  0.500000  0.397173  0.972214  1
  B  B30  1  0.500000  0.093591  0.469589  1
  B  B31  1  0.500000  0.902361  0.522553  1
  Os  Os32  1  0.000000  0.641840  0.320985  1
  Os  Os33  1  0.000000  0.360669  0.679639  1
  Os  Os34  1  0.000000  0.136664  0.181812  1
  Os  Os35  1  0.000000  0.862590  0.820463  1
