# generated using pymatgen
data_Ce5Tm11MnZn4Co3
_symmetry_space_group_name_H-M   'P 1'
_cell_length_a   9.22647418
_cell_length_b   9.26824058
_cell_length_c   9.26824000
_cell_angle_alpha   59.95577758
_cell_angle_beta   59.56015143
_cell_angle_gamma   59.56015601
_symmetry_Int_Tables_number   1
_chemical_formula_structural   Ce5Tm11MnZn4Co3
_chemical_formula_sum   'Ce5 Tm11 Mn1 Zn4 Co3'
_cell_volume   556.48366176
_cell_formula_units_Z   1
loop_
 _symmetry_equiv_pos_site_id
 _symmetry_equiv_pos_as_xyz
  1  'x, y, z'
loop_
 _atom_site_type_symbol
 _atom_site_label
 _atom_site_symmetry_multiplicity
 _atom_site_fract_x
 _atom_site_fract_y
 _atom_site_fract_z
 _atom_site_occupancy
  Ce  Ce0  1  0.347622  0.351910  0.351910  1
  Ce  Ce1  1  0.348520  0.350909  0.954634  1
  Ce  Ce2  1  0.348520  0.954634  0.350909  1
  Ce  Ce3  1  0.954825  0.344120  0.344120  1
  Ce  Ce4  1  0.815475  0.185286  0.185286  1
  Tm  Tm5  1  0.191527  0.809418  0.809418  1
  Tm  Tm6  1  0.193248  0.810721  0.187481  1
  Tm  Tm7  1  0.813967  0.187880  0.803354  1
  Tm  Tm8  1  0.193248  0.187481  0.810721  1
  Tm  Tm9  1  0.813967  0.803354  0.187880  1
  Tm  Tm10  1  0.933416  0.564208  0.564208  1
  Tm  Tm11  1  0.571467  0.932436  0.932436  1
  Tm  Tm12  1  0.562963  0.936300  0.563466  1
  Tm  Tm13  1  0.940085  0.561321  0.931344  1
  Tm  Tm14  1  0.562963  0.563466  0.936300  1
  Tm  Tm15  1  0.940085  0.931344  0.561321  1
  Mn  Mn16  1  0.069389  0.173882  0.173882  1
  Zn  Zn17  1  0.583598  0.576224  0.576224  1
  Zn  Zn18  1  0.575610  0.586769  0.261561  1
  Zn  Zn19  1  0.575610  0.261561  0.586769  1
  Zn  Zn20  1  0.264738  0.578626  0.578626  1
  Co  Co21  1  0.162415  0.136569  0.563677  1
  Co  Co22  1  0.162415  0.563677  0.136569  1
  Co  Co23  1  0.574329  0.147905  0.147905  1
