# generated using pymatgen
data_Er3Tm5Sc12(Ga7Si)2
_symmetry_space_group_name_H-M   'P 1'
_cell_length_a   7.22045335
_cell_length_b   7.45185450
_cell_length_c   14.42850708
_cell_angle_alpha   90.00963906
_cell_angle_beta   90.00725443
_cell_angle_gamma   90.24629713
_symmetry_Int_Tables_number   1
_chemical_formula_structural   Er3Tm5Sc12(Ga7Si)2
_chemical_formula_sum   'Er3 Tm5 Sc12 Ga14 Si2'
_cell_volume   776.32971099
_cell_formula_units_Z   1
loop_
 _symmetry_equiv_pos_site_id
 _symmetry_equiv_pos_as_xyz
  1  'x, y, z'
loop_
 _atom_site_type_symbol
 _atom_site_label
 _atom_site_symmetry_multiplicity
 _atom_site_fract_x
 _atom_site_fract_y
 _atom_site_fract_z
 _atom_site_occupancy
  Er  Er0  1  0.012962  0.179071  0.096362  1
  Er  Er1  1  0.987035  0.820978  0.903666  1
  Er  Er2  1  0.489324  0.677950  0.904456  1
  Tm  Tm3  1  0.987057  0.820959  0.596350  1
  Tm  Tm4  1  0.510672  0.321978  0.095589  1
  Tm  Tm5  1  0.012933  0.179064  0.403641  1
  Tm  Tm6  1  0.510682  0.321986  0.404439  1
  Tm  Tm7  1  0.489322  0.678019  0.595580  1
  Sc  Sc8  1  0.160818  0.504239  0.749941  1
  Sc  Sc9  1  0.839131  0.495703  0.250025  1
  Sc  Sc10  1  0.336992  0.006353  0.250038  1
  Sc  Sc11  1  0.663033  0.993722  0.749935  1
  Sc  Sc12  1  0.331182  0.174417  0.622936  1
  Sc  Sc13  1  0.668823  0.825587  0.377039  1
  Sc  Sc14  1  0.170596  0.671612  0.376189  1
  Sc  Sc15  1  0.668781  0.825576  0.122992  1
  Sc  Sc16  1  0.829426  0.328378  0.623776  1
  Sc  Sc17  1  0.331235  0.174430  0.877032  1
  Sc  Sc18  1  0.829419  0.328376  0.876159  1
  Sc  Sc19  1  0.170619  0.671565  0.123848  1
  Ga  Ga20  1  0.032498  0.117283  0.749970  1
  Ga  Ga21  1  0.967492  0.882724  0.250033  1
  Ga  Ga22  1  0.467344  0.612019  0.250011  1
  Ga  Ga23  1  0.532656  0.387903  0.749965  1
  Ga  Ga24  1  0.285602  0.870665  0.749910  1
  Ga  Ga25  1  0.714325  0.129399  0.250047  1
  Ga  Ga26  1  0.159861  0.465831  0.540434  1
  Ga  Ga27  1  0.840156  0.534149  0.459568  1
  Ga  Ga28  1  0.338490  0.965296  0.459246  1
  Ga  Ga29  1  0.840103  0.534218  0.040464  1
  Ga  Ga30  1  0.661510  0.034699  0.540742  1
  Ga  Ga31  1  0.159818  0.465701  0.959584  1
  Ga  Ga32  1  0.661381  0.034936  0.959314  1
  Ga  Ga33  1  0.338643  0.965240  0.040754  1
  Si  Si34  1  0.215135  0.372979  0.250058  1
  Si  Si35  1  0.784946  0.626993  0.749907  1
