# generated using pymatgen
data_La8SnGe7Pd8
_symmetry_space_group_name_H-M   'P 1'
_cell_length_a   4.57484500
_cell_length_b   7.96668659
_cell_length_c   14.61754100
_cell_angle_alpha   89.72979853
_cell_angle_beta   90.00000000
_cell_angle_gamma   90.00000000
_symmetry_Int_Tables_number   1
_chemical_formula_structural   La8SnGe7Pd8
_chemical_formula_sum   'La8 Sn1 Ge7 Pd8'
_cell_volume   532.75018343
_cell_formula_units_Z   1
loop_
 _symmetry_equiv_pos_site_id
 _symmetry_equiv_pos_as_xyz
  1  'x, y, z'
loop_
 _atom_site_type_symbol
 _atom_site_label
 _atom_site_symmetry_multiplicity
 _atom_site_fract_x
 _atom_site_fract_y
 _atom_site_fract_z
 _atom_site_occupancy
  La  La0  1  0.000000  0.214870  0.747622  1
  La  La1  1  0.000000  0.214050  0.249673  1
  La  La2  1  0.500000  0.779696  0.743470  1
  La  La3  1  0.500000  0.787803  0.253756  1
  La  La4  1  0.000000  0.283842  0.499329  1
  La  La5  1  0.500000  0.711448  0.001579  1
  La  La6  1  0.000000  0.303968  0.006414  1
  La  La7  1  0.500000  0.704188  0.498774  1
  Sn  Sn8  1  0.500000  0.089252  0.904005  1
  Ge  Ge9  1  0.000000  0.585119  0.854910  1
  Ge  Ge10  1  0.000000  0.593740  0.146528  1
  Ge  Ge11  1  0.500000  0.410569  0.644153  1
  Ge  Ge12  1  0.500000  0.410883  0.356251  1
  Ge  Ge13  1  0.000000  0.912625  0.405524  1
  Ge  Ge14  1  0.000000  0.911926  0.592863  1
  Ge  Ge15  1  0.500000  0.088394  0.100136  1
  Pd  Pd16  1  0.000000  0.907455  0.886371  1
  Pd  Pd17  1  0.000000  0.923631  0.112347  1
  Pd  Pd18  1  0.500000  0.077665  0.609334  1
  Pd  Pd19  1  0.500000  0.078234  0.389170  1
  Pd  Pd20  1  0.000000  0.580249  0.347108  1
  Pd  Pd21  1  0.000000  0.578929  0.649601  1
  Pd  Pd22  1  0.500000  0.423969  0.157245  1
  Pd  Pd23  1  0.500000  0.427495  0.843835  1
