# generated using pymatgen
data_Dy3Ho3Lu10(Ga3Co)2
_symmetry_space_group_name_H-M   'P 1'
_cell_length_a   9.82190000
_cell_length_b   9.83076180
_cell_length_c   6.91377900
_cell_angle_alpha   90.00837186
_cell_angle_beta   90.00000000
_cell_angle_gamma   119.97018524
_symmetry_Int_Tables_number   1
_chemical_formula_structural   Dy3Ho3Lu10(Ga3Co)2
_chemical_formula_sum   'Dy3 Ho3 Lu10 Ga6 Co2'
_cell_volume   578.30799719
_cell_formula_units_Z   1
loop_
 _symmetry_equiv_pos_site_id
 _symmetry_equiv_pos_as_xyz
  1  'x, y, z'
loop_
 _atom_site_type_symbol
 _atom_site_label
 _atom_site_symmetry_multiplicity
 _atom_site_fract_x
 _atom_site_fract_y
 _atom_site_fract_z
 _atom_site_occupancy
  Dy  Dy0  1  0.535840  0.071681  0.708750  1
  Dy  Dy1  1  0.000038  0.000077  0.231735  1
  Dy  Dy2  1  0.999930  0.999860  0.731750  1
  Ho  Ho3  1  0.463540  0.927082  0.208448  1
  Ho  Ho4  1  0.535568  0.464483  0.708342  1
  Ho  Ho5  1  0.928916  0.464483  0.708342  1
  Lu  Lu6  1  0.173601  0.824995  0.511638  1
  Lu  Lu7  1  0.651395  0.824995  0.511638  1
  Lu  Lu8  1  0.174487  0.348974  0.510517  1
  Lu  Lu9  1  0.826874  0.175079  0.013968  1
  Lu  Lu10  1  0.348205  0.175079  0.013968  1
  Lu  Lu11  1  0.825573  0.651146  0.014882  1
  Lu  Lu12  1  0.332759  0.665518  0.826805  1
  Lu  Lu13  1  0.667189  0.334376  0.325567  1
  Lu  Lu14  1  0.462703  0.536935  0.207670  1
  Lu  Lu15  1  0.074232  0.536935  0.207670  1
  Ga  Ga16  1  0.163400  0.835799  0.957150  1
  Ga  Ga17  1  0.672399  0.835799  0.957150  1
  Ga  Ga18  1  0.164363  0.328727  0.958051  1
  Ga  Ga19  1  0.836426  0.163309  0.456398  1
  Ga  Ga20  1  0.326884  0.163309  0.456398  1
  Ga  Ga21  1  0.836472  0.672944  0.455469  1
  Co  Co22  1  0.332518  0.665038  0.445440  1
  Co  Co23  1  0.666689  0.333375  0.947090  1
