# generated using pymatgen
data_MgTa11(MnOs)6
_symmetry_space_group_name_H-M   'P 1'
_cell_length_a   4.42284200
_cell_length_b   6.27276000
_cell_length_c   13.29187001
_cell_angle_alpha   90.00299376
_cell_angle_beta   90.00097937
_cell_angle_gamma   90.00015079
_symmetry_Int_Tables_number   1
_chemical_formula_structural   MgTa11(MnOs)6
_chemical_formula_sum   'Mg1 Ta11 Mn6 Os6'
_cell_volume   368.76201657
_cell_formula_units_Z   1
loop_
 _symmetry_equiv_pos_site_id
 _symmetry_equiv_pos_as_xyz
  1  'x, y, z'
loop_
 _atom_site_type_symbol
 _atom_site_label
 _atom_site_symmetry_multiplicity
 _atom_site_fract_x
 _atom_site_fract_y
 _atom_site_fract_z
 _atom_site_occupancy
  Mg  Mg0  1  0.499998  0.250228  0.999996  1
  Ta  Ta1  1  0.500000  0.750567  0.000005  1
  Ta  Ta2  1  0.999897  0.250546  0.162068  1
  Ta  Ta3  1  0.999875  0.749872  0.164720  1
  Ta  Ta4  1  0.499900  0.249191  0.332457  1
  Ta  Ta5  1  0.499899  0.749371  0.332204  1
  Ta  Ta6  1  0.000000  0.250003  0.500008  1
  Ta  Ta7  1  0.000001  0.750284  0.500008  1
  Ta  Ta8  1  0.500100  0.249248  0.667521  1
  Ta  Ta9  1  0.500100  0.749318  0.667777  1
  Ta  Ta10  1  0.000103  0.250571  0.837922  1
  Ta  Ta11  1  0.000124  0.749845  0.835265  1
  Mn  Mn12  1  0.000005  0.504904  0.000023  1
  Mn  Mn13  1  0.499887  0.997616  0.169901  1
  Mn  Mn14  1  0.999904  0.499146  0.333641  1
  Mn  Mn15  1  0.500001  0.001836  0.500005  1
  Mn  Mn16  1  0.000095  0.499130  0.666372  1
  Mn  Mn17  1  0.500107  0.997555  0.830124  1
  Os  Os18  1  0.000000  0.998059  0.999997  1
  Os  Os19  1  0.499886  0.501086  0.168013  1
  Os  Os20  1  0.999896  0.000322  0.333006  1
  Os  Os21  1  0.500000  0.499895  0.500010  1
  Os  Os22  1  0.000106  0.000328  0.666983  1
  Os  Os23  1  0.500117  0.501079  0.831973  1
