# generated using pymatgen
data_Hf16Ni4Mo2IrPd
_symmetry_space_group_name_H-M   'P 1'
_cell_length_a   8.67699957
_cell_length_b   8.67699891
_cell_length_c   8.62859221
_cell_angle_alpha   60.12851406
_cell_angle_beta   60.12851941
_cell_angle_gamma   60.15433723
_symmetry_Int_Tables_number   1
_chemical_formula_structural   Hf16Ni4Mo2IrPd
_chemical_formula_sum   'Hf16 Ni4 Mo2 Ir1 Pd1'
_cell_volume   460.79837374
_cell_formula_units_Z   1
loop_
 _symmetry_equiv_pos_site_id
 _symmetry_equiv_pos_as_xyz
  1  'x, y, z'
loop_
 _atom_site_type_symbol
 _atom_site_label
 _atom_site_symmetry_multiplicity
 _atom_site_fract_x
 _atom_site_fract_y
 _atom_site_fract_z
 _atom_site_occupancy
  Hf  Hf0  1  0.682762  0.106270  0.104798  1
  Hf  Hf1  1  0.106270  0.682762  0.104798  1
  Hf  Hf2  1  0.102172  0.102172  0.691818  1
  Hf  Hf3  1  0.102859  0.102859  0.103052  1
  Hf  Hf4  1  0.315917  0.315917  0.689129  1
  Hf  Hf5  1  0.686613  0.686613  0.313470  1
  Hf  Hf6  1  0.316479  0.692789  0.315174  1
  Hf  Hf7  1  0.689691  0.315884  0.680093  1
  Hf  Hf8  1  0.692789  0.316479  0.315174  1
  Hf  Hf9  1  0.315884  0.689691  0.680093  1
  Hf  Hf10  1  0.952941  0.952941  0.546992  1
  Hf  Hf11  1  0.549798  0.549798  0.948425  1
  Hf  Hf12  1  0.947976  0.549971  0.951085  1
  Hf  Hf13  1  0.552643  0.943589  0.553097  1
  Hf  Hf14  1  0.549971  0.947976  0.951085  1
  Hf  Hf15  1  0.943589  0.552643  0.553097  1
  Ni  Ni16  1  0.323505  0.887893  0.893777  1
  Ni  Ni17  1  0.887893  0.323505  0.893777  1
  Ni  Ni18  1  0.891453  0.891453  0.320250  1
  Ni  Ni19  1  0.891686  0.891686  0.896398  1
  Mo  Mo20  1  0.998131  0.332676  0.333431  1
  Mo  Mo21  1  0.332676  0.998131  0.333431  1
  Ir  Ir22  1  0.333770  0.333770  0.991727  1
  Pd  Pd23  1  0.332529  0.332529  0.335826  1
