# generated using pymatgen
data_NaMn(NO3)4
_symmetry_space_group_name_H-M   'P 1'
_cell_length_a   7.93090212
_cell_length_b   7.58818300
_cell_length_c   8.38995208
_cell_angle_alpha   90.00000000
_cell_angle_beta   84.62537676
_cell_angle_gamma   90.00000000
_symmetry_Int_Tables_number   1
_chemical_formula_structural   NaMn(NO3)4
_chemical_formula_sum   'Na2 Mn2 N8 O24'
_cell_volume   502.69700957
_cell_formula_units_Z   2
loop_
 _symmetry_equiv_pos_site_id
 _symmetry_equiv_pos_as_xyz
  1  'x, y, z'
loop_
 _atom_site_type_symbol
 _atom_site_label
 _atom_site_symmetry_multiplicity
 _atom_site_fract_x
 _atom_site_fract_y
 _atom_site_fract_z
 _atom_site_occupancy
  Na  Na0  1  0.500000  0.500000  0.500000  1
  Na  Na1  1  0.500000  0.000000  0.000000  1
  Mn  Mn2  1  0.000000  0.500000  0.000000  1
  Mn  Mn3  1  0.000000  0.000000  0.500000  1
  N  N4  1  0.698576  0.139228  0.335705  1
  N  N5  1  0.698576  0.360772  0.835705  1
  N  N6  1  0.843536  0.804717  0.832678  1
  N  N7  1  0.843536  0.695283  0.332678  1
  N  N8  1  0.156464  0.195283  0.167322  1
  N  N9  1  0.156464  0.304717  0.667322  1
  N  N10  1  0.301424  0.639228  0.164295  1
  N  N11  1  0.301424  0.860772  0.664295  1
  O  O12  1  0.590998  0.241915  0.837805  1
  O  O13  1  0.590998  0.258085  0.337805  1
  O  O14  1  0.716453  0.476459  0.731839  1
  O  O15  1  0.716453  0.023541  0.231839  1
  O  O16  1  0.728182  0.702600  0.442532  1
  O  O17  1  0.728182  0.797400  0.942532  1
  O  O18  1  0.796395  0.357417  0.955798  1
  O  O19  1  0.796395  0.142583  0.455798  1
  O  O20  1  0.836083  0.907388  0.715433  1
  O  O21  1  0.836083  0.592612  0.215433  1
  O  O22  1  0.976291  0.705239  0.835034  1
  O  O23  1  0.976291  0.794761  0.335034  1
  O  O24  1  0.023709  0.205239  0.664966  1
  O  O25  1  0.023709  0.294761  0.164966  1
  O  O26  1  0.163917  0.407388  0.784567  1
  O  O27  1  0.163917  0.092612  0.284567  1
  O  O28  1  0.203605  0.642583  0.044202  1
  O  O29  1  0.203605  0.857417  0.544202  1
  O  O30  1  0.271818  0.202600  0.057468  1
  O  O31  1  0.271818  0.297400  0.557468  1
  O  O32  1  0.283547  0.523541  0.268161  1
  O  O33  1  0.283547  0.976459  0.768161  1
  O  O34  1  0.409002  0.741915  0.662195  1
  O  O35  1  0.409002  0.758085  0.162195  1
