# generated using pymatgen
data_Pr2Nd3DyTa2O14
_symmetry_space_group_name_H-M   'P 1'
_cell_length_a   6.68539242
_cell_length_b   6.65748594
_cell_length_c   7.70644200
_cell_angle_alpha   90.00000000
_cell_angle_beta   90.00000000
_cell_angle_gamma   108.69273638
_symmetry_Int_Tables_number   1
_chemical_formula_structural   Pr2Nd3DyTa2O14
_chemical_formula_sum   'Pr2 Nd3 Dy1 Ta2 O14'
_cell_volume   324.90478756
_cell_formula_units_Z   1
loop_
 _symmetry_equiv_pos_site_id
 _symmetry_equiv_pos_as_xyz
  1  'x, y, z'
loop_
 _atom_site_type_symbol
 _atom_site_label
 _atom_site_symmetry_multiplicity
 _atom_site_fract_x
 _atom_site_fract_y
 _atom_site_fract_z
 _atom_site_occupancy
  Pr  Pr0  1  0.533970  0.527195  0.498980  1
  Pr  Pr1  1  0.533970  0.527195  0.001020  1
  Nd  Nd2  1  0.006936  0.461808  0.750000  1
  Nd  Nd3  1  0.532311  0.003562  0.750000  1
  Nd  Nd4  1  0.462772  0.003931  0.250000  1
  Dy  Dy5  1  0.003928  0.531373  0.250000  1
  Ta  Ta6  1  0.000889  0.001161  0.497836  1
  Ta  Ta7  1  0.000889  0.001161  0.002164  1
  O  O8  1  0.945525  0.056129  0.750000  1
  O  O9  1  0.058354  0.935475  0.250000  1
  O  O10  1  0.353438  0.635403  0.250000  1
  O  O11  1  0.643972  0.367698  0.750000  1
  O  O12  1  0.371088  0.632153  0.750000  1
  O  O13  1  0.644898  0.375856  0.250000  1
  O  O14  1  0.308059  0.069824  0.969546  1
  O  O15  1  0.679209  0.919748  0.472840  1
  O  O16  1  0.308059  0.069824  0.530454  1
  O  O17  1  0.679209  0.919748  0.027160  1
  O  O18  1  0.034476  0.299427  0.458332  1
  O  O19  1  0.931785  0.680950  0.975881  1
  O  O20  1  0.931785  0.680950  0.524119  1
  O  O21  1  0.034476  0.299427  0.041668  1
