# generated using pymatgen
data_HoPa(Al5Fe)4
_symmetry_space_group_name_H-M   'P 1'
_cell_length_a   6.75024171
_cell_length_b   6.75024127
_cell_length_c   8.95935500
_cell_angle_alpha   90.00000000
_cell_angle_beta   90.00000000
_cell_angle_gamma   97.62959705
_symmetry_Int_Tables_number   1
_chemical_formula_structural   HoPa(Al5Fe)4
_chemical_formula_sum   'Ho1 Pa1 Al20 Fe4'
_cell_volume   404.62571058
_cell_formula_units_Z   1
loop_
 _symmetry_equiv_pos_site_id
 _symmetry_equiv_pos_as_xyz
  1  'x, y, z'
loop_
 _atom_site_type_symbol
 _atom_site_label
 _atom_site_symmetry_multiplicity
 _atom_site_fract_x
 _atom_site_fract_y
 _atom_site_fract_z
 _atom_site_occupancy
  Ho  Ho0  1  0.127760  0.872240  0.250000  1
  Pa  Pa1  1  0.874521  0.125479  0.750000  1
  Al  Al2  1  0.624562  0.375438  0.549306  1
  Al  Al3  1  0.373860  0.626140  0.451247  1
  Al  Al4  1  0.373860  0.626140  0.048753  1
  Al  Al5  1  0.624562  0.375438  0.950694  1
  Al  Al6  1  0.226995  0.225819  0.499311  1
  Al  Al7  1  0.774181  0.773005  0.499311  1
  Al  Al8  1  0.774181  0.773005  0.000689  1
  Al  Al9  1  0.226995  0.225819  0.000689  1
  Al  Al10  1  0.842046  0.157954  0.099000  1
  Al  Al11  1  0.157022  0.842978  0.902326  1
  Al  Al12  1  0.157022  0.842978  0.597674  1
  Al  Al13  1  0.842046  0.157954  0.401000  1
  Al  Al14  1  0.864902  0.588674  0.750000  1
  Al  Al15  1  0.135307  0.415929  0.250000  1
  Al  Al16  1  0.411326  0.135098  0.750000  1
  Al  Al17  1  0.584071  0.864693  0.250000  1
  Al  Al18  1  0.221097  0.479369  0.750000  1
  Al  Al19  1  0.779325  0.521819  0.250000  1
  Al  Al20  1  0.520631  0.778903  0.750000  1
  Al  Al21  1  0.478181  0.220675  0.250000  1
  Fe  Fe22  1  0.998381  0.495606  0.502342  1
  Fe  Fe23  1  0.998381  0.495606  0.997658  1
  Fe  Fe24  1  0.504394  0.001619  0.997658  1
  Fe  Fe25  1  0.504394  0.001619  0.502342  1
