# generated using pymatgen
data_Zr6Ta4Al12ReIr6
_symmetry_space_group_name_H-M   'P 1'
_cell_length_a   8.85151315
_cell_length_b   8.85151407
_cell_length_c   8.85151400
_cell_angle_alpha   60.00000026
_cell_angle_beta   59.99999681
_cell_angle_gamma   59.99999916
_symmetry_Int_Tables_number   1
_chemical_formula_structural   Zr6Ta4Al12ReIr6
_chemical_formula_sum   'Zr6 Ta4 Al12 Re1 Ir6'
_cell_volume   490.38551451
_cell_formula_units_Z   1
loop_
 _symmetry_equiv_pos_site_id
 _symmetry_equiv_pos_as_xyz
  1  'x, y, z'
loop_
 _atom_site_type_symbol
 _atom_site_label
 _atom_site_symmetry_multiplicity
 _atom_site_fract_x
 _atom_site_fract_y
 _atom_site_fract_z
 _atom_site_occupancy
  Zr  Zr0  1  0.691943  0.691943  0.308057  1
  Zr  Zr1  1  0.308057  0.691943  0.308057  1
  Zr  Zr2  1  0.691943  0.308057  0.308057  1
  Zr  Zr3  1  0.308057  0.308057  0.691943  1
  Zr  Zr4  1  0.691943  0.308057  0.691943  1
  Zr  Zr5  1  0.308057  0.691943  0.691943  1
  Ta  Ta6  1  0.878922  0.878922  0.363238  1
  Ta  Ta7  1  0.878922  0.363238  0.878922  1
  Ta  Ta8  1  0.363238  0.878922  0.878922  1
  Ta  Ta9  1  0.878922  0.878922  0.878922  1
  Al  Al10  1  0.121018  0.121018  0.636945  1
  Al  Al11  1  0.121018  0.636945  0.121018  1
  Al  Al12  1  0.636945  0.121018  0.121018  1
  Al  Al13  1  0.121018  0.121018  0.121018  1
  Al  Al14  1  0.659117  0.659117  0.022649  1
  Al  Al15  1  0.659117  0.022649  0.659117  1
  Al  Al16  1  0.022649  0.659117  0.659117  1
  Al  Al17  1  0.659117  0.659117  0.659117  1
  Al  Al18  1  0.337708  0.337708  0.986876  1
  Al  Al19  1  0.337708  0.986876  0.337708  1
  Al  Al20  1  0.986876  0.337708  0.337708  1
  Al  Al21  1  0.337708  0.337708  0.337708  1
  Re  Re22  1  0.000000  0.000000  0.000000  1
  Ir  Ir23  1  0.997159  0.997159  0.502841  1
  Ir  Ir24  1  0.502841  0.997159  0.502841  1
  Ir  Ir25  1  0.997159  0.502841  0.502841  1
  Ir  Ir26  1  0.502841  0.502841  0.997159  1
  Ir  Ir27  1  0.997159  0.502841  0.997159  1
  Ir  Ir28  1  0.502841  0.997159  0.997159  1
