# generated using pymatgen
data_Th3Ga2Ru2RhAu
_symmetry_space_group_name_H-M   'P 1'
_cell_length_a   7.34545924
_cell_length_b   7.65606202
_cell_length_c   3.91139500
_cell_angle_alpha   90.00000000
_cell_angle_beta   90.00000000
_cell_angle_gamma   121.40892536
_symmetry_Int_Tables_number   1
_chemical_formula_structural   Th3Ga2Ru2RhAu
_chemical_formula_sum   'Th3 Ga2 Ru2 Rh1 Au1'
_cell_volume   187.73452225
_cell_formula_units_Z   1
loop_
 _symmetry_equiv_pos_site_id
 _symmetry_equiv_pos_as_xyz
  1  'x, y, z'
loop_
 _atom_site_type_symbol
 _atom_site_label
 _atom_site_symmetry_multiplicity
 _atom_site_fract_x
 _atom_site_fract_y
 _atom_site_fract_z
 _atom_site_occupancy
  Th  Th0  1  0.000000  0.410513  0.500000  1
  Th  Th1  1  0.594908  0.595580  0.500000  1
  Th  Th2  1  0.405092  0.000672  0.500000  1
  Ga  Ga3  1  0.252019  0.250247  0.000000  1
  Ga  Ga4  1  0.747981  0.998228  0.000000  1
  Ru  Ru5  1  0.341943  0.650245  0.000000  1
  Ru  Ru6  1  0.658057  0.308301  0.000000  1
  Rh  Rh7  1  0.000000  0.035580  0.500000  1
  Au  Au8  1  0.000000  0.750636  0.000000  1
