# generated using pymatgen
data_Tb(Lu3Pb2)3
_symmetry_space_group_name_H-M   'P 1'
_cell_length_a   8.90834979
_cell_length_b   8.89075689
_cell_length_c   6.51140300
_cell_angle_alpha   90.00000000
_cell_angle_beta   90.00000000
_cell_angle_gamma   119.93469671
_symmetry_Int_Tables_number   1
_chemical_formula_structural   Tb(Lu3Pb2)3
_chemical_formula_sum   'Tb1 Lu9 Pb6'
_cell_volume   446.91672739
_cell_formula_units_Z   1
loop_
 _symmetry_equiv_pos_site_id
 _symmetry_equiv_pos_as_xyz
  1  'x, y, z'
loop_
 _atom_site_type_symbol
 _atom_site_label
 _atom_site_symmetry_multiplicity
 _atom_site_fract_x
 _atom_site_fract_y
 _atom_site_fract_z
 _atom_site_occupancy
  Tb  Tb0  1  0.000000  0.764361  0.250000  1
  Lu  Lu1  1  0.667219  0.333656  0.999928  1
  Lu  Lu2  1  0.332781  0.666439  0.999928  1
  Lu  Lu3  1  0.332781  0.666439  0.500072  1
  Lu  Lu4  1  0.667219  0.333656  0.500072  1
  Lu  Lu5  1  0.763486  0.764601  0.750000  1
  Lu  Lu6  1  0.236514  0.001115  0.750000  1
  Lu  Lu7  1  0.000000  0.234455  0.750000  1
  Lu  Lu8  1  0.236155  0.235870  0.250000  1
  Lu  Lu9  1  0.763845  0.999716  0.250000  1
  Pb  Pb10  1  0.394601  0.394667  0.750000  1
  Pb  Pb11  1  0.605399  0.000066  0.750000  1
  Pb  Pb12  1  0.000000  0.605898  0.750000  1
  Pb  Pb13  1  0.602760  0.604478  0.250000  1
  Pb  Pb14  1  0.397240  0.001717  0.250000  1
  Pb  Pb15  1  0.000000  0.392867  0.250000  1
