# generated using pymatgen
data_Na4CaZr3(Ni4As3)4
_symmetry_space_group_name_H-M   'P 1'
_cell_length_a   12.78100607
_cell_length_b   12.78100456
_cell_length_c   3.90645400
_cell_angle_alpha   90.00000000
_cell_angle_beta   90.00000000
_cell_angle_gamma   119.98968347
_symmetry_Int_Tables_number   1
_chemical_formula_structural   Na4CaZr3(Ni4As3)4
_chemical_formula_sum   'Na4 Ca1 Zr3 Ni16 As12'
_cell_volume   552.69879182
_cell_formula_units_Z   1
loop_
 _symmetry_equiv_pos_site_id
 _symmetry_equiv_pos_as_xyz
  1  'x, y, z'
loop_
 _atom_site_type_symbol
 _atom_site_label
 _atom_site_symmetry_multiplicity
 _atom_site_fract_x
 _atom_site_fract_y
 _atom_site_fract_z
 _atom_site_occupancy
  Na  Na0  1  0.819878  0.999328  0.500000  1
  Na  Na1  1  0.999328  0.819878  0.500000  1
  Na  Na2  1  0.333318  0.665252  0.000000  1
  Na  Na3  1  0.665252  0.333318  0.000000  1
  Ca  Ca4  1  0.179505  0.179505  0.500000  1
  Zr  Zr5  1  0.560542  0.560542  0.000000  1
  Zr  Zr6  1  0.441460  0.999900  0.000000  1
  Zr  Zr7  1  0.999900  0.441460  0.000000  1
  Ni  Ni8  1  0.723467  0.723467  0.500000  1
  Ni  Ni9  1  0.276992  0.996879  0.500000  1
  Ni  Ni10  1  0.996879  0.276992  0.500000  1
  Ni  Ni11  1  0.181875  0.376821  0.000000  1
  Ni  Ni12  1  0.622812  0.804926  0.000000  1
  Ni  Ni13  1  0.196457  0.815978  0.000000  1
  Ni  Ni14  1  0.804926  0.622812  0.000000  1
  Ni  Ni15  1  0.815978  0.196457  0.000000  1
  Ni  Ni16  1  0.376821  0.181875  0.000000  1
  Ni  Ni17  1  0.357553  0.479055  0.500000  1
  Ni  Ni18  1  0.522813  0.878944  0.500000  1
  Ni  Ni19  1  0.121330  0.643252  0.500000  1
  Ni  Ni20  1  0.878944  0.522813  0.500000  1
  Ni  Ni21  1  0.643252  0.121330  0.500000  1
  Ni  Ni22  1  0.479055  0.357553  0.500000  1
  Ni  Ni23  1  0.001038  0.001038  0.000000  1
  As  As24  1  0.822343  0.822343  0.000000  1
  As  As25  1  0.178184  0.997356  0.000000  1
  As  As26  1  0.997356  0.178184  0.000000  1
  As  As27  1  0.170968  0.480020  0.500000  1
  As  As28  1  0.519180  0.690861  0.500000  1
  As  As29  1  0.310879  0.827221  0.500000  1
  As  As30  1  0.690861  0.519180  0.500000  1
  As  As31  1  0.827221  0.310879  0.500000  1
  As  As32  1  0.480020  0.170968  0.500000  1
  As  As33  1  0.353636  0.353636  0.000000  1
  As  As34  1  0.649842  0.000138  0.000000  1
  As  As35  1  0.000138  0.649842  0.000000  1
