# generated using pymatgen
data_Tm2Ga(PRh2)6
_symmetry_space_group_name_H-M   'P 1'
_cell_length_a   9.67576800
_cell_length_b   9.67576623
_cell_length_c   3.87594300
_cell_angle_alpha   90.00000000
_cell_angle_beta   90.00000000
_cell_angle_gamma   119.99999238
_symmetry_Int_Tables_number   1
_chemical_formula_structural   Tm2Ga(PRh2)6
_chemical_formula_sum   'Tm2 Ga1 P6 Rh12'
_cell_volume   314.25258612
_cell_formula_units_Z   1
loop_
 _symmetry_equiv_pos_site_id
 _symmetry_equiv_pos_as_xyz
  1  'x, y, z'
loop_
 _atom_site_type_symbol
 _atom_site_label
 _atom_site_symmetry_multiplicity
 _atom_site_fract_x
 _atom_site_fract_y
 _atom_site_fract_z
 _atom_site_occupancy
  Tm  Tm0  1  0.333333  0.666667  0.750845  1
  Tm  Tm1  1  0.666667  0.333333  0.249155  1
  Ga  Ga2  1  0.000000  0.000000  0.500000  1
  P  P3  1  0.403645  0.285493  0.749534  1
  P  P4  1  0.714507  0.118152  0.749534  1
  P  P5  1  0.881848  0.596355  0.749534  1
  P  P6  1  0.596355  0.714507  0.250466  1
  P  P7  1  0.285493  0.881848  0.250466  1
  P  P8  1  0.118152  0.403645  0.250466  1
  Rh  Rh9  1  0.453067  0.067885  0.750039  1
  Rh  Rh10  1  0.932115  0.385182  0.750039  1
  Rh  Rh11  1  0.614818  0.546933  0.750039  1
  Rh  Rh12  1  0.546933  0.932115  0.249961  1
  Rh  Rh13  1  0.067885  0.614818  0.249961  1
  Rh  Rh14  1  0.385182  0.453067  0.249961  1
  Rh  Rh15  1  0.157385  0.280310  0.752267  1
  Rh  Rh16  1  0.719690  0.877075  0.752267  1
  Rh  Rh17  1  0.122925  0.842615  0.752267  1
  Rh  Rh18  1  0.842615  0.719690  0.247733  1
  Rh  Rh19  1  0.280310  0.122925  0.247733  1
  Rh  Rh20  1  0.877075  0.157385  0.247733  1
