# generated using pymatgen
data_Y3Er(Si5Os3)2
_symmetry_space_group_name_H-M   'P 1'
_cell_length_a   8.13496558
_cell_length_b   8.13123955
_cell_length_c   5.80011442
_cell_angle_alpha   70.56486922
_cell_angle_beta   70.50964494
_cell_angle_gamma   93.96600898
_symmetry_Int_Tables_number   1
_chemical_formula_structural   Y3Er(Si5Os3)2
_chemical_formula_sum   'Y3 Er1 Si10 Os6'
_cell_volume   333.98950118
_cell_formula_units_Z   1
loop_
 _symmetry_equiv_pos_site_id
 _symmetry_equiv_pos_as_xyz
  1  'x, y, z'
loop_
 _atom_site_type_symbol
 _atom_site_label
 _atom_site_symmetry_multiplicity
 _atom_site_fract_x
 _atom_site_fract_y
 _atom_site_fract_z
 _atom_site_occupancy
  Y  Y0  1  0.869163  0.601986  0.751931  1
  Y  Y1  1  0.398104  0.131823  0.746606  1
  Y  Y2  1  0.131927  0.397438  0.247226  1
  Er  Er3  1  0.600672  0.869354  0.254430  1
  Si  Si4  1  0.067394  0.261491  0.834003  1
  Si  Si5  1  0.737961  0.932426  0.667266  1
  Si  Si6  1  0.930879  0.739288  0.165596  1
  Si  Si7  1  0.261951  0.066372  0.333749  1
  Si  Si8  1  0.207039  0.793739  0.748714  1
  Si  Si9  1  0.792802  0.205848  0.251185  1
  Si  Si10  1  0.513263  0.487684  0.749968  1
  Si  Si11  1  0.488293  0.513353  0.249413  1
  Si  Si12  1  0.774040  0.225326  0.749946  1
  Si  Si13  1  0.226185  0.774544  0.250543  1
  Os  Os14  1  0.256731  0.543621  0.631097  1
  Os  Os15  1  0.456272  0.744218  0.868532  1
  Os  Os16  1  0.744373  0.456532  0.368251  1
  Os  Os17  1  0.544292  0.255430  0.130827  1
  Os  Os18  1  0.002139  0.997428  0.750034  1
  Os  Os19  1  0.996523  0.002098  0.250682  1
