# generated using pymatgen
data_Er16Mg3CdIrPd3
_symmetry_space_group_name_H-M   'P 1'
_cell_length_a   9.65133728
_cell_length_b   9.65744284
_cell_length_c   9.65744400
_cell_angle_alpha   59.99999603
_cell_angle_beta   59.97906717
_cell_angle_gamma   59.97906598
_symmetry_Int_Tables_number   1
_chemical_formula_structural   Er16Mg3CdIrPd3
_chemical_formula_sum   'Er16 Mg3 Cd1 Ir1 Pd3'
_cell_volume   636.29621553
_cell_formula_units_Z   1
loop_
 _symmetry_equiv_pos_site_id
 _symmetry_equiv_pos_as_xyz
  1  'x, y, z'
loop_
 _atom_site_type_symbol
 _atom_site_label
 _atom_site_symmetry_multiplicity
 _atom_site_fract_x
 _atom_site_fract_y
 _atom_site_fract_z
 _atom_site_occupancy
  Er  Er0  1  0.603949  0.598594  0.598594  1
  Er  Er1  1  0.603949  0.598594  0.198863  1
  Er  Er2  1  0.603949  0.198863  0.598594  1
  Er  Er3  1  0.194543  0.601819  0.601819  1
  Er  Er4  1  0.059152  0.436685  0.436685  1
  Er  Er5  1  0.438698  0.061580  0.061580  1
  Er  Er6  1  0.438698  0.061580  0.438141  1
  Er  Er7  1  0.059152  0.436685  0.067479  1
  Er  Er8  1  0.438698  0.438141  0.061580  1
  Er  Er9  1  0.059152  0.067479  0.436685  1
  Er  Er10  1  0.185036  0.816806  0.816806  1
  Er  Er11  1  0.818322  0.183806  0.183806  1
  Er  Er12  1  0.818322  0.183806  0.814067  1
  Er  Er13  1  0.185036  0.816806  0.181353  1
  Er  Er14  1  0.818322  0.814067  0.183806  1
  Er  Er15  1  0.185036  0.181353  0.816806  1
  Mg  Mg16  1  0.828882  0.830629  0.830629  1
  Mg  Mg17  1  0.828882  0.830629  0.509859  1
  Mg  Mg18  1  0.828882  0.509859  0.830629  1
  Cd  Cd19  1  0.504252  0.831916  0.831916  1
  Ir  Ir20  1  0.820830  0.393057  0.393057  1
  Pd  Pd21  1  0.392752  0.394112  0.394112  1
  Pd  Pd22  1  0.392752  0.394112  0.819022  1
  Pd  Pd23  1  0.392752  0.819022  0.394112  1
