# generated using pymatgen
data_Sc4CrTc6Mo
_symmetry_space_group_name_H-M   'P 1'
_cell_length_a   5.21657200
_cell_length_b   5.21657216
_cell_length_c   8.57359500
_cell_angle_alpha   90.00000000
_cell_angle_beta   90.00000000
_cell_angle_gamma   119.30041809
_symmetry_Int_Tables_number   1
_chemical_formula_structural   Sc4CrTc6Mo
_chemical_formula_sum   'Sc4 Cr1 Tc6 Mo1'
_cell_volume   203.46166561
_cell_formula_units_Z   1
loop_
 _symmetry_equiv_pos_site_id
 _symmetry_equiv_pos_as_xyz
  1  'x, y, z'
loop_
 _atom_site_type_symbol
 _atom_site_label
 _atom_site_symmetry_multiplicity
 _atom_site_fract_x
 _atom_site_fract_y
 _atom_site_fract_z
 _atom_site_occupancy
  Sc  Sc0  1  0.333173  0.666827  0.437588  1
  Sc  Sc1  1  0.667510  0.332490  0.560109  1
  Sc  Sc2  1  0.667510  0.332490  0.939891  1
  Sc  Sc3  1  0.333173  0.666827  0.062412  1
  Cr  Cr4  1  0.830212  0.169788  0.250000  1
  Tc  Tc5  1  0.997211  0.002789  0.491106  1
  Tc  Tc6  1  0.997211  0.002789  0.008894  1
  Tc  Tc7  1  0.826918  0.649632  0.250000  1
  Tc  Tc8  1  0.350368  0.173082  0.250000  1
  Tc  Tc9  1  0.171287  0.342620  0.750000  1
  Tc  Tc10  1  0.657380  0.828713  0.750000  1
  Mo  Mo11  1  0.168048  0.831952  0.750000  1
