# generated using pymatgen
data_Lu5Zr3(ReB6)4
_symmetry_space_group_name_H-M   'P 1'
_cell_length_a   3.59740400
_cell_length_b   9.01751869
_cell_length_c   11.36739409
_cell_angle_alpha   89.97047876
_cell_angle_beta   90.00000000
_cell_angle_gamma   90.00000000
_symmetry_Int_Tables_number   1
_chemical_formula_structural   Lu5Zr3(ReB6)4
_chemical_formula_sum   'Lu5 Zr3 Re4 B24'
_cell_volume   368.75432550
_cell_formula_units_Z   1
loop_
 _symmetry_equiv_pos_site_id
 _symmetry_equiv_pos_as_xyz
  1  'x, y, z'
loop_
 _atom_site_type_symbol
 _atom_site_label
 _atom_site_symmetry_multiplicity
 _atom_site_fract_x
 _atom_site_fract_y
 _atom_site_fract_z
 _atom_site_occupancy
  Lu  Lu0  1  0.000000  0.321309  0.412454  1
  Lu  Lu1  1  0.000000  0.678435  0.586033  1
  Lu  Lu2  1  0.000000  0.821634  0.087092  1
  Lu  Lu3  1  0.000000  0.178643  0.914193  1
  Lu  Lu4  1  0.000000  0.944038  0.372118  1
  Zr  Zr5  1  0.000000  0.056366  0.628614  1
  Zr  Zr6  1  0.000000  0.443943  0.127436  1
  Zr  Zr7  1  0.000000  0.556164  0.872620  1
  Re  Re8  1  0.000000  0.636592  0.319004  1
  Re  Re9  1  0.000000  0.360972  0.681083  1
  Re  Re10  1  0.000000  0.141354  0.178083  1
  Re  Re11  1  0.000000  0.860663  0.820581  1
  B  B12  1  0.500000  0.552296  0.433958  1
  B  B13  1  0.500000  0.446414  0.565772  1
  B  B14  1  0.500000  0.053639  0.065821  1
  B  B15  1  0.500000  0.946871  0.934467  1
  B  B16  1  0.500000  0.750223  0.418755  1
  B  B17  1  0.500000  0.248168  0.581223  1
  B  B18  1  0.500000  0.252017  0.080282  1
  B  B19  1  0.500000  0.748457  0.919463  1
  B  B20  1  0.500000  0.793562  0.263944  1
  B  B21  1  0.500000  0.205730  0.736564  1
  B  B22  1  0.500000  0.294180  0.235216  1
  B  B23  1  0.500000  0.705761  0.763953  1
  B  B24  1  0.500000  0.630751  0.183449  1
  B  B25  1  0.500000  0.369233  0.816775  1
  B  B26  1  0.500000  0.131710  0.315878  1
  B  B27  1  0.500000  0.868946  0.683389  1
  B  B28  1  0.500000  0.982425  0.212248  1
  B  B29  1  0.500000  0.018434  0.787926  1
  B  B30  1  0.500000  0.480638  0.287197  1
  B  B31  1  0.500000  0.518889  0.712436  1
  B  B32  1  0.500000  0.601831  0.027451  1
  B  B33  1  0.500000  0.398832  0.972211  1
  B  B34  1  0.500000  0.102293  0.473514  1
  B  B35  1  0.500000  0.898586  0.528797  1
