# generated using pymatgen
data_Ca6Zn15CuN
_symmetry_space_group_name_H-M   'P 1'
_cell_length_a   8.19011770
_cell_length_b   8.19011647
_cell_length_c   8.19011689
_cell_angle_alpha   109.57268202
_cell_angle_beta   109.57268111
_cell_angle_gamma   109.57267374
_symmetry_Int_Tables_number   1
_chemical_formula_structural   Ca6Zn15CuN
_chemical_formula_sum   'Ca6 Zn15 Cu1 N1'
_cell_volume   421.31435720
_cell_formula_units_Z   1
loop_
 _symmetry_equiv_pos_site_id
 _symmetry_equiv_pos_as_xyz
  1  'x, y, z'
loop_
 _atom_site_type_symbol
 _atom_site_label
 _atom_site_symmetry_multiplicity
 _atom_site_fract_x
 _atom_site_fract_y
 _atom_site_fract_z
 _atom_site_occupancy
  Ca  Ca0  1  0.001389  0.255763  0.255763  1
  Ca  Ca1  1  0.255763  0.001389  0.255763  1
  Ca  Ca2  1  0.744237  0.998611  0.744237  1
  Ca  Ca3  1  0.744237  0.744237  0.998611  1
  Ca  Ca4  1  0.255763  0.255763  0.001389  1
  Ca  Ca5  1  0.998611  0.744237  0.744237  1
  Zn  Zn6  1  0.500000  0.000000  0.000000  1
  Zn  Zn7  1  0.000000  0.500000  0.000000  1
  Zn  Zn8  1  0.000000  0.000000  0.500000  1
  Zn  Zn9  1  0.680293  0.342881  0.342881  1
  Zn  Zn10  1  0.341023  0.000000  0.658977  1
  Zn  Zn11  1  0.342881  0.680293  0.342881  1
  Zn  Zn12  1  0.342881  0.342881  0.680293  1
  Zn  Zn13  1  0.341023  0.658977  0.000000  1
  Zn  Zn14  1  0.000000  0.341023  0.658977  1
  Zn  Zn15  1  0.000000  0.658977  0.341023  1
  Zn  Zn16  1  0.657119  0.657119  0.319707  1
  Zn  Zn17  1  0.658977  0.000000  0.341023  1
  Zn  Zn18  1  0.658977  0.341023  0.000000  1
  Zn  Zn19  1  0.657119  0.319707  0.657119  1
  Zn  Zn20  1  0.319707  0.657119  0.657119  1
  Cu  Cu21  1  0.500000  0.500000  0.500000  1
  N  N22  1  0.000000  0.000000  0.000000  1
