# generated using pymatgen
data_Sr4YbSi2Pb
_symmetry_space_group_name_H-M   'P 1'
_cell_length_a   9.81038774
_cell_length_b   9.81038717
_cell_length_c   9.81038900
_cell_angle_alpha   130.94133671
_cell_angle_beta   130.94134154
_cell_angle_gamma   71.90629905
_symmetry_Int_Tables_number   1
_chemical_formula_structural   Sr4YbSi2Pb
_chemical_formula_sum   'Sr8 Yb2 Si4 Pb2'
_cell_volume   526.94210956
_cell_formula_units_Z   2
loop_
 _symmetry_equiv_pos_site_id
 _symmetry_equiv_pos_as_xyz
  1  'x, y, z'
loop_
 _atom_site_type_symbol
 _atom_site_label
 _atom_site_symmetry_multiplicity
 _atom_site_fract_x
 _atom_site_fract_y
 _atom_site_fract_z
 _atom_site_occupancy
  Sr  Sr0  1  0.812638  0.312638  0.855632  1
  Sr  Sr1  1  0.187362  0.687362  0.144368  1
  Sr  Sr2  1  0.457008  0.957008  0.144368  1
  Sr  Sr3  1  0.312638  0.457008  0.500000  1
  Sr  Sr4  1  0.042992  0.187362  0.500000  1
  Sr  Sr5  1  0.542992  0.042992  0.855632  1
  Sr  Sr6  1  0.687362  0.542992  0.500000  1
  Sr  Sr7  1  0.957008  0.812638  0.500000  1
  Yb  Yb8  1  0.000000  0.000000  0.000000  1
  Yb  Yb9  1  0.500000  0.500000  0.000000  1
  Si  Si10  1  0.109692  0.609692  0.719385  1
  Si  Si11  1  0.890308  0.390308  0.280615  1
  Si  Si12  1  0.609692  0.890308  0.500000  1
  Si  Si13  1  0.390308  0.109692  0.500000  1
  Pb  Pb14  1  0.250000  0.250000  0.000000  1
  Pb  Pb15  1  0.750000  0.750000  0.000000  1
