# generated using pymatgen
data_Yb3Ce3(HfSb5)2
_symmetry_space_group_name_H-M   'P 1'
_cell_length_a   9.40531308
_cell_length_b   9.41974583
_cell_length_c   6.26557100
_cell_angle_alpha   90.00000000
_cell_angle_beta   90.00000000
_cell_angle_gamma   119.66008008
_symmetry_Int_Tables_number   1
_chemical_formula_structural   Yb3Ce3(HfSb5)2
_chemical_formula_sum   'Yb3 Ce3 Hf2 Sb10'
_cell_volume   482.37093501
_cell_formula_units_Z   1
loop_
 _symmetry_equiv_pos_site_id
 _symmetry_equiv_pos_as_xyz
  1  'x, y, z'
loop_
 _atom_site_type_symbol
 _atom_site_label
 _atom_site_symmetry_multiplicity
 _atom_site_fract_x
 _atom_site_fract_y
 _atom_site_fract_z
 _atom_site_occupancy
  Yb  Yb0  1  0.613908  0.000608  0.250000  1
  Yb  Yb1  1  0.384209  0.000442  0.750000  1
  Yb  Yb2  1  0.999776  0.620311  0.250000  1
  Ce  Ce3  1  0.996265  0.383792  0.750000  1
  Ce  Ce4  1  0.384245  0.377170  0.250000  1
  Ce  Ce5  1  0.622429  0.622590  0.750000  1
  Hf  Hf6  1  0.999946  0.998215  0.001896  1
  Hf  Hf7  1  0.999946  0.998215  0.498104  1
  Sb  Sb8  1  0.260979  0.997433  0.250000  1
  Sb  Sb9  1  0.741011  0.003741  0.750000  1
  Sb  Sb10  1  0.999841  0.264468  0.250000  1
  Sb  Sb11  1  0.004178  0.739727  0.750000  1
  Sb  Sb12  1  0.733185  0.735739  0.250000  1
  Sb  Sb13  1  0.262092  0.265117  0.750000  1
  Sb  Sb14  1  0.331832  0.659426  0.000240  1
  Sb  Sb15  1  0.667163  0.336790  0.997827  1
  Sb  Sb16  1  0.667163  0.336790  0.502173  1
  Sb  Sb17  1  0.331832  0.659426  0.499760  1
