# generated using pymatgen
data_Li2Pr2Y3P12Ru17
_symmetry_space_group_name_H-M   'P 1'
_cell_length_a   12.78941900
_cell_length_b   12.57456684
_cell_length_c   3.98759200
_cell_angle_alpha   90.00000000
_cell_angle_beta   90.00000000
_cell_angle_gamma   120.56683922
_symmetry_Int_Tables_number   1
_chemical_formula_structural   Li2Pr2Y3P12Ru17
_chemical_formula_sum   'Li2 Pr2 Y3 P12 Ru17'
_cell_volume   552.17422023
_cell_formula_units_Z   1
loop_
 _symmetry_equiv_pos_site_id
 _symmetry_equiv_pos_as_xyz
  1  'x, y, z'
loop_
 _atom_site_type_symbol
 _atom_site_label
 _atom_site_symmetry_multiplicity
 _atom_site_fract_x
 _atom_site_fract_y
 _atom_site_fract_z
 _atom_site_occupancy
  Li  Li0  1  0.000900  0.563171  0.000000  1
  Li  Li1  1  0.437729  0.436829  0.000000  1
  Pr  Pr2  1  0.002568  0.183045  0.500000  1
  Pr  Pr3  1  0.819523  0.816955  0.500000  1
  Y  Y4  1  0.183119  0.000000  0.500000  1
  Y  Y5  1  0.662453  0.324875  0.000000  1
  Y  Y6  1  0.337577  0.675125  0.000000  1
  P  P7  1  0.000333  0.807028  0.000000  1
  P  P8  1  0.193305  0.192972  0.000000  1
  P  P9  1  0.815147  0.000000  0.000000  1
  P  P10  1  0.691899  0.170417  0.500000  1
  P  P11  1  0.815772  0.515063  0.500000  1
  P  P12  1  0.477530  0.299852  0.500000  1
  P  P13  1  0.177679  0.700148  0.500000  1
  P  P14  1  0.521482  0.829583  0.500000  1
  P  P15  1  0.300708  0.484937  0.500000  1
  P  P16  1  0.002093  0.373334  0.000000  1
  P  P17  1  0.628760  0.626666  0.000000  1
  P  P18  1  0.376761  0.000000  0.000000  1
  Ru  Ru19  1  0.555995  0.000000  0.000000  1
  Ru  Ru20  1  0.999149  0.709555  0.500000  1
  Ru  Ru21  1  0.289593  0.290445  0.500000  1
  Ru  Ru22  1  0.715245  0.000000  0.500000  1
  Ru  Ru23  1  0.806262  0.186283  0.000000  1
  Ru  Ru24  1  0.811721  0.611848  0.000000  1
  Ru  Ru25  1  0.377935  0.191201  0.000000  1
  Ru  Ru26  1  0.186734  0.808799  0.000000  1
  Ru  Ru27  1  0.619980  0.813717  0.000000  1
  Ru  Ru28  1  0.199875  0.388152  0.000000  1
  Ru  Ru29  1  0.873350  0.367534  0.500000  1
  Ru  Ru30  1  0.627639  0.508759  0.500000  1
  Ru  Ru31  1  0.491783  0.123813  0.500000  1
  Ru  Ru32  1  0.367970  0.876187  0.500000  1
  Ru  Ru33  1  0.505816  0.632466  0.500000  1
  Ru  Ru34  1  0.118880  0.491241  0.500000  1
  Ru  Ru35  1  0.006738  0.000000  0.000000  1
