# generated using pymatgen
data_Dy2Ni3P4Ru3
_symmetry_space_group_name_H-M   'P 1'
_cell_length_a   3.86412500
_cell_length_b   10.63853625
_cell_length_c   12.62271462
_cell_angle_alpha   89.47908391
_cell_angle_beta   90.00000000
_cell_angle_gamma   90.00000000
_symmetry_Int_Tables_number   1
_chemical_formula_structural   Dy2Ni3P4Ru3
_chemical_formula_sum   'Dy6 Ni9 P12 Ru9'
_cell_volume   518.88110816
_cell_formula_units_Z   3
loop_
 _symmetry_equiv_pos_site_id
 _symmetry_equiv_pos_as_xyz
  1  'x, y, z'
loop_
 _atom_site_type_symbol
 _atom_site_label
 _atom_site_symmetry_multiplicity
 _atom_site_fract_x
 _atom_site_fract_y
 _atom_site_fract_z
 _atom_site_occupancy
  Dy  Dy0  1  0.000000  0.501286  0.525590  1
  Dy  Dy1  1  0.500000  0.000838  0.475714  1
  Dy  Dy2  1  0.500000  0.815520  0.200071  1
  Dy  Dy3  1  0.500000  0.184614  0.201366  1
  Dy  Dy4  1  0.000000  0.684736  0.801425  1
  Dy  Dy5  1  0.000000  0.316722  0.798639  1
  Ni  Ni6  1  0.000000  0.497208  0.981583  1
  Ni  Ni7  1  0.500000  0.000354  0.018068  1
  Ni  Ni8  1  0.000000  0.372868  0.281657  1
  Ni  Ni9  1  0.500000  0.330984  0.989026  1
  Ni  Ni10  1  0.500000  0.666092  0.990685  1
  Ni  Ni11  1  0.000000  0.169404  0.013004  1
  Ni  Ni12  1  0.000000  0.829750  0.012149  1
  Ni  Ni13  1  0.500000  0.501256  0.700829  1
  Ni  Ni14  1  0.000000  0.000151  0.298229  1
  P  P15  1  0.500000  0.316691  0.614896  1
  P  P16  1  0.500000  0.687166  0.617434  1
  P  P17  1  0.000000  0.185261  0.380404  1
  P  P18  1  0.000000  0.813890  0.382075  1
  P  P19  1  0.500000  0.500212  0.876428  1
  P  P20  1  0.000000  0.998200  0.122687  1
  P  P21  1  0.500000  0.848803  0.898821  1
  P  P22  1  0.500000  0.150934  0.896901  1
  P  P23  1  0.000000  0.646490  0.103119  1
  P  P24  1  0.000000  0.348006  0.104225  1
  P  P25  1  0.500000  0.502784  0.342373  1
  P  P26  1  0.000000  0.001712  0.659600  1
  Ru  Ru27  1  0.500000  0.302056  0.423342  1
  Ru  Ru28  1  0.500000  0.703380  0.428811  1
  Ru  Ru29  1  0.000000  0.205531  0.566624  1
  Ru  Ru30  1  0.000000  0.799564  0.570845  1
  Ru  Ru31  1  0.500000  0.875908  0.717445  1
  Ru  Ru32  1  0.500000  0.126632  0.715579  1
  Ru  Ru33  1  0.000000  0.619059  0.284804  1
  Ru  Ru34  1  0.500000  0.494115  0.154640  1
  Ru  Ru35  1  0.000000  0.001828  0.850912  1
