# generated using pymatgen
data_Tb4Ce3Sm3(Al2Ru3)2
_symmetry_space_group_name_H-M   'P 1'
_cell_length_a   8.50259347
_cell_length_b   8.50259211
_cell_length_c   8.50259296
_cell_angle_alpha   110.17739502
_cell_angle_beta   110.17739543
_cell_angle_gamma   110.17739070
_symmetry_Int_Tables_number   1
_chemical_formula_structural   Tb4Ce3Sm3(Al2Ru3)2
_chemical_formula_sum   'Tb4 Ce3 Sm3 Al4 Ru6'
_cell_volume   460.39966539
_cell_formula_units_Z   1
loop_
 _symmetry_equiv_pos_site_id
 _symmetry_equiv_pos_as_xyz
  1  'x, y, z'
loop_
 _atom_site_type_symbol
 _atom_site_label
 _atom_site_symmetry_multiplicity
 _atom_site_fract_x
 _atom_site_fract_y
 _atom_site_fract_z
 _atom_site_occupancy
  Tb  Tb0  1  0.781603  0.781603  0.781603  1
  Tb  Tb1  1  0.312300  0.565078  0.752857  1
  Tb  Tb2  1  0.752857  0.312300  0.565078  1
  Tb  Tb3  1  0.565078  0.752857  0.312300  1
  Ce  Ce4  1  0.252028  0.200712  0.943670  1
  Ce  Ce5  1  0.943670  0.252028  0.200712  1
  Ce  Ce6  1  0.200712  0.943670  0.252028  1
  Sm  Sm7  1  0.721476  0.506449  0.992276  1
  Sm  Sm8  1  0.992276  0.721476  0.506449  1
  Sm  Sm9  1  0.506449  0.992276  0.721476  1
  Al  Al10  1  0.411376  0.411376  0.411376  1
  Al  Al11  1  0.095324  0.497193  0.004548  1
  Al  Al12  1  0.004548  0.095324  0.497193  1
  Al  Al13  1  0.497193  0.004548  0.095324  1
  Ru  Ru14  1  0.908768  0.120678  0.753665  1
  Ru  Ru15  1  0.753665  0.908768  0.120678  1
  Ru  Ru16  1  0.120678  0.753665  0.908768  1
  Ru  Ru17  1  0.222829  0.591184  0.365987  1
  Ru  Ru18  1  0.365987  0.222829  0.591184  1
  Ru  Ru19  1  0.591184  0.365987  0.222829  1
