# generated using pymatgen
data_Ac3Sn2Pt3Au
_symmetry_space_group_name_H-M   'P 1'
_cell_length_a   7.90636900
_cell_length_b   7.90636881
_cell_length_c   4.18746400
_cell_angle_alpha   90.00000000
_cell_angle_beta   90.00000000
_cell_angle_gamma   117.90565242
_symmetry_Int_Tables_number   1
_chemical_formula_structural   Ac3Sn2Pt3Au
_chemical_formula_sum   'Ac3 Sn2 Pt3 Au1'
_cell_volume   231.32344694
_cell_formula_units_Z   1
loop_
 _symmetry_equiv_pos_site_id
 _symmetry_equiv_pos_as_xyz
  1  'x, y, z'
loop_
 _atom_site_type_symbol
 _atom_site_label
 _atom_site_symmetry_multiplicity
 _atom_site_fract_x
 _atom_site_fract_y
 _atom_site_fract_z
 _atom_site_occupancy
  Ac  Ac0  1  0.424228  0.424228  0.500000  1
  Ac  Ac1  1  0.983411  0.598363  0.500000  1
  Ac  Ac2  1  0.598363  0.983411  0.500000  1
  Sn  Sn3  1  0.250856  0.003752  0.000000  1
  Sn  Sn4  1  0.003752  0.250856  0.000000  1
  Pt  Pt5  1  0.658893  0.305027  0.000000  1
  Pt  Pt6  1  0.305027  0.658893  0.000000  1
  Pt  Pt7  1  0.029464  0.029464  0.500000  1
  Au  Au8  1  0.746008  0.746008  0.000000  1
