# generated using pymatgen
data_YbSm(ThH4)6
_symmetry_space_group_name_H-M   'P 1'
_cell_length_a   6.85516700
_cell_length_b   6.85516700
_cell_length_c   6.85516700
_cell_angle_alpha   90.00000000
_cell_angle_beta   90.00000000
_cell_angle_gamma   90.00000000
_symmetry_Int_Tables_number   1
_chemical_formula_structural   YbSm(ThH4)6
_chemical_formula_sum   'Yb1 Sm1 Th6 H24'
_cell_volume   322.14701945
_cell_formula_units_Z   1
loop_
 _symmetry_equiv_pos_site_id
 _symmetry_equiv_pos_as_xyz
  1  'x, y, z'
loop_
 _atom_site_type_symbol
 _atom_site_label
 _atom_site_symmetry_multiplicity
 _atom_site_fract_x
 _atom_site_fract_y
 _atom_site_fract_z
 _atom_site_occupancy
  Yb  Yb0  1  0.500000  0.500000  0.500000  1
  Sm  Sm1  1  0.000000  0.000000  0.000000  1
  Th  Th2  1  0.251918  0.000000  0.500000  1
  Th  Th3  1  0.748082  0.000000  0.500000  1
  Th  Th4  1  0.000000  0.500000  0.251918  1
  Th  Th5  1  0.000000  0.500000  0.748082  1
  Th  Th6  1  0.500000  0.748082  0.000000  1
  Th  Th7  1  0.500000  0.251918  0.000000  1
  H  H8  1  0.000000  0.153914  0.305344  1
  H  H9  1  0.500000  0.192348  0.655000  1
  H  H10  1  0.500000  0.807652  0.345000  1
  H  H11  1  0.807652  0.655000  0.500000  1
  H  H12  1  0.192348  0.655000  0.500000  1
  H  H13  1  0.345000  0.500000  0.807652  1
  H  H14  1  0.655000  0.500000  0.807652  1
  H  H15  1  0.305344  0.000000  0.153914  1
  H  H16  1  0.153914  0.305344  0.000000  1
  H  H17  1  0.846086  0.694656  0.000000  1
  H  H18  1  0.305344  0.000000  0.846086  1
  H  H19  1  0.846086  0.305344  0.000000  1
  H  H20  1  0.694656  0.000000  0.153914  1
  H  H21  1  0.694656  0.000000  0.846086  1
  H  H22  1  0.153914  0.694656  0.000000  1
  H  H23  1  0.000000  0.846086  0.694656  1
  H  H24  1  0.000000  0.153914  0.694656  1
  H  H25  1  0.000000  0.846086  0.305344  1
  H  H26  1  0.655000  0.500000  0.192348  1
  H  H27  1  0.345000  0.500000  0.192348  1
  H  H28  1  0.807652  0.345000  0.500000  1
  H  H29  1  0.192348  0.345000  0.500000  1
  H  H30  1  0.500000  0.807652  0.655000  1
  H  H31  1  0.500000  0.192348  0.345000  1
