# generated using pymatgen
data_LuMo(SeO3)4
_symmetry_space_group_name_H-M   'P 1'
_cell_length_a   8.59435100
_cell_length_b   8.76167523
_cell_length_c   8.44121687
_cell_angle_alpha   90.74145383
_cell_angle_beta   90.00000000
_cell_angle_gamma   90.00000000
_symmetry_Int_Tables_number   1
_chemical_formula_structural   LuMo(SeO3)4
_chemical_formula_sum   'Lu2 Mo2 Se8 O24'
_cell_volume   635.57810925
_cell_formula_units_Z   2
loop_
 _symmetry_equiv_pos_site_id
 _symmetry_equiv_pos_as_xyz
  1  'x, y, z'
loop_
 _atom_site_type_symbol
 _atom_site_label
 _atom_site_symmetry_multiplicity
 _atom_site_fract_x
 _atom_site_fract_y
 _atom_site_fract_z
 _atom_site_occupancy
  Lu  Lu0  1  0.000000  0.500000  0.000000  1
  Lu  Lu1  1  0.500000  0.500000  0.500000  1
  Mo  Mo2  1  0.000000  0.000000  0.500000  1
  Mo  Mo3  1  0.500000  0.000000  0.000000  1
  Se  Se4  1  0.333313  0.688032  0.170922  1
  Se  Se5  1  0.833313  0.311968  0.329078  1
  Se  Se6  1  0.690042  0.837592  0.689099  1
  Se  Se7  1  0.190042  0.162408  0.810901  1
  Se  Se8  1  0.666687  0.311968  0.829078  1
  Se  Se9  1  0.166687  0.688032  0.670922  1
  Se  Se10  1  0.309958  0.162408  0.310901  1
  Se  Se11  1  0.809958  0.837592  0.189099  1
  O  O12  1  0.241212  0.564508  0.047469  1
  O  O13  1  0.741212  0.435492  0.452531  1
  O  O14  1  0.770268  0.960376  0.547711  1
  O  O15  1  0.270268  0.039624  0.952289  1
  O  O16  1  0.549641  0.966645  0.767892  1
  O  O17  1  0.472626  0.580705  0.255814  1
  O  O18  1  0.972626  0.419295  0.244186  1
  O  O19  1  0.049641  0.033355  0.732108  1
  O  O20  1  0.952632  0.214928  0.477376  1
  O  O21  1  0.573521  0.731056  0.572557  1
  O  O22  1  0.452632  0.785072  0.022624  1
  O  O23  1  0.073521  0.268944  0.927443  1
  O  O24  1  0.758788  0.435492  0.952531  1
  O  O25  1  0.258788  0.564508  0.547469  1
  O  O26  1  0.229732  0.039624  0.452289  1
  O  O27  1  0.729732  0.960376  0.047711  1
  O  O28  1  0.450359  0.033355  0.232108  1
  O  O29  1  0.527374  0.419295  0.744186  1
  O  O30  1  0.027374  0.580705  0.755814  1
  O  O31  1  0.950359  0.966645  0.267892  1
  O  O32  1  0.047368  0.785072  0.522624  1
  O  O33  1  0.426479  0.268944  0.427443  1
  O  O34  1  0.547368  0.214928  0.977376  1
  O  O35  1  0.926479  0.731056  0.072557  1
