# generated using pymatgen
data_Er3Zn5Ir
_symmetry_space_group_name_H-M   'P 1'
_cell_length_a   7.46055900
_cell_length_b   7.46055871
_cell_length_c   3.67166000
_cell_angle_alpha   90.00000000
_cell_angle_beta   90.00000000
_cell_angle_gamma   120.00000571
_symmetry_Int_Tables_number   1
_chemical_formula_structural   Er3Zn5Ir
_chemical_formula_sum   'Er3 Zn5 Ir1'
_cell_volume   176.98472553
_cell_formula_units_Z   1
loop_
 _symmetry_equiv_pos_site_id
 _symmetry_equiv_pos_as_xyz
  1  'x, y, z'
loop_
 _atom_site_type_symbol
 _atom_site_label
 _atom_site_symmetry_multiplicity
 _atom_site_fract_x
 _atom_site_fract_y
 _atom_site_fract_z
 _atom_site_occupancy
  Er  Er0  1  0.392767  0.978244  0.500000  1
  Er  Er1  1  0.021756  0.414523  0.500000  1
  Er  Er2  1  0.585477  0.607233  0.500000  1
  Zn  Zn3  1  0.666667  0.333333  0.000000  1
  Zn  Zn4  1  0.000000  0.000000  0.500000  1
  Zn  Zn5  1  0.739625  0.006398  0.000000  1
  Zn  Zn6  1  0.993602  0.733226  0.000000  1
  Zn  Zn7  1  0.266774  0.260375  0.000000  1
  Ir  Ir8  1  0.333333  0.666667  0.000000  1
