# generated using pymatgen
data_Tb4Tm3LuAu4
_symmetry_space_group_name_H-M   'P 1'
_cell_length_a   4.91155900
_cell_length_b   7.14414852
_cell_length_c   8.90854314
_cell_angle_alpha   89.97808853
_cell_angle_beta   90.00000000
_cell_angle_gamma   90.00000000
_symmetry_Int_Tables_number   1
_chemical_formula_structural   Tb4Tm3LuAu4
_chemical_formula_sum   'Tb4 Tm3 Lu1 Au4'
_cell_volume   312.59101889
_cell_formula_units_Z   1
loop_
 _symmetry_equiv_pos_site_id
 _symmetry_equiv_pos_as_xyz
  1  'x, y, z'
loop_
 _atom_site_type_symbol
 _atom_site_label
 _atom_site_symmetry_multiplicity
 _atom_site_fract_x
 _atom_site_fract_y
 _atom_site_fract_z
 _atom_site_occupancy
  Tb  Tb0  1  0.250000  0.485534  0.176777  1
  Tb  Tb1  1  0.250000  0.985779  0.323653  1
  Tb  Tb2  1  0.750000  0.514569  0.822854  1
  Tb  Tb3  1  0.750000  0.014222  0.677059  1
  Tm  Tm4  1  0.250000  0.852433  0.920794  1
  Tm  Tm5  1  0.250000  0.353024  0.579584  1
  Tm  Tm6  1  0.750000  0.147737  0.079483  1
  Lu  Lu7  1  0.750000  0.647161  0.419997  1
  Au  Au8  1  0.250000  0.252770  0.899601  1
  Au  Au9  1  0.250000  0.752971  0.600505  1
  Au  Au10  1  0.750000  0.747040  0.099833  1
  Au  Au11  1  0.750000  0.246759  0.399859  1
