# generated using pymatgen
data_Er8Zr11Si16Au
_symmetry_space_group_name_H-M   'P 1'
_cell_length_a   7.33359441
_cell_length_b   7.33359508
_cell_length_c   13.33583793
_cell_angle_alpha   90.23444154
_cell_angle_beta   89.76555683
_cell_angle_gamma   89.90651098
_symmetry_Int_Tables_number   1
_chemical_formula_structural   Er8Zr11Si16Au
_chemical_formula_sum   'Er8 Zr11 Si16 Au1'
_cell_volume   717.20987715
_cell_formula_units_Z   1
loop_
 _symmetry_equiv_pos_site_id
 _symmetry_equiv_pos_as_xyz
  1  'x, y, z'
loop_
 _atom_site_type_symbol
 _atom_site_label
 _atom_site_symmetry_multiplicity
 _atom_site_fract_x
 _atom_site_fract_y
 _atom_site_fract_z
 _atom_site_occupancy
  Er  Er0  1  0.347446  0.003589  0.463625  1
  Er  Er1  1  0.494835  0.847891  0.715815  1
  Er  Er2  1  0.502364  0.151340  0.209623  1
  Er  Er3  1  0.847891  0.494835  0.284185  1
  Er  Er4  1  0.151340  0.502364  0.790377  1
  Er  Er5  1  0.649521  0.003117  0.966285  1
  Er  Er6  1  0.003589  0.347446  0.536375  1
  Er  Er7  1  0.003117  0.649521  0.033715  1
  Zr  Zr8  1  0.178504  0.821147  0.248407  1
  Zr  Zr9  1  0.821147  0.178504  0.751593  1
  Zr  Zr10  1  0.676085  0.676085  0.500000  1
  Zr  Zr11  1  0.141620  0.006869  0.876654  1
  Zr  Zr12  1  0.496468  0.641106  0.119874  1
  Zr  Zr13  1  0.501521  0.357414  0.626002  1
  Zr  Zr14  1  0.641106  0.496468  0.880126  1
  Zr  Zr15  1  0.357414  0.501521  0.373998  1
  Zr  Zr16  1  0.856735  0.995941  0.373311  1
  Zr  Zr17  1  0.006869  0.141620  0.123346  1
  Zr  Zr18  1  0.995941  0.856735  0.626689  1
  Si  Si19  1  0.204534  0.143663  0.683308  1
  Si  Si20  1  0.366864  0.726818  0.925711  1
  Si  Si21  1  0.642011  0.291705  0.431337  1
  Si  Si22  1  0.726818  0.366864  0.074289  1
  Si  Si23  1  0.291705  0.642011  0.568663  1
  Si  Si24  1  0.794734  0.855678  0.179894  1
  Si  Si25  1  0.143663  0.204534  0.316692  1
  Si  Si26  1  0.855678  0.794734  0.820106  1
  Si  Si27  1  0.291245  0.934228  0.062267  1
  Si  Si28  1  0.552420  0.795663  0.311551  1
  Si  Si29  1  0.443675  0.204699  0.811561  1
  Si  Si30  1  0.795663  0.552420  0.688449  1
  Si  Si31  1  0.204699  0.443675  0.188439  1
  Si  Si32  1  0.702742  0.052769  0.563269  1
  Si  Si33  1  0.934228  0.291245  0.937733  1
  Si  Si34  1  0.052769  0.702742  0.436731  1
  Au  Au35  1  0.323039  0.323039  0.000000  1
