# generated using pymatgen
data_Rb3HgH5
_symmetry_space_group_name_H-M   'P 1'
_cell_length_a   8.34738429
_cell_length_b   8.34738471
_cell_length_c   8.34738488
_cell_angle_alpha   122.02980299
_cell_angle_beta   122.02980258
_cell_angle_gamma   86.51881977
_symmetry_Int_Tables_number   1
_chemical_formula_structural   Rb3HgH5
_chemical_formula_sum   'Rb6 Hg2 H10'
_cell_volume   397.86119599
_cell_formula_units_Z   2
loop_
 _symmetry_equiv_pos_site_id
 _symmetry_equiv_pos_as_xyz
  1  'x, y, z'
loop_
 _atom_site_type_symbol
 _atom_site_label
 _atom_site_symmetry_multiplicity
 _atom_site_fract_x
 _atom_site_fract_y
 _atom_site_fract_z
 _atom_site_occupancy
  Rb  Rb0  1  0.183443  0.683443  0.866885  1
  Rb  Rb1  1  0.816557  0.316557  0.133115  1
  Rb  Rb2  1  0.683443  0.816557  0.500000  1
  Rb  Rb3  1  0.316557  0.183443  0.500000  1
  Rb  Rb4  1  0.250000  0.250000  0.000000  1
  Rb  Rb5  1  0.750000  0.750000  0.000000  1
  Hg  Hg6  1  0.250000  0.750000  0.500000  1
  Hg  Hg7  1  0.750000  0.250000  0.500000  1
  H  H8  1  0.467919  0.967919  0.754343  1
  H  H9  1  0.213576  0.713576  0.245657  1
  H  H10  1  0.967919  0.213576  0.500000  1
  H  H11  1  0.713576  0.467919  0.500000  1
  H  H12  1  0.532081  0.032081  0.245657  1
  H  H13  1  0.786424  0.286424  0.754343  1
  H  H14  1  0.032081  0.786424  0.500000  1
  H  H15  1  0.286424  0.532081  0.500000  1
  H  H16  1  0.500000  0.500000  0.000000  1
  H  H17  1  0.000000  0.000000  0.000000  1
