# generated using pymatgen
data_Sm5Nb3Co16(SiP5)2
_symmetry_space_group_name_H-M   'P 1'
_cell_length_a   12.32260355
_cell_length_b   12.34096184
_cell_length_c   3.75314300
_cell_angle_alpha   90.00000000
_cell_angle_beta   90.00000000
_cell_angle_gamma   119.98486938
_symmetry_Int_Tables_number   1
_chemical_formula_structural   Sm5Nb3Co16(SiP5)2
_chemical_formula_sum   'Sm5 Nb3 Co16 Si2 P10'
_cell_volume   494.36011456
_cell_formula_units_Z   1
loop_
 _symmetry_equiv_pos_site_id
 _symmetry_equiv_pos_as_xyz
  1  'x, y, z'
loop_
 _atom_site_type_symbol
 _atom_site_label
 _atom_site_symmetry_multiplicity
 _atom_site_fract_x
 _atom_site_fract_y
 _atom_site_fract_z
 _atom_site_occupancy
  Sm  Sm0  1  0.816383  0.999608  0.500000  1
  Sm  Sm1  1  0.000905  0.816084  0.500000  1
  Sm  Sm2  1  0.183181  0.183492  0.500000  1
  Sm  Sm3  1  0.330930  0.663941  0.000000  1
  Sm  Sm4  1  0.666751  0.333768  0.000000  1
  Nb  Nb5  1  0.442316  0.002786  0.000000  1
  Nb  Nb6  1  0.999074  0.440729  0.000000  1
  Nb  Nb7  1  0.559314  0.557357  0.000000  1
  Co  Co8  1  0.280335  0.003487  0.500000  1
  Co  Co9  1  0.999286  0.279900  0.500000  1
  Co  Co10  1  0.723250  0.719225  0.500000  1
  Co  Co11  1  0.628828  0.804790  0.000000  1
  Co  Co12  1  0.195502  0.822967  0.000000  1
  Co  Co13  1  0.175133  0.373148  0.000000  1
  Co  Co14  1  0.374929  0.179041  0.000000  1
  Co  Co15  1  0.803594  0.624392  0.000000  1
  Co  Co16  1  0.822680  0.197480  0.000000  1
  Co  Co17  1  0.526139  0.881713  0.500000  1
  Co  Co18  1  0.120712  0.641755  0.500000  1
  Co  Co19  1  0.351636  0.474726  0.500000  1
  Co  Co20  1  0.479827  0.354205  0.500000  1
  Co  Co21  1  0.873703  0.518668  0.500000  1
  Co  Co22  1  0.646353  0.127627  0.500000  1
  Co  Co23  1  0.000105  0.000335  0.000000  1
  Si  Si24  1  0.522876  0.690728  0.500000  1
  Si  Si25  1  0.310790  0.832863  0.500000  1
  P  P26  1  0.181242  0.999932  0.000000  1
  P  P27  1  0.999296  0.180530  0.000000  1
  P  P28  1  0.819216  0.818252  0.000000  1
  P  P29  1  0.166480  0.476575  0.500000  1
  P  P30  1  0.477010  0.167802  0.500000  1
  P  P31  1  0.690279  0.522939  0.500000  1
  P  P32  1  0.832419  0.310007  0.500000  1
  P  P33  1  0.641014  0.998926  0.000000  1
  P  P34  1  0.000501  0.641302  0.000000  1
  P  P35  1  0.358013  0.358922  0.000000  1
