# generated using pymatgen
data_ThU3(Al8Pt3)3
_symmetry_space_group_name_H-M   'P 1'
_cell_length_a   7.58957361
_cell_length_b   7.60666875
_cell_length_c   13.18948004
_cell_angle_alpha   84.39418759
_cell_angle_beta   79.01713695
_cell_angle_gamma   59.93355030
_symmetry_Int_Tables_number   1
_chemical_formula_structural   ThU3(Al8Pt3)3
_chemical_formula_sum   'Th1 U3 Al24 Pt9'
_cell_volume   646.91809924
_cell_formula_units_Z   1
loop_
 _symmetry_equiv_pos_site_id
 _symmetry_equiv_pos_as_xyz
  1  'x, y, z'
loop_
 _atom_site_type_symbol
 _atom_site_label
 _atom_site_symmetry_multiplicity
 _atom_site_fract_x
 _atom_site_fract_y
 _atom_site_fract_z
 _atom_site_occupancy
  Th  Th0  1  0.394441  0.167984  0.808361  1
  U  U1  1  0.605823  0.831333  0.196270  1
  U  U2  1  0.734832  0.498597  0.804217  1
  U  U3  1  0.265329  0.501492  0.196425  1
  Al  Al4  1  0.686561  0.828087  0.949107  1
  Al  Al5  1  0.318404  0.165372  0.059835  1
  Al  Al6  1  0.145601  0.834130  0.560065  1
  Al  Al7  1  0.854206  0.166518  0.438540  1
  Al  Al8  1  0.481831  0.166909  0.557008  1
  Al  Al9  1  0.518776  0.833706  0.441229  1
  Al  Al10  1  0.214911  0.165638  0.329586  1
  Al  Al11  1  0.787204  0.832895  0.666647  1
  Al  Al12  1  0.436649  0.510113  0.667167  1
  Al  Al13  1  0.563482  0.492354  0.329462  1
  Al  Al14  1  0.109545  0.158044  0.665557  1
  Al  Al15  1  0.889554  0.842763  0.331186  1
  Al  Al16  1  0.353361  0.502922  0.948930  1
  Al  Al17  1  0.644576  0.503437  0.054318  1
  Al  Al18  1  0.010061  0.168278  0.956635  1
  Al  Al19  1  0.984841  0.828245  0.049961  1
  Al  Al20  1  0.186313  0.500052  0.441454  1
  Al  Al21  1  0.813725  0.499578  0.557646  1
  Al  Al22  1  0.734372  0.164940  0.181362  1
  Al  Al23  1  0.265163  0.831308  0.816995  1
  Al  Al24  1  0.056689  0.635864  0.815973  1
  Al  Al25  1  0.937967  0.369173  0.182830  1
  Al  Al26  1  0.860432  0.040843  0.817212  1
  Al  Al27  1  0.143726  0.958817  0.182182  1
  Pt  Pt28  1  0.121290  0.491650  0.638343  1
  Pt  Pt29  1  0.879180  0.507992  0.360535  1
  Pt  Pt30  1  0.658586  0.168764  0.999127  1
  Pt  Pt31  1  0.339422  0.834085  0.999127  1
  Pt  Pt32  1  0.537756  0.167827  0.360491  1
  Pt  Pt33  1  0.461943  0.834098  0.638054  1
  Pt  Pt34  1  0.778546  0.174346  0.637598  1
  Pt  Pt35  1  0.220058  0.826109  0.361778  1
  Pt  Pt36  1  0.004843  0.495737  0.998784  1
