# generated using pymatgen
data_Rb3Nd(AsO4)2
_symmetry_space_group_name_H-M   'P 1'
_cell_length_a   6.09458000
_cell_length_b   6.09458041
_cell_length_c   8.31298400
_cell_angle_alpha   90.00000000
_cell_angle_beta   90.00000000
_cell_angle_gamma   120.00000864
_symmetry_Int_Tables_number   1
_chemical_formula_structural   Rb3Nd(AsO4)2
_chemical_formula_sum   'Rb3 Nd1 As2 O8'
_cell_volume   267.40845324
_cell_formula_units_Z   1
loop_
 _symmetry_equiv_pos_site_id
 _symmetry_equiv_pos_as_xyz
  1  'x, y, z'
loop_
 _atom_site_type_symbol
 _atom_site_label
 _atom_site_symmetry_multiplicity
 _atom_site_fract_x
 _atom_site_fract_y
 _atom_site_fract_z
 _atom_site_occupancy
  Rb  Rb0  1  0.333333  0.666667  0.731174  1
  Rb  Rb1  1  0.666667  0.333333  0.268826  1
  Rb  Rb2  1  0.000000  0.000000  0.000000  1
  Nd  Nd3  1  0.000000  0.000000  0.500000  1
  As  As4  1  0.333333  0.666667  0.258219  1
  As  As5  1  0.666667  0.333333  0.741781  1
  O  O6  1  0.333333  0.666667  0.055535  1
  O  O7  1  0.666667  0.333333  0.944465  1
  O  O8  1  0.179694  0.820306  0.332663  1
  O  O9  1  0.820306  0.179694  0.667337  1
  O  O10  1  0.179694  0.359388  0.332663  1
  O  O11  1  0.820306  0.640612  0.667337  1
  O  O12  1  0.640612  0.820306  0.332663  1
  O  O13  1  0.359388  0.179694  0.667337  1
