# generated using pymatgen
data_NaPr6Cd22P
_symmetry_space_group_name_H-M   'P 1'
_cell_length_a   10.08977038
_cell_length_b   10.08977082
_cell_length_c   10.08976900
_cell_angle_alpha   59.99999614
_cell_angle_beta   59.99999469
_cell_angle_gamma   59.99999601
_symmetry_Int_Tables_number   1
_chemical_formula_structural   NaPr6Cd22P
_chemical_formula_sum   'Na1 Pr6 Cd22 P1'
_cell_volume   726.32127761
_cell_formula_units_Z   1
loop_
 _symmetry_equiv_pos_site_id
 _symmetry_equiv_pos_as_xyz
  1  'x, y, z'
loop_
 _atom_site_type_symbol
 _atom_site_label
 _atom_site_symmetry_multiplicity
 _atom_site_fract_x
 _atom_site_fract_y
 _atom_site_fract_z
 _atom_site_occupancy
  Na  Na0  1  0.500000  0.500000  0.500000  1
  Pr  Pr1  1  0.797158  0.797157  0.202842  1
  Pr  Pr2  1  0.202843  0.797158  0.202843  1
  Pr  Pr3  1  0.797157  0.202843  0.202843  1
  Pr  Pr4  1  0.202842  0.202843  0.797158  1
  Pr  Pr5  1  0.797157  0.202842  0.797157  1
  Pr  Pr6  1  0.202843  0.797157  0.797157  1
  Cd  Cd7  1  0.832628  0.832629  0.502113  1
  Cd  Cd8  1  0.832628  0.502113  0.832629  1
  Cd  Cd9  1  0.502113  0.832628  0.832629  1
  Cd  Cd10  1  0.832628  0.832628  0.832629  1
  Cd  Cd11  1  0.167372  0.167371  0.497887  1
  Cd  Cd12  1  0.167372  0.497887  0.167371  1
  Cd  Cd13  1  0.497887  0.167372  0.167371  1
  Cd  Cd14  1  0.167372  0.167372  0.167371  1
  Cd  Cd15  1  0.621526  0.621527  0.135419  1
  Cd  Cd16  1  0.621526  0.135420  0.621527  1
  Cd  Cd17  1  0.135419  0.621526  0.621526  1
  Cd  Cd18  1  0.621527  0.621526  0.621527  1
  Cd  Cd19  1  0.378474  0.378473  0.864581  1
  Cd  Cd20  1  0.378474  0.864580  0.378473  1
  Cd  Cd21  1  0.864581  0.378474  0.378474  1
  Cd  Cd22  1  0.378473  0.378474  0.378473  1
  Cd  Cd23  1  0.000000  0.000000  0.500000  1
  Cd  Cd24  1  0.500000  0.000000  0.500000  1
  Cd  Cd25  1  0.000000  0.500000  0.500000  1
  Cd  Cd26  1  0.500000  0.500000  0.000000  1
  Cd  Cd27  1  0.000000  0.500000  0.000000  1
  Cd  Cd28  1  0.500000  0.000000  0.000000  1
  P  P29  1  0.000000  0.000000  0.000000  1
