# generated using pymatgen
data_Ce2In2Ag3Pd
_symmetry_space_group_name_H-M   'P 1'
_cell_length_a   7.75936700
_cell_length_b   7.75936694
_cell_length_c   13.50099500
_cell_angle_alpha   90.00000000
_cell_angle_beta   90.00000000
_cell_angle_gamma   120.00001306
_symmetry_Int_Tables_number   1
_chemical_formula_structural   Ce2In2Ag3Pd
_chemical_formula_sum   'Ce2 In2 Ag3 Pd1'
_cell_volume   703.96154271
_cell_formula_units_Z   1
loop_
 _symmetry_equiv_pos_site_id
 _symmetry_equiv_pos_as_xyz
  1  'x, y, z'
loop_
 _atom_site_type_symbol
 _atom_site_label
 _atom_site_symmetry_multiplicity
 _atom_site_fract_x
 _atom_site_fract_y
 _atom_site_fract_z
 _atom_site_occupancy
  Ce  Ce0  1  0.666667  0.333333  0.758215  1
  Ce  Ce1  1  0.333333  0.666667  0.239295  1
  In  In2  1  0.000000  0.000000  0.003368  1
  In  In3  1  0.000000  0.000000  0.502659  1
  Ag  Ag4  1  0.333333  0.666667  0.906779  1
  Ag  Ag5  1  0.666667  0.333333  0.405923  1
  Ag  Ag6  1  0.333333  0.666667  0.598037  1
  Pd  Pd7  1  0.666667  0.333333  0.085723  1
