# generated using pymatgen
data_UPa3Tc7(GeP)3
_symmetry_space_group_name_H-M   'P 1'
_cell_length_a   7.21423088
_cell_length_b   7.18772832
_cell_length_c   7.18979100
_cell_angle_alpha   109.61863083
_cell_angle_beta   109.32781190
_cell_angle_gamma   109.52662866
_symmetry_Int_Tables_number   1
_chemical_formula_structural   UPa3Tc7(GeP)3
_chemical_formula_sum   'U1 Pa3 Tc7 Ge3 P3'
_cell_volume   286.78408348
_cell_formula_units_Z   1
loop_
 _symmetry_equiv_pos_site_id
 _symmetry_equiv_pos_as_xyz
  1  'x, y, z'
loop_
 _atom_site_type_symbol
 _atom_site_label
 _atom_site_symmetry_multiplicity
 _atom_site_fract_x
 _atom_site_fract_y
 _atom_site_fract_z
 _atom_site_occupancy
  U  U0  1  0.492349  0.002514  0.000457  1
  Pa  Pa1  1  0.492075  0.491759  0.489917  1
  Pa  Pa2  1  0.001759  0.002397  0.509869  1
  Pa  Pa3  1  0.001926  0.491821  0.999450  1
  Tc  Tc4  1  0.750480  0.250394  0.496056  1
  Tc  Tc5  1  0.498210  0.249526  0.755017  1
  Tc  Tc6  1  0.498841  0.747275  0.245029  1
  Tc  Tc7  1  0.248242  0.502098  0.749695  1
  Tc  Tc8  1  0.748853  0.494653  0.250193  1
  Tc  Tc9  1  0.243169  0.743806  0.503971  1
  Tc  Tc10  1  0.016399  0.016370  0.000034  1
  Ge  Ge11  1  0.681449  0.995430  0.687353  1
  Ge  Ge12  1  0.310341  0.995789  0.312698  1
  Ge  Ge13  1  0.697053  0.698967  0.999480  1
  P  P14  1  0.323530  0.321919  0.000524  1
  P  P15  1  0.995962  0.308581  0.310742  1
  P  P16  1  0.999362  0.686702  0.689513  1
