# generated using pymatgen
data_Ho4ErZr5Pb6
_symmetry_space_group_name_H-M   'P 1'
_cell_length_a   8.86234338
_cell_length_b   8.86234361
_cell_length_c   6.10455000
_cell_angle_alpha   90.00000000
_cell_angle_beta   90.00000000
_cell_angle_gamma   119.54898476
_symmetry_Int_Tables_number   1
_chemical_formula_structural   Ho4ErZr5Pb6
_chemical_formula_sum   'Ho4 Er1 Zr5 Pb6'
_cell_volume   417.09723310
_cell_formula_units_Z   1
loop_
 _symmetry_equiv_pos_site_id
 _symmetry_equiv_pos_as_xyz
  1  'x, y, z'
loop_
 _atom_site_type_symbol
 _atom_site_label
 _atom_site_symmetry_multiplicity
 _atom_site_fract_x
 _atom_site_fract_y
 _atom_site_fract_z
 _atom_site_occupancy
  Ho  Ho0  1  0.001151  0.237904  0.250000  1
  Ho  Ho1  1  0.763578  0.001672  0.750000  1
  Ho  Ho2  1  0.237904  0.001151  0.250000  1
  Ho  Ho3  1  0.001672  0.763578  0.750000  1
  Er  Er4  1  0.755854  0.755854  0.250000  1
  Zr  Zr5  1  0.332474  0.664930  0.500271  1
  Zr  Zr6  1  0.664930  0.332474  0.500271  1
  Zr  Zr7  1  0.332474  0.664930  0.999729  1
  Zr  Zr8  1  0.247097  0.247097  0.750000  1
  Zr  Zr9  1  0.664930  0.332474  0.999729  1
  Pb  Pb10  1  0.600956  0.600956  0.750000  1
  Pb  Pb11  1  0.395654  0.002784  0.750000  1
  Pb  Pb12  1  0.601590  0.999950  0.250000  1
  Pb  Pb13  1  0.002784  0.395654  0.750000  1
  Pb  Pb14  1  0.397004  0.397004  0.250000  1
  Pb  Pb15  1  0.999950  0.601590  0.250000  1
