# generated using pymatgen
data_Dy20Hg5Bi3Ru4
_symmetry_space_group_name_H-M   'P 1'
_cell_length_a   7.75627747
_cell_length_b   9.14756706
_cell_length_c   12.22068240
_cell_angle_alpha   90.46214337
_cell_angle_beta   90.37324872
_cell_angle_gamma   89.97592899
_symmetry_Int_Tables_number   1
_chemical_formula_structural   Dy20Hg5Bi3Ru4
_chemical_formula_sum   'Dy20 Hg5 Bi3 Ru4'
_cell_volume   867.02380998
_cell_formula_units_Z   1
loop_
 _symmetry_equiv_pos_site_id
 _symmetry_equiv_pos_as_xyz
  1  'x, y, z'
loop_
 _atom_site_type_symbol
 _atom_site_label
 _atom_site_symmetry_multiplicity
 _atom_site_fract_x
 _atom_site_fract_y
 _atom_site_fract_z
 _atom_site_occupancy
  Dy  Dy0  1  0.846408  0.743052  0.788768  1
  Dy  Dy1  1  0.158473  0.250144  0.217725  1
  Dy  Dy2  1  0.348846  0.257229  0.712698  1
  Dy  Dy3  1  0.649516  0.749848  0.281480  1
  Dy  Dy4  1  0.379812  0.745168  0.690928  1
  Dy  Dy5  1  0.614832  0.251845  0.303823  1
  Dy  Dy6  1  0.882845  0.254272  0.807271  1
  Dy  Dy7  1  0.127448  0.751972  0.194774  1
  Dy  Dy8  1  0.951438  0.744295  0.501872  1
  Dy  Dy9  1  0.045452  0.256507  0.498511  1
  Dy  Dy10  1  0.453315  0.248848  0.001395  1
  Dy  Dy11  1  0.543919  0.750327  0.003482  1
  Dy  Dy12  1  0.675721  0.036482  0.567305  1
  Dy  Dy13  1  0.325898  0.964516  0.426171  1
  Dy  Dy14  1  0.176804  0.962792  0.934901  1
  Dy  Dy15  1  0.322328  0.537510  0.424397  1
  Dy  Dy16  1  0.822031  0.035101  0.069385  1
  Dy  Dy17  1  0.677486  0.462295  0.576758  1
  Dy  Dy18  1  0.826294  0.464907  0.075412  1
  Dy  Dy19  1  0.179754  0.534574  0.923161  1
  Hg  Hg20  1  0.577628  0.493000  0.837744  1
  Hg  Hg21  1  0.419934  0.508083  0.163796  1
  Hg  Hg22  1  0.077588  0.508163  0.665134  1
  Hg  Hg23  1  0.421987  0.993639  0.167012  1
  Hg  Hg24  1  0.920487  0.492634  0.333732  1
  Bi  Bi25  1  0.575194  0.005995  0.827683  1
  Bi  Bi26  1  0.919671  0.006252  0.332625  1
  Bi  Bi27  1  0.075997  0.993841  0.670306  1
  Ru  Ru28  1  0.574607  0.745767  0.503940  1
  Ru  Ru29  1  0.425097  0.252050  0.491357  1
  Ru  Ru30  1  0.074978  0.250984  0.996954  1
  Ru  Ru31  1  0.928209  0.747910  0.009500  1
