# generated using pymatgen
data_EuNi4As3H
_symmetry_space_group_name_H-M   'P 1'
_cell_length_a   6.24134436
_cell_length_b   6.24134346
_cell_length_c   11.57999200
_cell_angle_alpha   90.00000000
_cell_angle_beta   90.00000000
_cell_angle_gamma   144.08322659
_symmetry_Int_Tables_number   1
_chemical_formula_structural   EuNi4As3H
_chemical_formula_sum   'Eu2 Ni8 As6 H2'
_cell_volume   264.61445130
_cell_formula_units_Z   2
loop_
 _symmetry_equiv_pos_site_id
 _symmetry_equiv_pos_as_xyz
  1  'x, y, z'
loop_
 _atom_site_type_symbol
 _atom_site_label
 _atom_site_symmetry_multiplicity
 _atom_site_fract_x
 _atom_site_fract_y
 _atom_site_fract_z
 _atom_site_occupancy
  Eu  Eu0  1  0.176229  0.823771  0.262024  1
  Eu  Eu1  1  0.823771  0.176229  0.762024  1
  Ni  Ni2  1  0.020558  0.979442  0.012366  1
  Ni  Ni3  1  0.979442  0.020558  0.512366  1
  Ni  Ni4  1  0.546445  0.453555  0.654616  1
  Ni  Ni5  1  0.459653  0.540347  0.368590  1
  Ni  Ni6  1  0.453555  0.546445  0.154616  1
  Ni  Ni7  1  0.180554  0.819446  0.574267  1
  Ni  Ni8  1  0.819446  0.180554  0.074267  1
  Ni  Ni9  1  0.540347  0.459653  0.868590  1
  As  As10  1  0.631514  0.368486  0.470445  1
  As  As11  1  0.099916  0.900084  0.768724  1
  As  As12  1  0.629724  0.370276  0.051452  1
  As  As13  1  0.368486  0.631514  0.970445  1
  As  As14  1  0.900084  0.099916  0.268724  1
  As  As15  1  0.370276  0.629724  0.551452  1
  H  H16  1  0.231290  0.768710  0.837516  1
  H  H17  1  0.768710  0.231290  0.337516  1
