# generated using pymatgen
data_Dy5Mg2P12Ir2Rh15
_symmetry_space_group_name_H-M   'P 1'
_cell_length_a   12.71297600
_cell_length_b   12.81004498
_cell_length_c   3.94143900
_cell_angle_alpha   90.00000000
_cell_angle_beta   90.00000000
_cell_angle_gamma   119.74965623
_symmetry_Int_Tables_number   1
_chemical_formula_structural   Dy5Mg2P12Ir2Rh15
_chemical_formula_sum   'Dy5 Mg2 P12 Ir2 Rh15'
_cell_volume   557.27988691
_cell_formula_units_Z   1
loop_
 _symmetry_equiv_pos_site_id
 _symmetry_equiv_pos_as_xyz
  1  'x, y, z'
loop_
 _atom_site_type_symbol
 _atom_site_label
 _atom_site_symmetry_multiplicity
 _atom_site_fract_x
 _atom_site_fract_y
 _atom_site_fract_z
 _atom_site_occupancy
  Dy  Dy0  1  0.333279  0.666229  0.500000  1
  Dy  Dy1  1  0.667051  0.333771  0.500000  1
  Dy  Dy2  1  0.000295  0.811049  0.000000  1
  Dy  Dy3  1  0.189245  0.188951  0.000000  1
  Dy  Dy4  1  0.812184  0.000000  0.000000  1
  Mg  Mg5  1  0.999640  0.444241  0.500000  1
  Mg  Mg6  1  0.555399  0.555759  0.500000  1
  P  P7  1  0.002455  0.642603  0.500000  1
  P  P8  1  0.359853  0.357397  0.500000  1
  P  P9  1  0.636795  0.000000  0.500000  1
  P  P10  1  0.513660  0.687362  0.000000  1
  P  P11  1  0.311914  0.830019  0.000000  1
  P  P12  1  0.173490  0.483270  0.000000  1
  P  P13  1  0.481895  0.169981  0.000000  1
  P  P14  1  0.690220  0.516730  0.000000  1
  P  P15  1  0.826299  0.312638  0.000000  1
  P  P16  1  0.999945  0.177912  0.500000  1
  P  P17  1  0.822032  0.822088  0.500000  1
  P  P18  1  0.178389  0.000000  0.500000  1
  Ir  Ir19  1  0.282214  0.000000  0.000000  1
  Ir  Ir20  1  0.999128  0.000000  0.500000  1
  Rh  Rh21  1  0.508787  0.868413  0.000000  1
  Rh  Rh22  1  0.131379  0.642002  0.000000  1
  Rh  Rh23  1  0.359359  0.488082  0.000000  1
  Rh  Rh24  1  0.489378  0.357998  0.000000  1
  Rh  Rh25  1  0.871278  0.511918  0.000000  1
  Rh  Rh26  1  0.640374  0.131587  0.000000  1
  Rh  Rh27  1  0.455974  0.000000  0.500000  1
  Rh  Rh28  1  0.996689  0.280770  0.000000  1
  Rh  Rh29  1  0.715917  0.719230  0.000000  1
  Rh  Rh30  1  0.622731  0.804954  0.500000  1
  Rh  Rh31  1  0.199297  0.823156  0.500000  1
  Rh  Rh32  1  0.176539  0.373541  0.500000  1
  Rh  Rh33  1  0.376143  0.176844  0.500000  1
  Rh  Rh34  1  0.802998  0.626459  0.500000  1
  Rh  Rh35  1  0.817776  0.195046  0.500000  1
