# generated using pymatgen
data_Gd12Si8Ir5Rh7
_symmetry_space_group_name_H-M   'P 1'
_cell_length_a   5.55682333
_cell_length_b   7.56070857
_cell_length_c   14.85029600
_cell_angle_alpha   89.97832664
_cell_angle_beta   89.94751758
_cell_angle_gamma   89.99513017
_symmetry_Int_Tables_number   1
_chemical_formula_structural   Gd12Si8Ir5Rh7
_chemical_formula_sum   'Gd12 Si8 Ir5 Rh7'
_cell_volume   623.91292569
_cell_formula_units_Z   1
loop_
 _symmetry_equiv_pos_site_id
 _symmetry_equiv_pos_as_xyz
  1  'x, y, z'
loop_
 _atom_site_type_symbol
 _atom_site_label
 _atom_site_symmetry_multiplicity
 _atom_site_fract_x
 _atom_site_fract_y
 _atom_site_fract_z
 _atom_site_occupancy
  Gd  Gd0  1  0.898430  0.828603  0.749948  1
  Gd  Gd1  1  0.867414  0.525496  0.390845  1
  Gd  Gd2  1  0.367071  0.974932  0.609364  1
  Gd  Gd3  1  0.131578  0.473823  0.890729  1
  Gd  Gd4  1  0.633053  0.025183  0.109081  1
  Gd  Gd5  1  0.102374  0.171034  0.250009  1
  Gd  Gd6  1  0.132349  0.474113  0.609409  1
  Gd  Gd7  1  0.632885  0.025311  0.390895  1
  Gd  Gd8  1  0.398033  0.670393  0.249883  1
  Gd  Gd9  1  0.367593  0.976157  0.890997  1
  Gd  Gd10  1  0.600620  0.329472  0.750538  1
  Gd  Gd11  1  0.868637  0.524917  0.109496  1
  Si  Si12  1  0.625119  0.626017  0.897323  1
  Si  Si13  1  0.872714  0.124746  0.602334  1
  Si  Si14  1  0.125690  0.875428  0.102629  1
  Si  Si15  1  0.126277  0.875160  0.397388  1
  Si  Si16  1  0.626092  0.624952  0.602563  1
  Si  Si17  1  0.873374  0.123840  0.897402  1
  Si  Si18  1  0.376431  0.374314  0.102484  1
  Si  Si19  1  0.373730  0.375251  0.397358  1
  Ir  Ir20  1  0.600563  0.334065  0.961246  1
  Ir  Ir21  1  0.412965  0.681109  0.749932  1
  Ir  Ir22  1  0.589105  0.319230  0.250342  1
  Ir  Ir23  1  0.912935  0.819245  0.250104  1
  Ir  Ir24  1  0.084721  0.180246  0.749737  1
  Rh  Rh25  1  0.100499  0.166169  0.462283  1
  Rh  Rh26  1  0.100413  0.166785  0.037825  1
  Rh  Rh27  1  0.900304  0.833273  0.962104  1
  Rh  Rh28  1  0.900411  0.833512  0.537756  1
  Rh  Rh29  1  0.599524  0.333754  0.537597  1
  Rh  Rh30  1  0.399601  0.666450  0.462329  1
  Rh  Rh31  1  0.399495  0.667024  0.038071  1
