# generated using pymatgen
data_Dy2PaIr3
_symmetry_space_group_name_H-M   'P 1'
_cell_length_a   5.77863810
_cell_length_b   5.40353111
_cell_length_c   5.77863800
_cell_angle_alpha   57.67580520
_cell_angle_beta   60.00001202
_cell_angle_gamma   57.67580443
_symmetry_Int_Tables_number   1
_chemical_formula_structural   Dy2PaIr3
_chemical_formula_sum   'Dy2 Pa1 Ir3'
_cell_volume   122.92152037
_cell_formula_units_Z   1
loop_
 _symmetry_equiv_pos_site_id
 _symmetry_equiv_pos_as_xyz
  1  'x, y, z'
loop_
 _atom_site_type_symbol
 _atom_site_label
 _atom_site_symmetry_multiplicity
 _atom_site_fract_x
 _atom_site_fract_y
 _atom_site_fract_z
 _atom_site_occupancy
  Dy  Dy0  1  0.748558  0.754326  0.748558  1
  Dy  Dy1  1  0.501442  0.495674  0.501442  1
  Pa  Pa2  1  0.125000  0.625000  0.125000  1
  Ir  Ir3  1  0.125000  0.125000  0.625000  1
  Ir  Ir4  1  0.625000  0.125000  0.125000  1
  Ir  Ir5  1  0.125000  0.125000  0.125000  1
