# generated using pymatgen
data_Cs4Hf(USe4)3
_symmetry_space_group_name_H-M   'P 1'
_cell_length_a   6.85807846
_cell_length_b   7.79425100
_cell_length_c   13.49857788
_cell_angle_alpha   90.00149681
_cell_angle_beta   90.04170004
_cell_angle_gamma   90.00020189
_symmetry_Int_Tables_number   1
_chemical_formula_structural   Cs4Hf(USe4)3
_chemical_formula_sum   'Cs4 Hf1 U3 Se12'
_cell_volume   721.54718756
_cell_formula_units_Z   1
loop_
 _symmetry_equiv_pos_site_id
 _symmetry_equiv_pos_as_xyz
  1  'x, y, z'
loop_
 _atom_site_type_symbol
 _atom_site_label
 _atom_site_symmetry_multiplicity
 _atom_site_fract_x
 _atom_site_fract_y
 _atom_site_fract_z
 _atom_site_occupancy
  Cs  Cs0  1  0.747974  0.250004  0.912919  1
  Cs  Cs1  1  0.251181  0.750003  0.078638  1
  Cs  Cs2  1  0.748117  0.750001  0.421279  1
  Cs  Cs3  1  0.253950  0.250002  0.587318  1
  Hf  Hf4  1  0.489347  0.749999  0.750013  1
  U  U5  1  0.010504  0.249999  0.250136  1
  U  U6  1  0.510509  0.250000  0.249969  1
  U  U7  1  0.989252  0.750002  0.749906  1
  Se  Se8  1  0.243494  0.983729  0.827469  1
  Se  Se9  1  0.260464  0.250001  0.089874  1
  Se  Se10  1  0.260702  0.490699  0.329833  1
  Se  Se11  1  0.760442  0.490692  0.170279  1
  Se  Se12  1  0.243498  0.516275  0.827472  1
  Se  Se13  1  0.243263  0.750000  0.594367  1
  Se  Se14  1  0.735609  0.750011  0.905583  1
  Se  Se15  1  0.735154  0.983689  0.672307  1
  Se  Se16  1  0.260696  0.009295  0.329826  1
  Se  Se17  1  0.760450  0.009305  0.170275  1
  Se  Se18  1  0.760219  0.250002  0.410211  1
  Se  Se19  1  0.735175  0.516294  0.672323  1
