# generated using pymatgen
data_Sm8Er12Si15Ag
_symmetry_space_group_name_H-M   'P 1'
_cell_length_a   7.45000442
_cell_length_b   7.71522602
_cell_length_c   14.71296254
_cell_angle_alpha   89.76298833
_cell_angle_beta   89.32234977
_cell_angle_gamma   90.14898160
_symmetry_Int_Tables_number   1
_chemical_formula_structural   Sm8Er12Si15Ag
_chemical_formula_sum   'Sm8 Er12 Si15 Ag1'
_cell_volume   845.60919538
_cell_formula_units_Z   1
loop_
 _symmetry_equiv_pos_site_id
 _symmetry_equiv_pos_as_xyz
  1  'x, y, z'
loop_
 _atom_site_type_symbol
 _atom_site_label
 _atom_site_symmetry_multiplicity
 _atom_site_fract_x
 _atom_site_fract_y
 _atom_site_fract_z
 _atom_site_occupancy
  Sm  Sm0  1  0.018988  0.179402  0.099244  1
  Sm  Sm1  1  0.980884  0.822450  0.902944  1
  Sm  Sm2  1  0.481094  0.679785  0.902606  1
  Sm  Sm3  1  0.984690  0.830595  0.598965  1
  Sm  Sm4  1  0.517700  0.320112  0.097317  1
  Sm  Sm5  1  0.012062  0.171924  0.398478  1
  Sm  Sm6  1  0.517339  0.318196  0.399276  1
  Sm  Sm7  1  0.489819  0.682749  0.601094  1
  Er  Er8  1  0.162797  0.509331  0.751628  1
  Er  Er9  1  0.838860  0.491162  0.251726  1
  Er  Er10  1  0.338172  0.006036  0.249395  1
  Er  Er11  1  0.664904  0.990159  0.750790  1
  Er  Er12  1  0.338273  0.174562  0.624303  1
  Er  Er13  1  0.665632  0.822075  0.376407  1
  Er  Er14  1  0.169026  0.674865  0.374175  1
  Er  Er15  1  0.673300  0.822622  0.122846  1
  Er  Er16  1  0.826571  0.325683  0.622721  1
  Er  Er17  1  0.326461  0.178160  0.877627  1
  Er  Er18  1  0.826832  0.320768  0.878071  1
  Er  Er19  1  0.172010  0.677741  0.122987  1
  Si  Si20  1  0.036670  0.116496  0.751127  1
  Si  Si21  1  0.964823  0.887294  0.249059  1
  Si  Si22  1  0.466209  0.609352  0.247973  1
  Si  Si23  1  0.535603  0.390982  0.751924  1
  Si  Si24  1  0.279159  0.878248  0.751194  1
  Si  Si25  1  0.719111  0.124054  0.248129  1
  Si  Si26  1  0.221707  0.372831  0.248441  1
  Si  Si27  1  0.781207  0.624330  0.752967  1
  Si  Si28  1  0.837135  0.534018  0.458708  1
  Si  Si29  1  0.337380  0.964931  0.460799  1
  Si  Si30  1  0.847825  0.532702  0.038721  1
  Si  Si31  1  0.659696  0.034011  0.538257  1
  Si  Si32  1  0.149973  0.467741  0.961877  1
  Si  Si33  1  0.651032  0.031056  0.960394  1
  Si  Si34  1  0.347730  0.967885  0.039728  1
  Ag  Ag35  1  0.159322  0.465694  0.538103  1
