# generated using pymatgen
data_Lu12TlInTc3
_symmetry_space_group_name_H-M   'P 1'
_cell_length_a   8.32731106
_cell_length_b   8.32731175
_cell_length_c   8.32731200
_cell_angle_alpha   110.96206685
_cell_angle_beta   108.61339906
_cell_angle_gamma   108.84863547
_symmetry_Int_Tables_number   1
_chemical_formula_structural   Lu12TlInTc3
_chemical_formula_sum   'Lu12 Tl1 In1 Tc3'
_cell_volume   444.29311398
_cell_formula_units_Z   1
loop_
 _symmetry_equiv_pos_site_id
 _symmetry_equiv_pos_as_xyz
  1  'x, y, z'
loop_
 _atom_site_type_symbol
 _atom_site_label
 _atom_site_symmetry_multiplicity
 _atom_site_fract_x
 _atom_site_fract_y
 _atom_site_fract_z
 _atom_site_occupancy
  Lu  Lu0  1  0.321118  0.317018  0.638143  1
  Lu  Lu1  1  0.678882  0.682982  0.361857  1
  Lu  Lu2  1  0.678876  0.317018  0.995901  1
  Lu  Lu3  1  0.321124  0.682982  0.004099  1
  Lu  Lu4  1  0.187098  0.432070  0.244972  1
  Lu  Lu5  1  0.812902  0.567930  0.755028  1
  Lu  Lu6  1  0.187104  0.942129  0.755025  1
  Lu  Lu7  1  0.944273  0.183284  0.760997  1
  Lu  Lu8  1  0.812896  0.057871  0.244975  1
  Lu  Lu9  1  0.055727  0.816716  0.239003  1
  Lu  Lu10  1  0.422288  0.183284  0.239010  1
  Lu  Lu11  1  0.577712  0.816716  0.760990  1
  Tl  Tl12  1  0.000000  0.500000  0.500000  1
  In  In13  1  0.500000  0.000000  0.500000  1
  Tc  Tc14  1  0.340050  0.340078  0.000028  1
  Tc  Tc15  1  0.659950  0.659922  0.999972  1
  Tc  Tc16  1  0.000000  0.000000  0.000000  1
