# generated using pymatgen
data_Ho3In3HgPdPt
_symmetry_space_group_name_H-M   'P 1'
_cell_length_a   7.93119200
_cell_length_b   7.93119271
_cell_length_c   3.74164100
_cell_angle_alpha   90.00000000
_cell_angle_beta   90.00000000
_cell_angle_gamma   120.00000537
_symmetry_Int_Tables_number   1
_chemical_formula_structural   Ho3In3HgPdPt
_chemical_formula_sum   'Ho3 In3 Hg1 Pd1 Pt1'
_cell_volume   203.83074417
_cell_formula_units_Z   1
loop_
 _symmetry_equiv_pos_site_id
 _symmetry_equiv_pos_as_xyz
  1  'x, y, z'
loop_
 _atom_site_type_symbol
 _atom_site_label
 _atom_site_symmetry_multiplicity
 _atom_site_fract_x
 _atom_site_fract_y
 _atom_site_fract_z
 _atom_site_occupancy
  Ho  Ho0  1  0.978091  0.585467  0.000000  1
  Ho  Ho1  1  0.414533  0.392624  0.000000  1
  Ho  Ho2  1  0.607376  0.021909  0.000000  1
  In  In3  1  0.742020  0.741452  0.500000  1
  In  In4  1  0.999431  0.257980  0.500000  1
  In  In5  1  0.258548  0.000569  0.500000  1
  Hg  Hg6  1  0.333333  0.666667  0.500000  1
  Pd  Pd7  1  0.000000  0.000000  0.000000  1
  Pt  Pt8  1  0.666667  0.333333  0.500000  1
