# generated using pymatgen
data_Nd3SmGa18(CoPd)3
_symmetry_space_group_name_H-M   'P 1'
_cell_length_a   7.58953025
_cell_length_b   7.59056216
_cell_length_c   9.60152005
_cell_angle_alpha   89.83903113
_cell_angle_beta   89.84988726
_cell_angle_gamma   119.69470233
_symmetry_Int_Tables_number   1
_chemical_formula_structural   Nd3SmGa18(CoPd)3
_chemical_formula_sum   'Nd3 Sm1 Ga18 Co3 Pd3'
_cell_volume   480.48625510
_cell_formula_units_Z   1
loop_
 _symmetry_equiv_pos_site_id
 _symmetry_equiv_pos_as_xyz
  1  'x, y, z'
loop_
 _atom_site_type_symbol
 _atom_site_label
 _atom_site_symmetry_multiplicity
 _atom_site_fract_x
 _atom_site_fract_y
 _atom_site_fract_z
 _atom_site_occupancy
  Nd  Nd0  1  0.502794  0.830990  0.250411  1
  Nd  Nd1  1  0.496579  0.168379  0.750571  1
  Nd  Nd2  1  0.169003  0.497280  0.749521  1
  Sm  Sm3  1  0.831424  0.503401  0.249395  1
  Ga  Ga4  1  0.160872  0.953842  0.241155  1
  Ga  Ga5  1  0.837898  0.045537  0.744393  1
  Ga  Ga6  1  0.045296  0.838560  0.758878  1
  Ga  Ga7  1  0.954396  0.162559  0.255659  1
  Ga  Ga8  1  0.627230  0.627649  0.758054  1
  Ga  Ga9  1  0.372948  0.372972  0.241946  1
  Ga  Ga10  1  0.156939  0.163773  0.561877  1
  Ga  Ga11  1  0.831712  0.825071  0.057487  1
  Ga  Ga12  1  0.836279  0.842644  0.437809  1
  Ga  Ga13  1  0.174263  0.168269  0.942913  1
  Ga  Ga14  1  0.511957  0.843093  0.576494  1
  Ga  Ga15  1  0.491182  0.166338  0.072310  1
  Ga  Ga16  1  0.156228  0.488077  0.423071  1
  Ga  Ga17  1  0.834236  0.509323  0.928547  1
  Ga  Ga18  1  0.510217  0.166894  0.423328  1
  Ga  Ga19  1  0.490583  0.825857  0.928202  1
  Ga  Ga20  1  0.833748  0.490485  0.575879  1
  Ga  Ga21  1  0.173546  0.509396  0.072140  1
  Co  Co22  1  0.499537  0.500667  0.000215  1
  Co  Co23  1  0.830915  0.169291  0.499800  1
  Co  Co24  1  0.169476  0.830219  0.000220  1
  Pd  Pd25  1  0.500823  0.499471  0.499704  1
  Pd  Pd26  1  0.170793  0.828979  0.499750  1
  Pd  Pd27  1  0.829128  0.170984  0.000272  1
