# generated using pymatgen
data_Yb3Th(SiPd14)2
_symmetry_space_group_name_H-M   'P 1'
_cell_length_a   8.92644800
_cell_length_b   8.92644800
_cell_length_c   7.08990900
_cell_angle_alpha   90.00000000
_cell_angle_beta   90.00000000
_cell_angle_gamma   90.00000000
_symmetry_Int_Tables_number   1
_chemical_formula_structural   Yb3Th(SiPd14)2
_chemical_formula_sum   'Yb3 Th1 Si2 Pd28'
_cell_volume   564.93439891
_cell_formula_units_Z   1
loop_
 _symmetry_equiv_pos_site_id
 _symmetry_equiv_pos_as_xyz
  1  'x, y, z'
loop_
 _atom_site_type_symbol
 _atom_site_label
 _atom_site_symmetry_multiplicity
 _atom_site_fract_x
 _atom_site_fract_y
 _atom_site_fract_z
 _atom_site_occupancy
  Yb  Yb0  1  0.000000  0.500000  0.060465  1
  Yb  Yb1  1  0.000000  0.000000  0.500514  1
  Yb  Yb2  1  0.500000  0.500000  0.500514  1
  Th  Th3  1  0.500000  0.000000  0.939227  1
  Si  Si4  1  0.500000  0.000000  0.447083  1
  Si  Si5  1  0.000000  0.500000  0.553067  1
  Pd  Pd6  1  0.334044  0.834044  0.616126  1
  Pd  Pd7  1  0.334044  0.165956  0.616126  1
  Pd  Pd8  1  0.665956  0.834044  0.616126  1
  Pd  Pd9  1  0.665956  0.165956  0.616126  1
  Pd  Pd10  1  0.165034  0.665034  0.381662  1
  Pd  Pd11  1  0.165034  0.334966  0.381662  1
  Pd  Pd12  1  0.834966  0.665034  0.381662  1
  Pd  Pd13  1  0.834966  0.334966  0.381662  1
  Pd  Pd14  1  0.500000  0.769438  0.257703  1
  Pd  Pd15  1  0.500000  0.230562  0.257703  1
  Pd  Pd16  1  0.269438  0.000000  0.257703  1
  Pd  Pd17  1  0.730562  0.000000  0.257703  1
  Pd  Pd18  1  0.000000  0.730252  0.743111  1
  Pd  Pd19  1  0.000000  0.269748  0.743111  1
  Pd  Pd20  1  0.230252  0.500000  0.743111  1
  Pd  Pd21  1  0.769748  0.500000  0.743111  1
  Pd  Pd22  1  0.500000  0.349244  0.854078  1
  Pd  Pd23  1  0.500000  0.650756  0.854078  1
  Pd  Pd24  1  0.849244  0.000000  0.854078  1
  Pd  Pd25  1  0.150756  0.000000  0.854078  1
  Pd  Pd26  1  0.000000  0.150467  0.146623  1
  Pd  Pd27  1  0.000000  0.849533  0.146623  1
  Pd  Pd28  1  0.650467  0.500000  0.146623  1
  Pd  Pd29  1  0.349533  0.500000  0.146623  1
  Pd  Pd30  1  0.249827  0.749827  0.000480  1
  Pd  Pd31  1  0.249827  0.250173  0.000480  1
  Pd  Pd32  1  0.750173  0.749827  0.000480  1
  Pd  Pd33  1  0.750173  0.250173  0.000480  1
