# generated using pymatgen
data_Cs2Mo(WO4)3
_symmetry_space_group_name_H-M   'P 1'
_cell_length_a   7.42986274
_cell_length_b   7.42986328
_cell_length_c   7.50839510
_cell_angle_alpha   60.13195432
_cell_angle_beta   60.13195440
_cell_angle_gamma   59.97831615
_symmetry_Int_Tables_number   1
_chemical_formula_structural   Cs2Mo(WO4)3
_chemical_formula_sum   'Cs2 Mo1 W3 O12'
_cell_volume   293.61994400
_cell_formula_units_Z   1
loop_
 _symmetry_equiv_pos_site_id
 _symmetry_equiv_pos_as_xyz
  1  'x, y, z'
loop_
 _atom_site_type_symbol
 _atom_site_label
 _atom_site_symmetry_multiplicity
 _atom_site_fract_x
 _atom_site_fract_y
 _atom_site_fract_z
 _atom_site_occupancy
  Cs  Cs0  1  0.886391  0.847982  0.885516  1
  Cs  Cs1  1  0.152018  0.113609  0.114484  1
  Mo  Mo2  1  0.501253  0.498747  0.000000  1
  W  W3  1  0.503445  0.996991  0.498994  1
  W  W4  1  0.003009  0.496555  0.501006  1
  W  W5  1  0.502968  0.497032  0.500000  1
  O  O6  1  0.191078  0.188109  0.560583  1
  O  O7  1  0.560950  0.560962  0.201730  1
  O  O8  1  0.560556  0.178881  0.200614  1
  O  O9  1  0.190086  0.559143  0.560771  1
  O  O10  1  0.180981  0.559329  0.200568  1
  O  O11  1  0.561130  0.187443  0.561171  1
  O  O12  1  0.811891  0.808922  0.439417  1
  O  O13  1  0.439038  0.439050  0.798270  1
  O  O14  1  0.440671  0.819019  0.799432  1
  O  O15  1  0.812557  0.438870  0.438829  1
  O  O16  1  0.821119  0.439444  0.799386  1
  O  O17  1  0.440857  0.809914  0.439229  1
