# generated using pymatgen
data_Sr6MnIn2NiO12
_symmetry_space_group_name_H-M   'P 1'
_cell_length_a   6.79289501
_cell_length_b   6.79289380
_cell_length_c   6.79289481
_cell_angle_alpha   92.24872323
_cell_angle_beta   92.24873104
_cell_angle_gamma   92.24872193
_symmetry_Int_Tables_number   1
_chemical_formula_structural   Sr6MnIn2NiO12
_chemical_formula_sum   'Sr6 Mn1 In2 Ni1 O12'
_cell_volume   312.70367315
_cell_formula_units_Z   1
loop_
 _symmetry_equiv_pos_site_id
 _symmetry_equiv_pos_as_xyz
  1  'x, y, z'
loop_
 _atom_site_type_symbol
 _atom_site_label
 _atom_site_symmetry_multiplicity
 _atom_site_fract_x
 _atom_site_fract_y
 _atom_site_fract_z
 _atom_site_occupancy
  Sr  Sr0  1  0.745316  0.386432  0.123599  1
  Sr  Sr1  1  0.613567  0.876401  0.254685  1
  Sr  Sr2  1  0.123598  0.745316  0.386432  1
  Sr  Sr3  1  0.876402  0.254684  0.613567  1
  Sr  Sr4  1  0.386432  0.123599  0.745315  1
  Sr  Sr5  1  0.254684  0.613568  0.876401  1
  Mn  Mn6  1  0.000000  0.000000  0.000000  1
  In  In7  1  0.254600  0.254600  0.254600  1
  In  In8  1  0.745400  0.745400  0.745400  1
  Ni  Ni9  1  0.500000  0.500000  0.500000  1
  O  O10  1  0.918508  0.724128  0.039721  1
  O  O11  1  0.275871  0.960278  0.081493  1
  O  O12  1  0.401539  0.542157  0.204303  1
  O  O13  1  0.960279  0.081492  0.275871  1
  O  O14  1  0.542157  0.204303  0.401539  1
  O  O15  1  0.795697  0.598461  0.457843  1
  O  O16  1  0.204303  0.401539  0.542156  1
  O  O17  1  0.457844  0.795696  0.598461  1
  O  O18  1  0.039721  0.918508  0.724128  1
  O  O19  1  0.598461  0.457843  0.795697  1
  O  O20  1  0.724128  0.039722  0.918507  1
  O  O21  1  0.081492  0.275872  0.960278  1
