# generated using pymatgen
data_Ca3La9(PrSn2)8
_symmetry_space_group_name_H-M   'P 1'
_cell_length_a   8.27706804
_cell_length_b   8.55864499
_cell_length_c   16.29049300
_cell_angle_alpha   90.01376388
_cell_angle_beta   90.00574545
_cell_angle_gamma   89.89366325
_symmetry_Int_Tables_number   1
_chemical_formula_structural   Ca3La9(PrSn2)8
_chemical_formula_sum   'Ca3 La9 Pr8 Sn16'
_cell_volume   1154.02442937
_cell_formula_units_Z   1
loop_
 _symmetry_equiv_pos_site_id
 _symmetry_equiv_pos_as_xyz
  1  'x, y, z'
loop_
 _atom_site_type_symbol
 _atom_site_label
 _atom_site_symmetry_multiplicity
 _atom_site_fract_x
 _atom_site_fract_y
 _atom_site_fract_z
 _atom_site_occupancy
  Ca  Ca0  1  0.319735  0.000440  0.750133  1
  Ca  Ca1  1  0.182156  0.497098  0.249916  1
  Ca  Ca2  1  0.679711  0.000977  0.249990  1
  La  La3  1  0.148769  0.331184  0.621961  1
  La  La4  1  0.494114  0.684182  0.597274  1
  La  La5  1  0.999058  0.817997  0.903919  1
  La  La6  1  0.504242  0.316722  0.096782  1
  La  La7  1  0.001496  0.185248  0.403774  1
  La  La8  1  0.504418  0.316955  0.403109  1
  La  La9  1  0.001712  0.185425  0.096044  1
  La  La10  1  0.494034  0.684081  0.902768  1
  La  La11  1  0.998675  0.818089  0.596169  1
  Pr  Pr12  1  0.648784  0.167917  0.622835  1
  Pr  Pr13  1  0.149230  0.331124  0.877997  1
  Pr  Pr14  1  0.351106  0.829887  0.123865  1
  Pr  Pr15  1  0.851927  0.665819  0.377938  1
  Pr  Pr16  1  0.351314  0.829985  0.375925  1
  Pr  Pr17  1  0.851584  0.666124  0.122151  1
  Pr  Pr18  1  0.648810  0.168325  0.877168  1
  Pr  Pr19  1  0.819090  0.502160  0.749967  1
  Sn  Sn20  1  0.687532  0.961658  0.460163  1
  Sn  Sn21  1  0.193350  0.536520  0.040200  1
  Sn  Sn22  1  0.312065  0.037899  0.961886  1
  Sn  Sn23  1  0.806955  0.464779  0.541498  1
  Sn  Sn24  1  0.313370  0.036879  0.537895  1
  Sn  Sn25  1  0.808468  0.464373  0.958449  1
  Sn  Sn26  1  0.687370  0.961701  0.039855  1
  Sn  Sn27  1  0.193489  0.537353  0.459211  1
  Sn  Sn28  1  0.448622  0.389858  0.750521  1
  Sn  Sn29  1  0.951301  0.107147  0.750199  1
  Sn  Sn30  1  0.550875  0.605763  0.250062  1
  Sn  Sn31  1  0.047658  0.895521  0.249963  1
  Sn  Sn32  1  0.695932  0.860344  0.750081  1
  Sn  Sn33  1  0.194404  0.642465  0.750325  1
  Sn  Sn34  1  0.303523  0.138687  0.250001  1
  Sn  Sn35  1  0.805124  0.359309  0.250010  1
