# generated using pymatgen
data_Pr7Nd9Cd3AgIr4
_symmetry_space_group_name_H-M   'P 1'
_cell_length_a   9.97745411
_cell_length_b   9.97745345
_cell_length_c   9.97327033
_cell_angle_alpha   59.99624404
_cell_angle_beta   59.99625130
_cell_angle_gamma   60.01874998
_symmetry_Int_Tables_number   1
_chemical_formula_structural   Pr7Nd9Cd3AgIr4
_chemical_formula_sum   'Pr7 Nd9 Cd3 Ag1 Ir4'
_cell_volume   702.09988948
_cell_formula_units_Z   1
loop_
 _symmetry_equiv_pos_site_id
 _symmetry_equiv_pos_as_xyz
  1  'x, y, z'
loop_
 _atom_site_type_symbol
 _atom_site_label
 _atom_site_symmetry_multiplicity
 _atom_site_fract_x
 _atom_site_fract_y
 _atom_site_fract_z
 _atom_site_occupancy
  Pr  Pr0  1  0.809180  0.809180  0.189903  1
  Pr  Pr1  1  0.936759  0.561279  0.561521  1
  Pr  Pr2  1  0.560711  0.938597  0.938447  1
  Pr  Pr3  1  0.561279  0.936759  0.561521  1
  Pr  Pr4  1  0.938597  0.560711  0.938447  1
  Pr  Pr5  1  0.561394  0.561394  0.936700  1
  Pr  Pr6  1  0.938518  0.938518  0.560836  1
  Nd  Nd7  1  0.347563  0.347563  0.347560  1
  Nd  Nd8  1  0.348526  0.348526  0.954679  1
  Nd  Nd9  1  0.348298  0.954750  0.348596  1
  Nd  Nd10  1  0.954750  0.348298  0.348596  1
  Nd  Nd11  1  0.809760  0.190487  0.190245  1
  Nd  Nd12  1  0.190011  0.809285  0.809060  1
  Nd  Nd13  1  0.190487  0.809760  0.190245  1
  Nd  Nd14  1  0.809285  0.190011  0.809060  1
  Nd  Nd15  1  0.190284  0.190284  0.809777  1
  Cd  Cd16  1  0.579702  0.579702  0.262385  1
  Cd  Cd17  1  0.579780  0.262348  0.579772  1
  Cd  Cd18  1  0.262348  0.579780  0.579772  1
  Ag  Ag19  1  0.581293  0.581293  0.581422  1
  Ir  Ir20  1  0.141450  0.141450  0.141520  1
  Ir  Ir21  1  0.142005  0.142005  0.575924  1
  Ir  Ir22  1  0.142432  0.575585  0.142005  1
  Ir  Ir23  1  0.575585  0.142432  0.142005  1
