# generated using pymatgen
data_NdY15
_symmetry_space_group_name_H-M   'P 1'
_cell_length_a   7.31093300
_cell_length_b   7.31167982
_cell_length_c   11.41735200
_cell_angle_alpha   90.00000000
_cell_angle_beta   90.00000000
_cell_angle_gamma   119.99108850
_symmetry_Int_Tables_number   1
_chemical_formula_structural   NdY15
_chemical_formula_sum   'Nd1 Y15'
_cell_volume   528.59735200
_cell_formula_units_Z   1
loop_
 _symmetry_equiv_pos_site_id
 _symmetry_equiv_pos_as_xyz
  1  'x, y, z'
loop_
 _atom_site_type_symbol
 _atom_site_label
 _atom_site_symmetry_multiplicity
 _atom_site_fract_x
 _atom_site_fract_y
 _atom_site_fract_z
 _atom_site_occupancy
  Nd  Nd0  1  0.999999  0.000020  0.500000  1
  Y  Y1  1  0.000041  0.000125  0.000000  1
  Y  Y2  1  0.000510  0.500292  0.500000  1
  Y  Y3  1  0.000726  0.500395  0.000000  1
  Y  Y4  1  0.499709  0.500293  0.500000  1
  Y  Y5  1  0.499564  0.500442  0.000000  1
  Y  Y6  1  0.499785  0.999651  0.500000  1
  Y  Y7  1  0.499542  0.999161  0.000000  1
  Y  Y8  1  0.167244  0.334416  0.248816  1
  Y  Y9  1  0.167244  0.334416  0.751184  1
  Y  Y10  1  0.167256  0.832681  0.248756  1
  Y  Y11  1  0.167256  0.832681  0.751244  1
  Y  Y12  1  0.665523  0.832703  0.248765  1
  Y  Y13  1  0.665523  0.832703  0.751235  1
  Y  Y14  1  0.666705  0.333343  0.248868  1
  Y  Y15  1  0.666705  0.333343  0.751132  1
