# generated using pymatgen
data_Yb3U(Si5Pt3)2
_symmetry_space_group_name_H-M   'P 1'
_cell_length_a   8.20019933
_cell_length_b   8.20398758
_cell_length_c   8.20398774
_cell_angle_alpha   137.51909669
_cell_angle_beta   103.96205270
_cell_angle_gamma   91.22276425
_symmetry_Int_Tables_number   1
_chemical_formula_structural   Yb3U(Si5Pt3)2
_chemical_formula_sum   'Yb3 U1 Si10 Pt6'
_cell_volume   344.59502029
_cell_formula_units_Z   1
loop_
 _symmetry_equiv_pos_site_id
 _symmetry_equiv_pos_as_xyz
  1  'x, y, z'
loop_
 _atom_site_type_symbol
 _atom_site_label
 _atom_site_symmetry_multiplicity
 _atom_site_fract_x
 _atom_site_fract_y
 _atom_site_fract_z
 _atom_site_occupancy
  Yb  Yb0  1  0.636565  0.369842  0.266723  1
  Yb  Yb1  1  0.362537  0.628618  0.733919  1
  Yb  Yb2  1  0.106328  0.873090  0.233237  1
  U  U3  1  0.899709  0.129188  0.770521  1
  Si  Si4  1  0.461701  0.113047  0.348655  1
  Si  Si5  1  0.542660  0.890605  0.652054  1
  Si  Si6  1  0.760464  0.610750  0.149715  1
  Si  Si7  1  0.234427  0.384492  0.849935  1
  Si  Si8  1  0.270543  0.518313  0.249154  1
  Si  Si9  1  0.727828  0.476570  0.747691  1
  Si  Si10  1  0.727828  0.980137  0.251258  1
  Si  Si11  1  0.270543  0.021389  0.752230  1
  Si  Si12  1  0.000664  0.253359  0.250567  1
  Si  Si13  1  0.000664  0.750097  0.747304  1
  Pt  Pt14  1  0.498472  0.247457  0.747664  1
  Pt  Pt15  1  0.498472  0.750808  0.251015  1
  Pt  Pt16  1  0.251070  0.135553  0.115517  1
  Pt  Pt17  1  0.748896  0.863195  0.885702  1
  Pt  Pt18  1  0.020857  0.639348  0.381509  1
  Pt  Pt19  1  0.979774  0.364145  0.615629  1
