# generated using pymatgen
data_Dy11Er9(Bi2Rh)4
_symmetry_space_group_name_H-M   'P 1'
_cell_length_a   7.97520000
_cell_length_b   8.99608700
_cell_length_c   12.45453033
_cell_angle_alpha   90.00000000
_cell_angle_beta   89.94621420
_cell_angle_gamma   90.00000000
_symmetry_Int_Tables_number   1
_chemical_formula_structural   Dy11Er9(Bi2Rh)4
_chemical_formula_sum   'Dy11 Er9 Bi8 Rh4'
_cell_volume   893.55727078
_cell_formula_units_Z   1
loop_
 _symmetry_equiv_pos_site_id
 _symmetry_equiv_pos_as_xyz
  1  'x, y, z'
loop_
 _atom_site_type_symbol
 _atom_site_label
 _atom_site_symmetry_multiplicity
 _atom_site_fract_x
 _atom_site_fract_y
 _atom_site_fract_z
 _atom_site_occupancy
  Dy  Dy0  1  0.159374  0.250000  0.206937  1
  Dy  Dy1  1  0.340078  0.250000  0.707142  1
  Dy  Dy2  1  0.659427  0.750000  0.292803  1
  Dy  Dy3  1  0.375599  0.750000  0.691893  1
  Dy  Dy4  1  0.624769  0.250000  0.308145  1
  Dy  Dy5  1  0.875262  0.250000  0.808009  1
  Dy  Dy6  1  0.125133  0.750000  0.191854  1
  Dy  Dy7  1  0.950863  0.750000  0.501635  1
  Dy  Dy8  1  0.047949  0.250000  0.498939  1
  Dy  Dy9  1  0.451563  0.250000  0.998252  1
  Dy  Dy10  1  0.548883  0.750000  0.001173  1
  Er  Er11  1  0.840905  0.750000  0.793867  1
  Er  Er12  1  0.675584  0.042413  0.566100  1
  Er  Er13  1  0.324151  0.957910  0.434062  1
  Er  Er14  1  0.175630  0.957156  0.933644  1
  Er  Er15  1  0.324151  0.542090  0.434062  1
  Er  Er16  1  0.824515  0.042138  0.065971  1
  Er  Er17  1  0.675584  0.457587  0.566100  1
  Er  Er18  1  0.824515  0.457862  0.065971  1
  Er  Er19  1  0.175630  0.542844  0.933644  1
  Bi  Bi20  1  0.568253  0.491931  0.826280  1
  Bi  Bi21  1  0.432525  0.508288  0.173303  1
  Bi  Bi22  1  0.066795  0.509121  0.673834  1
  Bi  Bi23  1  0.432525  0.991712  0.173303  1
  Bi  Bi24  1  0.932546  0.491666  0.326640  1
  Bi  Bi25  1  0.568253  0.008069  0.826280  1
  Bi  Bi26  1  0.932546  0.008334  0.326640  1
  Bi  Bi27  1  0.066795  0.990879  0.673834  1
  Rh  Rh28  1  0.571348  0.750000  0.509416  1
  Rh  Rh29  1  0.428741  0.250000  0.490768  1
  Rh  Rh30  1  0.071475  0.250000  0.990859  1
  Rh  Rh31  1  0.928631  0.750000  0.008635  1
