# generated using pymatgen
data_TbLu15(InRh)4
_symmetry_space_group_name_H-M   'P 1'
_cell_length_a   9.46292350
_cell_length_b   9.47704684
_cell_length_c   9.47704686
_cell_angle_alpha   59.97512703
_cell_angle_beta   60.04928181
_cell_angle_gamma   60.04928453
_symmetry_Int_Tables_number   1
_chemical_formula_structural   TbLu15(InRh)4
_chemical_formula_sum   'Tb1 Lu15 In4 Rh4'
_cell_volume   601.30895530
_cell_formula_units_Z   1
loop_
 _symmetry_equiv_pos_site_id
 _symmetry_equiv_pos_as_xyz
  1  'x, y, z'
loop_
 _atom_site_type_symbol
 _atom_site_label
 _atom_site_symmetry_multiplicity
 _atom_site_fract_x
 _atom_site_fract_y
 _atom_site_fract_z
 _atom_site_occupancy
  Tb  Tb0  1  0.066571  0.433429  0.433429  1
  Lu  Lu1  1  0.809515  0.812677  0.189552  1
  Lu  Lu2  1  0.809515  0.189552  0.812677  1
  Lu  Lu3  1  0.188256  0.189552  0.812677  1
  Lu  Lu4  1  0.649897  0.049448  0.650758  1
  Lu  Lu5  1  0.061154  0.058932  0.438292  1
  Lu  Lu6  1  0.441622  0.438292  0.058932  1
  Lu  Lu7  1  0.654114  0.649724  0.649724  1
  Lu  Lu8  1  0.810009  0.189991  0.189991  1
  Lu  Lu9  1  0.189571  0.810429  0.810429  1
  Lu  Lu10  1  0.046438  0.649724  0.649724  1
  Lu  Lu11  1  0.437363  0.062637  0.062637  1
  Lu  Lu12  1  0.441622  0.058932  0.438292  1
  Lu  Lu13  1  0.061154  0.438292  0.058932  1
  Lu  Lu14  1  0.649897  0.650758  0.049448  1
  Lu  Lu15  1  0.188256  0.812677  0.189552  1
  In  In16  1  0.417355  0.417126  0.417126  1
  In  In17  1  0.416154  0.416624  0.751066  1
  In  In18  1  0.416154  0.751066  0.416624  1
  In  In19  1  0.748391  0.417126  0.417126  1
  Rh  Rh20  1  0.856120  0.425877  0.861884  1
  Rh  Rh21  1  0.857581  0.857624  0.857624  1
  Rh  Rh22  1  0.856120  0.861884  0.425877  1
  Rh  Rh23  1  0.427171  0.857624  0.857624  1
