# generated using pymatgen
data_Ca3Pr(Al3Pd)6
_symmetry_space_group_name_H-M   'P 1'
_cell_length_a   7.68512400
_cell_length_b   7.67788765
_cell_length_c   9.56535500
_cell_angle_alpha   90.00000000
_cell_angle_beta   90.00000000
_cell_angle_gamma   119.55381821
_symmetry_Int_Tables_number   1
_chemical_formula_structural   Ca3Pr(Al3Pd)6
_chemical_formula_sum   'Ca3 Pr1 Al18 Pd6'
_cell_volume   490.97507928
_cell_formula_units_Z   1
loop_
 _symmetry_equiv_pos_site_id
 _symmetry_equiv_pos_as_xyz
  1  'x, y, z'
loop_
 _atom_site_type_symbol
 _atom_site_label
 _atom_site_symmetry_multiplicity
 _atom_site_fract_x
 _atom_site_fract_y
 _atom_site_fract_z
 _atom_site_occupancy
  Ca  Ca0  1  0.994326  0.669814  0.250000  1
  Ca  Ca1  1  0.004112  0.330092  0.750000  1
  Ca  Ca2  1  0.671938  0.996586  0.250000  1
  Pr  Pr3  1  0.330599  0.003341  0.750000  1
  Al  Al4  1  0.132897  0.133438  0.250000  1
  Al  Al5  1  0.869495  0.868278  0.750000  1
  Al  Al6  1  0.001554  0.334990  0.074627  1
  Al  Al7  1  0.997022  0.662653  0.924336  1
  Al  Al8  1  0.997022  0.662653  0.575664  1
  Al  Al9  1  0.334896  0.000750  0.423395  1
  Al  Al10  1  0.001554  0.334990  0.425373  1
  Al  Al11  1  0.667818  0.999742  0.575209  1
  Al  Al12  1  0.667818  0.999742  0.924791  1
  Al  Al13  1  0.334896  0.000750  0.076605  1
  Al  Al14  1  0.332790  0.333929  0.555862  1
  Al  Al15  1  0.665860  0.665923  0.446921  1
  Al  Al16  1  0.665860  0.665923  0.053079  1
  Al  Al17  1  0.332790  0.333929  0.944138  1
  Al  Al18  1  0.339985  0.546363  0.250000  1
  Al  Al19  1  0.657600  0.454584  0.750000  1
  Al  Al20  1  0.544242  0.340924  0.250000  1
  Al  Al21  1  0.456213  0.662756  0.750000  1
  Pd  Pd22  1  0.671236  0.328442  0.000313  1
  Pd  Pd23  1  0.328372  0.670840  0.999807  1
  Pd  Pd24  1  0.328372  0.670840  0.500193  1
  Pd  Pd25  1  0.671236  0.328442  0.499687  1
  Pd  Pd26  1  0.999750  0.999644  0.000315  1
  Pd  Pd27  1  0.999750  0.999644  0.499685  1
