# generated using pymatgen
data_Lu5P4Se
_symmetry_space_group_name_H-M   'P 1'
_cell_length_a   16.04724431
_cell_length_b   16.04724443
_cell_length_c   16.04724500
_cell_angle_alpha   13.98419484
_cell_angle_beta   13.98419322
_cell_angle_gamma   13.98419500
_symmetry_Int_Tables_number   1
_chemical_formula_structural   Lu5P4Se
_chemical_formula_sum   'Lu5 P4 Se1'
_cell_volume   210.02512977
_cell_formula_units_Z   1
loop_
 _symmetry_equiv_pos_site_id
 _symmetry_equiv_pos_as_xyz
  1  'x, y, z'
loop_
 _atom_site_type_symbol
 _atom_site_label
 _atom_site_symmetry_multiplicity
 _atom_site_fract_x
 _atom_site_fract_y
 _atom_site_fract_z
 _atom_site_occupancy
  Lu  Lu0  1  0.601579  0.601579  0.601579  1
  Lu  Lu1  1  0.398421  0.398421  0.398421  1
  Lu  Lu2  1  0.000000  0.000000  0.000000  1
  Lu  Lu3  1  0.203772  0.203772  0.203772  1
  Lu  Lu4  1  0.796228  0.796228  0.796228  1
  P  P5  1  0.099362  0.099362  0.099362  1
  P  P6  1  0.699785  0.699785  0.699785  1
  P  P7  1  0.300215  0.300215  0.300215  1
  P  P8  1  0.900638  0.900638  0.900638  1
  Se  Se9  1  0.500000  0.500000  0.500000  1
