# generated using pymatgen
data_U2Bi2F15
_symmetry_space_group_name_H-M   'P 1'
_cell_length_a   8.75435384
_cell_length_b   8.75435539
_cell_length_c   8.79423020
_cell_angle_alpha   79.65542729
_cell_angle_beta   79.65542965
_cell_angle_gamma   100.61634311
_symmetry_Int_Tables_number   1
_chemical_formula_structural   U2Bi2F15
_chemical_formula_sum   'U4 Bi4 F30'
_cell_volume   635.71893604
_cell_formula_units_Z   2
loop_
 _symmetry_equiv_pos_site_id
 _symmetry_equiv_pos_as_xyz
  1  'x, y, z'
loop_
 _atom_site_type_symbol
 _atom_site_label
 _atom_site_symmetry_multiplicity
 _atom_site_fract_x
 _atom_site_fract_y
 _atom_site_fract_z
 _atom_site_occupancy
  U  U0  1  0.751501  0.248499  0.250000  1
  U  U1  1  0.249935  0.750065  0.750000  1
  U  U2  1  0.750536  0.678323  0.675928  1
  U  U3  1  0.321677  0.249464  0.824072  1
  Bi  Bi4  1  0.246178  0.328497  0.327147  1
  Bi  Bi5  1  0.671503  0.753822  0.172853  1
  Bi  Bi6  1  0.172467  0.827533  0.250000  1
  Bi  Bi7  1  0.825486  0.174514  0.750000  1
  F  F8  1  0.472428  0.527572  0.250000  1
  F  F9  1  0.752643  0.968216  0.962522  1
  F  F10  1  0.031784  0.247357  0.537478  1
  F  F11  1  0.251968  0.035590  0.019634  1
  F  F12  1  0.964410  0.748032  0.480366  1
  F  F13  1  0.527617  0.472383  0.750000  1
  F  F14  1  0.219745  0.496638  0.774320  1
  F  F15  1  0.227227  0.715295  0.994381  1
  F  F16  1  0.996133  0.724850  0.779980  1
  F  F17  1  0.726213  0.999956  0.284305  1
  F  F18  1  0.718654  0.222782  0.499105  1
  F  F19  1  0.505097  0.213120  0.276040  1
  F  F20  1  0.786881  0.494903  0.223960  1
  F  F21  1  0.777218  0.281346  0.000895  1
  F  F22  1  0.000044  0.273787  0.215695  1
  F  F23  1  0.275150  0.003867  0.720020  1
  F  F24  1  0.284705  0.772773  0.505619  1
  F  F25  1  0.503362  0.780255  0.725680  1
  F  F26  1  0.543436  0.165922  0.809614  1
  F  F27  1  0.182267  0.049515  0.344153  1
  F  F28  1  0.660459  0.686101  0.459621  1
  F  F29  1  0.689248  0.653267  0.933626  1
  F  F30  1  0.060353  0.193521  0.846941  1
  F  F31  1  0.148805  0.546800  0.316320  1
  F  F32  1  0.453200  0.851195  0.183680  1
  F  F33  1  0.806479  0.939647  0.653059  1
  F  F34  1  0.346733  0.310752  0.566374  1
  F  F35  1  0.313899  0.339541  0.040379  1
  F  F36  1  0.950485  0.817733  0.155847  1
  F  F37  1  0.834078  0.456564  0.690386  1
