# generated using pymatgen
data_Hf7Zr11Nb2(ReO)6
_symmetry_space_group_name_H-M   'P 1'
_cell_length_a   8.62943067
_cell_length_b   8.62955942
_cell_length_c   8.51302847
_cell_angle_alpha   89.89774485
_cell_angle_beta   90.10131544
_cell_angle_gamma   120.06223348
_symmetry_Int_Tables_number   1
_chemical_formula_structural   Hf7Zr11Nb2(ReO)6
_chemical_formula_sum   'Hf7 Zr11 Nb2 Re6 O6'
_cell_volume   548.67084243
_cell_formula_units_Z   1
loop_
 _symmetry_equiv_pos_site_id
 _symmetry_equiv_pos_as_xyz
  1  'x, y, z'
loop_
 _atom_site_type_symbol
 _atom_site_label
 _atom_site_symmetry_multiplicity
 _atom_site_fract_x
 _atom_site_fract_y
 _atom_site_fract_z
 _atom_site_occupancy
  Hf  Hf0  1  0.452879  0.906343  0.249951  1
  Hf  Hf1  1  0.546430  0.093005  0.750103  1
  Hf  Hf2  1  0.093649  0.547125  0.249943  1
  Hf  Hf3  1  0.906999  0.453566  0.750115  1
  Hf  Hf4  1  0.453490  0.546520  0.250041  1
  Hf  Hf5  1  0.546648  0.453346  0.750060  1
  Hf  Hf6  1  0.202790  0.797206  0.937487  1
  Zr  Zr7  1  0.204151  0.407997  0.563925  1
  Zr  Zr8  1  0.795904  0.591511  0.435997  1
  Zr  Zr9  1  0.592002  0.795855  0.563913  1
  Zr  Zr10  1  0.795696  0.591430  0.064301  1
  Zr  Zr11  1  0.408496  0.204088  0.436014  1
  Zr  Zr12  1  0.204607  0.409369  0.935800  1
  Zr  Zr13  1  0.204535  0.795476  0.565189  1
  Zr  Zr14  1  0.408581  0.204308  0.064287  1
  Zr  Zr15  1  0.795599  0.204388  0.435861  1
  Zr  Zr16  1  0.590625  0.795389  0.935813  1
  Zr  Zr17  1  0.795498  0.204493  0.064220  1
  Nb  Nb18  1  0.000039  0.999959  0.000039  1
  Nb  Nb19  1  0.000158  0.999845  0.499760  1
  Re  Re20  1  0.111622  0.223570  0.249702  1
  Re  Re21  1  0.889509  0.776297  0.750425  1
  Re  Re22  1  0.776442  0.888382  0.249700  1
  Re  Re23  1  0.223702  0.110496  0.750421  1
  Re  Re24  1  0.112087  0.887907  0.248831  1
  Re  Re25  1  0.888454  0.111546  0.750014  1
  O  O26  1  0.496583  0.997458  0.999153  1
  O  O27  1  0.002538  0.503414  0.999152  1
  O  O28  1  0.500061  0.999907  0.499946  1
  O  O29  1  0.500029  0.499972  0.999941  1
  O  O30  1  0.000097  0.499939  0.499946  1
  O  O31  1  0.500101  0.499894  0.499950  1
