# generated using pymatgen
data_NaYbGePt3
_symmetry_space_group_name_H-M   'P 1'
_cell_length_a   5.57527488
_cell_length_b   5.57527465
_cell_length_c   5.16623409
_cell_angle_alpha   57.34440209
_cell_angle_beta   57.34440891
_cell_angle_gamma   59.99999190
_symmetry_Int_Tables_number   1
_chemical_formula_structural   NaYbGePt3
_chemical_formula_sum   'Na1 Yb1 Ge1 Pt3'
_cell_volume   108.77761339
_cell_formula_units_Z   1
loop_
 _symmetry_equiv_pos_site_id
 _symmetry_equiv_pos_as_xyz
  1  'x, y, z'
loop_
 _atom_site_type_symbol
 _atom_site_label
 _atom_site_symmetry_multiplicity
 _atom_site_fract_x
 _atom_site_fract_y
 _atom_site_fract_z
 _atom_site_occupancy
  Na  Na0  1  0.748848  0.748848  0.753454  1
  Yb  Yb1  1  0.502527  0.502527  0.492419  1
  Ge  Ge2  1  0.124373  0.124373  0.626880  1
  Pt  Pt3  1  0.124457  0.124457  0.125749  1
  Pt  Pt4  1  0.625336  0.124457  0.125749  1
  Pt  Pt5  1  0.124457  0.625336  0.125749  1
