# generated using pymatgen
data_TbDy4Lu7(GaCo2)2
_symmetry_space_group_name_H-M   'P 1'
_cell_length_a   8.16385960
_cell_length_b   8.16386047
_cell_length_c   8.16905451
_cell_angle_alpha   112.22415142
_cell_angle_beta   109.43086797
_cell_angle_gamma   106.77698719
_symmetry_Int_Tables_number   1
_chemical_formula_structural   TbDy4Lu7(GaCo2)2
_chemical_formula_sum   'Tb1 Dy4 Lu7 Ga2 Co4'
_cell_volume   418.31690256
_cell_formula_units_Z   1
loop_
 _symmetry_equiv_pos_site_id
 _symmetry_equiv_pos_as_xyz
  1  'x, y, z'
loop_
 _atom_site_type_symbol
 _atom_site_label
 _atom_site_symmetry_multiplicity
 _atom_site_fract_x
 _atom_site_fract_y
 _atom_site_fract_z
 _atom_site_occupancy
  Tb  Tb0  1  0.819888  0.781969  0.601856  1
  Dy  Dy1  1  0.041348  0.739967  0.299555  1
  Dy  Dy2  1  0.959682  0.263445  0.699136  1
  Dy  Dy3  1  0.559586  0.258206  0.299555  1
  Dy  Dy4  1  0.435693  0.739455  0.699136  1
  Lu  Lu5  1  0.672031  0.861635  0.186882  1
  Lu  Lu6  1  0.325247  0.514851  0.186882  1
  Lu  Lu7  1  0.328365  0.139955  0.812238  1
  Lu  Lu8  1  0.672283  0.483873  0.812238  1
  Lu  Lu9  1  0.179930  0.220172  0.400102  1
  Lu  Lu10  1  0.820315  0.219664  0.039981  1
  Lu  Lu11  1  0.180783  0.779455  0.960238  1
  Ga  Ga12  1  0.998879  0.497386  0.496265  1
  Ga  Ga13  1  0.500953  0.999407  0.500360  1
  Co  Co14  1  0.659114  0.497599  0.156713  1
  Co  Co15  1  0.340020  0.499455  0.839475  1
  Co  Co16  1  0.887037  0.885849  0.004694  1
  Co  Co17  1  0.118846  0.117658  0.004694  1
