# generated using pymatgen
data_Sr(OsO3)3
_symmetry_space_group_name_H-M   'P 1'
_cell_length_a   7.50547700
_cell_length_b   5.53274504
_cell_length_c   8.12914065
_cell_angle_alpha   86.26489745
_cell_angle_beta   90.00000000
_cell_angle_gamma   90.00000000
_symmetry_Int_Tables_number   1
_chemical_formula_structural   Sr(OsO3)3
_chemical_formula_sum   'Sr2 Os6 O18'
_cell_volume   336.85277161
_cell_formula_units_Z   2
loop_
 _symmetry_equiv_pos_site_id
 _symmetry_equiv_pos_as_xyz
  1  'x, y, z'
loop_
 _atom_site_type_symbol
 _atom_site_label
 _atom_site_symmetry_multiplicity
 _atom_site_fract_x
 _atom_site_fract_y
 _atom_site_fract_z
 _atom_site_occupancy
  Sr  Sr0  1  0.250000  0.973472  0.430893  1
  Sr  Sr1  1  0.750000  0.026528  0.569107  1
  Os  Os2  1  0.497193  0.530708  0.694805  1
  Os  Os3  1  0.002807  0.530708  0.694805  1
  Os  Os4  1  0.997193  0.469292  0.305195  1
  Os  Os5  1  0.000000  0.000000  0.000000  1
  Os  Os6  1  0.502807  0.469292  0.305195  1
  Os  Os7  1  0.500000  0.000000  0.000000  1
  O  O8  1  0.977579  0.702665  0.124315  1
  O  O9  1  0.022421  0.297335  0.875685  1
  O  O10  1  0.043907  0.163356  0.208810  1
  O  O11  1  0.750000  0.420248  0.309404  1
  O  O12  1  0.026884  0.280522  0.522929  1
  O  O13  1  0.456093  0.163356  0.208810  1
  O  O14  1  0.522421  0.702665  0.124315  1
  O  O15  1  0.526884  0.719478  0.477071  1
  O  O16  1  0.750000  0.047311  0.013655  1
  O  O17  1  0.956093  0.836644  0.791190  1
  O  O18  1  0.750000  0.466076  0.692549  1
  O  O19  1  0.543907  0.836644  0.791190  1
  O  O20  1  0.250000  0.533924  0.307451  1
  O  O21  1  0.477579  0.297335  0.875685  1
  O  O22  1  0.973116  0.719478  0.477071  1
  O  O23  1  0.473116  0.280522  0.522929  1
  O  O24  1  0.250000  0.579752  0.690596  1
  O  O25  1  0.250000  0.952689  0.986345  1
