# generated using pymatgen
data_Dy4MnRe4Os3
_symmetry_space_group_name_H-M   'P 1'
_cell_length_a   5.37091997
_cell_length_b   5.31395088
_cell_length_c   9.00440200
_cell_angle_alpha   90.00000000
_cell_angle_beta   90.00000000
_cell_angle_gamma   121.11039127
_symmetry_Int_Tables_number   1
_chemical_formula_structural   Dy4MnRe4Os3
_chemical_formula_sum   'Dy4 Mn1 Re4 Os3'
_cell_volume   220.03046633
_cell_formula_units_Z   1
loop_
 _symmetry_equiv_pos_site_id
 _symmetry_equiv_pos_as_xyz
  1  'x, y, z'
loop_
 _atom_site_type_symbol
 _atom_site_label
 _atom_site_symmetry_multiplicity
 _atom_site_fract_x
 _atom_site_fract_y
 _atom_site_fract_z
 _atom_site_occupancy
  Dy  Dy0  1  0.334922  0.668994  0.439189  1
  Dy  Dy1  1  0.666846  0.335011  0.562417  1
  Dy  Dy2  1  0.666846  0.335011  0.937583  1
  Dy  Dy3  1  0.334922  0.668994  0.060811  1
  Mn  Mn4  1  0.166584  0.823588  0.750000  1
  Re  Re5  1  0.832682  0.170478  0.250000  1
  Re  Re6  1  0.831048  0.662652  0.250000  1
  Re  Re7  1  0.341108  0.171676  0.250000  1
  Re  Re8  1  0.168528  0.328688  0.750000  1
  Os  Os9  1  0.004324  0.011303  0.505689  1
  Os  Os10  1  0.004324  0.011303  0.994311  1
  Os  Os11  1  0.647864  0.812304  0.750000  1
