# generated using pymatgen
data_Y2Ho2V3ReB16
_symmetry_space_group_name_H-M   'P 1'
_cell_length_a   3.50138500
_cell_length_b   5.98530338
_cell_length_c   11.58502521
_cell_angle_alpha   90.03136153
_cell_angle_beta   90.00000000
_cell_angle_gamma   90.00000000
_symmetry_Int_Tables_number   1
_chemical_formula_structural   Y2Ho2V3ReB16
_chemical_formula_sum   'Y2 Ho2 V3 Re1 B16'
_cell_volume   242.78561636
_cell_formula_units_Z   1
loop_
 _symmetry_equiv_pos_site_id
 _symmetry_equiv_pos_as_xyz
  1  'x, y, z'
loop_
 _atom_site_type_symbol
 _atom_site_label
 _atom_site_symmetry_multiplicity
 _atom_site_fract_x
 _atom_site_fract_y
 _atom_site_fract_z
 _atom_site_occupancy
  Y  Y0  1  0.500000  0.123689  0.649891  1
  Y  Y1  1  0.500000  0.875671  0.348887  1
  Ho  Ho2  1  0.500000  0.626590  0.848269  1
  Ho  Ho3  1  0.500000  0.375040  0.151223  1
  V  V4  1  0.500000  0.871591  0.082222  1
  V  V5  1  0.500000  0.627055  0.583849  1
  V  V6  1  0.500000  0.373126  0.417380  1
  Re  Re7  1  0.500000  0.128133  0.917049  1
  B  B8  1  0.000000  0.477071  0.692522  1
  B  B9  1  0.000000  0.522934  0.307346  1
  B  B10  1  0.000000  0.976181  0.807677  1
  B  B11  1  0.000000  0.022846  0.192310  1
  B  B12  1  0.000000  0.285757  0.814941  1
  B  B13  1  0.000000  0.714460  0.185186  1
  B  B14  1  0.000000  0.785410  0.685707  1
  B  B15  1  0.000000  0.214199  0.314201  1
  B  B16  1  0.000000  0.365382  0.968296  1
  B  B17  1  0.000000  0.635057  0.032585  1
  B  B18  1  0.000000  0.864109  0.532542  1
  B  B19  1  0.000000  0.135756  0.467288  1
  B  B20  1  0.000000  0.385906  0.547333  1
  B  B21  1  0.000000  0.614471  0.452575  1
  B  B22  1  0.000000  0.885551  0.952976  1
  B  B23  1  0.000000  0.114014  0.047743  1
