# generated using pymatgen
data_HoEr2Tm5(Sc3Si4)4
_symmetry_space_group_name_H-M   'P 1'
_cell_length_a   7.05978512
_cell_length_b   7.34853677
_cell_length_c   13.92107485
_cell_angle_alpha   90.04259424
_cell_angle_beta   89.97998598
_cell_angle_gamma   89.99846840
_symmetry_Int_Tables_number   1
_chemical_formula_structural   HoEr2Tm5(Sc3Si4)4
_chemical_formula_sum   'Ho1 Er2 Tm5 Sc12 Si16'
_cell_volume   722.21245819
_cell_formula_units_Z   1
loop_
 _symmetry_equiv_pos_site_id
 _symmetry_equiv_pos_as_xyz
  1  'x, y, z'
loop_
 _atom_site_type_symbol
 _atom_site_label
 _atom_site_symmetry_multiplicity
 _atom_site_fract_x
 _atom_site_fract_y
 _atom_site_fract_z
 _atom_site_occupancy
  Ho  Ho0  1  0.011983  0.176026  0.095981  1
  Er  Er1  1  0.511908  0.323923  0.404201  1
  Er  Er2  1  0.487952  0.676284  0.596454  1
  Tm  Tm3  1  0.987912  0.823441  0.903180  1
  Tm  Tm4  1  0.488361  0.676446  0.903059  1
  Tm  Tm5  1  0.988232  0.823684  0.596684  1
  Tm  Tm6  1  0.511887  0.323822  0.096492  1
  Tm  Tm7  1  0.011844  0.176375  0.403307  1
  Sc  Sc8  1  0.161155  0.503104  0.749945  1
  Sc  Sc9  1  0.838934  0.497081  0.250109  1
  Sc  Sc10  1  0.339206  0.002784  0.250103  1
  Sc  Sc11  1  0.661097  0.996790  0.750157  1
  Sc  Sc12  1  0.331121  0.176611  0.625678  1
  Sc  Sc13  1  0.668474  0.823074  0.374783  1
  Sc  Sc14  1  0.168386  0.677468  0.374865  1
  Sc  Sc15  1  0.668162  0.822149  0.125393  1
  Sc  Sc16  1  0.831552  0.322596  0.625607  1
  Sc  Sc17  1  0.331751  0.177387  0.874268  1
  Sc  Sc18  1  0.831151  0.323205  0.874243  1
  Sc  Sc19  1  0.168399  0.677301  0.125356  1
  Si  Si20  1  0.033077  0.113817  0.750073  1
  Si  Si21  1  0.966587  0.885533  0.250107  1
  Si  Si22  1  0.466655  0.614144  0.250109  1
  Si  Si23  1  0.533211  0.385823  0.749923  1
  Si  Si24  1  0.285104  0.871086  0.750155  1
  Si  Si25  1  0.714446  0.128660  0.250272  1
  Si  Si26  1  0.215042  0.371526  0.250182  1
  Si  Si27  1  0.785704  0.629098  0.750071  1
  Si  Si28  1  0.158880  0.464959  0.539504  1
  Si  Si29  1  0.841284  0.534841  0.460750  1
  Si  Si30  1  0.339880  0.965326  0.460799  1
  Si  Si31  1  0.840003  0.535445  0.038927  1
  Si  Si32  1  0.659864  0.034631  0.539576  1
  Si  Si33  1  0.159826  0.466101  0.960184  1
  Si  Si34  1  0.659180  0.034615  0.960396  1
  Si  Si35  1  0.341794  0.964847  0.039109  1
