# generated using pymatgen
data_Gd6YVO12
_symmetry_space_group_name_H-M   'P 1'
_cell_length_a   6.72147308
_cell_length_b   6.72147442
_cell_length_c   6.72147344
_cell_angle_alpha   93.46132751
_cell_angle_beta   93.46133219
_cell_angle_gamma   93.46133434
_symmetry_Int_Tables_number   1
_chemical_formula_structural   Gd6YVO12
_chemical_formula_sum   'Gd6 Y1 V1 O12'
_cell_volume   301.93202426
_cell_formula_units_Z   1
loop_
 _symmetry_equiv_pos_site_id
 _symmetry_equiv_pos_as_xyz
  1  'x, y, z'
loop_
 _atom_site_type_symbol
 _atom_site_label
 _atom_site_symmetry_multiplicity
 _atom_site_fract_x
 _atom_site_fract_y
 _atom_site_fract_z
 _atom_site_occupancy
  Gd  Gd0  1  0.738708  0.923906  0.435966  1
  Gd  Gd1  1  0.435966  0.738708  0.923906  1
  Gd  Gd2  1  0.076094  0.564034  0.261292  1
  Gd  Gd3  1  0.923906  0.435966  0.738708  1
  Gd  Gd4  1  0.564034  0.261292  0.076094  1
  Gd  Gd5  1  0.261292  0.076094  0.564034  1
  Y  Y6  1  0.000000  0.000000  0.000000  1
  V  V7  1  0.500000  0.500000  0.500000  1
  O  O8  1  0.066492  0.908049  0.317060  1
  O  O9  1  0.682940  0.933508  0.091951  1
  O  O10  1  0.461019  0.797106  0.587239  1
  O  O11  1  0.091951  0.682940  0.933508  1
  O  O12  1  0.797106  0.587239  0.461019  1
  O  O13  1  0.412761  0.538981  0.202894  1
  O  O14  1  0.587239  0.461019  0.797106  1
  O  O15  1  0.202894  0.412761  0.538981  1
  O  O16  1  0.908049  0.317060  0.066492  1
  O  O17  1  0.538981  0.202894  0.412761  1
  O  O18  1  0.317060  0.066492  0.908049  1
  O  O19  1  0.933508  0.091951  0.682940  1
