# generated using pymatgen
data_TbDy3Y12(CdPt)4
_symmetry_space_group_name_H-M   'P 1'
_cell_length_a   9.71371358
_cell_length_b   9.71435138
_cell_length_c   9.71435100
_cell_angle_alpha   60.00000470
_cell_angle_beta   59.99783268
_cell_angle_gamma   59.99783221
_symmetry_Int_Tables_number   1
_chemical_formula_structural   TbDy3Y12(CdPt)4
_chemical_formula_sum   'Tb1 Dy3 Y12 Cd4 Pt4'
_cell_volume   648.16217295
_cell_formula_units_Z   1
loop_
 _symmetry_equiv_pos_site_id
 _symmetry_equiv_pos_as_xyz
  1  'x, y, z'
loop_
 _atom_site_type_symbol
 _atom_site_label
 _atom_site_symmetry_multiplicity
 _atom_site_fract_x
 _atom_site_fract_y
 _atom_site_fract_z
 _atom_site_occupancy
  Tb  Tb0  1  0.942788  0.352404  0.352404  1
  Dy  Dy1  1  0.352291  0.352248  0.352248  1
  Dy  Dy2  1  0.352291  0.352248  0.943212  1
  Dy  Dy3  1  0.352291  0.943212  0.352248  1
  Y  Y4  1  0.810243  0.189690  0.189690  1
  Y  Y5  1  0.189732  0.810244  0.810244  1
  Y  Y6  1  0.189732  0.810244  0.189781  1
  Y  Y7  1  0.810243  0.189690  0.810378  1
  Y  Y8  1  0.189732  0.189781  0.810244  1
  Y  Y9  1  0.810243  0.810378  0.189690  1
  Y  Y10  1  0.935398  0.564632  0.564632  1
  Y  Y11  1  0.564597  0.935412  0.935412  1
  Y  Y12  1  0.564597  0.935412  0.564579  1
  Y  Y13  1  0.935398  0.564632  0.935337  1
  Y  Y14  1  0.564597  0.564579  0.935412  1
  Y  Y15  1  0.935398  0.935337  0.564632  1
  Cd  Cd16  1  0.582039  0.582255  0.582255  1
  Cd  Cd17  1  0.582039  0.582255  0.253451  1
  Cd  Cd18  1  0.582039  0.253451  0.582255  1
  Cd  Cd19  1  0.253495  0.582168  0.582168  1
  Pt  Pt20  1  0.144195  0.143580  0.143580  1
  Pt  Pt21  1  0.144195  0.143580  0.568644  1
  Pt  Pt22  1  0.144195  0.568644  0.143580  1
  Pt  Pt23  1  0.568230  0.143923  0.143923  1
