# generated using pymatgen
data_PrNd4Th3(Si3Pd)4
_symmetry_space_group_name_H-M   'P 1'
_cell_length_a   8.26375576
_cell_length_b   8.26375602
_cell_length_c   8.53944700
_cell_angle_alpha   90.00000000
_cell_angle_beta   90.00000000
_cell_angle_gamma   120.10938637
_symmetry_Int_Tables_number   1
_chemical_formula_structural   PrNd4Th3(Si3Pd)4
_chemical_formula_sum   'Pr1 Nd4 Th3 Si12 Pd4'
_cell_volume   504.47027558
_cell_formula_units_Z   1
loop_
 _symmetry_equiv_pos_site_id
 _symmetry_equiv_pos_as_xyz
  1  'x, y, z'
loop_
 _atom_site_type_symbol
 _atom_site_label
 _atom_site_symmetry_multiplicity
 _atom_site_fract_x
 _atom_site_fract_y
 _atom_site_fract_z
 _atom_site_occupancy
  Pr  Pr0  1  0.999990  0.000010  0.250000  1
  Nd  Nd1  1  0.499591  0.500409  0.750000  1
  Nd  Nd2  1  0.500468  0.499532  0.250000  1
  Nd  Nd3  1  0.999103  0.499557  0.250000  1
  Nd  Nd4  1  0.500443  0.000897  0.250000  1
  Th  Th5  1  0.000691  0.500385  0.750000  1
  Th  Th6  1  0.499615  0.999309  0.750000  1
  Th  Th7  1  0.000010  0.999990  0.750000  1
  Si  Si8  1  0.834359  0.165641  0.998663  1
  Si  Si9  1  0.165663  0.834337  0.999104  1
  Si  Si10  1  0.331807  0.165635  0.998766  1
  Si  Si11  1  0.165663  0.834337  0.500896  1
  Si  Si12  1  0.668170  0.834368  0.999247  1
  Si  Si13  1  0.834359  0.165641  0.501337  1
  Si  Si14  1  0.834365  0.668193  0.998766  1
  Si  Si15  1  0.668170  0.834368  0.500753  1
  Si  Si16  1  0.165632  0.331830  0.999247  1
  Si  Si17  1  0.331807  0.165635  0.501234  1
  Si  Si18  1  0.165632  0.331830  0.500753  1
  Si  Si19  1  0.834365  0.668193  0.501234  1
  Pd  Pd20  1  0.667008  0.332992  0.996762  1
  Pd  Pd21  1  0.333040  0.666960  0.999768  1
  Pd  Pd22  1  0.333040  0.666960  0.500232  1
  Pd  Pd23  1  0.667008  0.332992  0.503238  1
