# generated using pymatgen
data_Tm4FeRu7
_symmetry_space_group_name_H-M   'P 1'
_cell_length_a   5.30413400
_cell_length_b   5.17365816
_cell_length_c   8.85134400
_cell_angle_alpha   90.00000000
_cell_angle_beta   90.00000000
_cell_angle_gamma   120.83782570
_symmetry_Int_Tables_number   1
_chemical_formula_structural   Tm4FeRu7
_chemical_formula_sum   'Tm4 Fe1 Ru7'
_cell_volume   208.55628448
_cell_formula_units_Z   1
loop_
 _symmetry_equiv_pos_site_id
 _symmetry_equiv_pos_as_xyz
  1  'x, y, z'
loop_
 _atom_site_type_symbol
 _atom_site_label
 _atom_site_symmetry_multiplicity
 _atom_site_fract_x
 _atom_site_fract_y
 _atom_site_fract_z
 _atom_site_occupancy
  Tm  Tm0  1  0.332051  0.664104  0.434357  1
  Tm  Tm1  1  0.667956  0.335912  0.567265  1
  Tm  Tm2  1  0.667956  0.335912  0.932735  1
  Tm  Tm3  1  0.332051  0.664104  0.065643  1
  Fe  Fe4  1  0.165495  0.330990  0.750000  1
  Ru  Ru5  1  0.172894  0.825074  0.750000  1
  Ru  Ru6  1  0.343998  0.170640  0.250000  1
  Ru  Ru7  1  0.831432  0.662866  0.250000  1
  Ru  Ru8  1  0.652180  0.825074  0.750000  1
  Ru  Ru9  1  0.003671  0.007343  0.997875  1
  Ru  Ru10  1  0.826642  0.170640  0.250000  1
  Ru  Ru11  1  0.003671  0.007343  0.502125  1
