# generated using pymatgen
data_Sc10Si5Sn
_symmetry_space_group_name_H-M   'P 1'
_cell_length_a   7.98290200
_cell_length_b   7.99855141
_cell_length_c   5.87367100
_cell_angle_alpha   90.00000000
_cell_angle_beta   90.00000000
_cell_angle_gamma   119.93529129
_symmetry_Int_Tables_number   1
_chemical_formula_structural   Sc10Si5Sn
_chemical_formula_sum   'Sc10 Si5 Sn1'
_cell_volume   325.00885876
_cell_formula_units_Z   1
loop_
 _symmetry_equiv_pos_site_id
 _symmetry_equiv_pos_as_xyz
  1  'x, y, z'
loop_
 _atom_site_type_symbol
 _atom_site_label
 _atom_site_symmetry_multiplicity
 _atom_site_fract_x
 _atom_site_fract_y
 _atom_site_fract_z
 _atom_site_occupancy
  Sc  Sc0  1  0.987848  0.749300  0.750000  1
  Sc  Sc1  1  0.999069  0.241808  0.250000  1
  Sc  Sc2  1  0.757260  0.758192  0.250000  1
  Sc  Sc3  1  0.768075  0.000000  0.750000  1
  Sc  Sc4  1  0.238548  0.250700  0.750000  1
  Sc  Sc5  1  0.238519  0.000000  0.250000  1
  Sc  Sc6  1  0.331486  0.656929  0.496488  1
  Sc  Sc7  1  0.674558  0.343071  0.003512  1
  Sc  Sc8  1  0.674558  0.343071  0.496488  1
  Sc  Sc9  1  0.331486  0.656929  0.003512  1
  Si  Si10  1  0.394529  0.392686  0.250000  1
  Si  Si11  1  0.001843  0.607314  0.250000  1
  Si  Si12  1  0.998138  0.395175  0.750000  1
  Si  Si13  1  0.602963  0.604825  0.750000  1
  Si  Si14  1  0.605468  0.000000  0.250000  1
  Sn  Sn15  1  0.395653  0.000000  0.750000  1
