# generated using pymatgen
data_Dy6LuS8
_symmetry_space_group_name_H-M   'P 1'
_cell_length_a   7.84269781
_cell_length_b   7.84249042
_cell_length_c   7.83985500
_cell_angle_alpha   120.01877860
_cell_angle_beta   89.94353484
_cell_angle_gamma   120.01751877
_symmetry_Int_Tables_number   1
_chemical_formula_structural   Dy6LuS8
_chemical_formula_sum   'Dy6 Lu1 S8'
_cell_volume   340.94789158
_cell_formula_units_Z   1
loop_
 _symmetry_equiv_pos_site_id
 _symmetry_equiv_pos_as_xyz
  1  'x, y, z'
loop_
 _atom_site_type_symbol
 _atom_site_label
 _atom_site_symmetry_multiplicity
 _atom_site_fract_x
 _atom_site_fract_y
 _atom_site_fract_z
 _atom_site_occupancy
  Dy  Dy0  1  0.249988  0.000012  0.249986  1
  Dy  Dy1  1  0.249987  0.499980  0.249997  1
  Dy  Dy2  1  0.750023  0.000021  0.250001  1
  Dy  Dy3  1  0.249992  0.000012  0.750028  1
  Dy  Dy4  1  0.750022  0.000013  0.750023  1
  Dy  Dy5  1  0.750009  0.500041  0.750011  1
  Lu  Lu6  1  0.250043  0.500006  0.750003  1
  S  S7  1  0.999985  0.999960  0.999950  1
  S  S8  1  0.499966  0.999950  0.499987  1
  S  S9  1  0.005765  0.011500  0.505690  1
  S  S10  1  0.005685  0.499945  0.505643  1
  S  S11  1  0.494125  0.499959  0.505814  1
  S  S12  1  0.005887  0.500078  0.994249  1
  S  S13  1  0.494306  0.500056  0.994323  1
  S  S14  1  0.494221  0.988471  0.994304  1
