# generated using pymatgen
data_Ba3Fe4O9
_symmetry_space_group_name_H-M   'P 1'
_cell_length_a   7.15271241
_cell_length_b   8.48899983
_cell_length_c   10.25449395
_cell_angle_alpha   85.27700862
_cell_angle_beta   72.77684668
_cell_angle_gamma   74.51673556
_symmetry_Int_Tables_number   1
_chemical_formula_structural   Ba3Fe4O9
_chemical_formula_sum   'Ba6 Fe8 O18'
_cell_volume   573.13904071
_cell_formula_units_Z   2
loop_
 _symmetry_equiv_pos_site_id
 _symmetry_equiv_pos_as_xyz
  1  'x, y, z'
loop_
 _atom_site_type_symbol
 _atom_site_label
 _atom_site_symmetry_multiplicity
 _atom_site_fract_x
 _atom_site_fract_y
 _atom_site_fract_z
 _atom_site_occupancy
  Ba  Ba0  1  0.053915  0.054445  0.689048  1
  Ba  Ba1  1  0.182911  0.566329  0.668204  1
  Ba  Ba2  1  0.309766  0.216756  0.963667  1
  Ba  Ba3  1  0.690234  0.783244  0.036333  1
  Ba  Ba4  1  0.817089  0.433671  0.331796  1
  Ba  Ba5  1  0.946085  0.945555  0.310952  1
  Fe  Fe6  1  0.400504  0.173380  0.301329  1
  Fe  Fe7  1  0.337419  0.551987  0.231965  1
  Fe  Fe8  1  0.742708  0.258260  0.060852  1
  Fe  Fe9  1  0.562340  0.188887  0.583668  1
  Fe  Fe10  1  0.437660  0.811113  0.416332  1
  Fe  Fe11  1  0.257292  0.741740  0.939148  1
  Fe  Fe12  1  0.662581  0.448013  0.768035  1
  Fe  Fe13  1  0.599496  0.826620  0.698671  1
  O  O14  1  0.253458  0.019595  0.393451  1
  O  O15  1  0.217613  0.372007  0.266239  1
  O  O16  1  0.215406  0.728232  0.132102  1
  O  O17  1  0.567910  0.106815  0.118642  1
  O  O18  1  0.032293  0.808648  0.874580  1
  O  O19  1  0.301489  0.239293  0.698704  1
  O  O20  1  0.300907  0.647963  0.403019  1
  O  O21  1  0.586689  0.201137  0.391522  1
  O  O22  1  0.618477  0.477721  0.135675  1
  O  O23  1  0.381523  0.522279  0.864325  1
  O  O24  1  0.413311  0.798863  0.608478  1
  O  O25  1  0.699093  0.352037  0.596981  1
  O  O26  1  0.698511  0.760707  0.301296  1
  O  O27  1  0.967707  0.191352  0.125420  1
  O  O28  1  0.432090  0.893185  0.881358  1
  O  O29  1  0.784594  0.271768  0.867898  1
  O  O30  1  0.782387  0.627993  0.733761  1
  O  O31  1  0.746542  0.980405  0.606549  1
