# generated using pymatgen
data_Er3Mn8CuP6
_symmetry_space_group_name_H-M   'P 1'
_cell_length_a   3.65294800
_cell_length_b   10.78718000
_cell_length_c   12.63289000
_cell_angle_alpha   90.00000000
_cell_angle_beta   90.00000000
_cell_angle_gamma   90.00000000
_symmetry_Int_Tables_number   1
_chemical_formula_structural   Er3Mn8CuP6
_chemical_formula_sum   'Er6 Mn16 Cu2 P12'
_cell_volume   497.79912654
_cell_formula_units_Z   2
loop_
 _symmetry_equiv_pos_site_id
 _symmetry_equiv_pos_as_xyz
  1  'x, y, z'
loop_
 _atom_site_type_symbol
 _atom_site_label
 _atom_site_symmetry_multiplicity
 _atom_site_fract_x
 _atom_site_fract_y
 _atom_site_fract_z
 _atom_site_occupancy
  Er  Er0  1  0.750000  0.250000  0.471153  1
  Er  Er1  1  0.250000  0.750000  0.528847  1
  Er  Er2  1  0.250000  0.931581  0.794509  1
  Er  Er3  1  0.250000  0.568419  0.794509  1
  Er  Er4  1  0.750000  0.068419  0.205491  1
  Er  Er5  1  0.750000  0.431581  0.205491  1
  Mn  Mn6  1  0.250000  0.250000  0.832359  1
  Mn  Mn7  1  0.750000  0.750000  0.167641  1
  Mn  Mn8  1  0.750000  0.250000  0.007989  1
  Mn  Mn9  1  0.250000  0.750000  0.992011  1
  Mn  Mn10  1  0.250000  0.417307  0.002454  1
  Mn  Mn11  1  0.250000  0.082693  0.002454  1
  Mn  Mn12  1  0.750000  0.582693  0.997546  1
  Mn  Mn13  1  0.750000  0.917307  0.997546  1
  Mn  Mn14  1  0.250000  0.450484  0.566858  1
  Mn  Mn15  1  0.250000  0.049516  0.566858  1
  Mn  Mn16  1  0.750000  0.549516  0.433142  1
  Mn  Mn17  1  0.750000  0.950484  0.433142  1
  Mn  Mn18  1  0.250000  0.867681  0.297413  1
  Mn  Mn19  1  0.250000  0.632319  0.297413  1
  Mn  Mn20  1  0.750000  0.132319  0.702587  1
  Mn  Mn21  1  0.750000  0.367681  0.702587  1
  Cu  Cu22  1  0.250000  0.250000  0.295385  1
  Cu  Cu23  1  0.750000  0.750000  0.704615  1
  P  P24  1  0.250000  0.250000  0.117160  1
  P  P25  1  0.750000  0.750000  0.882840  1
  P  P26  1  0.250000  0.250000  0.639750  1
  P  P27  1  0.750000  0.750000  0.360250  1
  P  P28  1  0.250000  0.436303  0.382715  1
  P  P29  1  0.250000  0.063697  0.382715  1
  P  P30  1  0.750000  0.563697  0.617285  1
  P  P31  1  0.750000  0.936303  0.617285  1
  P  P32  1  0.250000  0.904439  0.114894  1
  P  P33  1  0.250000  0.595561  0.114894  1
  P  P34  1  0.750000  0.095561  0.885106  1
  P  P35  1  0.750000  0.404439  0.885106  1
