# generated using pymatgen
data_Ta2Nb4V4Si6B
_symmetry_space_group_name_H-M   'P 1'
_cell_length_a   7.46847823
_cell_length_b   7.47159163
_cell_length_c   5.04231203
_cell_angle_alpha   89.98702429
_cell_angle_beta   90.00648493
_cell_angle_gamma   120.01378800
_symmetry_Int_Tables_number   1
_chemical_formula_structural   Ta2Nb4V4Si6B
_chemical_formula_sum   'Ta2 Nb4 V4 Si6 B1'
_cell_volume   243.63811352
_cell_formula_units_Z   1
loop_
 _symmetry_equiv_pos_site_id
 _symmetry_equiv_pos_as_xyz
  1  'x, y, z'
loop_
 _atom_site_type_symbol
 _atom_site_label
 _atom_site_symmetry_multiplicity
 _atom_site_fract_x
 _atom_site_fract_y
 _atom_site_fract_z
 _atom_site_occupancy
  Ta  Ta0  1  0.754385  0.753883  0.754150  1
  Ta  Ta1  1  0.245615  0.999498  0.754150  1
  Nb  Nb2  1  0.000000  0.753416  0.245422  1
  Nb  Nb3  1  0.247300  0.246521  0.246257  1
  Nb  Nb4  1  0.752700  0.999221  0.246257  1
  Nb  Nb5  1  0.000000  0.246353  0.753443  1
  V  V6  1  0.333810  0.667474  0.500766  1
  V  V7  1  0.666190  0.333663  0.500766  1
  V  V8  1  0.666379  0.333489  0.999287  1
  V  V9  1  0.333621  0.667111  0.999287  1
  Si  Si10  1  0.000000  0.403990  0.247350  1
  Si  Si11  1  0.595847  0.595834  0.247425  1
  Si  Si12  1  0.404153  0.999987  0.247425  1
  Si  Si13  1  0.000000  0.595357  0.752746  1
  Si  Si14  1  0.404180  0.404202  0.752618  1
  Si  Si15  1  0.595820  0.000022  0.752618  1
  B  B16  1  0.000000  0.999979  0.500033  1
