# generated using pymatgen
data_NaSr(CaB12)2
_symmetry_space_group_name_H-M   'P 1'
_cell_length_a   7.19697800
_cell_length_b   7.19697922
_cell_length_c   5.88147000
_cell_angle_alpha   90.00000000
_cell_angle_beta   90.00000000
_cell_angle_gamma   109.42397422
_symmetry_Int_Tables_number   1
_chemical_formula_structural   NaSr(CaB12)2
_chemical_formula_sum   'Na1 Sr1 Ca2 B24'
_cell_volume   287.30057688
_cell_formula_units_Z   1
loop_
 _symmetry_equiv_pos_site_id
 _symmetry_equiv_pos_as_xyz
  1  'x, y, z'
loop_
 _atom_site_type_symbol
 _atom_site_label
 _atom_site_symmetry_multiplicity
 _atom_site_fract_x
 _atom_site_fract_y
 _atom_site_fract_z
 _atom_site_occupancy
  Na  Na0  1  0.748344  0.251656  0.500000  1
  Sr  Sr1  1  0.998194  0.001806  0.000000  1
  Ca  Ca2  1  0.501544  0.498456  0.000000  1
  Ca  Ca3  1  0.251741  0.748259  0.500000  1
  B  B4  1  0.175470  0.325793  0.648797  1
  B  B5  1  0.925325  0.574650  0.149825  1
  B  B6  1  0.674207  0.824530  0.648797  1
  B  B7  1  0.425350  0.074675  0.149825  1
  B  B8  1  0.175470  0.325793  0.351203  1
  B  B9  1  0.925325  0.574650  0.850175  1
  B  B10  1  0.674207  0.824530  0.351203  1
  B  B11  1  0.425350  0.074675  0.850175  1
  B  B12  1  0.400738  0.399269  0.500000  1
  B  B13  1  0.149862  0.649843  0.000000  1
  B  B14  1  0.898683  0.899995  0.500000  1
  B  B15  1  0.649417  0.149551  0.000000  1
  B  B16  1  0.325726  0.175280  0.648786  1
  B  B17  1  0.075277  0.426010  0.149886  1
  B  B18  1  0.824720  0.674274  0.648786  1
  B  B19  1  0.573990  0.924723  0.149886  1
  B  B20  1  0.100005  0.101317  0.500000  1
  B  B21  1  0.850449  0.350583  0.000000  1
  B  B22  1  0.600731  0.599262  0.500000  1
  B  B23  1  0.350157  0.850138  0.000000  1
  B  B24  1  0.325726  0.175280  0.351214  1
  B  B25  1  0.075277  0.426010  0.850114  1
  B  B26  1  0.824720  0.674274  0.351214  1
  B  B27  1  0.573990  0.924723  0.850114  1
