# generated using pymatgen
data_Nd2Y18Si15Pd
_symmetry_space_group_name_H-M   'P 1'
_cell_length_a   7.43539890
_cell_length_b   7.77904370
_cell_length_c   14.71042898
_cell_angle_alpha   89.72779822
_cell_angle_beta   89.97842966
_cell_angle_gamma   89.87457845
_symmetry_Int_Tables_number   1
_chemical_formula_structural   Nd2Y18Si15Pd
_chemical_formula_sum   'Nd2 Y18 Si15 Pd1'
_cell_volume   850.84382482
_cell_formula_units_Z   1
loop_
 _symmetry_equiv_pos_site_id
 _symmetry_equiv_pos_as_xyz
  1  'x, y, z'
loop_
 _atom_site_type_symbol
 _atom_site_label
 _atom_site_symmetry_multiplicity
 _atom_site_fract_x
 _atom_site_fract_y
 _atom_site_fract_z
 _atom_site_occupancy
  Nd  Nd0  1  0.523918  0.568371  0.343911  1
  Nd  Nd1  1  0.024498  0.431729  0.655272  1
  Y  Y2  1  0.811974  0.575498  0.874321  1
  Y  Y3  1  0.315653  0.423659  0.126500  1
  Y  Y4  1  0.182394  0.927906  0.373292  1
  Y  Y5  1  0.682495  0.070396  0.626583  1
  Y  Y6  1  0.182535  0.928210  0.627686  1
  Y  Y7  1  0.682662  0.070664  0.372253  1
  Y  Y8  1  0.814688  0.572492  0.127002  1
  Y  Y9  1  0.317150  0.426372  0.872389  1
  Y  Y10  1  0.643952  0.231108  0.999627  1
  Y  Y11  1  0.155099  0.759781  0.000647  1
  Y  Y12  1  0.351733  0.263972  0.499953  1
  Y  Y13  1  0.851060  0.734681  0.499916  1
  Y  Y14  1  0.474671  0.933591  0.843805  1
  Y  Y15  1  0.973527  0.067014  0.153747  1
  Y  Y16  1  0.474011  0.933340  0.155825  1
  Y  Y17  1  0.972721  0.067663  0.846838  1
  Y  Y18  1  0.527786  0.566378  0.652911  1
  Y  Y19  1  0.028191  0.434102  0.347394  1
  Si  Si20  1  0.018636  0.351398  0.999793  1
  Si  Si21  1  0.477374  0.855801  0.500611  1
  Si  Si22  1  0.978264  0.143641  0.499433  1
  Si  Si23  1  0.649630  0.277992  0.789715  1
  Si  Si24  1  0.151884  0.720986  0.210146  1
  Si  Si25  1  0.352301  0.218624  0.289549  1
  Si  Si26  1  0.851992  0.781080  0.711288  1
  Si  Si27  1  0.358203  0.220967  0.709383  1
  Si  Si28  1  0.857446  0.778780  0.289797  1
  Si  Si29  1  0.645692  0.272782  0.207815  1
  Si  Si30  1  0.147331  0.725356  0.792014  1
  Si  Si31  1  0.773196  0.880727  0.000903  1
  Si  Si32  1  0.259254  0.124602  0.999403  1
  Si  Si33  1  0.234996  0.625814  0.501022  1
  Si  Si34  1  0.734029  0.374582  0.498945  1
  Pd  Pd35  1  0.519054  0.659941  0.000314  1
