# generated using pymatgen
data_RbNi9As5
_symmetry_space_group_name_H-M   'P 1'
_cell_length_a   6.75402200
_cell_length_b   6.75402232
_cell_length_c   11.38973100
_cell_angle_alpha   90.00000000
_cell_angle_beta   90.00000000
_cell_angle_gamma   119.99999843
_symmetry_Int_Tables_number   1
_chemical_formula_structural   RbNi9As5
_chemical_formula_sum   'Rb2 Ni18 As10'
_cell_volume   449.95498554
_cell_formula_units_Z   2
loop_
 _symmetry_equiv_pos_site_id
 _symmetry_equiv_pos_as_xyz
  1  'x, y, z'
loop_
 _atom_site_type_symbol
 _atom_site_label
 _atom_site_symmetry_multiplicity
 _atom_site_fract_x
 _atom_site_fract_y
 _atom_site_fract_z
 _atom_site_occupancy
  Rb  Rb0  1  0.000000  0.000000  0.000000  1
  Rb  Rb1  1  0.000000  0.000000  0.500000  1
  Ni  Ni2  1  0.536135  0.463865  0.107544  1
  Ni  Ni3  1  0.072270  0.536135  0.607544  1
  Ni  Ni4  1  0.463865  0.927730  0.607544  1
  Ni  Ni5  1  0.536135  0.072270  0.107544  1
  Ni  Ni6  1  0.927730  0.463865  0.107544  1
  Ni  Ni7  1  0.072270  0.536135  0.892456  1
  Ni  Ni8  1  0.463865  0.927730  0.892456  1
  Ni  Ni9  1  0.463865  0.536135  0.607544  1
  Ni  Ni10  1  0.463865  0.536135  0.892456  1
  Ni  Ni11  1  0.536135  0.463865  0.392456  1
  Ni  Ni12  1  0.927730  0.463865  0.392456  1
  Ni  Ni13  1  0.536135  0.072270  0.392456  1
  Ni  Ni14  1  0.209447  0.790553  0.250000  1
  Ni  Ni15  1  0.418895  0.209447  0.750000  1
  Ni  Ni16  1  0.790553  0.581105  0.750000  1
  Ni  Ni17  1  0.209447  0.418895  0.250000  1
  Ni  Ni18  1  0.581105  0.790553  0.250000  1
  Ni  Ni19  1  0.790553  0.209447  0.750000  1
  As  As20  1  0.827025  0.172975  0.250000  1
  As  As21  1  0.654049  0.827025  0.750000  1
  As  As22  1  0.172975  0.345951  0.750000  1
  As  As23  1  0.827025  0.654049  0.250000  1
  As  As24  1  0.345951  0.172975  0.250000  1
  As  As25  1  0.172975  0.827025  0.750000  1
  As  As26  1  0.333333  0.666667  0.060861  1
  As  As27  1  0.666667  0.333333  0.560861  1
  As  As28  1  0.666667  0.333333  0.939139  1
  As  As29  1  0.333333  0.666667  0.439139  1
