# generated using pymatgen
data_SmTm2Al7Cu2
_symmetry_space_group_name_H-M   'P 1'
_cell_length_a   9.06638300
_cell_length_b   9.06638332
_cell_length_c   9.06638200
_cell_angle_alpha   35.18261810
_cell_angle_beta   35.18261524
_cell_angle_gamma   35.18261624
_symmetry_Int_Tables_number   1
_chemical_formula_structural   SmTm2Al7Cu2
_chemical_formula_sum   'Sm1 Tm2 Al7 Cu2'
_cell_volume   220.98070206
_cell_formula_units_Z   1
loop_
 _symmetry_equiv_pos_site_id
 _symmetry_equiv_pos_as_xyz
  1  'x, y, z'
loop_
 _atom_site_type_symbol
 _atom_site_label
 _atom_site_symmetry_multiplicity
 _atom_site_fract_x
 _atom_site_fract_y
 _atom_site_fract_z
 _atom_site_occupancy
  Sm  Sm0  1  0.000000  0.000000  0.000000  1
  Tm  Tm1  1  0.142399  0.142399  0.142399  1
  Tm  Tm2  1  0.857601  0.857601  0.857601  1
  Al  Al3  1  0.582389  0.582389  0.073591  1
  Al  Al4  1  0.926410  0.417610  0.417612  1
  Al  Al5  1  0.417610  0.926410  0.417612  1
  Al  Al6  1  0.500000  0.500000  0.500000  1
  Al  Al7  1  0.582390  0.073590  0.582388  1
  Al  Al8  1  0.073590  0.582390  0.582388  1
  Al  Al9  1  0.417611  0.417611  0.926409  1
  Cu  Cu10  1  0.335104  0.335104  0.335104  1
  Cu  Cu11  1  0.664897  0.664897  0.664897  1
