# generated using pymatgen
data_Ca6IrAu
_symmetry_space_group_name_H-M   'P 1'
_cell_length_a   6.65625000
_cell_length_b   7.80964800
_cell_length_c   9.57280800
_cell_angle_alpha   90.00000000
_cell_angle_beta   90.00000000
_cell_angle_gamma   90.00000000
_symmetry_Int_Tables_number   1
_chemical_formula_structural   Ca6IrAu
_chemical_formula_sum   'Ca12 Ir2 Au2'
_cell_volume   497.62298629
_cell_formula_units_Z   2
loop_
 _symmetry_equiv_pos_site_id
 _symmetry_equiv_pos_as_xyz
  1  'x, y, z'
loop_
 _atom_site_type_symbol
 _atom_site_label
 _atom_site_symmetry_multiplicity
 _atom_site_fract_x
 _atom_site_fract_y
 _atom_site_fract_z
 _atom_site_occupancy
  Ca  Ca0  1  0.653075  0.155689  0.432723  1
  Ca  Ca1  1  0.153075  0.344311  0.567277  1
  Ca  Ca2  1  0.835180  0.683385  0.062642  1
  Ca  Ca3  1  0.335180  0.816615  0.937358  1
  Ca  Ca4  1  0.154075  0.034488  0.250000  1
  Ca  Ca5  1  0.654075  0.465512  0.750000  1
  Ca  Ca6  1  0.374518  0.542547  0.250000  1
  Ca  Ca7  1  0.874518  0.957453  0.750000  1
  Ca  Ca8  1  0.653075  0.155689  0.067277  1
  Ca  Ca9  1  0.153075  0.344311  0.932723  1
  Ca  Ca10  1  0.835180  0.683385  0.437358  1
  Ca  Ca11  1  0.335180  0.816615  0.562642  1
  Ir  Ir12  1  0.044044  0.628178  0.750000  1
  Ir  Ir13  1  0.544044  0.871822  0.250000  1
  Au  Au14  1  0.450852  0.122009  0.750000  1
  Au  Au15  1  0.950852  0.377991  0.250000  1
