# generated using pymatgen
data_CdIr4Pb3O14
_symmetry_space_group_name_H-M   'P 1'
_cell_length_a   7.36795011
_cell_length_b   7.36795003
_cell_length_c   7.29676447
_cell_angle_alpha   59.67675009
_cell_angle_beta   59.67675195
_cell_angle_gamma   59.99999995
_symmetry_Int_Tables_number   1
_chemical_formula_structural   CdIr4Pb3O14
_chemical_formula_sum   'Cd1 Ir4 Pb3 O14'
_cell_volume   278.72080394
_cell_formula_units_Z   1
loop_
 _symmetry_equiv_pos_site_id
 _symmetry_equiv_pos_as_xyz
  1  'x, y, z'
loop_
 _atom_site_type_symbol
 _atom_site_label
 _atom_site_symmetry_multiplicity
 _atom_site_fract_x
 _atom_site_fract_y
 _atom_site_fract_z
 _atom_site_occupancy
  Cd  Cd0  1  0.125000  0.125000  0.625000  1
  Ir  Ir1  1  0.125000  0.625000  0.625000  1
  Ir  Ir2  1  0.625000  0.125000  0.625000  1
  Ir  Ir3  1  0.625000  0.625000  0.125000  1
  Ir  Ir4  1  0.625000  0.625000  0.625000  1
  Pb  Pb5  1  0.625000  0.125000  0.125000  1
  Pb  Pb6  1  0.125000  0.625000  0.125000  1
  Pb  Pb7  1  0.125000  0.125000  0.125000  1
  O  O8  1  0.705223  0.705223  0.293029  1
  O  O9  1  0.301145  0.301145  0.706764  1
  O  O10  1  0.690946  0.301145  0.706764  1
  O  O11  1  0.296524  0.705223  0.293029  1
  O  O12  1  0.301145  0.690946  0.706764  1
  O  O13  1  0.705223  0.296524  0.293029  1
  O  O14  1  0.544777  0.544777  0.956971  1
  O  O15  1  0.948855  0.948855  0.543236  1
  O  O16  1  0.559054  0.948855  0.543236  1
  O  O17  1  0.953476  0.544777  0.956971  1
  O  O18  1  0.948855  0.559054  0.543236  1
  O  O19  1  0.544777  0.953476  0.956971  1
  O  O20  1  0.243597  0.243597  0.269208  1
  O  O21  1  0.006403  0.006403  0.980792  1
