# generated using pymatgen
data_Dy3ErAl4OsPt3
_symmetry_space_group_name_H-M   'P 1'
_cell_length_a   4.35570500
_cell_length_b   6.83366028
_cell_length_c   7.87324305
_cell_angle_alpha   89.87657685
_cell_angle_beta   90.00000000
_cell_angle_gamma   90.00000000
_symmetry_Int_Tables_number   1
_chemical_formula_structural   Dy3ErAl4OsPt3
_chemical_formula_sum   'Dy3 Er1 Al4 Os1 Pt3'
_cell_volume   234.34974974
_cell_formula_units_Z   1
loop_
 _symmetry_equiv_pos_site_id
 _symmetry_equiv_pos_as_xyz
  1  'x, y, z'
loop_
 _atom_site_type_symbol
 _atom_site_label
 _atom_site_symmetry_multiplicity
 _atom_site_fract_x
 _atom_site_fract_y
 _atom_site_fract_z
 _atom_site_occupancy
  Dy  Dy0  1  0.250000  0.471094  0.181423  1
  Dy  Dy1  1  0.750000  0.532871  0.814230  1
  Dy  Dy2  1  0.250000  0.967591  0.322191  1
  Er  Er3  1  0.750000  0.021698  0.678988  1
  Al  Al4  1  0.250000  0.856413  0.935824  1
  Al  Al5  1  0.750000  0.142377  0.061360  1
  Al  Al6  1  0.750000  0.645761  0.440419  1
  Al  Al7  1  0.250000  0.359637  0.562949  1
  Os  Os8  1  0.250000  0.734175  0.620716  1
  Pt  Pt9  1  0.750000  0.269196  0.380060  1
  Pt  Pt10  1  0.750000  0.769709  0.119327  1
  Pt  Pt11  1  0.250000  0.229479  0.882513  1
