# generated using pymatgen
data_Pr3Er2ThGa4
_symmetry_space_group_name_H-M   'P 1'
_cell_length_a   7.76277726
_cell_length_b   7.76277726
_cell_length_c   4.53870900
_cell_angle_alpha   90.00000000
_cell_angle_beta   90.00000000
_cell_angle_gamma   89.69633732
_symmetry_Int_Tables_number   1
_chemical_formula_structural   Pr3Er2ThGa4
_chemical_formula_sum   'Pr3 Er2 Th1 Ga4'
_cell_volume   273.50198887
_cell_formula_units_Z   1
loop_
 _symmetry_equiv_pos_site_id
 _symmetry_equiv_pos_as_xyz
  1  'x, y, z'
loop_
 _atom_site_type_symbol
 _atom_site_label
 _atom_site_symmetry_multiplicity
 _atom_site_fract_x
 _atom_site_fract_y
 _atom_site_fract_z
 _atom_site_occupancy
  Pr  Pr0  1  0.825410  0.324436  0.500001  1
  Pr  Pr1  1  0.175563  0.674591  0.500001  1
  Pr  Pr2  1  0.674444  0.825557  0.500001  1
  Er  Er3  1  0.000061  0.999666  0.000000  1
  Er  Er4  1  0.500333  0.499938  0.000000  1
  Th  Th5  1  0.325956  0.174043  0.500001  1
  Ga  Ga6  1  0.617092  0.121430  0.000000  1
  Ga  Ga7  1  0.122222  0.377779  0.000000  1
  Ga  Ga8  1  0.880348  0.619652  0.000000  1
  Ga  Ga9  1  0.378571  0.882908  0.000000  1
