# generated using pymatgen
data_Dy8HoSc(SiB4)4
_symmetry_space_group_name_H-M   'P 1'
_cell_length_a   7.19835100
_cell_length_b   7.19835100
_cell_length_c   8.01411000
_cell_angle_alpha   90.00000000
_cell_angle_beta   90.00000000
_cell_angle_gamma   90.00000000
_symmetry_Int_Tables_number   1
_chemical_formula_structural   Dy8HoSc(SiB4)4
_chemical_formula_sum   'Dy8 Ho1 Sc1 Si4 B16'
_cell_volume   415.26118434
_cell_formula_units_Z   1
loop_
 _symmetry_equiv_pos_site_id
 _symmetry_equiv_pos_as_xyz
  1  'x, y, z'
loop_
 _atom_site_type_symbol
 _atom_site_label
 _atom_site_symmetry_multiplicity
 _atom_site_fract_x
 _atom_site_fract_y
 _atom_site_fract_z
 _atom_site_occupancy
  Dy  Dy0  1  0.680985  0.179638  0.226170  1
  Dy  Dy1  1  0.319015  0.820362  0.773830  1
  Dy  Dy2  1  0.319015  0.820362  0.226170  1
  Dy  Dy3  1  0.820362  0.680985  0.226170  1
  Dy  Dy4  1  0.820362  0.680985  0.773830  1
  Dy  Dy5  1  0.680985  0.179638  0.773830  1
  Dy  Dy6  1  0.179638  0.319015  0.773830  1
  Dy  Dy7  1  0.179638  0.319015  0.226170  1
  Ho  Ho8  1  0.500000  0.500000  0.500000  1
  Sc  Sc9  1  0.000000  0.000000  0.500000  1
  Si  Si10  1  0.111036  0.621655  0.500000  1
  Si  Si11  1  0.888964  0.378345  0.500000  1
  Si  Si12  1  0.378345  0.111036  0.500000  1
  Si  Si13  1  0.621655  0.888964  0.500000  1
  B  B14  1  0.172715  0.039000  0.000000  1
  B  B15  1  0.827285  0.961000  0.000000  1
  B  B16  1  0.961000  0.172715  0.000000  1
  B  B17  1  0.327482  0.539271  0.000000  1
  B  B18  1  0.039000  0.827285  0.000000  1
  B  B19  1  0.672518  0.460729  0.000000  1
  B  B20  1  0.539271  0.672518  0.000000  1
  B  B21  1  0.460729  0.327482  0.000000  1
  B  B22  1  0.089690  0.589589  0.000000  1
  B  B23  1  0.910310  0.410411  0.000000  1
  B  B24  1  0.410411  0.089690  0.000000  1
  B  B25  1  0.589589  0.910310  0.000000  1
  B  B26  1  0.000000  0.000000  0.164663  1
  B  B27  1  0.000000  0.000000  0.835337  1
  B  B28  1  0.500000  0.500000  0.836287  1
  B  B29  1  0.500000  0.500000  0.163713  1
