# generated using pymatgen
data_YbPr3(Ga12Pt)2
_symmetry_space_group_name_H-M   'P 1'
_cell_length_a   6.17831239
_cell_length_b   6.17831212
_cell_length_c   15.53759300
_cell_angle_alpha   90.00000000
_cell_angle_beta   90.00000000
_cell_angle_gamma   89.76558798
_symmetry_Int_Tables_number   1
_chemical_formula_structural   YbPr3(Ga12Pt)2
_chemical_formula_sum   'Yb1 Pr3 Ga24 Pt2'
_cell_volume   593.08892558
_cell_formula_units_Z   1
loop_
 _symmetry_equiv_pos_site_id
 _symmetry_equiv_pos_as_xyz
  1  'x, y, z'
loop_
 _atom_site_type_symbol
 _atom_site_label
 _atom_site_symmetry_multiplicity
 _atom_site_fract_x
 _atom_site_fract_y
 _atom_site_fract_z
 _atom_site_occupancy
  Yb  Yb0  1  0.750000  0.250000  0.244616  1
  Pr  Pr1  1  0.250000  0.750000  0.242952  1
  Pr  Pr2  1  0.250000  0.750000  0.755488  1
  Pr  Pr3  1  0.750000  0.250000  0.756537  1
  Ga  Ga4  1  0.250000  0.250000  0.187131  1
  Ga  Ga5  1  0.750000  0.750000  0.187131  1
  Ga  Ga6  1  0.750000  0.750000  0.812605  1
  Ga  Ga7  1  0.250000  0.250000  0.812605  1
  Ga  Ga8  1  0.250000  0.250000  0.346193  1
  Ga  Ga9  1  0.750000  0.750000  0.346193  1
  Ga  Ga10  1  0.750000  0.750000  0.652876  1
  Ga  Ga11  1  0.250000  0.250000  0.652876  1
  Ga  Ga12  1  0.498793  0.998793  0.912100  1
  Ga  Ga13  1  0.001147  0.998853  0.911181  1
  Ga  Ga14  1  0.498853  0.501147  0.911181  1
  Ga  Ga15  1  0.001207  0.501207  0.912100  1
  Ga  Ga16  1  0.502267  0.002267  0.089689  1
  Ga  Ga17  1  0.997724  0.002276  0.090244  1
  Ga  Ga18  1  0.502276  0.497724  0.090244  1
  Ga  Ga19  1  0.997733  0.497733  0.089689  1
  Ga  Ga20  1  0.582083  0.082083  0.430712  1
  Ga  Ga21  1  0.079173  0.920827  0.431484  1
  Ga  Ga22  1  0.420827  0.579173  0.431484  1
  Ga  Ga23  1  0.917917  0.417917  0.430712  1
  Ga  Ga24  1  0.415372  0.915372  0.567796  1
  Ga  Ga25  1  0.915695  0.084305  0.568482  1
  Ga  Ga26  1  0.584305  0.415695  0.568482  1
  Ga  Ga27  1  0.084628  0.584628  0.567796  1
  Pt  Pt28  1  0.750000  0.250000  0.998566  1
  Pt  Pt29  1  0.250000  0.750000  0.000855  1
