# generated using pymatgen
data_LiTbAgPt3
_symmetry_space_group_name_H-M   'P 1'
_cell_length_a   5.14979828
_cell_length_b   5.14979949
_cell_length_c   5.14979880
_cell_angle_alpha   63.65141169
_cell_angle_beta   63.65139162
_cell_angle_gamma   63.65140168
_symmetry_Int_Tables_number   1
_chemical_formula_structural   LiTbAgPt3
_chemical_formula_sum   'Li1 Tb1 Ag1 Pt3'
_cell_volume   104.36129423
_cell_formula_units_Z   1
loop_
 _symmetry_equiv_pos_site_id
 _symmetry_equiv_pos_as_xyz
  1  'x, y, z'
loop_
 _atom_site_type_symbol
 _atom_site_label
 _atom_site_symmetry_multiplicity
 _atom_site_fract_x
 _atom_site_fract_y
 _atom_site_fract_z
 _atom_site_occupancy
  Li  Li0  1  0.623009  0.623009  0.623009  1
  Tb  Tb1  1  0.004197  0.004197  0.004197  1
  Ag  Ag2  1  0.251742  0.251742  0.251742  1
  Pt  Pt3  1  0.623052  0.623052  0.124948  1
  Pt  Pt4  1  0.623052  0.124948  0.623052  1
  Pt  Pt5  1  0.124948  0.623052  0.623052  1
