# generated using pymatgen
data_Zr6Zn16SiPd7
_symmetry_space_group_name_H-M   'P 1'
_cell_length_a   8.83714469
_cell_length_b   8.83714419
_cell_length_c   8.83714400
_cell_angle_alpha   60.00000071
_cell_angle_beta   60.00000259
_cell_angle_gamma   59.99999985
_symmetry_Int_Tables_number   1
_chemical_formula_structural   Zr6Zn16SiPd7
_chemical_formula_sum   'Zr6 Zn16 Si1 Pd7'
_cell_volume   488.00115661
_cell_formula_units_Z   1
loop_
 _symmetry_equiv_pos_site_id
 _symmetry_equiv_pos_as_xyz
  1  'x, y, z'
loop_
 _atom_site_type_symbol
 _atom_site_label
 _atom_site_symmetry_multiplicity
 _atom_site_fract_x
 _atom_site_fract_y
 _atom_site_fract_z
 _atom_site_occupancy
  Zr  Zr0  1  0.712588  0.287412  0.287412  1
  Zr  Zr1  1  0.287412  0.712588  0.712588  1
  Zr  Zr2  1  0.287412  0.712588  0.287412  1
  Zr  Zr3  1  0.712588  0.287412  0.712588  1
  Zr  Zr4  1  0.287412  0.287412  0.712588  1
  Zr  Zr5  1  0.712588  0.712588  0.287412  1
  Zn  Zn6  1  0.122023  0.122023  0.122023  1
  Zn  Zn7  1  0.877977  0.877977  0.877977  1
  Zn  Zn8  1  0.122023  0.122023  0.633931  1
  Zn  Zn9  1  0.122023  0.633931  0.122023  1
  Zn  Zn10  1  0.877977  0.877977  0.366069  1
  Zn  Zn11  1  0.877977  0.366069  0.877977  1
  Zn  Zn12  1  0.633931  0.122023  0.122023  1
  Zn  Zn13  1  0.366069  0.877977  0.877977  1
  Zn  Zn14  1  0.338016  0.338016  0.338016  1
  Zn  Zn15  1  0.661984  0.661984  0.661984  1
  Zn  Zn16  1  0.338016  0.338016  0.985954  1
  Zn  Zn17  1  0.338016  0.985954  0.338016  1
  Zn  Zn18  1  0.661984  0.661984  0.014046  1
  Zn  Zn19  1  0.661984  0.014046  0.661984  1
  Zn  Zn20  1  0.985954  0.338016  0.338016  1
  Zn  Zn21  1  0.014046  0.661984  0.661984  1
  Si  Si22  1  0.500000  0.500000  0.500000  1
  Pd  Pd23  1  0.500000  0.000000  0.000000  1
  Pd  Pd24  1  0.000000  0.500000  0.500000  1
  Pd  Pd25  1  0.000000  0.500000  0.000000  1
  Pd  Pd26  1  0.500000  0.000000  0.500000  1
  Pd  Pd27  1  0.000000  0.000000  0.500000  1
  Pd  Pd28  1  0.500000  0.500000  0.000000  1
  Pd  Pd29  1  0.000000  0.000000  0.000000  1
