# generated using pymatgen
data_YHoLu2(B6Os)2
_symmetry_space_group_name_H-M   'P 1'
_cell_length_a   3.61743900
_cell_length_b   9.07126501
_cell_length_c   11.46175801
_cell_angle_alpha   89.99445283
_cell_angle_beta   90.00000000
_cell_angle_gamma   90.00000000
_symmetry_Int_Tables_number   1
_chemical_formula_structural   YHoLu2(B6Os)2
_chemical_formula_sum   'Y2 Ho2 Lu4 B24 Os4'
_cell_volume   376.11469712
_cell_formula_units_Z   2
loop_
 _symmetry_equiv_pos_site_id
 _symmetry_equiv_pos_as_xyz
  1  'x, y, z'
loop_
 _atom_site_type_symbol
 _atom_site_label
 _atom_site_symmetry_multiplicity
 _atom_site_fract_x
 _atom_site_fract_y
 _atom_site_fract_z
 _atom_site_occupancy
  Y  Y0  1  0.000000  0.321140  0.414026  1
  Y  Y1  1  0.000000  0.678860  0.585974  1
  Ho  Ho2  1  0.000000  0.821316  0.085853  1
  Ho  Ho3  1  0.000000  0.178684  0.914147  1
  Lu  Lu4  1  0.000000  0.944183  0.372917  1
  Lu  Lu5  1  0.000000  0.055817  0.627083  1
  Lu  Lu6  1  0.000000  0.444159  0.126731  1
  Lu  Lu7  1  0.000000  0.555841  0.873269  1
  B  B8  1  0.500000  0.554442  0.432699  1
  B  B9  1  0.500000  0.445558  0.567301  1
  B  B10  1  0.500000  0.054201  0.066845  1
  B  B11  1  0.500000  0.945799  0.933155  1
  B  B12  1  0.500000  0.749897  0.419211  1
  B  B13  1  0.500000  0.250103  0.580789  1
  B  B14  1  0.500000  0.249619  0.080205  1
  B  B15  1  0.500000  0.750381  0.919795  1
  B  B16  1  0.500000  0.792122  0.265749  1
  B  B17  1  0.500000  0.207878  0.734250  1
  B  B18  1  0.500000  0.291844  0.233585  1
  B  B19  1  0.500000  0.708156  0.766416  1
  B  B20  1  0.500000  0.631016  0.184181  1
  B  B21  1  0.500000  0.368984  0.815819  1
  B  B22  1  0.500000  0.130583  0.315305  1
  B  B23  1  0.500000  0.869417  0.684695  1
  B  B24  1  0.500000  0.982406  0.213423  1
  B  B25  1  0.500000  0.017594  0.786577  1
  B  B26  1  0.500000  0.482765  0.286022  1
  B  B27  1  0.500000  0.517235  0.713978  1
  B  B28  1  0.500000  0.604481  0.028726  1
  B  B29  1  0.500000  0.395519  0.971274  1
  B  B30  1  0.500000  0.103817  0.471409  1
  B  B31  1  0.500000  0.896183  0.528591  1
  Os  Os32  1  0.000000  0.638493  0.319966  1
  Os  Os33  1  0.000000  0.361507  0.680034  1
  Os  Os34  1  0.000000  0.137912  0.179271  1
  Os  Os35  1  0.000000  0.862088  0.820729  1
