# generated using pymatgen
data_YTm2Zr(Co4P3)2
_symmetry_space_group_name_H-M   'P 1'
_cell_length_a   3.70475600
_cell_length_b   10.66084800
_cell_length_c   12.36434300
_cell_angle_alpha   90.00000000
_cell_angle_beta   90.00000000
_cell_angle_gamma   90.00000000
_symmetry_Int_Tables_number   1
_chemical_formula_structural   YTm2Zr(Co4P3)2
_chemical_formula_sum   'Y2 Tm4 Zr2 Co16 P12'
_cell_volume   488.34012017
_cell_formula_units_Z   2
loop_
 _symmetry_equiv_pos_site_id
 _symmetry_equiv_pos_as_xyz
  1  'x, y, z'
loop_
 _atom_site_type_symbol
 _atom_site_label
 _atom_site_symmetry_multiplicity
 _atom_site_fract_x
 _atom_site_fract_y
 _atom_site_fract_z
 _atom_site_occupancy
  Y  Y0  1  0.000000  0.500000  0.529464  1
  Y  Y1  1  0.500000  0.000000  0.470536  1
  Tm  Tm2  1  0.500000  0.822059  0.204734  1
  Tm  Tm3  1  0.500000  0.177941  0.204734  1
  Tm  Tm4  1  0.000000  0.677941  0.795266  1
  Tm  Tm5  1  0.000000  0.322059  0.795266  1
  Zr  Zr6  1  0.500000  0.500000  0.158419  1
  Zr  Zr7  1  0.000000  0.000000  0.841581  1
  Co  Co8  1  0.000000  0.500000  0.985436  1
  Co  Co9  1  0.500000  0.000000  0.014564  1
  Co  Co10  1  0.500000  0.294908  0.433218  1
  Co  Co11  1  0.500000  0.705092  0.433218  1
  Co  Co12  1  0.000000  0.205092  0.566782  1
  Co  Co13  1  0.000000  0.794908  0.566782  1
  Co  Co14  1  0.500000  0.876751  0.701731  1
  Co  Co15  1  0.500000  0.123249  0.701731  1
  Co  Co16  1  0.000000  0.623249  0.298269  1
  Co  Co17  1  0.000000  0.376751  0.298269  1
  Co  Co18  1  0.500000  0.331917  0.992608  1
  Co  Co19  1  0.500000  0.668083  0.992608  1
  Co  Co20  1  0.000000  0.168083  0.007392  1
  Co  Co21  1  0.000000  0.831917  0.007392  1
  Co  Co22  1  0.500000  0.500000  0.704182  1
  Co  Co23  1  0.000000  0.000000  0.295818  1
  P  P24  1  0.500000  0.310293  0.616301  1
  P  P25  1  0.500000  0.689707  0.616301  1
  P  P26  1  0.000000  0.189707  0.383699  1
  P  P27  1  0.000000  0.810293  0.383699  1
  P  P28  1  0.500000  0.500000  0.882622  1
  P  P29  1  0.000000  0.000000  0.117378  1
  P  P30  1  0.500000  0.837359  0.893015  1
  P  P31  1  0.500000  0.162641  0.893015  1
  P  P32  1  0.000000  0.662641  0.106985  1
  P  P33  1  0.000000  0.337359  0.106985  1
  P  P34  1  0.500000  0.500000  0.363389  1
  P  P35  1  0.000000  0.000000  0.636611  1
