# generated using pymatgen
data_Tm6Ge2P11Rh20
_symmetry_space_group_name_H-M   'P 1'
_cell_length_a   13.45881095
_cell_length_b   13.45145231
_cell_length_c   3.87792103
_cell_angle_alpha   90.02870859
_cell_angle_beta   90.05306015
_cell_angle_gamma   120.04985733
_symmetry_Int_Tables_number   1
_chemical_formula_structural   Tm6Ge2P11Rh20
_chemical_formula_sum   'Tm6 Ge2 P11 Rh20'
_cell_volume   607.69630844
_cell_formula_units_Z   1
loop_
 _symmetry_equiv_pos_site_id
 _symmetry_equiv_pos_as_xyz
  1  'x, y, z'
loop_
 _atom_site_type_symbol
 _atom_site_label
 _atom_site_symmetry_multiplicity
 _atom_site_fract_x
 _atom_site_fract_y
 _atom_site_fract_z
 _atom_site_occupancy
  Tm  Tm0  1  0.529728  0.716646  0.248564  1
  Tm  Tm1  1  0.282180  0.811755  0.249216  1
  Tm  Tm2  1  0.187261  0.469731  0.249436  1
  Tm  Tm3  1  0.468266  0.285783  0.751795  1
  Tm  Tm4  1  0.725041  0.191091  0.750182  1
  Tm  Tm5  1  0.814403  0.531857  0.749910  1
  Ge  Ge6  1  0.530383  0.140870  0.251410  1
  Ge  Ge7  1  0.999427  0.999804  0.999468  1
  P  P8  1  0.864001  0.389690  0.249893  1
  P  P9  1  0.610961  0.474190  0.250946  1
  P  P10  1  0.946580  0.715857  0.251310  1
  P  P11  1  0.283460  0.230358  0.250557  1
  P  P12  1  0.768448  0.051342  0.250223  1
  P  P13  1  0.387791  0.527497  0.750114  1
  P  P14  1  0.472187  0.859505  0.749559  1
  P  P15  1  0.140633  0.612628  0.749668  1
  P  P16  1  0.716547  0.769417  0.749718  1
  P  P17  1  0.229351  0.947916  0.749680  1
  P  P18  1  0.053151  0.283736  0.748915  1
  Rh  Rh19  1  0.333493  0.665702  0.752595  1
  Rh  Rh20  1  0.919718  0.251161  0.249055  1
  Rh  Rh21  1  0.747583  0.667969  0.250901  1
  Rh  Rh22  1  0.326797  0.078976  0.248586  1
  Rh  Rh23  1  0.430103  0.012008  0.750365  1
  Rh  Rh24  1  0.976311  0.416873  0.750203  1
  Rh  Rh25  1  0.582289  0.558938  0.750950  1
  Rh  Rh26  1  0.674742  0.344311  0.245034  1
  Rh  Rh27  1  0.095631  0.198163  0.252415  1
  Rh  Rh28  1  0.803691  0.898419  0.254952  1
  Rh  Rh29  1  0.099536  0.903566  0.254562  1
  Rh  Rh30  1  0.027517  0.584393  0.249418  1
  Rh  Rh31  1  0.415632  0.440628  0.250137  1
  Rh  Rh32  1  0.558868  0.969585  0.250312  1
  Rh  Rh33  1  0.668053  0.917042  0.751152  1
  Rh  Rh34  1  0.081896  0.748793  0.751233  1
  Rh  Rh35  1  0.250653  0.333830  0.749859  1
  Rh  Rh36  1  0.903726  0.801030  0.747368  1
  Rh  Rh37  1  0.195572  0.102992  0.745152  1
  Rh  Rh38  1  0.898389  0.095948  0.745190  1
