# generated using pymatgen
data_Ho3LuAl8
_symmetry_space_group_name_H-M   'P 1'
_cell_length_a   9.59430273
_cell_length_b   9.59430346
_cell_length_c   9.59430413
_cell_angle_alpha   33.52487495
_cell_angle_beta   33.52487987
_cell_angle_gamma   33.52487323
_symmetry_Int_Tables_number   1
_chemical_formula_structural   Ho3LuAl8
_chemical_formula_sum   'Ho3 Lu1 Al8'
_cell_volume   239.94329000
_cell_formula_units_Z   1
loop_
 _symmetry_equiv_pos_site_id
 _symmetry_equiv_pos_as_xyz
  1  'x, y, z'
loop_
 _atom_site_type_symbol
 _atom_site_label
 _atom_site_symmetry_multiplicity
 _atom_site_fract_x
 _atom_site_fract_y
 _atom_site_fract_z
 _atom_site_occupancy
  Ho  Ho0  1  0.375000  0.375000  0.375000  1
  Ho  Ho1  1  0.999422  0.999422  0.999422  1
  Ho  Ho2  1  0.500470  0.500470  0.500470  1
  Lu  Lu3  1  0.874927  0.874927  0.874927  1
  Al  Al4  1  0.437067  0.936568  0.437067  1
  Al  Al5  1  0.937868  0.438674  0.937868  1
  Al  Al6  1  0.437067  0.437067  0.936568  1
  Al  Al7  1  0.937868  0.937868  0.438674  1
  Al  Al8  1  0.187622  0.187622  0.187622  1
  Al  Al9  1  0.687446  0.687446  0.687446  1
  Al  Al10  1  0.936568  0.437067  0.437067  1
  Al  Al11  1  0.438674  0.937868  0.937868  1
