# generated using pymatgen
data_Ho2Lu2BeB14
_symmetry_space_group_name_H-M   'P 1'
_cell_length_a   7.15616947
_cell_length_b   7.15598247
_cell_length_c   7.31633900
_cell_angle_alpha   90.00000000
_cell_angle_beta   90.00000000
_cell_angle_gamma   89.78611178
_symmetry_Int_Tables_number   1
_chemical_formula_structural   Ho2Lu2BeB14
_chemical_formula_sum   'Ho4 Lu4 Be2 B28'
_cell_volume   374.66288964
_cell_formula_units_Z   2
loop_
 _symmetry_equiv_pos_site_id
 _symmetry_equiv_pos_as_xyz
  1  'x, y, z'
loop_
 _atom_site_type_symbol
 _atom_site_label
 _atom_site_symmetry_multiplicity
 _atom_site_fract_x
 _atom_site_fract_y
 _atom_site_fract_z
 _atom_site_occupancy
  Ho  Ho0  1  0.305093  0.829496  0.500000  1
  Ho  Ho1  1  0.804638  0.670702  0.000000  1
  Ho  Ho2  1  0.828994  0.695345  0.500000  1
  Ho  Ho3  1  0.170687  0.304936  0.500000  1
  Lu  Lu4  1  0.195087  0.329404  0.000000  1
  Lu  Lu5  1  0.670167  0.194674  0.000000  1
  Lu  Lu6  1  0.329470  0.805035  0.000000  1
  Lu  Lu7  1  0.694665  0.170490  0.500000  1
  Be  Be8  1  0.000428  0.000867  0.000000  1
  Be  Be9  1  0.500446  0.499100  0.500000  1
  B  B10  1  0.174562  0.039238  0.225796  1
  B  B11  1  0.960741  0.175011  0.225857  1
  B  B12  1  0.039701  0.826187  0.226436  1
  B  B13  1  0.674298  0.459751  0.272449  1
  B  B14  1  0.325514  0.538324  0.271566  1
  B  B15  1  0.825217  0.962686  0.226674  1
  B  B16  1  0.538311  0.674020  0.271598  1
  B  B17  1  0.462110  0.324760  0.272185  1
  B  B18  1  0.825217  0.962686  0.773326  1
  B  B19  1  0.039701  0.826187  0.773564  1
  B  B20  1  0.960741  0.175011  0.774143  1
  B  B21  1  0.325514  0.538324  0.728434  1
  B  B22  1  0.674298  0.459751  0.727551  1
  B  B23  1  0.174562  0.039238  0.774204  1
  B  B24  1  0.462110  0.324760  0.727815  1
  B  B25  1  0.538311  0.674020  0.728402  1
  B  B26  1  0.088384  0.587671  0.248651  1
  B  B27  1  0.412256  0.088430  0.248636  1
  B  B28  1  0.588084  0.912238  0.249118  1
  B  B29  1  0.911983  0.411668  0.249129  1
  B  B30  1  0.911983  0.411668  0.750871  1
  B  B31  1  0.588084  0.912238  0.750882  1
  B  B32  1  0.412256  0.088430  0.751364  1
  B  B33  1  0.088384  0.587671  0.751349  1
  B  B34  1  0.999476  0.000843  0.387492  1
  B  B35  1  0.499527  0.499148  0.111731  1
  B  B36  1  0.999476  0.000843  0.612508  1
  B  B37  1  0.499527  0.499148  0.888269  1
