# generated using pymatgen
data_ZrHg3(SeF3)2
_symmetry_space_group_name_H-M   'P 1'
_cell_length_a   12.80264927
_cell_length_b   7.39425500
_cell_length_c   5.38015686
_cell_angle_alpha   90.00000000
_cell_angle_beta   90.19051873
_cell_angle_gamma   90.00000000
_symmetry_Int_Tables_number   1
_chemical_formula_structural   ZrHg3(SeF3)2
_chemical_formula_sum   'Zr2 Hg6 Se4 F12'
_cell_volume   509.31540061
_cell_formula_units_Z   2
loop_
 _symmetry_equiv_pos_site_id
 _symmetry_equiv_pos_as_xyz
  1  'x, y, z'
loop_
 _atom_site_type_symbol
 _atom_site_label
 _atom_site_symmetry_multiplicity
 _atom_site_fract_x
 _atom_site_fract_y
 _atom_site_fract_z
 _atom_site_occupancy
  Zr  Zr0  1  0.500000  0.500001  0.500000  1
  Zr  Zr1  1  0.000000  0.000000  0.500000  1
  Hg  Hg2  1  0.500000  0.000000  0.000000  1
  Hg  Hg3  1  0.000000  0.500001  0.000000  1
  Hg  Hg4  1  0.749972  0.246573  0.000815  1
  Hg  Hg5  1  0.249972  0.253427  0.000815  1
  Hg  Hg6  1  0.750028  0.746572  0.999185  1
  Hg  Hg7  1  0.250028  0.753427  0.999185  1
  Se  Se8  1  0.667017  0.996131  0.252131  1
  Se  Se9  1  0.167017  0.503869  0.252132  1
  Se  Se10  1  0.832983  0.496131  0.747868  1
  Se  Se11  1  0.332983  0.003869  0.747869  1
  F  F12  1  0.437234  0.696013  0.274589  1
  F  F13  1  0.937234  0.803987  0.274590  1
  F  F14  1  0.634088  0.490924  0.291986  1
  F  F15  1  0.134088  0.009076  0.291986  1
  F  F16  1  0.431977  0.297882  0.293623  1
  F  F17  1  0.931976  0.202118  0.293624  1
  F  F18  1  0.068023  0.797881  0.706376  1
  F  F19  1  0.568023  0.702119  0.706377  1
  F  F20  1  0.365912  0.509076  0.708013  1
  F  F21  1  0.865912  0.990924  0.708014  1
  F  F22  1  0.562766  0.303988  0.725409  1
  F  F23  1  0.062766  0.196013  0.725410  1
