# generated using pymatgen
data_Ho6Al24Ir2(RuPt)3
_symmetry_space_group_name_H-M   'P 1'
_cell_length_a   8.82979956
_cell_length_b   8.82018561
_cell_length_c   9.46738437
_cell_angle_alpha   89.99999894
_cell_angle_beta   89.82826556
_cell_angle_gamma   119.96398985
_symmetry_Int_Tables_number   1
_chemical_formula_structural   Ho6Al24Ir2(RuPt)3
_chemical_formula_sum   'Ho6 Al24 Ir2 Ru3 Pt3'
_cell_volume   638.76937471
_cell_formula_units_Z   1
loop_
 _symmetry_equiv_pos_site_id
 _symmetry_equiv_pos_as_xyz
  1  'x, y, z'
loop_
 _atom_site_type_symbol
 _atom_site_label
 _atom_site_symmetry_multiplicity
 _atom_site_fract_x
 _atom_site_fract_y
 _atom_site_fract_z
 _atom_site_occupancy
  Ho  Ho0  1  0.191172  0.383127  0.248669  1
  Ho  Ho1  1  0.808828  0.616873  0.751331  1
  Ho  Ho2  1  0.616631  0.808316  0.251917  1
  Ho  Ho3  1  0.383369  0.191684  0.748083  1
  Ho  Ho4  1  0.191172  0.808046  0.248669  1
  Ho  Ho5  1  0.808828  0.191954  0.751331  1
  Al  Al6  1  0.336856  0.668428  0.033056  1
  Al  Al7  1  0.663144  0.331572  0.966944  1
  Al  Al8  1  0.672862  0.336431  0.533332  1
  Al  Al9  1  0.327138  0.663569  0.466668  1
  Al  Al10  1  0.157530  0.325709  0.577090  1
  Al  Al11  1  0.842470  0.674291  0.422910  1
  Al  Al12  1  0.675761  0.837881  0.577815  1
  Al  Al13  1  0.833653  0.674683  0.077063  1
  Al  Al14  1  0.324239  0.162119  0.422185  1
  Al  Al15  1  0.166347  0.325317  0.922937  1
  Al  Al16  1  0.157530  0.831822  0.577090  1
  Al  Al17  1  0.326172  0.163085  0.074837  1
  Al  Al18  1  0.842470  0.168178  0.422910  1
  Al  Al19  1  0.673828  0.836915  0.925163  1
  Al  Al20  1  0.833653  0.158968  0.077063  1
  Al  Al21  1  0.166347  0.841032  0.922937  1
  Al  Al22  1  0.563018  0.126224  0.247890  1
  Al  Al23  1  0.436982  0.873776  0.752110  1
  Al  Al24  1  0.874961  0.437481  0.253624  1
  Al  Al25  1  0.125039  0.562519  0.746376  1
  Al  Al26  1  0.563018  0.436794  0.247890  1
  Al  Al27  1  0.436982  0.563206  0.752110  1
  Al  Al28  1  0.998618  0.999309  0.249875  1
  Al  Al29  1  0.001382  0.000691  0.750125  1
  Ir  Ir30  1  0.500000  0.000000  0.000000  1
  Ir  Ir31  1  0.500000  0.500000  0.000000  1
  Ru  Ru32  1  0.000000  0.500000  0.500000  1
  Ru  Ru33  1  0.000000  0.000000  0.000000  1
  Ru  Ru34  1  0.000000  0.000000  0.500000  1
  Pt  Pt35  1  0.000000  0.500000  0.000000  1
  Pt  Pt36  1  0.500000  0.000000  0.500000  1
  Pt  Pt37  1  0.500000  0.500000  0.500000  1
