# generated using pymatgen
data_Tb9Y(GePb3)2
_symmetry_space_group_name_H-M   'P 1'
_cell_length_a   9.36043300
_cell_length_b   9.36046217
_cell_length_c   6.60797900
_cell_angle_alpha   90.00000000
_cell_angle_beta   90.00000000
_cell_angle_gamma   120.00009834
_symmetry_Int_Tables_number   1
_chemical_formula_structural   Tb9Y(GePb3)2
_chemical_formula_sum   'Tb9 Y1 Ge2 Pb6'
_cell_volume   501.40895618
_cell_formula_units_Z   1
loop_
 _symmetry_equiv_pos_site_id
 _symmetry_equiv_pos_as_xyz
  1  'x, y, z'
loop_
 _atom_site_type_symbol
 _atom_site_label
 _atom_site_symmetry_multiplicity
 _atom_site_fract_x
 _atom_site_fract_y
 _atom_site_fract_z
 _atom_site_occupancy
  Tb  Tb0  1  0.251603  0.999972  0.250033  1
  Tb  Tb1  1  0.748369  0.999972  0.749967  1
  Tb  Tb2  1  0.000028  0.251630  0.250033  1
  Tb  Tb3  1  0.000028  0.748398  0.749967  1
  Tb  Tb4  1  0.748370  0.748398  0.250033  1
  Tb  Tb5  1  0.251602  0.251630  0.749967  1
  Tb  Tb6  1  0.666667  0.333333  0.000000  1
  Tb  Tb7  1  0.666667  0.333333  0.500000  1
  Tb  Tb8  1  0.333333  0.666667  0.500000  1
  Y  Y9  1  0.333333  0.666667  0.000000  1
  Ge  Ge10  1  0.000000  0.000000  0.000000  1
  Ge  Ge11  1  0.000000  0.000000  0.500000  1
  Pb  Pb12  1  0.606220  0.999968  0.250009  1
  Pb  Pb13  1  0.393749  0.999968  0.749991  1
  Pb  Pb14  1  0.000032  0.606252  0.250009  1
  Pb  Pb15  1  0.000032  0.393779  0.749991  1
  Pb  Pb16  1  0.393749  0.393780  0.250009  1
  Pb  Pb17  1  0.606220  0.606251  0.749991  1
