# generated using pymatgen
data_Y16Cd4IrPd2Rh
_symmetry_space_group_name_H-M   'P 1'
_cell_length_a   9.71482436
_cell_length_b   9.69770554
_cell_length_c   9.68637100
_cell_angle_alpha   60.03865219
_cell_angle_beta   60.09683529
_cell_angle_gamma   60.23876132
_symmetry_Int_Tables_number   1
_chemical_formula_structural   Y16Cd4IrPd2Rh
_chemical_formula_sum   'Y16 Cd4 Ir1 Pd2 Rh1'
_cell_volume   647.10224079
_cell_formula_units_Z   1
loop_
 _symmetry_equiv_pos_site_id
 _symmetry_equiv_pos_as_xyz
  1  'x, y, z'
loop_
 _atom_site_type_symbol
 _atom_site_label
 _atom_site_symmetry_multiplicity
 _atom_site_fract_x
 _atom_site_fract_y
 _atom_site_fract_z
 _atom_site_occupancy
  Y  Y0  1  0.352099  0.351570  0.345387  1
  Y  Y1  1  0.352099  0.351570  0.950945  1
  Y  Y2  1  0.359309  0.940113  0.350288  1
  Y  Y3  1  0.939313  0.359438  0.350624  1
  Y  Y4  1  0.805768  0.190162  0.190028  1
  Y  Y5  1  0.190506  0.805971  0.813737  1
  Y  Y6  1  0.190506  0.805971  0.189786  1
  Y  Y7  1  0.805768  0.190162  0.814042  1
  Y  Y8  1  0.191651  0.190767  0.808791  1
  Y  Y9  1  0.810965  0.811850  0.188593  1
  Y  Y10  1  0.936471  0.565975  0.563356  1
  Y  Y11  1  0.566011  0.937140  0.935289  1
  Y  Y12  1  0.566011  0.937140  0.561560  1
  Y  Y13  1  0.936471  0.565975  0.934200  1
  Y  Y14  1  0.565713  0.563889  0.935199  1
  Y  Y15  1  0.936363  0.936581  0.563528  1
  Cd  Cd16  1  0.581048  0.580932  0.582635  1
  Cd  Cd17  1  0.581048  0.580932  0.255385  1
  Cd  Cd18  1  0.580113  0.256214  0.581837  1
  Cd  Cd19  1  0.255992  0.579974  0.582018  1
  Ir  Ir20  1  0.571988  0.140377  0.143818  1
  Pd  Pd21  1  0.142020  0.142606  0.146762  1
  Pd  Pd22  1  0.142020  0.142606  0.568611  1
  Rh  Rh23  1  0.140748  0.572084  0.143584  1
