# generated using pymatgen
data_TiBr35
_symmetry_space_group_name_H-M   'P 1'
_cell_length_a   15.98197694
_cell_length_b   11.40028128
_cell_length_c   10.79188300
_cell_angle_alpha   88.81408278
_cell_angle_beta   66.02770512
_cell_angle_gamma   92.31545406
_symmetry_Int_Tables_number   1
_chemical_formula_structural   TiBr35
_chemical_formula_sum   'Ti1 Br35'
_cell_volume   1793.71352310
_cell_formula_units_Z   1
loop_
 _symmetry_equiv_pos_site_id
 _symmetry_equiv_pos_as_xyz
  1  'x, y, z'
loop_
 _atom_site_type_symbol
 _atom_site_label
 _atom_site_symmetry_multiplicity
 _atom_site_fract_x
 _atom_site_fract_y
 _atom_site_fract_z
 _atom_site_occupancy
  Ti  Ti0  1  0.225981  0.415760  0.454879  1
  Br  Br1  1  0.506981  0.281778  0.532242  1
  Br  Br2  1  0.746692  0.582007  0.579602  1
  Br  Br3  1  0.476450  0.698707  0.758469  1
  Br  Br4  1  0.058106  0.886833  0.839257  1
  Br  Br5  1  0.888656  0.157066  0.026614  1
  Br  Br6  1  0.635653  0.327660  0.295534  1
  Br  Br7  1  0.615866  0.328284  0.843535  1
  Br  Br8  1  0.342490  0.786512  0.723303  1
  Br  Br9  1  0.334426  0.574745  0.220941  1
  Br  Br10  1  0.658240  0.129180  0.813791  1
  Br  Br11  1  0.891349  0.553020  0.374231  1
  Br  Br12  1  0.066680  0.936351  0.604688  1
  Br  Br13  1  0.897488  0.120589  0.259818  1
  Br  Br14  1  0.880388  0.201105  0.805229  1
  Br  Br15  1  0.641794  0.052458  0.231134  1
  Br  Br16  1  0.029486  0.830682  0.087971  1
  Br  Br17  1  0.362980  0.005159  0.746301  1
  Br  Br18  1  0.891617  0.333650  0.323643  1
  Br  Br19  1  0.884459  0.916804  0.687416  1
  Br  Br20  1  0.911450  0.645376  0.781513  1
  Br  Br21  1  0.320053  0.024446  0.249383  1
  Br  Br22  1  0.338879  0.316414  0.261299  1
  Br  Br23  1  0.604518  0.607574  0.804854  1
  Br  Br24  1  0.104512  0.432078  0.384417  1
  Br  Br25  1  0.716069  0.898189  0.781932  1
  Br  Br26  1  0.878604  0.437706  0.802983  1
  Br  Br27  1  0.486508  0.035799  0.240119  1
  Br  Br28  1  0.169710  0.254499  0.609435  1
  Br  Br29  1  0.680152  0.777510  0.263982  1
  Br  Br30  1  0.854471  0.805738  0.178308  1
  Br  Br31  1  0.381600  0.228046  0.766191  1
  Br  Br32  1  0.349282  0.487132  0.540367  1
  Br  Br33  1  0.655383  0.551679  0.275989  1
  Br  Br34  1  0.177165  0.591439  0.600443  1
  Br  Br35  1  0.335862  0.788031  0.250191  1
