# generated using pymatgen
data_Th10ZnSn2Bi5
_symmetry_space_group_name_H-M   'P 1'
_cell_length_a   9.73532947
_cell_length_b   9.73883592
_cell_length_c   6.60509205
_cell_angle_alpha   89.94503062
_cell_angle_beta   90.10997841
_cell_angle_gamma   119.98809382
_symmetry_Int_Tables_number   1
_chemical_formula_structural   Th10ZnSn2Bi5
_chemical_formula_sum   'Th10 Zn1 Sn2 Bi5'
_cell_volume   542.39852580
_cell_formula_units_Z   1
loop_
 _symmetry_equiv_pos_site_id
 _symmetry_equiv_pos_as_xyz
  1  'x, y, z'
loop_
 _atom_site_type_symbol
 _atom_site_label
 _atom_site_symmetry_multiplicity
 _atom_site_fract_x
 _atom_site_fract_y
 _atom_site_fract_z
 _atom_site_occupancy
  Th  Th0  1  0.999940  0.720133  0.764951  1
  Th  Th1  1  0.279807  0.279867  0.764951  1
  Th  Th2  1  0.330426  0.663394  0.496993  1
  Th  Th3  1  0.667033  0.336606  0.496993  1
  Th  Th4  1  0.721446  0.717311  0.235535  1
  Th  Th5  1  0.721212  0.000000  0.765049  1
  Th  Th6  1  0.004135  0.282689  0.235535  1
  Th  Th7  1  0.277467  0.000000  0.235848  1
  Th  Th8  1  0.331747  0.664364  0.002339  1
  Th  Th9  1  0.667383  0.335636  0.002339  1
  Zn  Zn10  1  0.999804  0.000000  0.001589  1
  Sn  Sn11  1  0.380050  0.379749  0.252602  1
  Sn  Sn12  1  0.000301  0.620251  0.252602  1
  Bi  Bi13  1  0.619423  0.619699  0.746197  1
  Bi  Bi14  1  0.999724  0.380301  0.746197  1
  Bi  Bi15  1  0.380308  0.000000  0.746546  1
  Bi  Bi16  1  0.620368  0.000000  0.253617  1
  Bi  Bi17  1  0.999427  0.000000  0.500116  1
