# generated using pymatgen
data_Sc3Hg3Au2
_symmetry_space_group_name_H-M   'P 1'
_cell_length_a   7.59962600
_cell_length_b   7.59962498
_cell_length_c   3.41403500
_cell_angle_alpha   90.00000000
_cell_angle_beta   90.00000000
_cell_angle_gamma   120.00000443
_symmetry_Int_Tables_number   1
_chemical_formula_structural   Sc3Hg3Au2
_chemical_formula_sum   'Sc3 Hg3 Au2'
_cell_volume   170.75874844
_cell_formula_units_Z   1
loop_
 _symmetry_equiv_pos_site_id
 _symmetry_equiv_pos_as_xyz
  1  'x, y, z'
loop_
 _atom_site_type_symbol
 _atom_site_label
 _atom_site_symmetry_multiplicity
 _atom_site_fract_x
 _atom_site_fract_y
 _atom_site_fract_z
 _atom_site_occupancy
  Sc  Sc0  1  0.589203  0.000000  0.500001  1
  Sc  Sc1  1  0.410797  0.410797  0.500001  1
  Sc  Sc2  1  0.000000  0.589204  0.500001  1
  Hg  Hg3  1  0.231265  0.000000  0.000000  1
  Hg  Hg4  1  0.000000  0.231265  0.000000  1
  Hg  Hg5  1  0.768735  0.768735  0.000000  1
  Au  Au6  1  0.666666  0.333333  0.000000  1
  Au  Au7  1  0.333333  0.666666  0.000000  1
