# generated using pymatgen
data_Tm6TaCo17P12
_symmetry_space_group_name_H-M   'P 1'
_cell_length_a   3.67347400
_cell_length_b   10.52132500
_cell_length_c   12.19354100
_cell_angle_alpha   90.00000000
_cell_angle_beta   90.00000000
_cell_angle_gamma   90.00000000
_symmetry_Int_Tables_number   1
_chemical_formula_structural   Tm6TaCo17P12
_chemical_formula_sum   'Tm6 Ta1 Co17 P12'
_cell_volume   471.27808962
_cell_formula_units_Z   1
loop_
 _symmetry_equiv_pos_site_id
 _symmetry_equiv_pos_as_xyz
  1  'x, y, z'
loop_
 _atom_site_type_symbol
 _atom_site_label
 _atom_site_symmetry_multiplicity
 _atom_site_fract_x
 _atom_site_fract_y
 _atom_site_fract_z
 _atom_site_occupancy
  Tm  Tm0  1  0.000000  0.500000  0.527523  1
  Tm  Tm1  1  0.500000  0.000000  0.476967  1
  Tm  Tm2  1  0.500000  0.820084  0.207329  1
  Tm  Tm3  1  0.500000  0.179916  0.207329  1
  Tm  Tm4  1  0.000000  0.682492  0.796023  1
  Tm  Tm5  1  0.000000  0.317508  0.796023  1
  Ta  Ta6  1  0.500000  0.500000  0.155179  1
  Co  Co7  1  0.000000  0.000000  0.837782  1
  Co  Co8  1  0.500000  0.500000  0.701548  1
  Co  Co9  1  0.000000  0.000000  0.296992  1
  Co  Co10  1  0.000000  0.500000  0.984663  1
  Co  Co11  1  0.500000  0.000000  0.014623  1
  Co  Co12  1  0.500000  0.330006  0.989213  1
  Co  Co13  1  0.500000  0.669994  0.989213  1
  Co  Co14  1  0.000000  0.163820  0.004043  1
  Co  Co15  1  0.000000  0.836180  0.004043  1
  Co  Co16  1  0.500000  0.295135  0.433262  1
  Co  Co17  1  0.500000  0.704865  0.433262  1
  Co  Co18  1  0.000000  0.202050  0.569632  1
  Co  Co19  1  0.000000  0.797950  0.569632  1
  Co  Co20  1  0.500000  0.879060  0.707686  1
  Co  Co21  1  0.500000  0.120940  0.707686  1
  Co  Co22  1  0.000000  0.623172  0.294142  1
  Co  Co23  1  0.000000  0.376828  0.294142  1
  P  P24  1  0.500000  0.500000  0.879559  1
  P  P25  1  0.000000  0.000000  0.117997  1
  P  P26  1  0.500000  0.500000  0.357996  1
  P  P27  1  0.000000  0.000000  0.654010  1
  P  P28  1  0.500000  0.310924  0.617813  1
  P  P29  1  0.500000  0.689076  0.617813  1
  P  P30  1  0.000000  0.187047  0.385398  1
  P  P31  1  0.000000  0.812953  0.385398  1
  P  P32  1  0.500000  0.851066  0.889074  1
  P  P33  1  0.500000  0.148934  0.889074  1
  P  P34  1  0.000000  0.661802  0.103967  1
  P  P35  1  0.000000  0.338198  0.103967  1
