# generated using pymatgen
data_PaPO5
_symmetry_space_group_name_H-M   'P 1'
_cell_length_a   5.75432992
_cell_length_b   5.77864760
_cell_length_c   8.11757495
_cell_angle_alpha   107.91471497
_cell_angle_beta   110.10078668
_cell_angle_gamma   95.44096369
_symmetry_Int_Tables_number   1
_chemical_formula_structural   PaPO5
_chemical_formula_sum   'Pa2 P2 O10'
_cell_volume   235.04359401
_cell_formula_units_Z   2
loop_
 _symmetry_equiv_pos_site_id
 _symmetry_equiv_pos_as_xyz
  1  'x, y, z'
loop_
 _atom_site_type_symbol
 _atom_site_label
 _atom_site_symmetry_multiplicity
 _atom_site_fract_x
 _atom_site_fract_y
 _atom_site_fract_z
 _atom_site_occupancy
  Pa  Pa0  1  0.000000  0.000000  0.000000  1
  Pa  Pa1  1  0.500000  0.500000  0.500000  1
  P  P2  1  0.884597  0.580905  0.238679  1
  P  P3  1  0.115403  0.419095  0.761321  1
  O  O4  1  0.182858  0.698636  0.890046  1
  O  O5  1  0.143716  0.254874  0.882486  1
  O  O6  1  0.836273  0.349501  0.615821  1
  O  O7  1  0.295587  0.374601  0.656788  1
  O  O8  1  0.856284  0.745126  0.117514  1
  O  O9  1  0.163727  0.650499  0.384179  1
  O  O10  1  0.704413  0.625399  0.343212  1
  O  O11  1  0.817142  0.301364  0.109954  1
  O  O12  1  0.690477  0.824204  0.740246  1
  O  O13  1  0.309523  0.175796  0.259754  1
