# generated using pymatgen
data_Er8Ti9Nb2Si16Os
_symmetry_space_group_name_H-M   'P 1'
_cell_length_a   6.99678955
_cell_length_b   6.99678919
_cell_length_c   12.85850528
_cell_angle_alpha   90.10867553
_cell_angle_beta   89.89132528
_cell_angle_gamma   89.85540969
_symmetry_Int_Tables_number   1
_chemical_formula_structural   Er8Ti9Nb2Si16Os
_chemical_formula_sum   'Er8 Ti9 Nb2 Si16 Os1'
_cell_volume   629.48464235
_cell_formula_units_Z   1
loop_
 _symmetry_equiv_pos_site_id
 _symmetry_equiv_pos_as_xyz
  1  'x, y, z'
loop_
 _atom_site_type_symbol
 _atom_site_label
 _atom_site_symmetry_multiplicity
 _atom_site_fract_x
 _atom_site_fract_y
 _atom_site_fract_z
 _atom_site_occupancy
  Er  Er0  1  0.341247  0.003308  0.466875  1
  Er  Er1  1  0.497699  0.841943  0.718331  1
  Er  Er2  1  0.500091  0.158292  0.215607  1
  Er  Er3  1  0.841943  0.497699  0.281669  1
  Er  Er4  1  0.158292  0.500091  0.784393  1
  Er  Er5  1  0.658687  0.999558  0.968602  1
  Er  Er6  1  0.003308  0.341247  0.533125  1
  Er  Er7  1  0.999558  0.658687  0.031398  1
  Ti  Ti8  1  0.673495  0.673495  0.500000  1
  Ti  Ti9  1  0.149346  0.002830  0.874430  1
  Ti  Ti10  1  0.491673  0.656710  0.124797  1
  Ti  Ti11  1  0.507821  0.348022  0.628737  1
  Ti  Ti12  1  0.656710  0.491673  0.875203  1
  Ti  Ti13  1  0.348022  0.507821  0.371263  1
  Ti  Ti14  1  0.849003  0.993792  0.373814  1
  Ti  Ti15  1  0.002830  0.149346  0.125570  1
  Ti  Ti16  1  0.993792  0.849003  0.626186  1
  Nb  Nb17  1  0.174051  0.827324  0.248067  1
  Nb  Nb18  1  0.827324  0.174051  0.751933  1
  Si  Si19  1  0.204786  0.131965  0.683943  1
  Si  Si20  1  0.371858  0.699388  0.932803  1
  Si  Si21  1  0.631423  0.296998  0.433959  1
  Si  Si22  1  0.699388  0.371858  0.067197  1
  Si  Si23  1  0.296998  0.631423  0.566041  1
  Si  Si24  1  0.795079  0.867709  0.183419  1
  Si  Si25  1  0.131965  0.204786  0.316057  1
  Si  Si26  1  0.867709  0.795079  0.816581  1
  Si  Si27  1  0.289158  0.956813  0.062329  1
  Si  Si28  1  0.548459  0.792384  0.315558  1
  Si  Si29  1  0.449127  0.208324  0.818580  1
  Si  Si30  1  0.792384  0.548459  0.684442  1
  Si  Si31  1  0.208324  0.449127  0.181420  1
  Si  Si32  1  0.706999  0.046900  0.564446  1
  Si  Si33  1  0.956813  0.289158  0.937671  1
  Si  Si34  1  0.046900  0.706999  0.435554  1
  Os  Os35  1  0.327745  0.327745  0.000000  1
