# generated using pymatgen
data_Mg2Cd6BPt4
_symmetry_space_group_name_H-M   'P 1'
_cell_length_a   8.86044572
_cell_length_b   8.86044546
_cell_length_c   8.86044600
_cell_angle_alpha   59.99999797
_cell_angle_beta   59.99999895
_cell_angle_gamma   59.99999401
_symmetry_Int_Tables_number   1
_chemical_formula_structural   Mg2Cd6BPt4
_chemical_formula_sum   'Mg4 Cd12 B2 Pt8'
_cell_volume   491.87152470
_cell_formula_units_Z   2
loop_
 _symmetry_equiv_pos_site_id
 _symmetry_equiv_pos_as_xyz
  1  'x, y, z'
loop_
 _atom_site_type_symbol
 _atom_site_label
 _atom_site_symmetry_multiplicity
 _atom_site_fract_x
 _atom_site_fract_y
 _atom_site_fract_z
 _atom_site_occupancy
  Mg  Mg0  1  0.625000  0.125000  0.625000  1
  Mg  Mg1  1  0.625000  0.625000  0.125000  1
  Mg  Mg2  1  0.625000  0.625000  0.625000  1
  Mg  Mg3  1  0.125000  0.625000  0.625000  1
  Cd  Cd4  1  0.446729  0.053271  0.053271  1
  Cd  Cd5  1  0.446729  0.446729  0.053271  1
  Cd  Cd6  1  0.196729  0.803271  0.803271  1
  Cd  Cd7  1  0.196729  0.803271  0.196729  1
  Cd  Cd8  1  0.803271  0.803271  0.196729  1
  Cd  Cd9  1  0.803271  0.196729  0.196729  1
  Cd  Cd10  1  0.053271  0.446729  0.053271  1
  Cd  Cd11  1  0.446729  0.053271  0.446729  1
  Cd  Cd12  1  0.053271  0.053271  0.446729  1
  Cd  Cd13  1  0.803271  0.196729  0.803271  1
  Cd  Cd14  1  0.196729  0.196729  0.803271  1
  Cd  Cd15  1  0.053271  0.446729  0.446729  1
  B  B16  1  0.750000  0.750000  0.750000  1
  B  B17  1  0.500000  0.500000  0.500000  1
  Pt  Pt18  1  0.404077  0.787768  0.404077  1
  Pt  Pt19  1  0.404077  0.404077  0.404077  1
  Pt  Pt20  1  0.787768  0.404077  0.404077  1
  Pt  Pt21  1  0.462232  0.845923  0.845923  1
  Pt  Pt22  1  0.845923  0.462232  0.845923  1
  Pt  Pt23  1  0.845923  0.845923  0.462232  1
  Pt  Pt24  1  0.845923  0.845923  0.845923  1
  Pt  Pt25  1  0.404077  0.404077  0.787768  1
