# generated using pymatgen
data_Y20FeNiHg6
_symmetry_space_group_name_H-M   'P 1'
_cell_length_a   9.69996400
_cell_length_b   9.69996466
_cell_length_c   9.54052200
_cell_angle_alpha   90.00000000
_cell_angle_beta   90.00000000
_cell_angle_gamma   119.99999775
_symmetry_Int_Tables_number   1
_chemical_formula_structural   Y20FeNiHg6
_chemical_formula_sum   'Y20 Fe1 Ni1 Hg6'
_cell_volume   777.39734528
_cell_formula_units_Z   1
loop_
 _symmetry_equiv_pos_site_id
 _symmetry_equiv_pos_as_xyz
  1  'x, y, z'
loop_
 _atom_site_type_symbol
 _atom_site_label
 _atom_site_symmetry_multiplicity
 _atom_site_fract_x
 _atom_site_fract_y
 _atom_site_fract_z
 _atom_site_occupancy
  Y  Y0  1  0.000000  0.000000  0.499539  1
  Y  Y1  1  0.000000  0.000000  0.000461  1
  Y  Y2  1  0.541415  0.458585  0.250000  1
  Y  Y3  1  0.541415  0.082831  0.250000  1
  Y  Y4  1  0.917169  0.458585  0.250000  1
  Y  Y5  1  0.456724  0.543276  0.750000  1
  Y  Y6  1  0.456724  0.913448  0.750000  1
  Y  Y7  1  0.086552  0.543276  0.750000  1
  Y  Y8  1  0.211368  0.788632  0.435147  1
  Y  Y9  1  0.211368  0.422737  0.435147  1
  Y  Y10  1  0.577263  0.788632  0.435147  1
  Y  Y11  1  0.790490  0.209510  0.564002  1
  Y  Y12  1  0.790490  0.580979  0.564002  1
  Y  Y13  1  0.419021  0.209510  0.564002  1
  Y  Y14  1  0.790490  0.209510  0.935998  1
  Y  Y15  1  0.790490  0.580979  0.935998  1
  Y  Y16  1  0.419021  0.209510  0.935998  1
  Y  Y17  1  0.211368  0.788632  0.064853  1
  Y  Y18  1  0.211368  0.422737  0.064853  1
  Y  Y19  1  0.577263  0.788632  0.064853  1
  Fe  Fe20  1  0.333333  0.666667  0.250000  1
  Ni  Ni21  1  0.666667  0.333333  0.750000  1
  Hg  Hg22  1  0.880205  0.119795  0.250000  1
  Hg  Hg23  1  0.880205  0.760410  0.250000  1
  Hg  Hg24  1  0.239590  0.119795  0.250000  1
  Hg  Hg25  1  0.119809  0.880191  0.750000  1
  Hg  Hg26  1  0.119809  0.239619  0.750000  1
  Hg  Hg27  1  0.760381  0.880191  0.750000  1
