# generated using pymatgen
data_DyY(Al5Pt3)2
_symmetry_space_group_name_H-M   'P 1'
_cell_length_a   4.09415400
_cell_length_b   7.43344942
_cell_length_c   20.55411300
_cell_angle_alpha   90.41439208
_cell_angle_beta   90.00000000
_cell_angle_gamma   90.00000000
_symmetry_Int_Tables_number   1
_chemical_formula_structural   DyY(Al5Pt3)2
_chemical_formula_sum   'Dy2 Y2 Al20 Pt12'
_cell_volume   625.52107419
_cell_formula_units_Z   2
loop_
 _symmetry_equiv_pos_site_id
 _symmetry_equiv_pos_as_xyz
  1  'x, y, z'
loop_
 _atom_site_type_symbol
 _atom_site_label
 _atom_site_symmetry_multiplicity
 _atom_site_fract_x
 _atom_site_fract_y
 _atom_site_fract_z
 _atom_site_occupancy
  Dy  Dy0  1  0.250000  0.116586  0.639485  1
  Dy  Dy1  1  0.750000  0.883414  0.360515  1
  Y  Y2  1  0.250000  0.386166  0.139434  1
  Y  Y3  1  0.750000  0.613834  0.860566  1
  Al  Al4  1  0.750000  0.353505  0.381845  1
  Al  Al5  1  0.750000  0.883790  0.983590  1
  Al  Al6  1  0.750000  0.684901  0.200504  1
  Al  Al7  1  0.250000  0.869426  0.491207  1
  Al  Al8  1  0.250000  0.630901  0.990975  1
  Al  Al9  1  0.250000  0.315099  0.799496  1
  Al  Al10  1  0.750000  0.071630  0.209312  1
  Al  Al11  1  0.250000  0.646495  0.618155  1
  Al  Al12  1  0.250000  0.572766  0.290570  1
  Al  Al13  1  0.250000  0.184675  0.299345  1
  Al  Al14  1  0.750000  0.144671  0.881943  1
  Al  Al15  1  0.250000  0.928370  0.790688  1
  Al  Al16  1  0.750000  0.369099  0.009025  1
  Al  Al17  1  0.750000  0.615762  0.483789  1
  Al  Al18  1  0.750000  0.130574  0.508793  1
  Al  Al19  1  0.250000  0.116210  0.016410  1
  Al  Al20  1  0.250000  0.855329  0.118057  1
  Al  Al21  1  0.250000  0.384238  0.516211  1
  Al  Al22  1  0.750000  0.427234  0.709430  1
  Al  Al23  1  0.750000  0.815325  0.700655  1
  Pt  Pt24  1  0.750000  0.380827  0.258762  1
  Pt  Pt25  1  0.250000  0.880057  0.241263  1
  Pt  Pt26  1  0.250000  0.619173  0.741238  1
  Pt  Pt27  1  0.750000  0.119943  0.758737  1
  Pt  Pt28  1  0.250000  0.159025  0.425953  1
  Pt  Pt29  1  0.750000  0.419382  0.585660  1
  Pt  Pt30  1  0.750000  0.081690  0.085704  1
  Pt  Pt31  1  0.250000  0.918310  0.914296  1
  Pt  Pt32  1  0.750000  0.840975  0.574047  1
  Pt  Pt33  1  0.250000  0.339059  0.926403  1
  Pt  Pt34  1  0.750000  0.660941  0.073597  1
  Pt  Pt35  1  0.250000  0.580618  0.414340  1
