# generated using pymatgen
data_Pr4YRh2
_symmetry_space_group_name_H-M   'P 1'
_cell_length_a   6.59023830
_cell_length_b   7.30716888
_cell_length_c   9.12157806
_cell_angle_alpha   96.77140244
_cell_angle_beta   111.17664232
_cell_angle_gamma   89.99999792
_symmetry_Int_Tables_number   1
_chemical_formula_structural   Pr4YRh2
_chemical_formula_sum   'Pr8 Y2 Rh4'
_cell_volume   406.30825576
_cell_formula_units_Z   2
loop_
 _symmetry_equiv_pos_site_id
 _symmetry_equiv_pos_as_xyz
  1  'x, y, z'
loop_
 _atom_site_type_symbol
 _atom_site_label
 _atom_site_symmetry_multiplicity
 _atom_site_fract_x
 _atom_site_fract_y
 _atom_site_fract_z
 _atom_site_occupancy
  Pr  Pr0  1  0.983925  0.919304  0.186287  1
  Pr  Pr1  1  0.797637  0.580696  0.813713  1
  Pr  Pr2  1  0.016075  0.080696  0.813713  1
  Pr  Pr3  1  0.202363  0.419304  0.186287  1
  Pr  Pr4  1  0.640730  0.812912  0.428678  1
  Pr  Pr5  1  0.212051  0.687088  0.571322  1
  Pr  Pr6  1  0.359270  0.187088  0.571322  1
  Pr  Pr7  1  0.787949  0.312912  0.428678  1
  Y  Y8  1  0.430036  0.750000  0.000000  1
  Y  Y9  1  0.569964  0.250000  0.000000  1
  Rh  Rh10  1  0.802340  0.573148  0.211041  1
  Rh  Rh11  1  0.591298  0.926852  0.788959  1
  Rh  Rh12  1  0.197660  0.426852  0.788959  1
  Rh  Rh13  1  0.408702  0.073148  0.211041  1
