# generated using pymatgen
data_CeHg3(Pt2O7)2
_symmetry_space_group_name_H-M   'P 1'
_cell_length_a   7.31134654
_cell_length_b   7.37970202
_cell_length_c   7.31134700
_cell_angle_alpha   60.30593778
_cell_angle_beta   60.00000246
_cell_angle_gamma   60.30594471
_symmetry_Int_Tables_number   1
_chemical_formula_structural   CeHg3(Pt2O7)2
_chemical_formula_sum   'Ce1 Hg3 Pt4 O14'
_cell_volume   280.22798721
_cell_formula_units_Z   1
loop_
 _symmetry_equiv_pos_site_id
 _symmetry_equiv_pos_as_xyz
  1  'x, y, z'
loop_
 _atom_site_type_symbol
 _atom_site_label
 _atom_site_symmetry_multiplicity
 _atom_site_fract_x
 _atom_site_fract_y
 _atom_site_fract_z
 _atom_site_occupancy
  Ce  Ce0  1  0.125000  0.625000  0.125000  1
  Hg  Hg1  1  0.125000  0.125000  0.125000  1
  Hg  Hg2  1  0.625000  0.125000  0.125000  1
  Hg  Hg3  1  0.125000  0.125000  0.625000  1
  Pt  Pt4  1  0.625000  0.625000  0.125000  1
  Pt  Pt5  1  0.625000  0.625000  0.625000  1
  Pt  Pt6  1  0.625000  0.125000  0.625000  1
  Pt  Pt7  1  0.125000  0.625000  0.625000  1
  O  O8  1  0.704540  0.297291  0.293630  1
  O  O9  1  0.704540  0.297291  0.704540  1
  O  O10  1  0.000577  0.998267  0.000577  1
  O  O11  1  0.293529  0.691008  0.293529  1
  O  O12  1  0.721935  0.691008  0.293529  1
  O  O13  1  0.956471  0.558992  0.528065  1
  O  O14  1  0.293529  0.691008  0.721935  1
  O  O15  1  0.249423  0.251733  0.249423  1
  O  O16  1  0.956471  0.558992  0.956471  1
  O  O17  1  0.545460  0.952709  0.545460  1
  O  O18  1  0.528065  0.558992  0.956471  1
  O  O19  1  0.956370  0.952709  0.545460  1
  O  O20  1  0.545460  0.952709  0.956370  1
  O  O21  1  0.293630  0.297291  0.704540  1
