# generated using pymatgen
data_YbDy7(ScIr3)2
_symmetry_space_group_name_H-M   'P 1'
_cell_length_a   10.75968858
_cell_length_b   10.76378700
_cell_length_c   6.28368116
_cell_angle_alpha   90.00000000
_cell_angle_beta   90.26823183
_cell_angle_gamma   90.00000000
_symmetry_Int_Tables_number   1
_chemical_formula_structural   YbDy7(ScIr3)2
_chemical_formula_sum   'Yb2 Dy14 Sc4 Ir12'
_cell_volume   727.73653332
_cell_formula_units_Z   2
loop_
 _symmetry_equiv_pos_site_id
 _symmetry_equiv_pos_as_xyz
  1  'x, y, z'
loop_
 _atom_site_type_symbol
 _atom_site_label
 _atom_site_symmetry_multiplicity
 _atom_site_fract_x
 _atom_site_fract_y
 _atom_site_fract_z
 _atom_site_occupancy
  Yb  Yb0  1  0.286588  0.086139  0.374879  1
  Yb  Yb1  1  0.286588  0.913861  0.874879  1
  Dy  Dy2  1  0.712117  0.084886  0.878142  1
  Dy  Dy3  1  0.712117  0.915114  0.378142  1
  Dy  Dy4  1  0.584755  0.789110  0.877295  1
  Dy  Dy5  1  0.584755  0.210890  0.377295  1
  Dy  Dy6  1  0.413394  0.790145  0.377735  1
  Dy  Dy7  1  0.413394  0.209855  0.877735  1
  Dy  Dy8  1  0.212348  0.414482  0.623167  1
  Dy  Dy9  1  0.212348  0.585518  0.123167  1
  Dy  Dy10  1  0.787467  0.414089  0.122201  1
  Dy  Dy11  1  0.787467  0.585911  0.622201  1
  Dy  Dy12  1  0.914577  0.713175  0.123689  1
  Dy  Dy13  1  0.914577  0.286825  0.623689  1
  Dy  Dy14  1  0.086413  0.713020  0.622869  1
  Dy  Dy15  1  0.086413  0.286980  0.122869  1
  Sc  Sc16  1  0.001123  0.999552  0.498576  1
  Sc  Sc17  1  0.001123  0.000448  0.998576  1
  Sc  Sc18  1  0.499693  0.499737  0.999652  1
  Sc  Sc19  1  0.499693  0.500263  0.499652  1
  Ir  Ir20  1  0.854303  0.147813  0.249839  1
  Ir  Ir21  1  0.854303  0.852187  0.749839  1
  Ir  Ir22  1  0.143192  0.151697  0.752373  1
  Ir  Ir23  1  0.143192  0.848303  0.252373  1
  Ir  Ir24  1  0.646394  0.352057  0.749953  1
  Ir  Ir25  1  0.646394  0.647943  0.249953  1
  Ir  Ir26  1  0.353364  0.356163  0.246816  1
  Ir  Ir27  1  0.353364  0.643837  0.746816  1
  Ir  Ir28  1  0.504265  0.000518  0.124254  1
  Ir  Ir29  1  0.504265  0.999482  0.624254  1
  Ir  Ir30  1  0.000006  0.499648  0.878558  1
  Ir  Ir31  1  0.000006  0.500352  0.378558  1
