# generated using pymatgen
data_Tb18Tm2Si15Pt
_symmetry_space_group_name_H-M   'P 1'
_cell_length_a   7.42711800
_cell_length_b   7.77692937
_cell_length_c   14.64643600
_cell_angle_alpha   90.00000000
_cell_angle_beta   90.00000000
_cell_angle_gamma   90.01769650
_symmetry_Int_Tables_number   1
_chemical_formula_structural   Tb18Tm2Si15Pt
_chemical_formula_sum   'Tb18 Tm2 Si15 Pt1'
_cell_volume   845.98062389
_cell_formula_units_Z   1
loop_
 _symmetry_equiv_pos_site_id
 _symmetry_equiv_pos_as_xyz
  1  'x, y, z'
loop_
 _atom_site_type_symbol
 _atom_site_label
 _atom_site_symmetry_multiplicity
 _atom_site_fract_x
 _atom_site_fract_y
 _atom_site_fract_z
 _atom_site_occupancy
  Tb  Tb0  1  0.677886  0.182045  0.624663  1
  Tb  Tb1  1  0.188207  0.324081  0.874751  1
  Tb  Tb2  1  0.318300  0.818992  0.122702  1
  Tb  Tb3  1  0.817464  0.678365  0.377281  1
  Tb  Tb4  1  0.318300  0.818992  0.377298  1
  Tb  Tb5  1  0.817464  0.678365  0.122719  1
  Tb  Tb6  1  0.677886  0.182045  0.875337  1
  Tb  Tb7  1  0.188207  0.324081  0.625249  1
  Tb  Tb8  1  0.523732  0.678483  0.596408  1
  Tb  Tb9  1  0.026814  0.817368  0.903370  1
  Tb  Tb10  1  0.472563  0.314110  0.097087  1
  Tb  Tb11  1  0.972369  0.182807  0.403446  1
  Tb  Tb12  1  0.472563  0.314110  0.402913  1
  Tb  Tb13  1  0.972369  0.182807  0.096554  1
  Tb  Tb14  1  0.523732  0.678483  0.903592  1
  Tb  Tb15  1  0.026814  0.817368  0.596630  1
  Tb  Tb16  1  0.149235  0.484427  0.250000  1
  Tb  Tb17  1  0.648071  0.014155  0.250000  1
  Tm  Tm18  1  0.845943  0.514163  0.750000  1
  Tm  Tm19  1  0.354286  0.982917  0.750000  1
  Si  Si20  1  0.645534  0.970824  0.461247  1
  Si  Si21  1  0.147250  0.528190  0.038866  1
  Si  Si22  1  0.351064  0.025807  0.959131  1
  Si  Si23  1  0.856059  0.472007  0.541187  1
  Si  Si24  1  0.351064  0.025807  0.540869  1
  Si  Si25  1  0.856059  0.472007  0.958813  1
  Si  Si26  1  0.645534  0.970824  0.038753  1
  Si  Si27  1  0.147250  0.528190  0.461134  1
  Si  Si28  1  0.981322  0.099817  0.750000  1
  Si  Si29  1  0.523099  0.602531  0.250000  1
  Si  Si30  1  0.020884  0.895458  0.250000  1
  Si  Si31  1  0.738628  0.875707  0.750000  1
  Si  Si32  1  0.226147  0.635104  0.750000  1
  Si  Si33  1  0.265392  0.125700  0.250000  1
  Si  Si34  1  0.767223  0.373204  0.250000  1
  Pt  Pt35  1  0.485287  0.410661  0.750000  1
