# generated using pymatgen
data_Th5P12PdRu18
_symmetry_space_group_name_H-M   'P 1'
_cell_length_a   12.75906886
_cell_length_b   12.65434753
_cell_length_c   4.01864600
_cell_angle_alpha   90.00000000
_cell_angle_beta   90.00000000
_cell_angle_gamma   119.72886972
_symmetry_Int_Tables_number   1
_chemical_formula_structural   Th5P12PdRu18
_chemical_formula_sum   'Th5 P12 Pd1 Ru18'
_cell_volume   563.44195284
_cell_formula_units_Z   1
loop_
 _symmetry_equiv_pos_site_id
 _symmetry_equiv_pos_as_xyz
  1  'x, y, z'
loop_
 _atom_site_type_symbol
 _atom_site_label
 _atom_site_symmetry_multiplicity
 _atom_site_fract_x
 _atom_site_fract_y
 _atom_site_fract_z
 _atom_site_occupancy
  Th  Th0  1  0.000000  0.185316  0.500000  1
  Th  Th1  1  0.812331  0.811826  0.500000  1
  Th  Th2  1  0.187669  0.999494  0.500000  1
  Th  Th3  1  0.661867  0.330506  0.000000  1
  Th  Th4  1  0.338133  0.668640  0.000000  1
  P  P5  1  0.000000  0.809804  0.000000  1
  P  P6  1  0.185008  0.185909  0.000000  1
  P  P7  1  0.814992  0.000901  0.000000  1
  P  P8  1  0.693702  0.171477  0.500000  1
  P  P9  1  0.820170  0.521486  0.500000  1
  P  P10  1  0.473558  0.305697  0.500000  1
  P  P11  1  0.179830  0.701317  0.500000  1
  P  P12  1  0.526442  0.832139  0.500000  1
  P  P13  1  0.306298  0.477775  0.500000  1
  P  P14  1  0.000000  0.367313  0.000000  1
  P  P15  1  0.624307  0.624617  0.000000  1
  P  P16  1  0.375693  0.000311  0.000000  1
  Pd  Pd17  1  0.000000  0.551934  0.000000  1
  Ru  Ru18  1  0.444006  0.445668  0.000000  1
  Ru  Ru19  1  0.555994  0.001662  0.000000  1
  Ru  Ru20  1  0.000000  0.710518  0.500000  1
  Ru  Ru21  1  0.283312  0.285159  0.500000  1
  Ru  Ru22  1  0.716688  0.001847  0.500000  1
  Ru  Ru23  1  0.806171  0.185168  0.000000  1
  Ru  Ru24  1  0.815364  0.620763  0.000000  1
  Ru  Ru25  1  0.374328  0.192152  0.000000  1
  Ru  Ru26  1  0.184636  0.805399  0.000000  1
  Ru  Ru27  1  0.625672  0.817824  0.000000  1
  Ru  Ru28  1  0.193829  0.378996  0.000000  1
  Ru  Ru29  1  0.873296  0.367983  0.500000  1
  Ru  Ru30  1  0.630130  0.507991  0.500000  1
  Ru  Ru31  1  0.492820  0.127651  0.500000  1
  Ru  Ru32  1  0.369870  0.877860  0.500000  1
  Ru  Ru33  1  0.507180  0.634831  0.500000  1
  Ru  Ru34  1  0.126704  0.494687  0.500000  1
  Ru  Ru35  1  0.000000  0.997376  0.000000  1
