# generated using pymatgen
data_Sm8Ho12Si15Pt
_symmetry_space_group_name_H-M   'P 1'
_cell_length_a   7.39866373
_cell_length_b   7.79556018
_cell_length_c   14.71166300
_cell_angle_alpha   90.00000000
_cell_angle_beta   90.00000000
_cell_angle_gamma   90.12713467
_symmetry_Int_Tables_number   1
_chemical_formula_structural   Sm8Ho12Si15Pt
_chemical_formula_sum   'Sm8 Ho12 Si15 Pt1'
_cell_volume   848.51850167
_cell_formula_units_Z   1
loop_
 _symmetry_equiv_pos_site_id
 _symmetry_equiv_pos_as_xyz
  1  'x, y, z'
loop_
 _atom_site_type_symbol
 _atom_site_label
 _atom_site_symmetry_multiplicity
 _atom_site_fract_x
 _atom_site_fract_y
 _atom_site_fract_z
 _atom_site_occupancy
  Sm  Sm0  1  0.017809  0.182918  0.097430  1
  Sm  Sm1  1  0.984428  0.818387  0.905428  1
  Sm  Sm2  1  0.483429  0.679635  0.904365  1
  Sm  Sm3  1  0.984428  0.818387  0.594572  1
  Sm  Sm4  1  0.516707  0.319659  0.097024  1
  Sm  Sm5  1  0.017809  0.182918  0.402570  1
  Sm  Sm6  1  0.516707  0.319659  0.402976  1
  Sm  Sm7  1  0.483429  0.679635  0.595635  1
  Ho  Ho8  1  0.155866  0.512139  0.750000  1
  Ho  Ho9  1  0.839392  0.488761  0.250000  1
  Ho  Ho10  1  0.340492  0.012768  0.250000  1
  Ho  Ho11  1  0.666292  0.991403  0.750000  1
  Ho  Ho12  1  0.319979  0.174963  0.624327  1
  Ho  Ho13  1  0.675485  0.823891  0.375200  1
  Ho  Ho14  1  0.175097  0.679368  0.376245  1
  Ho  Ho15  1  0.675485  0.823891  0.124800  1
  Ho  Ho16  1  0.828374  0.320424  0.623683  1
  Ho  Ho17  1  0.319979  0.174963  0.875673  1
  Ho  Ho18  1  0.828374  0.320424  0.876317  1
  Ho  Ho19  1  0.175097  0.679368  0.123755  1
  Si  Si20  1  0.970431  0.890681  0.250000  1
  Si  Si21  1  0.468384  0.609171  0.250000  1
  Si  Si22  1  0.530445  0.393878  0.750000  1
  Si  Si23  1  0.278610  0.870094  0.750000  1
  Si  Si24  1  0.721503  0.127029  0.250000  1
  Si  Si25  1  0.221474  0.374607  0.250000  1
  Si  Si26  1  0.770458  0.622094  0.750000  1
  Si  Si27  1  0.154425  0.469992  0.537736  1
  Si  Si28  1  0.846419  0.533125  0.461414  1
  Si  Si29  1  0.349679  0.968532  0.461381  1
  Si  Si30  1  0.846419  0.533125  0.038586  1
  Si  Si31  1  0.652650  0.030694  0.538184  1
  Si  Si32  1  0.154425  0.469992  0.962264  1
  Si  Si33  1  0.652650  0.030694  0.961816  1
  Si  Si34  1  0.349679  0.968532  0.038619  1
  Pt  Pt35  1  0.027692  0.104201  0.750000  1
