# generated using pymatgen
data_ThSiTc4Ge
_symmetry_space_group_name_H-M   'P 1'
_cell_length_a   4.17998500
_cell_length_b   7.29266900
_cell_length_c   15.73875200
_cell_angle_alpha   90.00000000
_cell_angle_beta   90.00000000
_cell_angle_gamma   90.00000000
_symmetry_Int_Tables_number   1
_chemical_formula_structural   ThSiTc4Ge
_chemical_formula_sum   'Th4 Si4 Tc16 Ge4'
_cell_volume   479.76826516
_cell_formula_units_Z   4
loop_
 _symmetry_equiv_pos_site_id
 _symmetry_equiv_pos_as_xyz
  1  'x, y, z'
loop_
 _atom_site_type_symbol
 _atom_site_label
 _atom_site_symmetry_multiplicity
 _atom_site_fract_x
 _atom_site_fract_y
 _atom_site_fract_z
 _atom_site_occupancy
  Th  Th0  1  0.000000  0.594834  0.119893  1
  Th  Th1  1  0.000000  0.405166  0.880107  1
  Th  Th2  1  0.500000  0.094834  0.380107  1
  Th  Th3  1  0.500000  0.905166  0.619893  1
  Si  Si4  1  0.000000  0.310320  0.272994  1
  Si  Si5  1  0.000000  0.689680  0.727006  1
  Si  Si6  1  0.500000  0.810320  0.227006  1
  Si  Si7  1  0.500000  0.189680  0.772994  1
  Tc  Tc8  1  0.000000  0.135314  0.052548  1
  Tc  Tc9  1  0.000000  0.864686  0.947452  1
  Tc  Tc10  1  0.500000  0.635314  0.447452  1
  Tc  Tc11  1  0.500000  0.364686  0.552548  1
  Tc  Tc12  1  0.000000  0.729226  0.317813  1
  Tc  Tc13  1  0.000000  0.270774  0.682187  1
  Tc  Tc14  1  0.500000  0.229226  0.182187  1
  Tc  Tc15  1  0.500000  0.770774  0.817813  1
  Tc  Tc16  1  0.000000  0.430547  0.420189  1
  Tc  Tc17  1  0.000000  0.569453  0.579811  1
  Tc  Tc18  1  0.500000  0.930547  0.079811  1
  Tc  Tc19  1  0.500000  0.069453  0.920189  1
  Tc  Tc20  1  0.000000  0.002589  0.206873  1
  Tc  Tc21  1  0.000000  0.997411  0.793127  1
  Tc  Tc22  1  0.500000  0.502589  0.293127  1
  Tc  Tc23  1  0.500000  0.497411  0.706873  1
  Ge  Ge24  1  0.000000  0.830551  0.471781  1
  Ge  Ge25  1  0.000000  0.169449  0.528219  1
  Ge  Ge26  1  0.500000  0.330551  0.028219  1
  Ge  Ge27  1  0.500000  0.669449  0.971781  1
