# generated using pymatgen
data_Y5HoGaNiOs
_symmetry_space_group_name_H-M   'P 1'
_cell_length_a   8.38616409
_cell_length_b   8.40911222
_cell_length_c   8.38616434
_cell_angle_alpha   112.96753207
_cell_angle_beta   109.93026350
_cell_angle_gamma   105.49269326
_symmetry_Int_Tables_number   1
_chemical_formula_structural   Y5HoGaNiOs
_chemical_formula_sum   'Y10 Ho2 Ga2 Ni2 Os2'
_cell_volume   453.92312518
_cell_formula_units_Z   2
loop_
 _symmetry_equiv_pos_site_id
 _symmetry_equiv_pos_as_xyz
  1  'x, y, z'
loop_
 _atom_site_type_symbol
 _atom_site_label
 _atom_site_symmetry_multiplicity
 _atom_site_fract_x
 _atom_site_fract_y
 _atom_site_fract_z
 _atom_site_occupancy
  Y  Y0  1  0.434325  0.241242  0.191370  1
  Y  Y1  1  0.565675  0.758758  0.808630  1
  Y  Y2  1  0.049871  0.241242  0.806917  1
  Y  Y3  1  0.950129  0.758758  0.193083  1
  Y  Y4  1  0.179832  0.277170  0.457619  1
  Y  Y5  1  0.820168  0.722830  0.542381  1
  Y  Y6  1  0.180449  0.722830  0.902662  1
  Y  Y7  1  0.819551  0.277170  0.097338  1
  Y  Y8  1  0.330444  0.642006  0.311564  1
  Y  Y9  1  0.669556  0.357994  0.688436  1
  Ho  Ho10  1  0.331409  0.016465  0.685057  1
  Ho  Ho11  1  0.668591  0.983535  0.314943  1
  Ga  Ga12  1  0.500000  0.500000  0.000000  1
  Ga  Ga13  1  0.000000  0.000000  0.000000  1
  Ni  Ni14  1  0.116336  0.617319  0.500984  1
  Ni  Ni15  1  0.883664  0.382681  0.499016  1
  Os  Os16  1  0.330921  0.000000  0.330921  1
  Os  Os17  1  0.669079  0.000000  0.669079  1
