# generated using pymatgen
data_CsBeVO4
_symmetry_space_group_name_H-M   'P 1'
_cell_length_a   5.53115318
_cell_length_b   5.53115314
_cell_length_c   5.53081337
_cell_angle_alpha   60.00002953
_cell_angle_beta   60.00002669
_cell_angle_gamma   59.96892645
_symmetry_Int_Tables_number   1
_chemical_formula_structural   CsBeVO4
_chemical_formula_sum   'Cs1 Be1 V1 O4'
_cell_volume   119.61990885
_cell_formula_units_Z   1
loop_
 _symmetry_equiv_pos_site_id
 _symmetry_equiv_pos_as_xyz
  1  'x, y, z'
loop_
 _atom_site_type_symbol
 _atom_site_label
 _atom_site_symmetry_multiplicity
 _atom_site_fract_x
 _atom_site_fract_y
 _atom_site_fract_z
 _atom_site_occupancy
  Cs  Cs0  1  0.001405  0.001405  0.982571  1
  Be  Be1  1  0.749828  0.749828  0.734544  1
  V  V2  1  0.500010  0.500010  0.484468  1
  O  O3  1  0.628432  0.114478  0.608245  1
  O  O4  1  0.633040  0.633040  0.098907  1
  O  O5  1  0.114478  0.628432  0.608245  1
  O  O6  1  0.623807  0.623807  0.622319  1
