# generated using pymatgen
data_Ho4UNbRu6
_symmetry_space_group_name_H-M   'P 1'
_cell_length_a   5.76525401
_cell_length_b   5.76525350
_cell_length_c   7.91713600
_cell_angle_alpha   89.99915606
_cell_angle_beta   90.00084167
_cell_angle_gamma   119.99896616
_symmetry_Int_Tables_number   1
_chemical_formula_structural   Ho4UNbRu6
_chemical_formula_sum   'Ho4 U1 Nb1 Ru6'
_cell_volume   227.89779096
_cell_formula_units_Z   1
loop_
 _symmetry_equiv_pos_site_id
 _symmetry_equiv_pos_as_xyz
  1  'x, y, z'
loop_
 _atom_site_type_symbol
 _atom_site_label
 _atom_site_symmetry_multiplicity
 _atom_site_fract_x
 _atom_site_fract_y
 _atom_site_fract_z
 _atom_site_occupancy
  Ho  Ho0  1  0.666658  0.333342  0.561701  1
  Ho  Ho1  1  0.333342  0.666658  0.438299  1
  Ho  Ho2  1  0.333340  0.666660  0.055967  1
  Ho  Ho3  1  0.666660  0.333340  0.944033  1
  U  U4  1  0.000000  0.000000  0.500000  1
  Nb  Nb5  1  0.000000  0.000000  0.000000  1
  Ru  Ru6  1  0.168481  0.336994  0.744829  1
  Ru  Ru7  1  0.168501  0.831499  0.744831  1
  Ru  Ru8  1  0.663006  0.831519  0.744829  1
  Ru  Ru9  1  0.831519  0.663006  0.255171  1
  Ru  Ru10  1  0.831499  0.168501  0.255169  1
  Ru  Ru11  1  0.336994  0.168481  0.255171  1
