# generated using pymatgen
data_Ta6Zn6IrRh11
_symmetry_space_group_name_H-M   'P 1'
_cell_length_a   4.16369900
_cell_length_b   6.93178500
_cell_length_c   12.48385900
_cell_angle_alpha   90.00040491
_cell_angle_beta   89.99994494
_cell_angle_gamma   90.00003029
_symmetry_Int_Tables_number   1
_chemical_formula_structural   Ta6Zn6IrRh11
_chemical_formula_sum   'Ta6 Zn6 Ir1 Rh11'
_cell_volume   360.30746902
_cell_formula_units_Z   1
loop_
 _symmetry_equiv_pos_site_id
 _symmetry_equiv_pos_as_xyz
  1  'x, y, z'
loop_
 _atom_site_type_symbol
 _atom_site_label
 _atom_site_symmetry_multiplicity
 _atom_site_fract_x
 _atom_site_fract_y
 _atom_site_fract_z
 _atom_site_occupancy
  Ta  Ta0  1  0.000000  0.498463  0.999993  1
  Ta  Ta1  1  0.500007  0.000028  0.166319  1
  Ta  Ta2  1  0.000001  0.500508  0.333491  1
  Ta  Ta3  1  0.500001  0.000164  0.500004  1
  Ta  Ta4  1  0.999999  0.500500  0.666502  1
  Ta  Ta5  1  0.499993  0.000037  0.833675  1
  Zn  Zn6  1  0.000000  0.998179  0.000019  1
  Zn  Zn7  1  0.500007  0.500962  0.167215  1
  Zn  Zn8  1  0.000001  0.000005  0.333235  1
  Zn  Zn9  1  0.500001  0.499889  0.499975  1
  Zn  Zn10  1  0.999999  0.000008  0.666735  1
  Zn  Zn11  1  0.499994  0.500926  0.832814  1
  Ir  Ir12  1  0.500001  0.251223  0.999994  1
  Rh  Rh13  1  0.500001  0.750806  0.999976  1
  Rh  Rh14  1  0.000002  0.250077  0.167039  1
  Rh  Rh15  1  0.000002  0.749893  0.166623  1
  Rh  Rh16  1  0.500007  0.249574  0.333495  1
  Rh  Rh17  1  0.500007  0.749562  0.333532  1
  Rh  Rh18  1  0.000000  0.249711  0.500005  1
  Rh  Rh19  1  0.999999  0.750332  0.500007  1
  Rh  Rh20  1  0.499992  0.249636  0.666529  1
  Rh  Rh21  1  0.499993  0.749527  0.666496  1
  Rh  Rh22  1  0.999999  0.250035  0.832972  1
  Rh  Rh23  1  0.000000  0.749951  0.833354  1
