# generated using pymatgen
data_Ti5ZnSnBi2
_symmetry_space_group_name_H-M   'P 1'
_cell_length_a   8.38036619
_cell_length_b   8.38036633
_cell_length_c   5.60631300
_cell_angle_alpha   90.00000000
_cell_angle_beta   90.00000000
_cell_angle_gamma   120.40136234
_symmetry_Int_Tables_number   1
_chemical_formula_structural   Ti5ZnSnBi2
_chemical_formula_sum   'Ti10 Zn2 Sn2 Bi4'
_cell_volume   339.59654885
_cell_formula_units_Z   2
loop_
 _symmetry_equiv_pos_site_id
 _symmetry_equiv_pos_as_xyz
  1  'x, y, z'
loop_
 _atom_site_type_symbol
 _atom_site_label
 _atom_site_symmetry_multiplicity
 _atom_site_fract_x
 _atom_site_fract_y
 _atom_site_fract_z
 _atom_site_occupancy
  Ti  Ti0  1  0.271195  0.008073  0.750000  1
  Ti  Ti1  1  0.728805  0.991927  0.250000  1
  Ti  Ti2  1  0.008073  0.271195  0.750000  1
  Ti  Ti3  1  0.991927  0.728805  0.250000  1
  Ti  Ti4  1  0.728611  0.728611  0.750000  1
  Ti  Ti5  1  0.271389  0.271389  0.250000  1
  Ti  Ti6  1  0.336492  0.663508  0.500000  1
  Ti  Ti7  1  0.663508  0.336492  0.500000  1
  Ti  Ti8  1  0.663508  0.336492  0.000000  1
  Ti  Ti9  1  0.336492  0.663508  0.000000  1
  Zn  Zn10  1  0.000000  0.000000  0.500000  1
  Zn  Zn11  1  0.000000  0.000000  0.000000  1
  Sn  Sn12  1  0.387395  0.387395  0.750000  1
  Sn  Sn13  1  0.612605  0.612605  0.250000  1
  Bi  Bi14  1  0.618784  0.001724  0.750000  1
  Bi  Bi15  1  0.381216  0.998276  0.250000  1
  Bi  Bi16  1  0.001724  0.618784  0.750000  1
  Bi  Bi17  1  0.998276  0.381216  0.250000  1
