# generated using pymatgen
data_Ca4PaIr2
_symmetry_space_group_name_H-M   'P 1'
_cell_length_a   6.71625136
_cell_length_b   7.28219419
_cell_length_c   8.91607696
_cell_angle_alpha   97.74675810
_cell_angle_beta   112.12553048
_cell_angle_gamma   89.99999498
_symmetry_Int_Tables_number   1
_chemical_formula_structural   Ca4PaIr2
_chemical_formula_sum   'Ca8 Pa2 Ir4'
_cell_volume   399.66503116
_cell_formula_units_Z   2
loop_
 _symmetry_equiv_pos_site_id
 _symmetry_equiv_pos_as_xyz
  1  'x, y, z'
loop_
 _atom_site_type_symbol
 _atom_site_label
 _atom_site_symmetry_multiplicity
 _atom_site_fract_x
 _atom_site_fract_y
 _atom_site_fract_z
 _atom_site_occupancy
  Ca  Ca0  1  0.979636  0.921318  0.176493  1
  Ca  Ca1  1  0.803141  0.578682  0.823507  1
  Ca  Ca2  1  0.020364  0.078682  0.823507  1
  Ca  Ca3  1  0.196859  0.421318  0.176493  1
  Ca  Ca4  1  0.638219  0.814377  0.433506  1
  Ca  Ca5  1  0.204713  0.685623  0.566494  1
  Ca  Ca6  1  0.361781  0.185623  0.566494  1
  Ca  Ca7  1  0.795287  0.314377  0.433506  1
  Pa  Pa8  1  0.433476  0.750000  0.000000  1
  Pa  Pa9  1  0.566524  0.250000  0.000000  1
  Ir  Ir10  1  0.771417  0.559080  0.184944  1
  Ir  Ir11  1  0.586472  0.940920  0.815056  1
  Ir  Ir12  1  0.228584  0.440920  0.815056  1
  Ir  Ir13  1  0.413528  0.059080  0.184944  1
