# generated using pymatgen
data_Th10AlBi3Pb4
_symmetry_space_group_name_H-M   'P 1'
_cell_length_a   9.79703816
_cell_length_b   9.78309794
_cell_length_c   6.61566633
_cell_angle_alpha   89.89382543
_cell_angle_beta   90.05301018
_cell_angle_gamma   119.95294154
_symmetry_Int_Tables_number   1
_chemical_formula_structural   Th10AlBi3Pb4
_chemical_formula_sum   'Th10 Al1 Bi3 Pb4'
_cell_volume   549.38958651
_cell_formula_units_Z   1
loop_
 _symmetry_equiv_pos_site_id
 _symmetry_equiv_pos_as_xyz
  1  'x, y, z'
loop_
 _atom_site_type_symbol
 _atom_site_label
 _atom_site_symmetry_multiplicity
 _atom_site_fract_x
 _atom_site_fract_y
 _atom_site_fract_z
 _atom_site_occupancy
  Th  Th0  1  0.667303  0.334340  0.501101  1
  Th  Th1  1  0.332697  0.667039  0.501101  1
  Th  Th2  1  0.333336  0.666552  0.999231  1
  Th  Th3  1  0.666664  0.333215  0.999231  1
  Th  Th4  1  0.720511  0.719512  0.238460  1
  Th  Th5  1  0.279489  0.999001  0.238460  1
  Th  Th6  1  0.000000  0.279680  0.237620  1
  Th  Th7  1  0.280136  0.280549  0.762039  1
  Th  Th8  1  0.719864  0.000413  0.762039  1
  Th  Th9  1  0.000000  0.719097  0.761236  1
  Al  Al10  1  0.000000  0.999519  0.998332  1
  Bi  Bi11  1  0.000000  0.999985  0.499939  1
  Bi  Bi12  1  0.380594  0.380503  0.253779  1
  Bi  Bi13  1  0.619406  0.999909  0.253779  1
  Pb  Pb14  1  0.000000  0.620822  0.253265  1
  Pb  Pb15  1  0.621569  0.621042  0.746999  1
  Pb  Pb16  1  0.378431  0.999473  0.746999  1
  Pb  Pb17  1  0.000000  0.379352  0.746389  1
