# generated using pymatgen
data_Ho5Sc5In8(CuRh)2
_symmetry_space_group_name_H-M   'P 1'
_cell_length_a   3.53249100
_cell_length_b   7.85353370
_cell_length_c   17.74126402
_cell_angle_alpha   89.71956025
_cell_angle_beta   90.00000000
_cell_angle_gamma   90.00000000
_symmetry_Int_Tables_number   1
_chemical_formula_structural   Ho5Sc5In8(CuRh)2
_chemical_formula_sum   'Ho5 Sc5 In8 Cu2 Rh2'
_cell_volume   492.18177982
_cell_formula_units_Z   1
loop_
 _symmetry_equiv_pos_site_id
 _symmetry_equiv_pos_as_xyz
  1  'x, y, z'
loop_
 _atom_site_type_symbol
 _atom_site_label
 _atom_site_symmetry_multiplicity
 _atom_site_fract_x
 _atom_site_fract_y
 _atom_site_fract_z
 _atom_site_occupancy
  Ho  Ho0  1  0.000000  0.000000  0.000000  1
  Ho  Ho1  1  0.000000  0.740602  0.781189  1
  Ho  Ho2  1  0.000000  0.259398  0.218811  1
  Ho  Ho3  1  0.000000  0.258675  0.717029  1
  Ho  Ho4  1  0.000000  0.741325  0.282971  1
  Sc  Sc5  1  0.000000  0.500000  0.500000  1
  Sc  Sc6  1  0.000000  0.877427  0.582701  1
  Sc  Sc7  1  0.000000  0.122573  0.417299  1
  Sc  Sc8  1  0.000000  0.375625  0.912595  1
  Sc  Sc9  1  0.000000  0.624375  0.087405  1
  In  In10  1  0.500000  0.800597  0.438565  1
  In  In11  1  0.500000  0.199403  0.561435  1
  In  In12  1  0.500000  0.308394  0.062869  1
  In  In13  1  0.500000  0.691606  0.937131  1
  In  In14  1  0.500000  0.924387  0.152008  1
  In  In15  1  0.500000  0.075613  0.847992  1
  In  In16  1  0.500000  0.421868  0.355520  1
  In  In17  1  0.500000  0.578132  0.644480  1
  Cu  Cu18  1  0.500000  0.962865  0.692602  1
  Cu  Cu19  1  0.500000  0.037135  0.307398  1
  Rh  Rh20  1  0.500000  0.461133  0.806519  1
  Rh  Rh21  1  0.500000  0.538867  0.193481  1
