# generated using pymatgen
data_LuZr5Zn23C
_symmetry_space_group_name_H-M   'P 1'
_cell_length_a   8.73428192
_cell_length_b   8.71571540
_cell_length_c   8.71571482
_cell_angle_alpha   60.14098403
_cell_angle_beta   59.92950589
_cell_angle_gamma   59.92949816
_symmetry_Int_Tables_number   1
_chemical_formula_structural   LuZr5Zn23C
_chemical_formula_sum   'Lu1 Zr5 Zn23 C1'
_cell_volume   469.15275454
_cell_formula_units_Z   1
loop_
 _symmetry_equiv_pos_site_id
 _symmetry_equiv_pos_as_xyz
  1  'x, y, z'
loop_
 _atom_site_type_symbol
 _atom_site_label
 _atom_site_symmetry_multiplicity
 _atom_site_fract_x
 _atom_site_fract_y
 _atom_site_fract_z
 _atom_site_occupancy
  Lu  Lu0  1  0.696310  0.303690  0.303690  1
  Zr  Zr1  1  0.304326  0.695674  0.695674  1
  Zr  Zr2  1  0.310746  0.689254  0.315161  1
  Zr  Zr3  1  0.684839  0.315161  0.689254  1
  Zr  Zr4  1  0.310746  0.315161  0.689254  1
  Zr  Zr5  1  0.684839  0.689254  0.315161  1
  Zn  Zn6  1  0.125908  0.117811  0.117811  1
  Zn  Zn7  1  0.878985  0.879591  0.879591  1
  Zn  Zn8  1  0.120409  0.121015  0.638170  1
  Zn  Zn9  1  0.120409  0.638170  0.121015  1
  Zn  Zn10  1  0.882189  0.874092  0.361528  1
  Zn  Zn11  1  0.882189  0.361528  0.874092  1
  Zn  Zn12  1  0.638472  0.117811  0.117811  1
  Zn  Zn13  1  0.361830  0.879591  0.879591  1
  Zn  Zn14  1  0.499671  0.000329  0.000329  1
  Zn  Zn15  1  0.999671  0.500329  0.500329  1
  Zn  Zn16  1  0.000659  0.500443  0.999341  1
  Zn  Zn17  1  0.499557  0.999341  0.500443  1
  Zn  Zn18  1  0.000659  0.999341  0.500443  1
  Zn  Zn19  1  0.499557  0.500443  0.999341  1
  Zn  Zn20  1  0.329510  0.330885  0.330885  1
  Zn  Zn21  1  0.667444  0.669434  0.669434  1
  Zn  Zn22  1  0.330566  0.332556  0.006313  1
  Zn  Zn23  1  0.330566  0.006313  0.332556  1
  Zn  Zn24  1  0.669115  0.670490  0.991280  1
  Zn  Zn25  1  0.669115  0.991280  0.670490  1
  Zn  Zn26  1  0.008720  0.330885  0.330885  1
  Zn  Zn27  1  0.993687  0.669434  0.669434  1
  Zn  Zn28  1  0.000511  0.999489  0.999489  1
  C  C29  1  0.498795  0.501205  0.501205  1
