# generated using pymatgen
data_RbTb2YF10
_symmetry_space_group_name_H-M   'P 1'
_cell_length_a   8.33132024
_cell_length_b   8.32736395
_cell_length_c   8.32736494
_cell_angle_alpha   60.03131631
_cell_angle_beta   59.98418480
_cell_angle_gamma   59.98419743
_symmetry_Int_Tables_number   1
_chemical_formula_structural   RbTb2YF10
_chemical_formula_sum   'Rb2 Tb4 Y2 F20'
_cell_volume   408.51949708
_cell_formula_units_Z   2
loop_
 _symmetry_equiv_pos_site_id
 _symmetry_equiv_pos_as_xyz
  1  'x, y, z'
loop_
 _atom_site_type_symbol
 _atom_site_label
 _atom_site_symmetry_multiplicity
 _atom_site_fract_x
 _atom_site_fract_y
 _atom_site_fract_z
 _atom_site_occupancy
  Rb  Rb0  1  0.250000  0.250000  0.250000  1
  Rb  Rb1  1  0.750000  0.750000  0.750000  1
  Tb  Tb2  1  0.240224  0.759776  0.240224  1
  Tb  Tb3  1  0.759776  0.240224  0.759776  1
  Tb  Tb4  1  0.240224  0.240224  0.759776  1
  Tb  Tb5  1  0.759776  0.759776  0.240224  1
  Y  Y6  1  0.759536  0.240464  0.240464  1
  Y  Y7  1  0.240464  0.759536  0.759536  1
  F  F8  1  0.829435  0.500000  0.500000  1
  F  F9  1  0.170565  0.500000  0.500000  1
  F  F10  1  0.500000  0.829434  0.170566  1
  F  F11  1  0.500000  0.170566  0.829434  1
  F  F12  1  0.499600  0.829294  0.500399  1
  F  F13  1  0.170707  0.500400  0.829293  1
  F  F14  1  0.500400  0.170706  0.499601  1
  F  F15  1  0.829293  0.499600  0.170707  1
  F  F16  1  0.499600  0.500399  0.829294  1
  F  F17  1  0.500400  0.499601  0.170706  1
  F  F18  1  0.170707  0.829293  0.500399  1
  F  F19  1  0.829293  0.170707  0.499601  1
  F  F20  1  0.110195  0.110703  0.110703  1
  F  F21  1  0.889805  0.889297  0.889297  1
  F  F22  1  0.110702  0.110195  0.668400  1
  F  F23  1  0.110703  0.668400  0.110195  1
  F  F24  1  0.889298  0.889805  0.331600  1
  F  F25  1  0.889297  0.331600  0.889805  1
  F  F26  1  0.668400  0.110702  0.110702  1
  F  F27  1  0.331600  0.889298  0.889298  1
