# generated using pymatgen
data_Hf4Ga3OsN
_symmetry_space_group_name_H-M   'P 1'
_cell_length_a   7.87921600
_cell_length_b   7.87921631
_cell_length_c   5.40553300
_cell_angle_alpha   90.00000000
_cell_angle_beta   90.00000000
_cell_angle_gamma   120.00000709
_symmetry_Int_Tables_number   1
_chemical_formula_structural   Hf4Ga3OsN
_chemical_formula_sum   'Hf8 Ga6 Os2 N2'
_cell_volume   290.62646103
_cell_formula_units_Z   2
loop_
 _symmetry_equiv_pos_site_id
 _symmetry_equiv_pos_as_xyz
  1  'x, y, z'
loop_
 _atom_site_type_symbol
 _atom_site_label
 _atom_site_symmetry_multiplicity
 _atom_site_fract_x
 _atom_site_fract_y
 _atom_site_fract_z
 _atom_site_occupancy
  Hf  Hf0  1  0.232462  0.000000  0.250621  1
  Hf  Hf1  1  0.767538  0.000000  0.749379  1
  Hf  Hf2  1  0.000000  0.232462  0.250621  1
  Hf  Hf3  1  0.000000  0.767538  0.749379  1
  Hf  Hf4  1  0.767538  0.767538  0.250621  1
  Hf  Hf5  1  0.232462  0.232462  0.749379  1
  Hf  Hf6  1  0.666667  0.333333  0.500000  1
  Hf  Hf7  1  0.333333  0.666667  0.500000  1
  Ga  Ga8  1  0.592095  0.000000  0.233271  1
  Ga  Ga9  1  0.407905  0.000000  0.766729  1
  Ga  Ga10  1  0.000000  0.592095  0.233271  1
  Ga  Ga11  1  0.000000  0.407905  0.766729  1
  Ga  Ga12  1  0.407905  0.407905  0.233271  1
  Ga  Ga13  1  0.592095  0.592095  0.766729  1
  Os  Os14  1  0.333333  0.666667  0.000000  1
  Os  Os15  1  0.666667  0.333333  0.000000  1
  N  N16  1  0.000000  0.000000  0.000000  1
  N  N17  1  0.000000  0.000000  0.500000  1
