# generated using pymatgen
data_Dy5P12Ir11Os8
_symmetry_space_group_name_H-M   'P 1'
_cell_length_a   12.63888133
_cell_length_b   12.59620919
_cell_length_c   3.99970000
_cell_angle_alpha   90.00000000
_cell_angle_beta   90.00000000
_cell_angle_gamma   120.02440047
_symmetry_Int_Tables_number   1
_chemical_formula_structural   Dy5P12Ir11Os8
_chemical_formula_sum   'Dy5 P12 Ir11 Os8'
_cell_volume   551.31488158
_cell_formula_units_Z   1
loop_
 _symmetry_equiv_pos_site_id
 _symmetry_equiv_pos_as_xyz
  1  'x, y, z'
loop_
 _atom_site_type_symbol
 _atom_site_label
 _atom_site_symmetry_multiplicity
 _atom_site_fract_x
 _atom_site_fract_y
 _atom_site_fract_z
 _atom_site_occupancy
  Dy  Dy0  1  0.666567  0.331079  0.000000  1
  Dy  Dy1  1  0.335124  0.669250  0.000000  1
  Dy  Dy2  1  0.812494  0.000475  0.500000  1
  Dy  Dy3  1  0.184047  0.185567  0.500000  1
  Dy  Dy4  1  0.999265  0.814264  0.500000  1
  P  P5  1  0.635812  0.998549  0.000000  1
  P  P6  1  0.361562  0.361525  0.000000  1
  P  P7  1  0.000311  0.637806  0.000000  1
  P  P8  1  0.689787  0.516247  0.500000  1
  P  P9  1  0.827231  0.306126  0.500000  1
  P  P10  1  0.316096  0.832070  0.500000  1
  P  P11  1  0.518291  0.691661  0.500000  1
  P  P12  1  0.177899  0.000113  0.000000  1
  P  P13  1  0.820625  0.820568  0.000000  1
  P  P14  1  0.996185  0.179418  0.000000  1
  P  P15  1  0.480500  0.169720  0.500000  1
  P  P16  1  0.172921  0.483956  0.500000  1
  Ir  Ir17  1  0.625565  0.804080  0.000000  1
  Ir  Ir18  1  0.183143  0.376975  0.000000  1
  Ir  Ir19  1  0.374435  0.180980  0.000000  1
  Ir  Ir20  1  0.192004  0.819030  0.000000  1
  Ir  Ir21  1  0.805226  0.622473  0.000000  1
  Ir  Ir22  1  0.870710  0.505762  0.500000  1
  Ir  Ir23  1  0.492480  0.361177  0.500000  1
  Ir  Ir24  1  0.635117  0.129885  0.500000  1
  Ir  Ir25  1  0.133008  0.640716  0.500000  1
  Ir  Ir26  1  0.363536  0.492995  0.500000  1
  Ir  Ir27  1  0.999221  0.000566  0.000000  1
  Os  Os28  1  0.510585  0.871113  0.500000  1
  Os  Os29  1  0.709029  0.707383  0.500000  1
  Os  Os30  1  0.002550  0.292805  0.500000  1
  Os  Os31  1  0.452297  0.999470  0.000000  1
  Os  Os32  1  0.545766  0.543974  0.000000  1
  Os  Os33  1  0.002944  0.455918  0.000000  1
  Os  Os34  1  0.818597  0.196816  0.000000  1
  Os  Os35  1  0.289068  0.999482  0.500000  1
