# generated using pymatgen
data_Ho7Sn22HgOs6
_symmetry_space_group_name_H-M   'P 1'
_cell_length_a   9.81578000
_cell_length_b   9.81577877
_cell_length_c   10.17839100
_cell_angle_alpha   90.00000000
_cell_angle_beta   90.00000000
_cell_angle_gamma   119.99999739
_symmetry_Int_Tables_number   1
_chemical_formula_structural   Ho7Sn22HgOs6
_chemical_formula_sum   'Ho7 Sn22 Hg1 Os6'
_cell_volume   849.29653280
_cell_formula_units_Z   1
loop_
 _symmetry_equiv_pos_site_id
 _symmetry_equiv_pos_as_xyz
  1  'x, y, z'
loop_
 _atom_site_type_symbol
 _atom_site_label
 _atom_site_symmetry_multiplicity
 _atom_site_fract_x
 _atom_site_fract_y
 _atom_site_fract_z
 _atom_site_occupancy
  Ho  Ho0  1  0.000000  0.000000  0.000000  1
  Ho  Ho1  1  0.518255  0.481745  0.693115  1
  Ho  Ho2  1  0.518255  0.036508  0.693115  1
  Ho  Ho3  1  0.963492  0.481745  0.693115  1
  Ho  Ho4  1  0.036508  0.518255  0.306885  1
  Ho  Ho5  1  0.481745  0.963492  0.306885  1
  Ho  Ho6  1  0.481745  0.518255  0.306885  1
  Sn  Sn7  1  0.666667  0.333333  0.177777  1
  Sn  Sn8  1  0.666667  0.333333  0.874787  1
  Sn  Sn9  1  0.333333  0.666667  0.125213  1
  Sn  Sn10  1  0.350275  0.350275  0.000000  1
  Sn  Sn11  1  0.000000  0.649725  0.000000  1
  Sn  Sn12  1  0.649725  0.000000  0.000000  1
  Sn  Sn13  1  0.649725  0.649725  0.000000  1
  Sn  Sn14  1  0.333333  0.666667  0.822223  1
  Sn  Sn15  1  0.440289  0.220144  0.459347  1
  Sn  Sn16  1  0.220144  0.779856  0.540653  1
  Sn  Sn17  1  0.220144  0.440289  0.540653  1
  Sn  Sn18  1  0.559711  0.779856  0.540653  1
  Sn  Sn19  1  0.121923  0.878077  0.268088  1
  Sn  Sn20  1  0.779856  0.559711  0.459347  1
  Sn  Sn21  1  0.779856  0.220144  0.459347  1
  Sn  Sn22  1  0.350275  0.000000  0.000000  1
  Sn  Sn23  1  0.121923  0.243845  0.268088  1
  Sn  Sn24  1  0.756155  0.878077  0.268088  1
  Sn  Sn25  1  0.243845  0.121923  0.731912  1
  Sn  Sn26  1  0.878077  0.756155  0.731912  1
  Sn  Sn27  1  0.878077  0.121923  0.731912  1
  Sn  Sn28  1  0.000000  0.350275  0.000000  1
  Hg  Hg29  1  0.000000  0.000000  0.500000  1
  Os  Os30  1  0.168610  0.831390  0.796751  1
  Os  Os31  1  0.168610  0.337221  0.796751  1
  Os  Os32  1  0.662779  0.831390  0.796751  1
  Os  Os33  1  0.337221  0.168610  0.203249  1
  Os  Os34  1  0.831390  0.662779  0.203249  1
  Os  Os35  1  0.831390  0.168610  0.203249  1
