# generated using pymatgen
data_La3Pr(SeO4)6
_symmetry_space_group_name_H-M   'P 1'
_cell_length_a   10.38614540
_cell_length_b   10.38614533
_cell_length_c   10.38614462
_cell_angle_alpha   57.90607396
_cell_angle_beta   57.90607425
_cell_angle_gamma   57.90607062
_symmetry_Int_Tables_number   1
_chemical_formula_structural   La3Pr(SeO4)6
_chemical_formula_sum   'La3 Pr1 Se6 O24'
_cell_volume   754.15276345
_cell_formula_units_Z   1
loop_
 _symmetry_equiv_pos_site_id
 _symmetry_equiv_pos_as_xyz
  1  'x, y, z'
loop_
 _atom_site_type_symbol
 _atom_site_label
 _atom_site_symmetry_multiplicity
 _atom_site_fract_x
 _atom_site_fract_y
 _atom_site_fract_z
 _atom_site_occupancy
  La  La0  1  0.143810  0.143810  0.143810  1
  La  La1  1  0.856235  0.856235  0.856235  1
  La  La2  1  0.356217  0.356217  0.356217  1
  Pr  Pr3  1  0.643906  0.643906  0.643906  1
  Se  Se4  1  0.250969  0.536747  0.962750  1
  Se  Se5  1  0.463892  0.035614  0.749865  1
  Se  Se6  1  0.035614  0.749865  0.463892  1
  Se  Se7  1  0.962750  0.250969  0.536747  1
  Se  Se8  1  0.536747  0.962750  0.250969  1
  Se  Se9  1  0.749865  0.463892  0.035614  1
  O  O10  1  0.006870  0.774400  0.624500  1
  O  O11  1  0.774400  0.624500  0.006870  1
  O  O12  1  0.413404  0.564221  0.798757  1
  O  O13  1  0.274806  0.507264  0.124088  1
  O  O14  1  0.624500  0.006870  0.774400  1
  O  O15  1  0.493570  0.874655  0.725210  1
  O  O16  1  0.200044  0.587854  0.436464  1
  O  O17  1  0.088490  0.700699  0.935720  1
  O  O18  1  0.299612  0.062961  0.912126  1
  O  O19  1  0.436464  0.200044  0.587854  1
  O  O20  1  0.062961  0.912126  0.299612  1
  O  O21  1  0.874655  0.725210  0.493570  1
  O  O22  1  0.124088  0.274806  0.507264  1
  O  O23  1  0.935720  0.088490  0.700699  1
  O  O24  1  0.564221  0.798757  0.413404  1
  O  O25  1  0.700699  0.935720  0.088490  1
  O  O26  1  0.912126  0.299612  0.062961  1
  O  O27  1  0.798757  0.413404  0.564221  1
  O  O28  1  0.507264  0.124088  0.274806  1
  O  O29  1  0.375838  0.992086  0.226355  1
  O  O30  1  0.725210  0.493570  0.874655  1
  O  O31  1  0.587854  0.436464  0.200044  1
  O  O32  1  0.226355  0.375838  0.992086  1
  O  O33  1  0.992086  0.226355  0.375838  1
