# generated using pymatgen
data_Nd16Tm3LuSn16
_symmetry_space_group_name_H-M   'P 1'
_cell_length_a   8.20148800
_cell_length_b   8.37998400
_cell_length_c   15.89740800
_cell_angle_alpha   90.00000000
_cell_angle_beta   90.00000000
_cell_angle_gamma   89.99874907
_symmetry_Int_Tables_number   1
_chemical_formula_structural   Nd16Tm3LuSn16
_chemical_formula_sum   'Nd16 Tm3 Lu1 Sn16'
_cell_volume   1092.60243365
_cell_formula_units_Z   1
loop_
 _symmetry_equiv_pos_site_id
 _symmetry_equiv_pos_as_xyz
  1  'x, y, z'
loop_
 _atom_site_type_symbol
 _atom_site_label
 _atom_site_symmetry_multiplicity
 _atom_site_fract_x
 _atom_site_fract_y
 _atom_site_fract_z
 _atom_site_occupancy
  Nd  Nd0  1  0.018578  0.180823  0.401945  1
  Nd  Nd1  1  0.365875  0.838371  0.121179  1
  Nd  Nd2  1  0.134022  0.338425  0.621192  1
  Nd  Nd3  1  0.481464  0.680807  0.901940  1
  Nd  Nd4  1  0.865880  0.661646  0.121169  1
  Nd  Nd5  1  0.134022  0.338425  0.878808  1
  Nd  Nd6  1  0.481464  0.680807  0.598060  1
  Nd  Nd7  1  0.634170  0.161706  0.621188  1
  Nd  Nd8  1  0.865880  0.661646  0.378831  1
  Nd  Nd9  1  0.018578  0.180823  0.098055  1
  Nd  Nd10  1  0.981393  0.819140  0.901945  1
  Nd  Nd11  1  0.634170  0.161706  0.878812  1
  Nd  Nd12  1  0.518567  0.319168  0.098046  1
  Nd  Nd13  1  0.365875  0.838371  0.378821  1
  Nd  Nd14  1  0.981393  0.819140  0.598055  1
  Nd  Nd15  1  0.518567  0.319168  0.401954  1
  Tm  Tm16  1  0.197968  0.502458  0.250000  1
  Tm  Tm17  1  0.697972  0.997530  0.250000  1
  Tm  Tm18  1  0.302047  0.002430  0.750000  1
  Lu  Lu19  1  0.801946  0.497508  0.750000  1
  Sn  Sn20  1  0.793181  0.465549  0.544832  1
  Sn  Sn21  1  0.706819  0.965543  0.455235  1
  Sn  Sn22  1  0.675242  0.851287  0.750000  1
  Sn  Sn23  1  0.206824  0.534468  0.455235  1
  Sn  Sn24  1  0.293183  0.034442  0.955225  1
  Sn  Sn25  1  0.824749  0.351483  0.250000  1
  Sn  Sn26  1  0.793181  0.465549  0.955168  1
  Sn  Sn27  1  0.562024  0.616191  0.250000  1
  Sn  Sn28  1  0.206824  0.534468  0.044765  1
  Sn  Sn29  1  0.438169  0.383835  0.750000  1
  Sn  Sn30  1  0.175213  0.648520  0.750000  1
  Sn  Sn31  1  0.937975  0.116231  0.750000  1
  Sn  Sn32  1  0.293183  0.034442  0.544775  1
  Sn  Sn33  1  0.706819  0.965543  0.044765  1
  Sn  Sn34  1  0.324772  0.148551  0.250000  1
  Sn  Sn35  1  0.062008  0.883799  0.250000  1
