# generated using pymatgen
data_ThBr16
_symmetry_space_group_name_H-M   'P 1'
_cell_length_a   7.92783097
_cell_length_b   11.01780672
_cell_length_c   11.55245294
_cell_angle_alpha   120.56589037
_cell_angle_beta   115.14670318
_cell_angle_gamma   77.11742774
_symmetry_Int_Tables_number   1
_chemical_formula_structural   ThBr16
_chemical_formula_sum   'Th1 Br16'
_cell_volume   786.48088302
_cell_formula_units_Z   1
loop_
 _symmetry_equiv_pos_site_id
 _symmetry_equiv_pos_as_xyz
  1  'x, y, z'
loop_
 _atom_site_type_symbol
 _atom_site_label
 _atom_site_symmetry_multiplicity
 _atom_site_fract_x
 _atom_site_fract_y
 _atom_site_fract_z
 _atom_site_occupancy
  Th  Th0  1  0.000000  0.000000  0.000000  1
  Br  Br1  1  0.821841  0.172718  0.818115  1
  Br  Br2  1  0.178159  0.827282  0.181885  1
  Br  Br3  1  0.090691  0.854530  0.747026  1
  Br  Br4  1  0.909309  0.145470  0.252974  1
  Br  Br5  1  0.264445  0.246820  0.156490  1
  Br  Br6  1  0.735555  0.753180  0.843510  1
  Br  Br7  1  0.029500  0.260975  0.763785  1
  Br  Br8  1  0.970500  0.739025  0.236215  1
  Br  Br9  1  0.604792  0.059317  0.874108  1
  Br  Br10  1  0.395208  0.940683  0.125892  1
  Br  Br11  1  0.218445  0.581788  0.715219  1
  Br  Br12  1  0.781555  0.418212  0.284781  1
  Br  Br13  1  0.125524  0.480931  0.187609  1
  Br  Br14  1  0.874476  0.519069  0.812391  1
  Br  Br15  1  0.697427  0.653561  0.317834  1
  Br  Br16  1  0.302573  0.346439  0.682166  1
