# generated using pymatgen
data_Y11(In3Sn2)2
_symmetry_space_group_name_H-M   'P 1'
_cell_length_a   11.88844028
_cell_length_b   11.88844057
_cell_length_c   11.88844000
_cell_angle_alpha   120.07602354
_cell_angle_beta   120.07602433
_cell_angle_gamma   89.86837312
_symmetry_Int_Tables_number   1
_chemical_formula_structural   Y11(In3Sn2)2
_chemical_formula_sum   'Y22 In12 Sn8'
_cell_volume   1186.74952539
_cell_formula_units_Z   2
loop_
 _symmetry_equiv_pos_site_id
 _symmetry_equiv_pos_as_xyz
  1  'x, y, z'
loop_
 _atom_site_type_symbol
 _atom_site_label
 _atom_site_symmetry_multiplicity
 _atom_site_fract_x
 _atom_site_fract_y
 _atom_site_fract_z
 _atom_site_occupancy
  Y  Y0  1  0.687715  0.937764  0.250049  1
  Y  Y1  1  0.687715  0.437667  0.749951  1
  Y  Y2  1  0.937764  0.687715  0.250049  1
  Y  Y3  1  0.437667  0.687715  0.749951  1
  Y  Y4  1  0.312285  0.062236  0.749951  1
  Y  Y5  1  0.312285  0.562333  0.250049  1
  Y  Y6  1  0.062236  0.312285  0.749951  1
  Y  Y7  1  0.562333  0.312285  0.250049  1
  Y  Y8  1  0.896701  0.229461  0.332760  1
  Y  Y9  1  0.896701  0.563942  0.667240  1
  Y  Y10  1  0.229461  0.896701  0.332760  1
  Y  Y11  1  0.563942  0.896701  0.667240  1
  Y  Y12  1  0.103299  0.770539  0.667240  1
  Y  Y13  1  0.103299  0.436058  0.332760  1
  Y  Y14  1  0.770539  0.103299  0.667240  1
  Y  Y15  1  0.436058  0.103299  0.332760  1
  Y  Y16  1  0.326595  0.326595  0.653191  1
  Y  Y17  1  0.673405  0.673405  0.346809  1
  Y  Y18  1  0.326595  0.673405  0.000000  1
  Y  Y19  1  0.673405  0.326595  0.000000  1
  Y  Y20  1  0.834865  0.834865  0.000000  1
  Y  Y21  1  0.165135  0.165135  0.000000  1
  In  In22  1  0.034202  0.034202  0.412830  1
  In  In23  1  0.621373  0.621373  0.587170  1
  In  In24  1  0.034202  0.621373  0.000000  1
  In  In25  1  0.621373  0.034202  0.000000  1
  In  In26  1  0.965798  0.965798  0.587170  1
  In  In27  1  0.378627  0.378627  0.412830  1
  In  In28  1  0.965798  0.378627  0.000000  1
  In  In29  1  0.378627  0.965798  0.000000  1
  In  In30  1  0.128072  0.128072  0.256145  1
  In  In31  1  0.871928  0.871928  0.743855  1
  In  In32  1  0.128072  0.871928  0.000000  1
  In  In33  1  0.871928  0.128072  0.000000  1
  Sn  Sn34  1  0.145963  0.500000  0.645963  1
  Sn  Sn35  1  0.854037  0.500000  0.354037  1
  Sn  Sn36  1  0.500000  0.854037  0.354037  1
  Sn  Sn37  1  0.500000  0.145963  0.645963  1
  Sn  Sn38  1  0.613786  0.613786  0.000000  1
  Sn  Sn39  1  0.386214  0.386214  0.000000  1
  Sn  Sn40  1  0.750000  0.250000  0.500000  1
  Sn  Sn41  1  0.250000  0.750000  0.500000  1
