# generated using pymatgen
data_Gd3Tm5(Si3Pt)4
_symmetry_space_group_name_H-M   'P 1'
_cell_length_a   8.14981500
_cell_length_b   8.16315116
_cell_length_c   7.82739400
_cell_angle_alpha   90.00000000
_cell_angle_beta   90.00000000
_cell_angle_gamma   119.83175552
_symmetry_Int_Tables_number   1
_chemical_formula_structural   Gd3Tm5(Si3Pt)4
_chemical_formula_sum   'Gd3 Tm5 Si12 Pt4'
_cell_volume   451.73859819
_cell_formula_units_Z   1
loop_
 _symmetry_equiv_pos_site_id
 _symmetry_equiv_pos_as_xyz
  1  'x, y, z'
loop_
 _atom_site_type_symbol
 _atom_site_label
 _atom_site_symmetry_multiplicity
 _atom_site_fract_x
 _atom_site_fract_y
 _atom_site_fract_z
 _atom_site_occupancy
  Gd  Gd0  1  0.511591  0.023940  0.250000  1
  Gd  Gd1  1  0.487849  0.975572  0.750000  1
  Gd  Gd2  1  0.975163  0.488400  0.250000  1
  Tm  Tm3  1  0.023594  0.510868  0.750000  1
  Tm  Tm4  1  0.512442  0.488655  0.250000  1
  Tm  Tm5  1  0.487197  0.511586  0.750000  1
  Tm  Tm6  1  0.000015  0.999734  0.250000  1
  Tm  Tm7  1  0.000147  0.000291  0.750000  1
  Si  Si8  1  0.163828  0.327998  0.001305  1
  Si  Si9  1  0.835755  0.671899  0.996249  1
  Si  Si10  1  0.670611  0.835331  0.003468  1
  Si  Si11  1  0.835755  0.671899  0.503751  1
  Si  Si12  1  0.330199  0.165113  0.996216  1
  Si  Si13  1  0.163828  0.327998  0.498695  1
  Si  Si14  1  0.165382  0.834303  0.003030  1
  Si  Si15  1  0.330199  0.165113  0.503784  1
  Si  Si16  1  0.834219  0.165386  0.994311  1
  Si  Si17  1  0.670611  0.835331  0.496532  1
  Si  Si18  1  0.834219  0.165386  0.505689  1
  Si  Si19  1  0.165382  0.834303  0.496970  1
  Pt  Pt20  1  0.333644  0.662740  0.038197  1
  Pt  Pt21  1  0.667360  0.337707  0.956504  1
  Pt  Pt22  1  0.667360  0.337707  0.543496  1
  Pt  Pt23  1  0.333644  0.662740  0.461803  1
