# generated using pymatgen
data_Nd2PaRh2
_symmetry_space_group_name_H-M   'P 1'
_cell_length_a   6.28699518
_cell_length_b   6.28699607
_cell_length_c   6.28699566
_cell_angle_alpha   144.70792421
_cell_angle_beta   117.42791279
_cell_angle_gamma   73.92771933
_symmetry_Int_Tables_number   1
_chemical_formula_structural   Nd2PaRh2
_chemical_formula_sum   'Nd2 Pa1 Rh2'
_cell_volume   125.02847817
_cell_formula_units_Z   1
loop_
 _symmetry_equiv_pos_site_id
 _symmetry_equiv_pos_as_xyz
  1  'x, y, z'
loop_
 _atom_site_type_symbol
 _atom_site_label
 _atom_site_symmetry_multiplicity
 _atom_site_fract_x
 _atom_site_fract_y
 _atom_site_fract_z
 _atom_site_occupancy
  Nd  Nd0  1  0.304042  0.804042  0.500000  1
  Nd  Nd1  1  0.695958  0.195958  0.500000  1
  Pa  Pa2  1  0.000000  0.000000  0.000000  1
  Rh  Rh3  1  0.278455  0.500000  0.778455  1
  Rh  Rh4  1  0.721545  0.500000  0.221545  1
