# generated using pymatgen
data_Nb12Al2VGa6Cu3C4
_symmetry_space_group_name_H-M   'P 1'
_cell_length_a   8.30311288
_cell_length_b   8.32286595
_cell_length_c   8.32286400
_cell_angle_alpha   60.02089584
_cell_angle_beta   60.07847355
_cell_angle_gamma   60.07847381
_symmetry_Int_Tables_number   1
_chemical_formula_structural   Nb12Al2VGa6Cu3C4
_chemical_formula_sum   'Nb12 Al2 V1 Ga6 Cu3 C4'
_cell_volume   407.24377426
_cell_formula_units_Z   1
loop_
 _symmetry_equiv_pos_site_id
 _symmetry_equiv_pos_as_xyz
  1  'x, y, z'
loop_
 _atom_site_type_symbol
 _atom_site_label
 _atom_site_symmetry_multiplicity
 _atom_site_fract_x
 _atom_site_fract_y
 _atom_site_fract_z
 _atom_site_occupancy
  Nb  Nb0  1  0.565864  0.935006  0.565484  1
  Nb  Nb1  1  0.314919  0.684056  0.684056  1
  Nb  Nb2  1  0.698589  0.310018  0.310018  1
  Nb  Nb3  1  0.309325  0.699682  0.308971  1
  Nb  Nb4  1  0.684359  0.684332  0.314878  1
  Nb  Nb5  1  0.309325  0.308971  0.699682  1
  Nb  Nb6  1  0.565864  0.565484  0.935006  1
  Nb  Nb7  1  0.935088  0.565619  0.565619  1
  Nb  Nb8  1  0.550596  0.940137  0.940137  1
  Nb  Nb9  1  0.939899  0.940117  0.551456  1
  Nb  Nb10  1  0.684359  0.314878  0.684332  1
  Nb  Nb11  1  0.939899  0.551456  0.940117  1
  Al  Al12  1  0.248319  0.914517  0.914517  1
  Al  Al13  1  0.336212  0.336389  0.336389  1
  V  V14  1  0.125142  0.125134  0.125134  1
  Ga  Ga15  1  0.911952  0.911924  0.911924  1
  Ga  Ga16  1  0.997705  0.336860  0.336860  1
  Ga  Ga17  1  0.337196  0.997134  0.336830  1
  Ga  Ga18  1  0.337196  0.336830  0.997134  1
  Ga  Ga19  1  0.915003  0.251679  0.913601  1
  Ga  Ga20  1  0.915003  0.913601  0.251679  1
  Cu  Cu21  1  0.624428  0.126286  0.126286  1
  Cu  Cu22  1  0.126710  0.625174  0.125103  1
  Cu  Cu23  1  0.126710  0.125103  0.625174  1
  C  C24  1  0.625209  0.624494  0.624494  1
  C  C25  1  0.124661  0.625110  0.625110  1
  C  C26  1  0.625234  0.124996  0.625014  1
  C  C27  1  0.625234  0.625014  0.124996  1
