# generated using pymatgen
data_Er7PaGaPd24
_symmetry_space_group_name_H-M   'P 1'
_cell_length_a   8.33200866
_cell_length_b   8.33200866
_cell_length_c   8.33200866
_cell_angle_alpha   90.10250692
_cell_angle_beta   90.10250692
_cell_angle_gamma   89.89749308
_symmetry_Int_Tables_number   1
_chemical_formula_structural   Er7PaGaPd24
_chemical_formula_sum   'Er7 Pa1 Ga1 Pd24'
_cell_volume   578.42500039
_cell_formula_units_Z   1
loop_
 _symmetry_equiv_pos_site_id
 _symmetry_equiv_pos_as_xyz
  1  'x, y, z'
loop_
 _atom_site_type_symbol
 _atom_site_label
 _atom_site_symmetry_multiplicity
 _atom_site_fract_x
 _atom_site_fract_y
 _atom_site_fract_z
 _atom_site_occupancy
  Er  Er0  1  0.252294  0.747617  0.252383  1
  Er  Er1  1  0.747617  0.252294  0.252383  1
  Er  Er2  1  0.747617  0.747617  0.747706  1
  Er  Er3  1  0.747491  0.747491  0.252509  1
  Er  Er4  1  0.748128  0.252319  0.747681  1
  Er  Er5  1  0.252319  0.748128  0.747681  1
  Er  Er6  1  0.252319  0.252319  0.251872  1
  Pa  Pa7  1  0.254439  0.254439  0.745561  1
  Ga  Ga8  1  0.999168  0.999168  0.000832  1
  Pd  Pd9  1  0.497583  0.497583  0.746773  1
  Pd  Pd10  1  0.497583  0.253227  0.502417  1
  Pd  Pd11  1  0.253227  0.497583  0.502417  1
  Pd  Pd12  1  0.499836  0.499836  0.252983  1
  Pd  Pd13  1  0.499836  0.747017  0.500164  1
  Pd  Pd14  1  0.747017  0.499836  0.500164  1
  Pd  Pd15  1  0.001444  0.001444  0.709325  1
  Pd  Pd16  1  0.001444  0.290675  0.998556  1
  Pd  Pd17  1  0.290675  0.001444  0.998556  1
  Pd  Pd18  1  0.999961  0.999961  0.291054  1
  Pd  Pd19  1  0.999961  0.708946  0.000039  1
  Pd  Pd20  1  0.708946  0.999961  0.000039  1
  Pd  Pd21  1  0.002965  0.497769  0.739973  1
  Pd  Pd22  1  0.497769  0.260027  0.997035  1
  Pd  Pd23  1  0.260027  0.002965  0.502231  1
  Pd  Pd24  1  0.002965  0.260027  0.502231  1
  Pd  Pd25  1  0.497769  0.002965  0.739973  1
  Pd  Pd26  1  0.260027  0.497769  0.997035  1
  Pd  Pd27  1  0.000011  0.499733  0.259957  1
  Pd  Pd28  1  0.499733  0.740043  0.999989  1
  Pd  Pd29  1  0.000011  0.740043  0.500267  1
  Pd  Pd30  1  0.499733  0.000011  0.259957  1
  Pd  Pd31  1  0.740043  0.000011  0.500267  1
  Pd  Pd32  1  0.740043  0.499733  0.999989  1
