# generated using pymatgen
data_Tb8CeY(SiB4)4
_symmetry_space_group_name_H-M   'P 1'
_cell_length_a   7.25879109
_cell_length_b   7.25839893
_cell_length_c   8.16808803
_cell_angle_alpha   89.99056412
_cell_angle_beta   90.00412423
_cell_angle_gamma   90.04226355
_symmetry_Int_Tables_number   1
_chemical_formula_structural   Tb8CeY(SiB4)4
_chemical_formula_sum   'Tb8 Ce1 Y1 Si4 B16'
_cell_volume   430.35357538
_cell_formula_units_Z   1
loop_
 _symmetry_equiv_pos_site_id
 _symmetry_equiv_pos_as_xyz
  1  'x, y, z'
loop_
 _atom_site_type_symbol
 _atom_site_label
 _atom_site_symmetry_multiplicity
 _atom_site_fract_x
 _atom_site_fract_y
 _atom_site_fract_z
 _atom_site_occupancy
  Tb  Tb0  1  0.318739  0.818814  0.776857  1
  Tb  Tb1  1  0.319543  0.819481  0.223082  1
  Tb  Tb2  1  0.819368  0.680614  0.222875  1
  Tb  Tb3  1  0.819628  0.680826  0.776933  1
  Tb  Tb4  1  0.680727  0.180750  0.776355  1
  Tb  Tb5  1  0.180793  0.319543  0.776934  1
  Tb  Tb6  1  0.180590  0.319421  0.222879  1
  Tb  Tb7  1  0.000738  0.999106  0.500345  1
  Ce  Ce8  1  0.682352  0.182109  0.230601  1
  Y  Y9  1  0.498952  0.500896  0.500572  1
  Si  Si10  1  0.115769  0.614731  0.501819  1
  Si  Si11  1  0.885747  0.386890  0.500793  1
  Si  Si12  1  0.385758  0.114598  0.499744  1
  Si  Si13  1  0.613360  0.884750  0.499726  1
  B  B14  1  0.172583  0.038956  0.998990  1
  B  B15  1  0.827715  0.960786  0.999717  1
  B  B16  1  0.960639  0.171763  0.999472  1
  B  B17  1  0.327300  0.539570  0.999097  1
  B  B18  1  0.039722  0.827308  0.999099  1
  B  B19  1  0.671832  0.460703  0.999497  1
  B  B20  1  0.538877  0.672604  0.998987  1
  B  B21  1  0.460915  0.327626  0.999750  1
  B  B22  1  0.090323  0.590314  0.999300  1
  B  B23  1  0.909354  0.409321  0.000951  1
  B  B24  1  0.409655  0.090057  0.999344  1
  B  B25  1  0.590112  0.909655  0.999388  1
  B  B26  1  0.999484  0.999442  0.160023  1
  B  B27  1  0.000232  0.999680  0.838380  1
  B  B28  1  0.499690  0.500240  0.838384  1
  B  B29  1  0.499505  0.499449  0.160107  1
