# generated using pymatgen
data_Sm2Co9Si7Rh3
_symmetry_space_group_name_H-M   'P 1'
_cell_length_a   9.28500271
_cell_length_b   9.25591599
_cell_length_c   3.73250300
_cell_angle_alpha   89.99876765
_cell_angle_beta   90.00037541
_cell_angle_gamma   120.02447500
_symmetry_Int_Tables_number   1
_chemical_formula_structural   Sm2Co9Si7Rh3
_chemical_formula_sum   'Sm2 Co9 Si7 Rh3'
_cell_volume   277.73145837
_cell_formula_units_Z   1
loop_
 _symmetry_equiv_pos_site_id
 _symmetry_equiv_pos_as_xyz
  1  'x, y, z'
loop_
 _atom_site_type_symbol
 _atom_site_label
 _atom_site_symmetry_multiplicity
 _atom_site_fract_x
 _atom_site_fract_y
 _atom_site_fract_z
 _atom_site_occupancy
  Sm  Sm0  1  0.333001  0.666656  0.261882  1
  Sm  Sm1  1  0.667330  0.333584  0.761899  1
  Co  Co2  1  0.432772  0.377031  0.261904  1
  Co  Co3  1  0.944309  0.567380  0.261903  1
  Co  Co4  1  0.623169  0.055800  0.261910  1
  Co  Co5  1  0.563665  0.617382  0.761914  1
  Co  Co6  1  0.053723  0.436138  0.761894  1
  Co  Co7  1  0.382390  0.946344  0.761910  1
  Co  Co8  1  0.152585  0.871548  0.261914  1
  Co  Co9  1  0.718652  0.847194  0.261920  1
  Co  Co10  1  0.128799  0.281236  0.261906  1
  Si  Si11  1  0.999947  0.999953  0.261916  1
  Si  Si12  1  0.402401  0.106160  0.261909  1
  Si  Si13  1  0.703605  0.597503  0.261914  1
  Si  Si14  1  0.894358  0.296462  0.261886  1
  Si  Si15  1  0.597037  0.889513  0.761912  1
  Si  Si16  1  0.292555  0.402851  0.761905  1
  Si  Si17  1  0.109935  0.707409  0.761911  1
  Rh  Rh18  1  0.879824  0.105012  0.761889  1
  Rh  Rh19  1  0.225161  0.120207  0.761890  1
  Rh  Rh20  1  0.894781  0.774639  0.761911  1
