# generated using pymatgen
data_Pr5Sm3Sc11Si16W
_symmetry_space_group_name_H-M   'P 1'
_cell_length_a   7.22091719
_cell_length_b   7.45709421
_cell_length_c   14.08560703
_cell_angle_alpha   90.19727243
_cell_angle_beta   89.68881018
_cell_angle_gamma   89.62155947
_symmetry_Int_Tables_number   1
_chemical_formula_structural   Pr5Sm3Sc11Si16W
_chemical_formula_sum   'Pr5 Sm3 Sc11 Si16 W1'
_cell_volume   758.43620280
_cell_formula_units_Z   1
loop_
 _symmetry_equiv_pos_site_id
 _symmetry_equiv_pos_as_xyz
  1  'x, y, z'
loop_
 _atom_site_type_symbol
 _atom_site_label
 _atom_site_symmetry_multiplicity
 _atom_site_fract_x
 _atom_site_fract_y
 _atom_site_fract_z
 _atom_site_occupancy
  Pr  Pr0  1  0.011603  0.170391  0.097589  1
  Pr  Pr1  1  0.990103  0.828885  0.898125  1
  Pr  Pr2  1  0.486932  0.673250  0.898160  1
  Pr  Pr3  1  0.992566  0.831572  0.594561  1
  Pr  Pr4  1  0.513179  0.327700  0.097533  1
  Sm  Sm5  1  0.011665  0.174223  0.403164  1
  Sm  Sm6  1  0.507323  0.326091  0.409028  1
  Sm  Sm7  1  0.487396  0.674205  0.597072  1
  Sc  Sc8  1  0.163415  0.489330  0.743786  1
  Sc  Sc9  1  0.838509  0.499785  0.253013  1
  Sc  Sc10  1  0.338048  0.000666  0.252780  1
  Sc  Sc11  1  0.656318  0.004189  0.746874  1
  Sc  Sc12  1  0.664891  0.826404  0.379472  1
  Sc  Sc13  1  0.168971  0.675873  0.378539  1
  Sc  Sc14  1  0.669713  0.824751  0.125488  1
  Sc  Sc15  1  0.832322  0.325282  0.623068  1
  Sc  Sc16  1  0.332702  0.176869  0.874591  1
  Sc  Sc17  1  0.829286  0.324096  0.870404  1
  Sc  Sc18  1  0.170560  0.675144  0.126611  1
  Si  Si19  1  0.044773  0.127530  0.743704  1
  Si  Si20  1  0.963004  0.877167  0.253698  1
  Si  Si21  1  0.465739  0.625722  0.252799  1
  Si  Si22  1  0.530417  0.367253  0.743805  1
  Si  Si23  1  0.290815  0.892475  0.744612  1
  Si  Si24  1  0.709659  0.119020  0.253454  1
  Si  Si25  1  0.213100  0.380409  0.253119  1
  Si  Si26  1  0.786068  0.616532  0.745138  1
  Si  Si27  1  0.175064  0.447475  0.541995  1
  Si  Si28  1  0.843545  0.531317  0.458669  1
  Si  Si29  1  0.338590  0.970404  0.469908  1
  Si  Si30  1  0.849494  0.538238  0.038974  1
  Si  Si31  1  0.639882  0.038642  0.546315  1
  Si  Si32  1  0.148427  0.463640  0.958628  1
  Si  Si33  1  0.655163  0.038242  0.957792  1
  Si  Si34  1  0.348002  0.961017  0.039381  1
  W  W35  1  0.332759  0.176212  0.628150  1
