# generated using pymatgen
data_Ce2MgFe3Co8P7
_symmetry_space_group_name_H-M   'P 1'
_cell_length_a   9.11140606
_cell_length_b   9.06100605
_cell_length_c   3.67650900
_cell_angle_alpha   90.00000000
_cell_angle_beta   90.00000000
_cell_angle_gamma   119.86334743
_symmetry_Int_Tables_number   1
_chemical_formula_structural   Ce2MgFe3Co8P7
_chemical_formula_sum   'Ce2 Mg1 Fe3 Co8 P7'
_cell_volume   263.22338279
_cell_formula_units_Z   1
loop_
 _symmetry_equiv_pos_site_id
 _symmetry_equiv_pos_as_xyz
  1  'x, y, z'
loop_
 _atom_site_type_symbol
 _atom_site_label
 _atom_site_symmetry_multiplicity
 _atom_site_fract_x
 _atom_site_fract_y
 _atom_site_fract_z
 _atom_site_occupancy
  Ce  Ce0  1  0.000452  0.997103  0.000000  1
  Ce  Ce1  1  0.336135  0.667911  0.500000  1
  Mg  Mg2  1  0.881103  0.438148  0.500000  1
  Fe  Fe3  1  0.387754  0.210531  0.000000  1
  Fe  Fe4  1  0.542780  0.115450  0.500000  1
  Fe  Fe5  1  0.564757  0.452549  0.500000  1
  Co  Co6  1  0.104708  0.394837  0.000000  1
  Co  Co7  1  0.299742  0.902656  0.000000  1
  Co  Co8  1  0.604420  0.704689  0.000000  1
  Co  Co9  1  0.818309  0.606480  0.000000  1
  Co  Co10  1  0.787131  0.177449  0.000000  1
  Co  Co11  1  0.051089  0.771601  0.500000  1
  Co  Co12  1  0.718042  0.949428  0.500000  1
  Co  Co13  1  0.234378  0.280776  0.500000  1
  P  P14  1  0.080763  0.641265  0.000000  1
  P  P15  1  0.560324  0.930798  0.000000  1
  P  P16  1  0.370199  0.440406  0.000000  1
  P  P17  1  0.770231  0.728593  0.500000  1
  P  P18  1  0.962593  0.219078  0.500000  1
  P  P19  1  0.271226  0.045438  0.500000  1
  P  P20  1  0.653867  0.324814  0.000000  1
