# generated using pymatgen
data_YbHo4(RhPb2)2
_symmetry_space_group_name_H-M   'P 1'
_cell_length_a   3.74405500
_cell_length_b   8.25225600
_cell_length_c   18.28637200
_cell_angle_alpha   90.00000000
_cell_angle_beta   90.00000000
_cell_angle_gamma   90.00000000
_symmetry_Int_Tables_number   1
_chemical_formula_structural   YbHo4(RhPb2)2
_chemical_formula_sum   'Yb2 Ho8 Rh4 Pb8'
_cell_volume   564.99221323
_cell_formula_units_Z   2
loop_
 _symmetry_equiv_pos_site_id
 _symmetry_equiv_pos_as_xyz
  1  'x, y, z'
loop_
 _atom_site_type_symbol
 _atom_site_label
 _atom_site_symmetry_multiplicity
 _atom_site_fract_x
 _atom_site_fract_y
 _atom_site_fract_z
 _atom_site_occupancy
  Yb  Yb0  1  0.000000  0.000000  0.000000  1
  Yb  Yb1  1  0.000000  0.500000  0.500000  1
  Ho  Ho2  1  0.000000  0.115524  0.409841  1
  Ho  Ho3  1  0.000000  0.884476  0.590159  1
  Ho  Ho4  1  0.000000  0.384476  0.909841  1
  Ho  Ho5  1  0.000000  0.615524  0.090159  1
  Ho  Ho6  1  0.000000  0.244828  0.220137  1
  Ho  Ho7  1  0.000000  0.755172  0.779863  1
  Ho  Ho8  1  0.000000  0.255172  0.720137  1
  Ho  Ho9  1  0.000000  0.744828  0.279863  1
  Rh  Rh10  1  0.500000  0.027690  0.305055  1
  Rh  Rh11  1  0.500000  0.972310  0.694945  1
  Rh  Rh12  1  0.500000  0.472310  0.805055  1
  Rh  Rh13  1  0.500000  0.527690  0.194945  1
  Pb  Pb14  1  0.500000  0.418240  0.348696  1
  Pb  Pb15  1  0.500000  0.581760  0.651304  1
  Pb  Pb16  1  0.500000  0.081760  0.848696  1
  Pb  Pb17  1  0.500000  0.918240  0.151304  1
  Pb  Pb18  1  0.500000  0.298860  0.065579  1
  Pb  Pb19  1  0.500000  0.701140  0.934421  1
  Pb  Pb20  1  0.500000  0.201140  0.565579  1
  Pb  Pb21  1  0.500000  0.798860  0.434421  1
