# generated using pymatgen
data_Zr3Ti3BeAlSe
_symmetry_space_group_name_H-M   'P 1'
_cell_length_a   7.17300300
_cell_length_b   7.17300104
_cell_length_c   3.62326600
_cell_angle_alpha   90.00000000
_cell_angle_beta   90.00000000
_cell_angle_gamma   119.99998598
_symmetry_Int_Tables_number   1
_chemical_formula_structural   Zr3Ti3BeAlSe
_chemical_formula_sum   'Zr3 Ti3 Be1 Al1 Se1'
_cell_volume   161.44805526
_cell_formula_units_Z   1
loop_
 _symmetry_equiv_pos_site_id
 _symmetry_equiv_pos_as_xyz
  1  'x, y, z'
loop_
 _atom_site_type_symbol
 _atom_site_label
 _atom_site_symmetry_multiplicity
 _atom_site_fract_x
 _atom_site_fract_y
 _atom_site_fract_z
 _atom_site_occupancy
  Zr  Zr0  1  0.603884  0.005174  0.000000  1
  Zr  Zr1  1  0.401288  0.396116  0.000000  1
  Zr  Zr2  1  0.994826  0.598712  0.000000  1
  Ti  Ti3  1  0.230636  0.998382  0.500000  1
  Ti  Ti4  1  0.767745  0.769364  0.500000  1
  Ti  Ti5  1  0.001618  0.232255  0.500000  1
  Be  Be6  1  0.000000  0.000000  0.000000  1
  Al  Al7  1  0.333333  0.666667  0.500000  1
  Se  Se8  1  0.666667  0.333333  0.500000  1
