# generated using pymatgen
data_CaTm3(B6Ru)2
_symmetry_space_group_name_H-M   'P 1'
_cell_length_a   3.62348700
_cell_length_b   9.09743442
_cell_length_c   11.49245509
_cell_angle_alpha   89.82681016
_cell_angle_beta   90.00000000
_cell_angle_gamma   90.00000000
_symmetry_Int_Tables_number   1
_chemical_formula_structural   CaTm3(B6Ru)2
_chemical_formula_sum   'Ca2 Tm6 B24 Ru4'
_cell_volume   378.84056209
_cell_formula_units_Z   2
loop_
 _symmetry_equiv_pos_site_id
 _symmetry_equiv_pos_as_xyz
  1  'x, y, z'
loop_
 _atom_site_type_symbol
 _atom_site_label
 _atom_site_symmetry_multiplicity
 _atom_site_fract_x
 _atom_site_fract_y
 _atom_site_fract_z
 _atom_site_occupancy
  Ca  Ca0  1  0.000000  0.323973  0.414812  1
  Ca  Ca1  1  0.000000  0.676027  0.585188  1
  Tm  Tm2  1  0.000000  0.822294  0.086077  1
  Tm  Tm3  1  0.000000  0.177706  0.913923  1
  Tm  Tm4  1  0.000000  0.942088  0.369329  1
  Tm  Tm5  1  0.000000  0.057912  0.630671  1
  Tm  Tm6  1  0.000000  0.442765  0.130191  1
  Tm  Tm7  1  0.000000  0.557235  0.869809  1
  B  B8  1  0.500000  0.554640  0.431784  1
  B  B9  1  0.500000  0.445360  0.568216  1
  B  B10  1  0.500000  0.053630  0.066188  1
  B  B11  1  0.500000  0.946370  0.933812  1
  B  B12  1  0.500000  0.749049  0.417083  1
  B  B13  1  0.500000  0.250951  0.582917  1
  B  B14  1  0.500000  0.248625  0.080327  1
  B  B15  1  0.500000  0.751375  0.919673  1
  B  B16  1  0.500000  0.792091  0.263624  1
  B  B17  1  0.500000  0.207909  0.736376  1
  B  B18  1  0.500000  0.290235  0.233367  1
  B  B19  1  0.500000  0.709765  0.766633  1
  B  B20  1  0.500000  0.631744  0.184065  1
  B  B21  1  0.500000  0.368256  0.815935  1
  B  B22  1  0.500000  0.130026  0.313383  1
  B  B23  1  0.500000  0.869974  0.686617  1
  B  B24  1  0.500000  0.982490  0.211070  1
  B  B25  1  0.500000  0.017510  0.788930  1
  B  B26  1  0.500000  0.484109  0.287008  1
  B  B27  1  0.500000  0.515891  0.712992  1
  B  B28  1  0.500000  0.603552  0.028389  1
  B  B29  1  0.500000  0.396448  0.971611  1
  B  B30  1  0.500000  0.098334  0.472901  1
  B  B31  1  0.500000  0.901666  0.527099  1
  Ru  Ru32  1  0.000000  0.641116  0.317166  1
  Ru  Ru33  1  0.000000  0.358884  0.682834  1
  Ru  Ru34  1  0.000000  0.136670  0.177303  1
  Ru  Ru35  1  0.000000  0.863330  0.822697  1
