# generated using pymatgen
data_Pr(TaBr3)6
_symmetry_space_group_name_H-M   'P 1'
_cell_length_a   10.89382050
_cell_length_b   10.89382105
_cell_length_c   10.89382000
_cell_angle_alpha   55.91472721
_cell_angle_beta   55.91472525
_cell_angle_gamma   55.91472965
_symmetry_Int_Tables_number   1
_chemical_formula_structural   Pr(TaBr3)6
_chemical_formula_sum   'Pr1 Ta6 Br18'
_cell_volume   827.61379845
_cell_formula_units_Z   1
loop_
 _symmetry_equiv_pos_site_id
 _symmetry_equiv_pos_as_xyz
  1  'x, y, z'
loop_
 _atom_site_type_symbol
 _atom_site_label
 _atom_site_symmetry_multiplicity
 _atom_site_fract_x
 _atom_site_fract_y
 _atom_site_fract_z
 _atom_site_occupancy
  Pr  Pr0  1  0.000000  0.000000  0.000000  1
  Ta  Ta1  1  0.416374  0.311681  0.639504  1
  Ta  Ta2  1  0.360496  0.583626  0.688319  1
  Ta  Ta3  1  0.688319  0.360496  0.583626  1
  Ta  Ta4  1  0.311681  0.639504  0.416374  1
  Ta  Ta5  1  0.639504  0.416374  0.311681  1
  Ta  Ta6  1  0.583626  0.688319  0.360496  1
  Br  Br7  1  0.569030  0.168089  0.440135  1
  Br  Br8  1  0.228288  0.371097  0.900900  1
  Br  Br9  1  0.900900  0.228288  0.371097  1
  Br  Br10  1  0.371097  0.900900  0.228288  1
  Br  Br11  1  0.771712  0.628903  0.099100  1
  Br  Br12  1  0.099100  0.771712  0.628903  1
  Br  Br13  1  0.693963  0.953479  0.167475  1
  Br  Br14  1  0.953479  0.167475  0.693963  1
  Br  Br15  1  0.167475  0.693963  0.953479  1
  Br  Br16  1  0.306037  0.046521  0.832525  1
  Br  Br17  1  0.046521  0.832525  0.306037  1
  Br  Br18  1  0.832525  0.306037  0.046521  1
  Br  Br19  1  0.559865  0.430970  0.831911  1
  Br  Br20  1  0.168089  0.440135  0.569030  1
  Br  Br21  1  0.440135  0.569030  0.168089  1
  Br  Br22  1  0.430970  0.831911  0.559865  1
  Br  Br23  1  0.831911  0.559865  0.430970  1
  Br  Br24  1  0.628903  0.099100  0.771712  1
