# generated using pymatgen
data_HgBiRu2O7
_symmetry_space_group_name_H-M   'P 1'
_cell_length_a   7.32983438
_cell_length_b   7.32983456
_cell_length_c   7.32983438
_cell_angle_alpha   118.37721380
_cell_angle_beta   121.16017446
_cell_angle_gamma   90.41787768
_symmetry_Int_Tables_number   1
_chemical_formula_structural   HgBiRu2O7
_chemical_formula_sum   'Hg2 Bi2 Ru4 O14'
_cell_volume   279.22431691
_cell_formula_units_Z   2
loop_
 _symmetry_equiv_pos_site_id
 _symmetry_equiv_pos_as_xyz
  1  'x, y, z'
loop_
 _atom_site_type_symbol
 _atom_site_label
 _atom_site_symmetry_multiplicity
 _atom_site_fract_x
 _atom_site_fract_y
 _atom_site_fract_z
 _atom_site_occupancy
  Hg  Hg0  1  0.500000  0.500000  0.000000  1
  Hg  Hg1  1  0.000000  0.500000  0.500000  1
  Bi  Bi2  1  0.500000  0.500000  0.500000  1
  Bi  Bi3  1  0.500000  0.000000  0.000000  1
  Ru  Ru4  1  0.000000  0.000000  0.500000  1
  Ru  Ru5  1  0.000000  0.500000  0.000000  1
  Ru  Ru6  1  0.000000  0.000000  0.000000  1
  Ru  Ru7  1  0.500000  0.000000  0.500000  1
  O  O8  1  0.322544  0.055132  0.640819  1
  O  O9  1  0.914312  0.055132  0.232588  1
  O  O10  1  0.926973  0.676973  0.250000  1
  O  O11  1  0.914312  0.681724  0.859181  1
  O  O12  1  0.322544  0.681724  0.267412  1
  O  O13  1  0.330387  0.080387  0.250000  1
  O  O14  1  0.677456  0.944868  0.359181  1
  O  O15  1  0.085688  0.944868  0.767412  1
  O  O16  1  0.073027  0.323027  0.750000  1
  O  O17  1  0.085688  0.318276  0.140819  1
  O  O18  1  0.677456  0.318276  0.732588  1
  O  O19  1  0.669613  0.919613  0.750000  1
  O  O20  1  0.631917  0.381917  0.250000  1
  O  O21  1  0.368083  0.618083  0.750000  1
