# generated using pymatgen
data_Ta3AsSe3
_symmetry_space_group_name_H-M   'P 1'
_cell_length_a   10.03050900
_cell_length_b   10.03050872
_cell_length_c   3.49516600
_cell_angle_alpha   90.00000000
_cell_angle_beta   90.00000000
_cell_angle_gamma   120.00000421
_symmetry_Int_Tables_number   1
_chemical_formula_structural   Ta3AsSe3
_chemical_formula_sum   'Ta6 As2 Se6'
_cell_volume   304.54000620
_cell_formula_units_Z   2
loop_
 _symmetry_equiv_pos_site_id
 _symmetry_equiv_pos_as_xyz
  1  'x, y, z'
loop_
 _atom_site_type_symbol
 _atom_site_label
 _atom_site_symmetry_multiplicity
 _atom_site_fract_x
 _atom_site_fract_y
 _atom_site_fract_z
 _atom_site_occupancy
  Ta  Ta0  1  0.623507  0.117837  0.750000  1
  Ta  Ta1  1  0.494329  0.376493  0.750000  1
  Ta  Ta2  1  0.376493  0.882163  0.250000  1
  Ta  Ta3  1  0.882163  0.505671  0.750000  1
  Ta  Ta4  1  0.505671  0.623507  0.250000  1
  Ta  Ta5  1  0.117837  0.494329  0.250000  1
  As  As6  1  0.333333  0.666667  0.750000  1
  As  As7  1  0.666667  0.333333  0.250000  1
  Se  Se8  1  0.717730  0.662441  0.750000  1
  Se  Se9  1  0.282270  0.337559  0.250000  1
  Se  Se10  1  0.662441  0.944710  0.250000  1
  Se  Se11  1  0.944710  0.282270  0.750000  1
  Se  Se12  1  0.055290  0.717730  0.250000  1
  Se  Se13  1  0.337559  0.055290  0.750000  1
