# generated using pymatgen
data_BeNb8GeSb4
_symmetry_space_group_name_H-M   'P 1'
_cell_length_a   7.80831788
_cell_length_b   7.80831905
_cell_length_c   7.80831849
_cell_angle_alpha   95.65749467
_cell_angle_beta   95.65749576
_cell_angle_gamma   143.40185967
_symmetry_Int_Tables_number   1
_chemical_formula_structural   BeNb8GeSb4
_chemical_formula_sum   'Be1 Nb8 Ge1 Sb4'
_cell_volume   269.48022357
_cell_formula_units_Z   1
loop_
 _symmetry_equiv_pos_site_id
 _symmetry_equiv_pos_as_xyz
  1  'x, y, z'
loop_
 _atom_site_type_symbol
 _atom_site_label
 _atom_site_symmetry_multiplicity
 _atom_site_fract_x
 _atom_site_fract_y
 _atom_site_fract_z
 _atom_site_occupancy
  Be  Be0  1  0.250000  0.250000  0.000000  1
  Nb  Nb1  1  0.923878  0.803749  0.710841  1
  Nb  Nb2  1  0.803749  0.092909  0.879872  1
  Nb  Nb3  1  0.407091  0.696251  0.120128  1
  Nb  Nb4  1  0.576122  0.286963  0.879872  1
  Nb  Nb5  1  0.696251  0.576122  0.289159  1
  Nb  Nb6  1  0.286963  0.407091  0.710841  1
  Nb  Nb7  1  0.213037  0.923878  0.120128  1
  Nb  Nb8  1  0.092909  0.213037  0.289159  1
  Ge  Ge9  1  0.750000  0.750000  0.000000  1
  Sb  Sb10  1  0.641989  0.858011  0.500000  1
  Sb  Sb11  1  0.141989  0.641989  0.783978  1
  Sb  Sb12  1  0.858011  0.358011  0.216021  1
  Sb  Sb13  1  0.358011  0.141989  0.500000  1
