# generated using pymatgen
data_SmTm5TiCo16TcP12
_symmetry_space_group_name_H-M   'P 1'
_cell_length_a   3.71071000
_cell_length_b   10.53294700
_cell_length_c   12.21363200
_cell_angle_alpha   90.00000000
_cell_angle_beta   90.00000000
_cell_angle_gamma   90.00000000
_symmetry_Int_Tables_number   1
_chemical_formula_structural   SmTm5TiCo16TcP12
_chemical_formula_sum   'Sm1 Tm5 Ti1 Co16 Tc1 P12'
_cell_volume   477.36628629
_cell_formula_units_Z   1
loop_
 _symmetry_equiv_pos_site_id
 _symmetry_equiv_pos_as_xyz
  1  'x, y, z'
loop_
 _atom_site_type_symbol
 _atom_site_label
 _atom_site_symmetry_multiplicity
 _atom_site_fract_x
 _atom_site_fract_y
 _atom_site_fract_z
 _atom_site_occupancy
  Sm  Sm0  1  0.500000  0.000000  0.474659  1
  Tm  Tm1  1  0.000000  0.500000  0.524645  1
  Tm  Tm2  1  0.500000  0.818875  0.204840  1
  Tm  Tm3  1  0.500000  0.181125  0.204840  1
  Tm  Tm4  1  0.000000  0.680979  0.795414  1
  Tm  Tm5  1  0.000000  0.319021  0.795414  1
  Ti  Ti6  1  0.500000  0.500000  0.152904  1
  Co  Co7  1  0.500000  0.500000  0.702250  1
  Co  Co8  1  0.000000  0.000000  0.295639  1
  Co  Co9  1  0.000000  0.500000  0.985521  1
  Co  Co10  1  0.500000  0.000000  0.012355  1
  Co  Co11  1  0.500000  0.330787  0.991523  1
  Co  Co12  1  0.500000  0.669213  0.991523  1
  Co  Co13  1  0.000000  0.166374  0.008708  1
  Co  Co14  1  0.000000  0.833626  0.008708  1
  Co  Co15  1  0.500000  0.297567  0.431779  1
  Co  Co16  1  0.500000  0.702433  0.431779  1
  Co  Co17  1  0.000000  0.205824  0.569975  1
  Co  Co18  1  0.000000  0.794176  0.569975  1
  Co  Co19  1  0.500000  0.878319  0.708380  1
  Co  Co20  1  0.500000  0.121681  0.708380  1
  Co  Co21  1  0.000000  0.621757  0.292174  1
  Co  Co22  1  0.000000  0.378243  0.292174  1
  Tc  Tc23  1  0.000000  0.000000  0.844305  1
  P  P24  1  0.500000  0.500000  0.881075  1
  P  P25  1  0.000000  0.000000  0.118973  1
  P  P26  1  0.500000  0.500000  0.353891  1
  P  P27  1  0.000000  0.000000  0.653298  1
  P  P28  1  0.500000  0.312451  0.616810  1
  P  P29  1  0.500000  0.687549  0.616810  1
  P  P30  1  0.000000  0.190670  0.382768  1
  P  P31  1  0.000000  0.809330  0.382768  1
  P  P32  1  0.500000  0.845226  0.891488  1
  P  P33  1  0.500000  0.154774  0.891488  1
  P  P34  1  0.000000  0.657195  0.106385  1
  P  P35  1  0.000000  0.342805  0.106385  1
