# generated using pymatgen
data_La20ZnSi3Sb8
_symmetry_space_group_name_H-M   'P 1'
_cell_length_a   8.32601558
_cell_length_b   9.52500200
_cell_length_c   12.78835490
_cell_angle_alpha   90.00000000
_cell_angle_beta   89.95708158
_cell_angle_gamma   90.00000000
_symmetry_Int_Tables_number   1
_chemical_formula_structural   La20ZnSi3Sb8
_chemical_formula_sum   'La20 Zn1 Si3 Sb8'
_cell_volume   1014.18423005
_cell_formula_units_Z   1
loop_
 _symmetry_equiv_pos_site_id
 _symmetry_equiv_pos_as_xyz
  1  'x, y, z'
loop_
 _atom_site_type_symbol
 _atom_site_label
 _atom_site_symmetry_multiplicity
 _atom_site_fract_x
 _atom_site_fract_y
 _atom_site_fract_z
 _atom_site_occupancy
  La  La0  1  0.030297  0.750000  0.503506  1
  La  La1  1  0.970335  0.250000  0.498089  1
  La  La2  1  0.528868  0.250000  0.997800  1
  La  La3  1  0.471182  0.750000  0.002370  1
  La  La4  1  0.862019  0.750000  0.790190  1
  La  La5  1  0.134437  0.250000  0.207291  1
  La  La6  1  0.364689  0.250000  0.708403  1
  La  La7  1  0.634542  0.750000  0.292624  1
  La  La8  1  0.694909  0.542670  0.562249  1
  La  La9  1  0.305401  0.458446  0.438058  1
  La  La10  1  0.194477  0.456256  0.937602  1
  La  La11  1  0.305401  0.041554  0.438058  1
  La  La12  1  0.804578  0.538784  0.061813  1
  La  La13  1  0.694909  0.957330  0.562249  1
  La  La14  1  0.804578  0.961216  0.061813  1
  La  La15  1  0.194477  0.043744  0.937602  1
  La  La16  1  0.343143  0.750000  0.713155  1
  La  La17  1  0.657336  0.250000  0.286719  1
  La  La18  1  0.842627  0.250000  0.786498  1
  La  La19  1  0.158484  0.750000  0.215287  1
  Zn  Zn20  1  0.074341  0.750000  0.982496  1
  Si  Si21  1  0.928586  0.250000  0.016485  1
  Si  Si22  1  0.572405  0.250000  0.516910  1
  Si  Si23  1  0.427829  0.750000  0.482649  1
  Sb  Sb24  1  0.576371  0.507874  0.826081  1
  Sb  Sb25  1  0.424076  0.492013  0.174040  1
  Sb  Sb26  1  0.076150  0.491813  0.673656  1
  Sb  Sb27  1  0.424076  0.007987  0.174040  1
  Sb  Sb28  1  0.923479  0.507650  0.326266  1
  Sb  Sb29  1  0.576371  0.992126  0.826081  1
  Sb  Sb30  1  0.923479  0.992350  0.326266  1
  Sb  Sb31  1  0.076150  0.008187  0.673656  1
