# generated using pymatgen
data_DyHo(BeB14)2
_symmetry_space_group_name_H-M   'P 1'
_cell_length_a   7.20143338
_cell_length_b   7.20143243
_cell_length_c   7.20143316
_cell_angle_alpha   132.72333474
_cell_angle_beta   110.36236146
_cell_angle_gamma   88.48635006
_symmetry_Int_Tables_number   1
_chemical_formula_structural   DyHo(BeB14)2
_chemical_formula_sum   'Dy1 Ho1 Be2 B28'
_cell_volume   245.01342698
_cell_formula_units_Z   1
loop_
 _symmetry_equiv_pos_site_id
 _symmetry_equiv_pos_as_xyz
  1  'x, y, z'
loop_
 _atom_site_type_symbol
 _atom_site_label
 _atom_site_symmetry_multiplicity
 _atom_site_fract_x
 _atom_site_fract_y
 _atom_site_fract_z
 _atom_site_occupancy
  Dy  Dy0  1  0.392469  0.750000  0.642469  1
  Ho  Ho1  1  0.607782  0.250000  0.357782  1
  Be  Be2  1  0.000012  0.500017  0.000029  1
  Be  Be3  1  0.000012  0.999983  0.499995  1
  B  B4  1  0.978428  0.343981  0.634447  1
  B  B5  1  0.629447  0.328184  0.795236  1
  B  B6  1  0.799262  0.833773  0.965489  1
  B  B7  1  0.631716  0.666227  0.965489  1
  B  B8  1  0.200913  0.166238  0.034674  1
  B  B9  1  0.780455  0.777949  0.676423  1
  B  B10  1  0.967052  0.665789  0.795236  1
  B  B11  1  0.021142  0.655925  0.365217  1
  B  B12  1  0.967052  0.171816  0.301263  1
  B  B13  1  0.032819  0.828219  0.698724  1
  B  B14  1  0.368436  0.333762  0.034674  1
  B  B15  1  0.074871  0.907598  0.167273  1
  B  B16  1  0.629447  0.834211  0.301263  1
  B  B17  1  0.398474  0.722051  0.002506  1
  B  B18  1  0.240206  0.407578  0.832629  1
  B  B19  1  0.219686  0.221769  0.323462  1
  B  B20  1  0.209291  0.844075  0.365217  1
  B  B21  1  0.925051  0.092422  0.832629  1
  B  B22  1  0.398474  0.395968  0.676423  1
  B  B23  1  0.219686  0.896224  0.997917  1
  B  B24  1  0.780455  0.104032  0.002506  1
  B  B25  1  0.601693  0.278231  0.997917  1
  B  B26  1  0.601693  0.603776  0.323462  1
  B  B27  1  0.032819  0.334095  0.204601  1
  B  B28  1  0.759675  0.592402  0.167273  1
  B  B29  1  0.790467  0.156019  0.634447  1
  B  B30  1  0.370506  0.165905  0.698724  1
  B  B31  1  0.370506  0.671781  0.204601  1
