# generated using pymatgen
data_DyPu3(NiGe)4
_symmetry_space_group_name_H-M   'P 1'
_cell_length_a   4.28786000
_cell_length_b   6.97364839
_cell_length_c   7.16688205
_cell_angle_alpha   90.32088927
_cell_angle_beta   90.00000000
_cell_angle_gamma   90.00000000
_symmetry_Int_Tables_number   1
_chemical_formula_structural   DyPu3(NiGe)4
_chemical_formula_sum   'Dy1 Pu3 Ni4 Ge4'
_cell_volume   214.30094668
_cell_formula_units_Z   1
loop_
 _symmetry_equiv_pos_site_id
 _symmetry_equiv_pos_as_xyz
  1  'x, y, z'
loop_
 _atom_site_type_symbol
 _atom_site_label
 _atom_site_symmetry_multiplicity
 _atom_site_fract_x
 _atom_site_fract_y
 _atom_site_fract_z
 _atom_site_occupancy
  Dy  Dy0  1  0.750000  0.513317  0.799900  1
  Pu  Pu1  1  0.250000  0.986462  0.302693  1
  Pu  Pu2  1  0.250000  0.485564  0.201265  1
  Pu  Pu3  1  0.750000  0.013021  0.697796  1
  Ni  Ni4  1  0.250000  0.195213  0.913213  1
  Ni  Ni5  1  0.250000  0.688672  0.582922  1
  Ni  Ni6  1  0.750000  0.809057  0.083103  1
  Ni  Ni7  1  0.750000  0.310678  0.417775  1
  Ge  Ge8  1  0.250000  0.309993  0.589163  1
  Ge  Ge9  1  0.250000  0.808048  0.910656  1
  Ge  Ge10  1  0.750000  0.689949  0.412786  1
  Ge  Ge11  1  0.750000  0.190028  0.088728  1
