# generated using pymatgen
data_LiTm16Cd3Ni4
_symmetry_space_group_name_H-M   'P 1'
_cell_length_a   9.39685601
_cell_length_b   9.39685658
_cell_length_c   9.39685638
_cell_angle_alpha   59.90967221
_cell_angle_beta   59.90966709
_cell_angle_gamma   59.90967721
_symmetry_Int_Tables_number   1
_chemical_formula_structural   LiTm16Cd3Ni4
_chemical_formula_sum   'Li1 Tm16 Cd3 Ni4'
_cell_volume   585.52026178
_cell_formula_units_Z   1
loop_
 _symmetry_equiv_pos_site_id
 _symmetry_equiv_pos_as_xyz
  1  'x, y, z'
loop_
 _atom_site_type_symbol
 _atom_site_label
 _atom_site_symmetry_multiplicity
 _atom_site_fract_x
 _atom_site_fract_y
 _atom_site_fract_z
 _atom_site_occupancy
  Li  Li0  1  0.572480  0.572480  0.572480  1
  Tm  Tm1  1  0.348491  0.348491  0.348491  1
  Tm  Tm2  1  0.346458  0.346458  0.958281  1
  Tm  Tm3  1  0.346458  0.958281  0.346458  1
  Tm  Tm4  1  0.958281  0.346458  0.346458  1
  Tm  Tm5  1  0.811042  0.189898  0.189898  1
  Tm  Tm6  1  0.187696  0.812774  0.812774  1
  Tm  Tm7  1  0.189898  0.811042  0.189898  1
  Tm  Tm8  1  0.812774  0.187696  0.812774  1
  Tm  Tm9  1  0.189898  0.189898  0.811042  1
  Tm  Tm10  1  0.812774  0.812774  0.187696  1
  Tm  Tm11  1  0.936404  0.563930  0.563930  1
  Tm  Tm12  1  0.565031  0.935790  0.935790  1
  Tm  Tm13  1  0.563930  0.936404  0.563930  1
  Tm  Tm14  1  0.935790  0.565031  0.935790  1
  Tm  Tm15  1  0.563930  0.563930  0.936404  1
  Tm  Tm16  1  0.935790  0.935790  0.565031  1
  Cd  Cd17  1  0.582662  0.582662  0.256135  1
  Cd  Cd18  1  0.582662  0.256135  0.582662  1
  Cd  Cd19  1  0.256135  0.582662  0.582662  1
  Ni  Ni20  1  0.142103  0.142103  0.142103  1
  Ni  Ni21  1  0.142701  0.142701  0.573916  1
  Ni  Ni22  1  0.142701  0.573916  0.142701  1
  Ni  Ni23  1  0.573916  0.142701  0.142701  1
