# generated using pymatgen
data_Yb2InSnPdPt
_symmetry_space_group_name_H-M   'P 1'
_cell_length_a   4.32858400
_cell_length_b   7.32883900
_cell_length_c   8.48657200
_cell_angle_alpha   90.00000000
_cell_angle_beta   90.00000000
_cell_angle_gamma   90.00000000
_symmetry_Int_Tables_number   1
_chemical_formula_structural   Yb2InSnPdPt
_chemical_formula_sum   'Yb4 In2 Sn2 Pd2 Pt2'
_cell_volume   269.22372639
_cell_formula_units_Z   2
loop_
 _symmetry_equiv_pos_site_id
 _symmetry_equiv_pos_as_xyz
  1  'x, y, z'
loop_
 _atom_site_type_symbol
 _atom_site_label
 _atom_site_symmetry_multiplicity
 _atom_site_fract_x
 _atom_site_fract_y
 _atom_site_fract_z
 _atom_site_occupancy
  Yb  Yb0  1  0.250000  0.528492  0.176914  1
  Yb  Yb1  1  0.750000  0.461319  0.820586  1
  Yb  Yb2  1  0.250000  0.038681  0.320586  1
  Yb  Yb3  1  0.750000  0.971508  0.676914  1
  In  In4  1  0.250000  0.145059  0.937242  1
  In  In5  1  0.750000  0.354941  0.437242  1
  Sn  Sn6  1  0.250000  0.648720  0.561432  1
  Sn  Sn7  1  0.750000  0.851280  0.061432  1
  Pd  Pd8  1  0.750000  0.739569  0.371199  1
  Pd  Pd9  1  0.250000  0.760431  0.871199  1
  Pt  Pt10  1  0.750000  0.233475  0.132626  1
  Pt  Pt11  1  0.250000  0.266525  0.632626  1
