# generated using pymatgen
data_Sr8As5Au
_symmetry_space_group_name_H-M   'P 1'
_cell_length_a   8.27740094
_cell_length_b   8.27740165
_cell_length_c   8.27740039
_cell_angle_alpha   109.15133492
_cell_angle_beta   109.15133220
_cell_angle_gamma   110.11290721
_symmetry_Int_Tables_number   1
_chemical_formula_structural   Sr8As5Au
_chemical_formula_sum   'Sr8 As5 Au1'
_cell_volume   436.53511166
_cell_formula_units_Z   1
loop_
 _symmetry_equiv_pos_site_id
 _symmetry_equiv_pos_as_xyz
  1  'x, y, z'
loop_
 _atom_site_type_symbol
 _atom_site_label
 _atom_site_symmetry_multiplicity
 _atom_site_fract_x
 _atom_site_fract_y
 _atom_site_fract_z
 _atom_site_occupancy
  Sr  Sr0  1  0.742407  0.368117  0.243700  1
  Sr  Sr1  1  0.979492  0.735085  0.096302  1
  Sr  Sr2  1  0.638783  0.883190  0.903698  1
  Sr  Sr3  1  0.124417  0.498706  0.756300  1
  Sr  Sr4  1  0.631883  0.875583  0.374291  1
  Sr  Sr5  1  0.501294  0.257593  0.625709  1
  Sr  Sr6  1  0.264915  0.361217  0.244407  1
  Sr  Sr7  1  0.116810  0.020508  0.755593  1
  As  As8  1  0.745172  0.631838  0.620766  1
  As  As9  1  0.368162  0.988928  0.113334  1
  As  As10  1  0.011072  0.124407  0.379234  1
  As  As11  1  0.500000  0.500000  0.000000  1
  As  As12  1  0.875593  0.254828  0.886666  1
  Au  Au13  1  0.250000  0.750000  0.500000  1
