# generated using pymatgen
data_Sc12In(TcBr8)2
_symmetry_space_group_name_H-M   'P 1'
_cell_length_a   9.13037840
_cell_length_b   11.25637610
_cell_length_c   11.90198957
_cell_angle_alpha   117.07314280
_cell_angle_beta   101.89980962
_cell_angle_gamma   101.39561172
_symmetry_Int_Tables_number   1
_chemical_formula_structural   Sc12In(TcBr8)2
_chemical_formula_sum   'Sc12 In1 Tc2 Br16'
_cell_volume   1004.39946473
_cell_formula_units_Z   1
loop_
 _symmetry_equiv_pos_site_id
 _symmetry_equiv_pos_as_xyz
  1  'x, y, z'
loop_
 _atom_site_type_symbol
 _atom_site_label
 _atom_site_symmetry_multiplicity
 _atom_site_fract_x
 _atom_site_fract_y
 _atom_site_fract_z
 _atom_site_occupancy
  Sc  Sc0  1  0.096135  0.245911  0.343506  1
  Sc  Sc1  1  0.904003  0.754194  0.656556  1
  Sc  Sc2  1  0.757565  0.539378  0.311753  1
  Sc  Sc3  1  0.242519  0.460623  0.688145  1
  Sc  Sc4  1  0.305510  0.755271  0.656676  1
  Sc  Sc5  1  0.694513  0.244607  0.343225  1
  Sc  Sc6  1  0.158417  0.538370  0.312905  1
  Sc  Sc7  1  0.841708  0.461638  0.687243  1
  Sc  Sc8  1  0.404146  0.355608  0.269667  1
  Sc  Sc9  1  0.595951  0.644448  0.730360  1
  Sc  Sc10  1  0.457336  0.304346  0.520613  1
  Sc  Sc11  1  0.542675  0.695662  0.479326  1
  In  In12  1  0.999954  0.499987  0.500016  1
  Tc  Tc13  1  0.334523  0.499937  0.499354  1
  Tc  Tc14  1  0.665277  0.500056  0.500628  1
  Br  Br15  1  0.402252  0.743888  0.887632  1
  Br  Br16  1  0.597726  0.256031  0.112227  1
  Br  Br17  1  0.188082  0.961296  0.781788  1
  Br  Br18  1  0.811857  0.038700  0.218222  1
  Br  Br19  1  0.338133  0.089808  0.247691  1
  Br  Br20  1  0.661766  0.910165  0.752297  1
  Br  Br21  1  0.553658  0.437506  0.802256  1
  Br  Br22  1  0.446258  0.562518  0.197759  1
  Br  Br23  1  0.313642  0.829445  0.462013  1
  Br  Br24  1  0.686364  0.170441  0.538005  1
  Br  Br25  1  0.169445  0.167744  0.532215  1
  Br  Br26  1  0.830601  0.832319  0.467778  1
  Br  Br27  1  0.927063  0.574153  0.163214  1
  Br  Br28  1  0.072862  0.425882  0.836807  1
  Br  Br29  1  0.920921  0.742752  0.888482  1
  Br  Br30  1  0.079142  0.257316  0.111640  1
