# generated using pymatgen
data_Nb4VB2P
_symmetry_space_group_name_H-M   'P 1'
_cell_length_a   6.09995255
_cell_length_b   6.09995272
_cell_length_c   7.19537785
_cell_angle_alpha   115.07979835
_cell_angle_beta   115.07980091
_cell_angle_gamma   89.99999115
_symmetry_Int_Tables_number   1
_chemical_formula_structural   Nb4VB2P
_chemical_formula_sum   'Nb8 V2 B4 P2'
_cell_volume   214.29764477
_cell_formula_units_Z   2
loop_
 _symmetry_equiv_pos_site_id
 _symmetry_equiv_pos_as_xyz
  1  'x, y, z'
loop_
 _atom_site_type_symbol
 _atom_site_label
 _atom_site_symmetry_multiplicity
 _atom_site_fract_x
 _atom_site_fract_y
 _atom_site_fract_z
 _atom_site_occupancy
  Nb  Nb0  1  0.032396  0.532396  0.724169  1
  Nb  Nb1  1  0.691774  0.191774  0.724169  1
  Nb  Nb2  1  0.191774  0.032396  0.724169  1
  Nb  Nb3  1  0.532396  0.691774  0.724169  1
  Nb  Nb4  1  0.967604  0.467604  0.275831  1
  Nb  Nb5  1  0.308226  0.808226  0.275831  1
  Nb  Nb6  1  0.808226  0.967604  0.275831  1
  Nb  Nb7  1  0.467604  0.308226  0.275831  1
  V  V8  1  0.500000  0.500000  0.000000  1
  V  V9  1  0.000000  0.000000  0.000000  1
  B  B10  1  0.382078  0.882078  0.000000  1
  B  B11  1  0.617922  0.117922  0.000000  1
  B  B12  1  0.117922  0.382078  0.000000  1
  B  B13  1  0.882078  0.617922  0.000000  1
  P  P14  1  0.250000  0.250000  0.500000  1
  P  P15  1  0.750000  0.750000  0.500000  1
