# generated using pymatgen
data_Ho2Si2Pt3
_symmetry_space_group_name_H-M   'P 1'
_cell_length_a   4.17809200
_cell_length_b   6.66153800
_cell_length_c   8.92372100
_cell_angle_alpha   90.00000000
_cell_angle_beta   90.00000000
_cell_angle_gamma   90.00000000
_symmetry_Int_Tables_number   1
_chemical_formula_structural   Ho2Si2Pt3
_chemical_formula_sum   'Ho4 Si4 Pt6'
_cell_volume   248.36963094
_cell_formula_units_Z   2
loop_
 _symmetry_equiv_pos_site_id
 _symmetry_equiv_pos_as_xyz
  1  'x, y, z'
loop_
 _atom_site_type_symbol
 _atom_site_label
 _atom_site_symmetry_multiplicity
 _atom_site_fract_x
 _atom_site_fract_y
 _atom_site_fract_z
 _atom_site_occupancy
  Ho  Ho0  1  0.000000  0.888243  0.329211  1
  Ho  Ho1  1  0.000000  0.111757  0.670789  1
  Ho  Ho2  1  0.000000  0.388243  0.170789  1
  Ho  Ho3  1  0.000000  0.611757  0.829211  1
  Si  Si4  1  0.500000  0.574048  0.356042  1
  Si  Si5  1  0.500000  0.425952  0.643958  1
  Si  Si6  1  0.500000  0.074048  0.143958  1
  Si  Si7  1  0.500000  0.925952  0.856042  1
  Pt  Pt8  1  0.500000  0.694431  0.089030  1
  Pt  Pt9  1  0.500000  0.305569  0.910970  1
  Pt  Pt10  1  0.500000  0.194431  0.410970  1
  Pt  Pt11  1  0.500000  0.805569  0.589030  1
  Pt  Pt12  1  0.000000  0.500000  0.500000  1
  Pt  Pt13  1  0.000000  0.000000  0.000000  1
