# generated using pymatgen
data_Lu3MnSi3Ru
_symmetry_space_group_name_H-M   'P 1'
_cell_length_a   5.65503816
_cell_length_b   5.65503743
_cell_length_c   13.44486511
_cell_angle_alpha   89.95312550
_cell_angle_beta   90.04687340
_cell_angle_gamma   137.58611265
_symmetry_Int_Tables_number   1
_chemical_formula_structural   Lu3MnSi3Ru
_chemical_formula_sum   'Lu6 Mn2 Si6 Ru2'
_cell_volume   289.99950362
_cell_formula_units_Z   2
loop_
 _symmetry_equiv_pos_site_id
 _symmetry_equiv_pos_as_xyz
  1  'x, y, z'
loop_
 _atom_site_type_symbol
 _atom_site_label
 _atom_site_symmetry_multiplicity
 _atom_site_fract_x
 _atom_site_fract_y
 _atom_site_fract_z
 _atom_site_occupancy
  Lu  Lu0  1  0.642997  0.357003  0.249788  1
  Lu  Lu1  1  0.357003  0.642997  0.750212  1
  Lu  Lu2  1  0.924423  0.075577  0.113940  1
  Lu  Lu3  1  0.075577  0.924423  0.886060  1
  Lu  Lu4  1  0.074901  0.925099  0.615970  1
  Lu  Lu5  1  0.925099  0.074901  0.384030  1
  Mn  Mn6  1  0.217917  0.782083  0.077077  1
  Mn  Mn7  1  0.782083  0.217917  0.922923  1
  Si  Si8  1  0.333518  0.666482  0.248795  1
  Si  Si9  1  0.666482  0.333518  0.751205  1
  Si  Si10  1  0.608290  0.391710  0.039885  1
  Si  Si11  1  0.391710  0.608290  0.960115  1
  Si  Si12  1  0.385855  0.614145  0.537920  1
  Si  Si13  1  0.614145  0.385855  0.462080  1
  Ru  Ru14  1  0.788079  0.211921  0.582891  1
  Ru  Ru15  1  0.211921  0.788079  0.417109  1
