# generated using pymatgen
data_SrEuMnN3
_symmetry_space_group_name_H-M   'P 1'
_cell_length_a   6.08895529
_cell_length_b   6.08895495
_cell_length_c   12.05524900
_cell_angle_alpha   90.00000000
_cell_angle_beta   90.00000000
_cell_angle_gamma   125.64822945
_symmetry_Int_Tables_number   1
_chemical_formula_structural   SrEuMnN3
_chemical_formula_sum   'Sr4 Eu4 Mn4 N12'
_cell_volume   363.19857949
_cell_formula_units_Z   4
loop_
 _symmetry_equiv_pos_site_id
 _symmetry_equiv_pos_as_xyz
  1  'x, y, z'
loop_
 _atom_site_type_symbol
 _atom_site_label
 _atom_site_symmetry_multiplicity
 _atom_site_fract_x
 _atom_site_fract_y
 _atom_site_fract_z
 _atom_site_occupancy
  Sr  Sr0  1  0.448106  0.551894  0.354833  1
  Sr  Sr1  1  0.551894  0.448106  0.645167  1
  Sr  Sr2  1  0.051894  0.948106  0.854833  1
  Sr  Sr3  1  0.948106  0.051894  0.145167  1
  Eu  Eu4  1  0.143426  0.856574  0.421563  1
  Eu  Eu5  1  0.856574  0.143426  0.578437  1
  Eu  Eu6  1  0.356574  0.643426  0.921563  1
  Eu  Eu7  1  0.643426  0.356574  0.078437  1
  Mn  Mn8  1  0.260072  0.739928  0.161675  1
  Mn  Mn9  1  0.739928  0.260072  0.838325  1
  Mn  Mn10  1  0.239928  0.760072  0.661675  1
  Mn  Mn11  1  0.760072  0.239928  0.338325  1
  N  N12  1  0.164657  0.835343  0.042822  1
  N  N13  1  0.835343  0.164657  0.957178  1
  N  N14  1  0.335343  0.664657  0.542822  1
  N  N15  1  0.664657  0.335343  0.457178  1
  N  N16  1  0.422047  0.577953  0.127493  1
  N  N17  1  0.577953  0.422047  0.872507  1
  N  N18  1  0.077953  0.922047  0.627493  1
  N  N19  1  0.922047  0.077953  0.372507  1
  N  N20  1  0.974898  0.525102  0.250000  1
  N  N21  1  0.525102  0.974898  0.750000  1
  N  N22  1  0.025102  0.474898  0.750000  1
  N  N23  1  0.474898  0.025102  0.250000  1
