# generated using pymatgen
data_Sr4Ho3Tm3(LuSe8)2
_symmetry_space_group_name_H-M   'P 1'
_cell_length_a   4.11169900
_cell_length_b   12.62670364
_cell_length_c   14.87567602
_cell_angle_alpha   89.95966480
_cell_angle_beta   90.00000000
_cell_angle_gamma   90.00000000
_symmetry_Int_Tables_number   1
_chemical_formula_structural   Sr4Ho3Tm3(LuSe8)2
_chemical_formula_sum   'Sr4 Ho3 Tm3 Lu2 Se16'
_cell_volume   772.30332607
_cell_formula_units_Z   1
loop_
 _symmetry_equiv_pos_site_id
 _symmetry_equiv_pos_as_xyz
  1  'x, y, z'
loop_
 _atom_site_type_symbol
 _atom_site_label
 _atom_site_symmetry_multiplicity
 _atom_site_fract_x
 _atom_site_fract_y
 _atom_site_fract_z
 _atom_site_occupancy
  Sr  Sr0  1  0.250000  0.759892  0.333904  1
  Sr  Sr1  1  0.250000  0.259633  0.165806  1
  Sr  Sr2  1  0.750000  0.239695  0.666583  1
  Sr  Sr3  1  0.750000  0.740654  0.834147  1
  Ho  Ho4  1  0.250000  0.438455  0.388612  1
  Ho  Ho5  1  0.250000  0.938753  0.110951  1
  Ho  Ho6  1  0.750000  0.561351  0.611195  1
  Tm  Tm7  1  0.750000  0.060765  0.888560  1
  Tm  Tm8  1  0.250000  0.416958  0.903080  1
  Tm  Tm9  1  0.250000  0.917686  0.597377  1
  Lu  Lu10  1  0.750000  0.582540  0.097095  1
  Lu  Lu11  1  0.750000  0.082518  0.402792  1
  Se  Se12  1  0.250000  0.204647  0.831085  1
  Se  Se13  1  0.250000  0.706143  0.670428  1
  Se  Se14  1  0.750000  0.793333  0.169845  1
  Se  Se15  1  0.750000  0.293140  0.329974  1
  Se  Se16  1  0.250000  0.127634  0.529214  1
  Se  Se17  1  0.250000  0.627548  0.970631  1
  Se  Se18  1  0.750000  0.873178  0.469810  1
  Se  Se19  1  0.750000  0.373205  0.030652  1
  Se  Se20  1  0.250000  0.028772  0.285976  1
  Se  Se21  1  0.250000  0.528704  0.213750  1
  Se  Se22  1  0.750000  0.972264  0.715180  1
  Se  Se23  1  0.750000  0.471281  0.785442  1
  Se  Se24  1  0.250000  0.408986  0.577262  1
  Se  Se25  1  0.250000  0.910348  0.922195  1
  Se  Se26  1  0.750000  0.590908  0.422663  1
  Se  Se27  1  0.750000  0.091008  0.075791  1
