# generated using pymatgen
data_HoLu3Al18Ir5Au
_symmetry_space_group_name_H-M   'P 1'
_cell_length_a   7.56290671
_cell_length_b   7.56424453
_cell_length_c   9.41813562
_cell_angle_alpha   89.95987721
_cell_angle_beta   90.01217593
_cell_angle_gamma   119.58775871
_symmetry_Int_Tables_number   1
_chemical_formula_structural   HoLu3Al18Ir5Au
_chemical_formula_sum   'Ho1 Lu3 Al18 Ir5 Au1'
_cell_volume   468.53159549
_cell_formula_units_Z   1
loop_
 _symmetry_equiv_pos_site_id
 _symmetry_equiv_pos_as_xyz
  1  'x, y, z'
loop_
 _atom_site_type_symbol
 _atom_site_label
 _atom_site_symmetry_multiplicity
 _atom_site_fract_x
 _atom_site_fract_y
 _atom_site_fract_z
 _atom_site_occupancy
  Ho  Ho0  1  0.995975  0.673551  0.251237  1
  Lu  Lu1  1  0.003962  0.326371  0.748196  1
  Lu  Lu2  1  0.673428  0.996185  0.251800  1
  Lu  Lu3  1  0.326570  0.004044  0.748199  1
  Al  Al4  1  0.134639  0.135116  0.255850  1
  Al  Al5  1  0.865518  0.865685  0.744300  1
  Al  Al6  1  0.000765  0.343091  0.079424  1
  Al  Al7  1  0.999355  0.656005  0.919182  1
  Al  Al8  1  0.000716  0.664582  0.575819  1
  Al  Al9  1  0.336253  0.000162  0.425641  1
  Al  Al10  1  0.999329  0.334713  0.425583  1
  Al  Al11  1  0.664547  0.000686  0.575049  1
  Al  Al12  1  0.656146  0.999316  0.919878  1
  Al  Al13  1  0.344784  0.001439  0.079510  1
  Al  Al14  1  0.332672  0.332712  0.554718  1
  Al  Al15  1  0.666634  0.667336  0.446152  1
  Al  Al16  1  0.657980  0.658702  0.060332  1
  Al  Al17  1  0.341177  0.341196  0.938810  1
  Al  Al18  1  0.339638  0.550761  0.251240  1
  Al  Al19  1  0.660763  0.449048  0.748799  1
  Al  Al20  1  0.550012  0.338421  0.251206  1
  Al  Al21  1  0.449125  0.660919  0.748810  1
  Ir  Ir22  1  0.672016  0.327814  0.999870  1
  Ir  Ir23  1  0.327986  0.672099  0.999866  1
  Ir  Ir24  1  0.327832  0.672236  0.500128  1
  Ir  Ir25  1  0.672148  0.327644  0.500164  1
  Ir  Ir26  1  0.000063  0.000241  0.500182  1
  Au  Au27  1  0.999967  0.999923  0.000056  1
