# generated using pymatgen
data_CaLa4SnGe2H
_symmetry_space_group_name_H-M   'P 1'
_cell_length_a   9.28277038
_cell_length_b   9.28277045
_cell_length_c   9.28277034
_cell_angle_alpha   127.68305315
_cell_angle_beta   127.68305107
_cell_angle_gamma   77.13903541
_symmetry_Int_Tables_number   1
_chemical_formula_structural   CaLa4SnGe2H
_chemical_formula_sum   'Ca2 La8 Sn2 Ge4 H2'
_cell_volume   486.19436120
_cell_formula_units_Z   2
loop_
 _symmetry_equiv_pos_site_id
 _symmetry_equiv_pos_as_xyz
  1  'x, y, z'
loop_
 _atom_site_type_symbol
 _atom_site_label
 _atom_site_symmetry_multiplicity
 _atom_site_fract_x
 _atom_site_fract_y
 _atom_site_fract_z
 _atom_site_occupancy
  Ca  Ca0  1  0.500000  0.500000  0.000000  1
  Ca  Ca1  1  0.000000  0.000000  0.000000  1
  La  La2  1  0.523107  0.023107  0.836350  1
  La  La3  1  0.186757  0.686757  0.163650  1
  La  La4  1  0.023107  0.186757  0.500000  1
  La  La5  1  0.686757  0.523107  0.500000  1
  La  La6  1  0.476893  0.976893  0.163650  1
  La  La7  1  0.813243  0.313243  0.836350  1
  La  La8  1  0.976893  0.813243  0.500000  1
  La  La9  1  0.313243  0.476893  0.500000  1
  Sn  Sn10  1  0.250000  0.250000  0.000000  1
  Sn  Sn11  1  0.750000  0.750000  0.000000  1
  Ge  Ge12  1  0.875999  0.375999  0.252000  1
  Ge  Ge13  1  0.124001  0.624001  0.748000  1
  Ge  Ge14  1  0.375999  0.124001  0.500000  1
  Ge  Ge15  1  0.624001  0.875999  0.500000  1
  H  H16  1  0.250000  0.750000  0.500000  1
  H  H17  1  0.750000  0.250000  0.500000  1
