# generated using pymatgen
data_DyHoReB8W
_symmetry_space_group_name_H-M   'P 1'
_cell_length_a   3.61595400
_cell_length_b   5.99995646
_cell_length_c   11.60810405
_cell_angle_alpha   89.94268457
_cell_angle_beta   90.00000000
_cell_angle_gamma   90.00000000
_symmetry_Int_Tables_number   1
_chemical_formula_structural   DyHoReB8W
_chemical_formula_sum   'Dy2 Ho2 Re2 B16 W2'
_cell_volume   251.84426817
_cell_formula_units_Z   2
loop_
 _symmetry_equiv_pos_site_id
 _symmetry_equiv_pos_as_xyz
  1  'x, y, z'
loop_
 _atom_site_type_symbol
 _atom_site_label
 _atom_site_symmetry_multiplicity
 _atom_site_fract_x
 _atom_site_fract_y
 _atom_site_fract_z
 _atom_site_occupancy
  Dy  Dy0  1  0.000000  0.627493  0.149073  1
  Dy  Dy1  1  0.000000  0.372507  0.850927  1
  Ho  Ho2  1  0.000000  0.127039  0.349241  1
  Ho  Ho3  1  0.000000  0.872961  0.650759  1
  Re  Re4  1  0.000000  0.134275  0.087088  1
  Re  Re5  1  0.000000  0.865725  0.912912  1
  B  B6  1  0.500000  0.977859  0.191376  1
  B  B7  1  0.500000  0.022141  0.808624  1
  B  B8  1  0.500000  0.475838  0.305744  1
  B  B9  1  0.500000  0.524162  0.694256  1
  B  B10  1  0.500000  0.789986  0.313082  1
  B  B11  1  0.500000  0.210014  0.686918  1
  B  B12  1  0.500000  0.285333  0.184282  1
  B  B13  1  0.500000  0.714667  0.815718  1
  B  B14  1  0.500000  0.867190  0.467611  1
  B  B15  1  0.500000  0.132810  0.532389  1
  B  B16  1  0.500000  0.363079  0.030932  1
  B  B17  1  0.500000  0.636921  0.969068  1
  B  B18  1  0.500000  0.886785  0.047216  1
  B  B19  1  0.500000  0.113215  0.952784  1
  B  B20  1  0.500000  0.385012  0.452428  1
  B  B21  1  0.500000  0.614988  0.547572  1
  W  W22  1  0.000000  0.630389  0.414531  1
  W  W23  1  0.000000  0.369611  0.585469  1
