# generated using pymatgen
data_Ba2AsRhF14
_symmetry_space_group_name_H-M   'P 1'
_cell_length_a   4.88049453
_cell_length_b   7.65288913
_cell_length_c   7.89863300
_cell_angle_alpha   106.45474061
_cell_angle_beta   101.12342074
_cell_angle_gamma   90.85851890
_symmetry_Int_Tables_number   1
_chemical_formula_structural   Ba2AsRhF14
_chemical_formula_sum   'Ba2 As1 Rh1 F14'
_cell_volume   276.85421209
_cell_formula_units_Z   1
loop_
 _symmetry_equiv_pos_site_id
 _symmetry_equiv_pos_as_xyz
  1  'x, y, z'
loop_
 _atom_site_type_symbol
 _atom_site_label
 _atom_site_symmetry_multiplicity
 _atom_site_fract_x
 _atom_site_fract_y
 _atom_site_fract_z
 _atom_site_occupancy
  Ba  Ba0  1  0.175154  0.339393  0.783816  1
  Ba  Ba1  1  0.826613  0.660825  0.214731  1
  As  As2  1  0.646625  0.813584  0.708075  1
  Rh  Rh3  1  0.353090  0.185919  0.292063  1
  F  F4  1  0.129636  0.180224  0.064431  1
  F  F5  1  0.439992  0.796385  0.490444  1
  F  F6  1  0.574978  0.207611  0.526753  1
  F  F7  1  0.496922  0.016982  0.803904  1
  F  F8  1  0.512450  0.967083  0.189608  1
  F  F9  1  0.381286  0.682434  0.750956  1
  F  F10  1  0.858050  0.821733  0.919045  1
  F  F11  1  0.283233  0.581682  0.098364  1
  F  F12  1  0.072274  0.042954  0.344539  1
  F  F13  1  0.187020  0.401702  0.402568  1
  F  F14  1  0.717372  0.418011  0.902979  1
  F  F15  1  0.800075  0.611118  0.604030  1
  F  F16  1  0.634940  0.328542  0.244567  1
  F  F17  1  0.910291  0.943816  0.659128  1
