# generated using pymatgen
data_Sr7La(Yb3Sb4)4
_symmetry_space_group_name_H-M   'P 1'
_cell_length_a   8.41028612
_cell_length_b   8.57488713
_cell_length_c   16.30363700
_cell_angle_alpha   89.80846552
_cell_angle_beta   89.90272988
_cell_angle_gamma   90.11450836
_symmetry_Int_Tables_number   1
_chemical_formula_structural   Sr7La(Yb3Sb4)4
_chemical_formula_sum   'Sr7 La1 Yb12 Sb16'
_cell_volume   1175.76290918
_cell_formula_units_Z   1
loop_
 _symmetry_equiv_pos_site_id
 _symmetry_equiv_pos_as_xyz
  1  'x, y, z'
loop_
 _atom_site_type_symbol
 _atom_site_label
 _atom_site_symmetry_multiplicity
 _atom_site_fract_x
 _atom_site_fract_y
 _atom_site_fract_z
 _atom_site_occupancy
  Sr  Sr0  1  0.022236  0.181201  0.592114  1
  Sr  Sr1  1  0.480943  0.686280  0.411490  1
  Sr  Sr2  1  0.978154  0.819805  0.090388  1
  Sr  Sr3  1  0.479436  0.691708  0.089465  1
  Sr  Sr4  1  0.979266  0.812007  0.409989  1
  Sr  Sr5  1  0.520696  0.310248  0.591165  1
  Sr  Sr6  1  0.023466  0.186798  0.905789  1
  La  La7  1  0.524280  0.315074  0.907345  1
  Yb  Yb8  1  0.363648  0.852761  0.883585  1
  Yb  Yb9  1  0.869194  0.649784  0.616673  1
  Yb  Yb10  1  0.632206  0.149313  0.386386  1
  Yb  Yb11  1  0.129710  0.350367  0.113507  1
  Yb  Yb12  1  0.629585  0.153470  0.115591  1
  Yb  Yb13  1  0.133236  0.349211  0.386285  1
  Yb  Yb14  1  0.364079  0.850393  0.617153  1
  Yb  Yb15  1  0.873213  0.658700  0.882726  1
  Yb  Yb16  1  0.202522  0.507853  0.747694  1
  Yb  Yb17  1  0.706864  0.987244  0.749290  1
  Yb  Yb18  1  0.793579  0.489818  0.250653  1
  Yb  Yb19  1  0.293497  0.009782  0.251149  1
  Sb  Sb20  1  0.288935  0.050300  0.045390  1
  Sb  Sb21  1  0.789448  0.454110  0.451843  1
  Sb  Sb22  1  0.710957  0.951786  0.548458  1
  Sb  Sb23  1  0.219024  0.539768  0.951040  1
  Sb  Sb24  1  0.709342  0.963579  0.951365  1
  Sb  Sb25  1  0.213186  0.543205  0.548156  1
  Sb  Sb26  1  0.287537  0.043055  0.451811  1
  Sb  Sb27  1  0.783175  0.456957  0.043234  1
  Sb  Sb28  1  0.574458  0.604445  0.759699  1
  Sb  Sb29  1  0.071452  0.872820  0.749396  1
  Sb  Sb30  1  0.422053  0.384609  0.250604  1
  Sb  Sb31  1  0.921598  0.114949  0.248877  1
  Sb  Sb32  1  0.337011  0.144676  0.752863  1
  Sb  Sb33  1  0.818547  0.363996  0.750719  1
  Sb  Sb34  1  0.677288  0.866126  0.249749  1
  Sb  Sb35  1  0.176180  0.633801  0.248357  1
