# generated using pymatgen
data_Nb3Ga2TcN
_symmetry_space_group_name_H-M   'P 1'
_cell_length_a   8.32623026
_cell_length_b   8.32623039
_cell_length_c   8.32623100
_cell_angle_alpha   60.00000153
_cell_angle_beta   60.00000104
_cell_angle_gamma   60.00000577
_symmetry_Int_Tables_number   1
_chemical_formula_structural   Nb3Ga2TcN
_chemical_formula_sum   'Nb12 Ga8 Tc4 N4'
_cell_volume   408.15989161
_cell_formula_units_Z   4
loop_
 _symmetry_equiv_pos_site_id
 _symmetry_equiv_pos_as_xyz
  1  'x, y, z'
loop_
 _atom_site_type_symbol
 _atom_site_label
 _atom_site_symmetry_multiplicity
 _atom_site_fract_x
 _atom_site_fract_y
 _atom_site_fract_z
 _atom_site_occupancy
  Nb  Nb0  1  0.445436  0.445436  0.054564  1
  Nb  Nb1  1  0.054564  0.445436  0.054564  1
  Nb  Nb2  1  0.445436  0.054564  0.054564  1
  Nb  Nb3  1  0.054564  0.054564  0.445436  1
  Nb  Nb4  1  0.445436  0.054564  0.445436  1
  Nb  Nb5  1  0.054564  0.445436  0.445436  1
  Nb  Nb6  1  0.804564  0.804564  0.195436  1
  Nb  Nb7  1  0.195436  0.804564  0.195436  1
  Nb  Nb8  1  0.804564  0.195436  0.195436  1
  Nb  Nb9  1  0.195436  0.195436  0.804564  1
  Nb  Nb10  1  0.804564  0.195436  0.804564  1
  Nb  Nb11  1  0.195436  0.804564  0.804564  1
  Ga  Ga12  1  0.836901  0.836901  0.489298  1
  Ga  Ga13  1  0.836901  0.489298  0.836901  1
  Ga  Ga14  1  0.489298  0.836901  0.836901  1
  Ga  Ga15  1  0.836901  0.836901  0.836901  1
  Ga  Ga16  1  0.413099  0.413099  0.760702  1
  Ga  Ga17  1  0.413099  0.760702  0.413099  1
  Ga  Ga18  1  0.760702  0.413099  0.413099  1
  Ga  Ga19  1  0.413099  0.413099  0.413099  1
  Tc  Tc20  1  0.625000  0.625000  0.125000  1
  Tc  Tc21  1  0.625000  0.125000  0.625000  1
  Tc  Tc22  1  0.125000  0.625000  0.625000  1
  Tc  Tc23  1  0.625000  0.625000  0.625000  1
  N  N24  1  0.125000  0.125000  0.625000  1
  N  N25  1  0.125000  0.625000  0.125000  1
  N  N26  1  0.625000  0.125000  0.125000  1
  N  N27  1  0.125000  0.125000  0.125000  1
