# generated using pymatgen
data_Tb11Ho(In2Ru)4
_symmetry_space_group_name_H-M   'P 1'
_cell_length_a   3.82231600
_cell_length_b   12.98726673
_cell_length_c   12.98726601
_cell_angle_alpha   112.08520804
_cell_angle_beta   90.00000000
_cell_angle_gamma   90.00000000
_symmetry_Int_Tables_number   1
_chemical_formula_structural   Tb11Ho(In2Ru)4
_chemical_formula_sum   'Tb11 Ho1 In8 Ru4'
_cell_volume   597.40167949
_cell_formula_units_Z   1
loop_
 _symmetry_equiv_pos_site_id
 _symmetry_equiv_pos_as_xyz
  1  'x, y, z'
loop_
 _atom_site_type_symbol
 _atom_site_label
 _atom_site_symmetry_multiplicity
 _atom_site_fract_x
 _atom_site_fract_y
 _atom_site_fract_z
 _atom_site_occupancy
  Tb  Tb0  1  0.000000  0.914730  0.578002  1
  Tb  Tb1  1  0.000000  0.085270  0.421998  1
  Tb  Tb2  1  0.000000  0.578002  0.914730  1
  Tb  Tb3  1  0.000000  0.421998  0.085270  1
  Tb  Tb4  1  0.000000  0.162156  0.837844  1
  Tb  Tb5  1  0.000000  0.837844  0.162156  1
  Tb  Tb6  1  0.000000  0.360293  0.639707  1
  Tb  Tb7  1  0.000000  0.639707  0.360293  1
  Tb  Tb8  1  0.000000  0.705324  0.705324  1
  Tb  Tb9  1  0.000000  0.294676  0.294676  1
  Tb  Tb10  1  0.000000  0.000000  0.000000  1
  Ho  Ho11  1  0.500000  0.500000  0.500000  1
  In  In12  1  0.500000  0.150395  0.632868  1
  In  In13  1  0.500000  0.849605  0.367132  1
  In  In14  1  0.500000  0.632868  0.150395  1
  In  In15  1  0.500000  0.367132  0.849605  1
  In  In16  1  0.500000  0.932448  0.783212  1
  In  In17  1  0.500000  0.067552  0.216788  1
  In  In18  1  0.500000  0.783212  0.932448  1
  In  In19  1  0.500000  0.216788  0.067552  1
  Ru  Ru20  1  0.500000  0.737846  0.548268  1
  Ru  Ru21  1  0.500000  0.262154  0.451732  1
  Ru  Ru22  1  0.500000  0.548268  0.737846  1
  Ru  Ru23  1  0.500000  0.451732  0.262154  1
