# generated using pymatgen
data_Lu2Zr2IrPt
_symmetry_space_group_name_H-M   'P 1'
_cell_length_a   4.67232000
_cell_length_b   6.96758900
_cell_length_c   8.17468200
_cell_angle_alpha   90.00000000
_cell_angle_beta   90.00000000
_cell_angle_gamma   90.00000000
_symmetry_Int_Tables_number   1
_chemical_formula_structural   Lu2Zr2IrPt
_chemical_formula_sum   'Lu4 Zr4 Ir2 Pt2'
_cell_volume   266.12518202
_cell_formula_units_Z   2
loop_
 _symmetry_equiv_pos_site_id
 _symmetry_equiv_pos_as_xyz
  1  'x, y, z'
loop_
 _atom_site_type_symbol
 _atom_site_label
 _atom_site_symmetry_multiplicity
 _atom_site_fract_x
 _atom_site_fract_y
 _atom_site_fract_z
 _atom_site_occupancy
  Lu  Lu0  1  0.250000  0.016151  0.677824  1
  Lu  Lu1  1  0.250000  0.516151  0.822176  1
  Lu  Lu2  1  0.750000  0.986014  0.324256  1
  Lu  Lu3  1  0.750000  0.486014  0.175744  1
  Zr  Zr4  1  0.250000  0.144979  0.083440  1
  Zr  Zr5  1  0.250000  0.644979  0.416560  1
  Zr  Zr6  1  0.750000  0.850547  0.923947  1
  Zr  Zr7  1  0.750000  0.350547  0.576053  1
  Ir  Ir8  1  0.250000  0.266684  0.410704  1
  Ir  Ir9  1  0.250000  0.766684  0.089296  1
  Pt  Pt10  1  0.750000  0.735625  0.593167  1
  Pt  Pt11  1  0.750000  0.235625  0.906833  1
