# generated using pymatgen
data_Ba6SrSc(BO3)6
_symmetry_space_group_name_H-M   'P 1'
_cell_length_a   8.27977027
_cell_length_b   8.27976919
_cell_length_c   8.27976993
_cell_angle_alpha   105.74498996
_cell_angle_beta   105.74497896
_cell_angle_gamma   105.74498727
_symmetry_Int_Tables_number   1
_chemical_formula_structural   Ba6SrSc(BO3)6
_chemical_formula_sum   'Ba6 Sr1 Sc1 B6 O18'
_cell_volume   487.99653249
_cell_formula_units_Z   1
loop_
 _symmetry_equiv_pos_site_id
 _symmetry_equiv_pos_as_xyz
  1  'x, y, z'
loop_
 _atom_site_type_symbol
 _atom_site_label
 _atom_site_symmetry_multiplicity
 _atom_site_fract_x
 _atom_site_fract_y
 _atom_site_fract_z
 _atom_site_occupancy
  Ba  Ba0  1  0.352345  0.731308  0.840320  1
  Ba  Ba1  1  0.840320  0.352345  0.731308  1
  Ba  Ba2  1  0.731308  0.840320  0.352345  1
  Ba  Ba3  1  0.647655  0.268692  0.159680  1
  Ba  Ba4  1  0.159680  0.647655  0.268692  1
  Ba  Ba5  1  0.268692  0.159680  0.647655  1
  Sr  Sr6  1  0.000000  0.000000  0.000000  1
  Sc  Sc7  1  0.500000  0.500000  0.500000  1
  B  B8  1  0.383849  0.053513  0.301076  1
  B  B9  1  0.301076  0.383849  0.053513  1
  B  B10  1  0.053513  0.301076  0.383849  1
  B  B11  1  0.698924  0.616151  0.946487  1
  B  B12  1  0.946487  0.698924  0.616151  1
  B  B13  1  0.616151  0.946487  0.698924  1
  O  O14  1  0.425022  0.494392  0.230224  1
  O  O15  1  0.230224  0.425022  0.494392  1
  O  O16  1  0.794540  0.015282  0.716599  1
  O  O17  1  0.015282  0.716599  0.794540  1
  O  O18  1  0.716599  0.794540  0.015282  1
  O  O19  1  0.283401  0.205460  0.984718  1
  O  O20  1  0.205460  0.984718  0.283401  1
  O  O21  1  0.984718  0.283401  0.205460  1
  O  O22  1  0.543062  0.049567  0.796264  1
  O  O23  1  0.049567  0.796264  0.543062  1
  O  O24  1  0.796264  0.543062  0.049567  1
  O  O25  1  0.456938  0.950433  0.203736  1
  O  O26  1  0.950433  0.203736  0.456938  1
  O  O27  1  0.203736  0.456938  0.950433  1
  O  O28  1  0.505608  0.769776  0.574978  1
  O  O29  1  0.769776  0.574978  0.505608  1
  O  O30  1  0.574978  0.505608  0.769776  1
  O  O31  1  0.494392  0.230224  0.425022  1
