# generated using pymatgen
data_La3Pr9(PBr3)4
_symmetry_space_group_name_H-M   'P 1'
_cell_length_a   10.40272299
_cell_length_b   10.41433659
_cell_length_c   10.41172817
_cell_angle_alpha   109.38287444
_cell_angle_beta   109.33696453
_cell_angle_gamma   109.68118194
_symmetry_Int_Tables_number   1
_chemical_formula_structural   La3Pr9(PBr3)4
_chemical_formula_sum   'La3 Pr9 P4 Br12'
_cell_volume   868.44804112
_cell_formula_units_Z   1
loop_
 _symmetry_equiv_pos_site_id
 _symmetry_equiv_pos_as_xyz
  1  'x, y, z'
loop_
 _atom_site_type_symbol
 _atom_site_label
 _atom_site_symmetry_multiplicity
 _atom_site_fract_x
 _atom_site_fract_y
 _atom_site_fract_z
 _atom_site_occupancy
  La  La0  1  0.011190  0.487753  0.750228  1
  La  La1  1  0.262115  0.012106  0.024239  1
  La  La2  1  0.239006  0.262444  0.750212  1
  Pr  Pr3  1  0.471414  0.487212  0.236693  1
  Pr  Pr4  1  0.750997  0.235349  0.264239  1
  Pr  Pr5  1  0.748743  0.013010  0.484446  1
  Pr  Pr6  1  0.235712  0.471445  0.484437  1
  Pr  Pr7  1  0.265283  0.749490  0.236695  1
  Pr  Pr8  1  0.028594  0.265038  0.016528  1
  Pr  Pr9  1  0.013249  0.028900  0.264234  1
  Pr  Pr10  1  0.487936  0.751481  0.016522  1
  Pr  Pr11  1  0.485422  0.235413  0.470831  1
  P  P12  1  0.250221  0.249441  0.249712  1
  P  P13  1  0.499511  0.000272  0.249714  1
  P  P14  1  0.000877  0.250885  0.501744  1
  P  P15  1  0.249439  0.499435  0.998875  1
  Br  Br16  1  0.255131  0.755731  0.744199  1
  Br  Br17  1  0.512145  0.508546  0.753575  1
  Br  Br18  1  0.988172  0.744506  0.999875  1
  Br  Br19  1  0.741421  0.245012  0.753583  1
  Br  Br20  1  0.989057  0.988451  0.744200  1
  Br  Br21  1  0.248949  0.992533  0.501826  1
  Br  Br22  1  0.752863  0.509298  0.501826  1
  Br  Br23  1  0.511683  0.255359  0.999857  1
  Br  Br24  1  0.755157  0.745469  0.250565  1
  Br  Br25  1  0.745233  0.995220  0.990457  1
  Br  Br26  1  0.995400  0.505115  0.250546  1
  Br  Br27  1  0.505080  0.755087  0.510146  1
