# generated using pymatgen
data_La3SmPa2(SnRh)6
_symmetry_space_group_name_H-M   'P 1'
_cell_length_a   7.58807802
_cell_length_b   7.51244038
_cell_length_c   8.23515900
_cell_angle_alpha   90.00000000
_cell_angle_beta   90.00000000
_cell_angle_gamma   119.70271554
_symmetry_Int_Tables_number   1
_chemical_formula_structural   La3SmPa2(SnRh)6
_chemical_formula_sum   'La3 Sm1 Pa2 Sn6 Rh6'
_cell_volume   407.76378847
_cell_formula_units_Z   1
loop_
 _symmetry_equiv_pos_site_id
 _symmetry_equiv_pos_as_xyz
  1  'x, y, z'
loop_
 _atom_site_type_symbol
 _atom_site_label
 _atom_site_symmetry_multiplicity
 _atom_site_fract_x
 _atom_site_fract_y
 _atom_site_fract_z
 _atom_site_occupancy
  La  La0  1  0.582641  0.994983  0.750000  1
  La  La1  1  0.417131  0.412166  0.750000  1
  La  La2  1  0.999736  0.586419  0.750000  1
  Sm  Sm3  1  0.999501  0.592789  0.250000  1
  Pa  Pa4  1  0.588573  0.005157  0.250000  1
  Pa  Pa5  1  0.411547  0.416396  0.250000  1
  Sn  Sn6  1  0.245171  0.995308  0.005933  1
  Sn  Sn7  1  0.754476  0.750122  0.494225  1
  Sn  Sn8  1  0.000519  0.257389  0.499095  1
  Sn  Sn9  1  0.000519  0.257389  0.000905  1
  Sn  Sn10  1  0.754476  0.750122  0.005775  1
  Sn  Sn11  1  0.245171  0.995308  0.494067  1
  Rh  Rh12  1  0.646689  0.315414  0.034096  1
  Rh  Rh13  1  0.646689  0.315414  0.465904  1
  Rh  Rh14  1  0.353328  0.668964  0.034772  1
  Rh  Rh15  1  0.353328  0.668964  0.465228  1
  Rh  Rh16  1  0.000176  0.000238  0.750000  1
  Rh  Rh17  1  0.000324  0.017458  0.250000  1
