# generated using pymatgen
data_Sr4Tb3Tm5Se16
_symmetry_space_group_name_H-M   'P 1'
_cell_length_a   4.11604900
_cell_length_b   12.63866577
_cell_length_c   14.88658400
_cell_angle_alpha   89.96206020
_cell_angle_beta   90.00000000
_cell_angle_gamma   90.00000000
_symmetry_Int_Tables_number   1
_chemical_formula_structural   Sr4Tb3Tm5Se16
_chemical_formula_sum   'Sr4 Tb3 Tm5 Se16'
_cell_volume   774.42028890
_cell_formula_units_Z   1
loop_
 _symmetry_equiv_pos_site_id
 _symmetry_equiv_pos_as_xyz
  1  'x, y, z'
loop_
 _atom_site_type_symbol
 _atom_site_label
 _atom_site_symmetry_multiplicity
 _atom_site_fract_x
 _atom_site_fract_y
 _atom_site_fract_z
 _atom_site_occupancy
  Sr  Sr0  1  0.250000  0.759860  0.334135  1
  Sr  Sr1  1  0.250000  0.259516  0.165382  1
  Sr  Sr2  1  0.750000  0.239549  0.666813  1
  Sr  Sr3  1  0.750000  0.740946  0.834334  1
  Tb  Tb4  1  0.250000  0.437665  0.388717  1
  Tb  Tb5  1  0.250000  0.938116  0.110548  1
  Tb  Tb6  1  0.750000  0.562135  0.611249  1
  Tm  Tm7  1  0.750000  0.061135  0.888244  1
  Tm  Tm8  1  0.250000  0.416592  0.903282  1
  Tm  Tm9  1  0.250000  0.917906  0.597555  1
  Tm  Tm10  1  0.750000  0.582680  0.096702  1
  Tm  Tm11  1  0.750000  0.082618  0.403160  1
  Se  Se12  1  0.250000  0.204612  0.830869  1
  Se  Se13  1  0.250000  0.707430  0.671708  1
  Se  Se14  1  0.750000  0.792885  0.171494  1
  Se  Se15  1  0.750000  0.292616  0.328266  1
  Se  Se16  1  0.250000  0.128027  0.530199  1
  Se  Se17  1  0.250000  0.627954  0.969510  1
  Se  Se18  1  0.750000  0.872263  0.470342  1
  Se  Se19  1  0.750000  0.372406  0.030442  1
  Se  Se20  1  0.250000  0.028560  0.285677  1
  Se  Se21  1  0.250000  0.528541  0.213927  1
  Se  Se22  1  0.750000  0.972520  0.715019  1
  Se  Se23  1  0.750000  0.470938  0.786094  1
  Se  Se24  1  0.250000  0.408077  0.578176  1
  Se  Se25  1  0.250000  0.910633  0.920905  1
  Se  Se26  1  0.750000  0.591842  0.421892  1
  Se  Se27  1  0.750000  0.091972  0.075359  1
