# generated using pymatgen
data_Sm3Cd2Bi3O14
_symmetry_space_group_name_H-M   'P 1'
_cell_length_a   7.54359043
_cell_length_b   7.54357736
_cell_length_c   7.54358416
_cell_angle_alpha   117.04995862
_cell_angle_beta   62.95006764
_cell_angle_gamma   117.04981980
_symmetry_Int_Tables_number   1
_chemical_formula_structural   Sm3Cd2Bi3O14
_chemical_formula_sum   'Sm3 Cd2 Bi3 O14'
_cell_volume   323.42931003
_cell_formula_units_Z   1
loop_
 _symmetry_equiv_pos_site_id
 _symmetry_equiv_pos_as_xyz
  1  'x, y, z'
loop_
 _atom_site_type_symbol
 _atom_site_label
 _atom_site_symmetry_multiplicity
 _atom_site_fract_x
 _atom_site_fract_y
 _atom_site_fract_z
 _atom_site_occupancy
  Sm  Sm0  1  0.000005  0.500007  0.999992  1
  Sm  Sm1  1  0.500001  0.999994  0.999995  1
  Sm  Sm2  1  0.499997  0.500007  0.500011  1
  Cd  Cd3  1  0.499956  0.499953  0.999997  1
  Cd  Cd4  1  0.999993  0.999977  0.499969  1
  Bi  Bi5  1  0.500003  0.000001  0.500015  1
  Bi  Bi6  1  0.000009  0.499990  0.500016  1
  Bi  Bi7  1  0.000013  0.999998  0.999990  1
  O  O8  1  0.622273  0.377728  0.122278  1
  O  O9  1  0.377732  0.622275  0.877738  1
  O  O10  1  0.085387  0.329502  0.170506  1
  O  O11  1  0.670512  0.914651  0.170511  1
  O  O12  1  0.670503  0.329506  0.585401  1
  O  O13  1  0.914628  0.670513  0.829498  1
  O  O14  1  0.329504  0.085396  0.829505  1
  O  O15  1  0.329494  0.670516  0.414632  1
  O  O16  1  0.638551  0.895742  0.604268  1
  O  O17  1  0.104257  0.361433  0.604257  1
  O  O18  1  0.104274  0.895735  0.138537  1
  O  O19  1  0.361432  0.104274  0.395745  1
  O  O20  1  0.895721  0.638540  0.395724  1
  O  O21  1  0.895753  0.104264  0.861412  1
