# generated using pymatgen
data_La8Ho12Si15Pt
_symmetry_space_group_name_H-M   'P 1'
_cell_length_a   7.59199521
_cell_length_b   7.83722570
_cell_length_c   14.90588137
_cell_angle_alpha   89.98633064
_cell_angle_beta   89.80687223
_cell_angle_gamma   90.29782214
_symmetry_Int_Tables_number   1
_chemical_formula_structural   La8Ho12Si15Pt
_chemical_formula_sum   'La8 Ho12 Si15 Pt1'
_cell_volume   886.88557623
_cell_formula_units_Z   1
loop_
 _symmetry_equiv_pos_site_id
 _symmetry_equiv_pos_as_xyz
  1  'x, y, z'
loop_
 _atom_site_type_symbol
 _atom_site_label
 _atom_site_symmetry_multiplicity
 _atom_site_fract_x
 _atom_site_fract_y
 _atom_site_fract_z
 _atom_site_occupancy
  La  La0  1  0.977610  0.817633  0.097759  1
  La  La1  1  0.476261  0.676671  0.401970  1
  La  La2  1  0.525081  0.326443  0.901078  1
  La  La3  1  0.023930  0.179366  0.598714  1
  La  La4  1  0.022506  0.178289  0.902078  1
  La  La5  1  0.525853  0.322929  0.598672  1
  La  La6  1  0.476382  0.676812  0.100996  1
  La  La7  1  0.976246  0.822654  0.400138  1
  Ho  Ho8  1  0.651230  0.995265  0.249852  1
  Ho  Ho9  1  0.151450  0.507201  0.248398  1
  Ho  Ho10  1  0.845691  0.493748  0.755548  1
  Ho  Ho11  1  0.346726  0.008964  0.751207  1
  Ho  Ho12  1  0.677876  0.817673  0.879169  1
  Ho  Ho13  1  0.177053  0.680781  0.622249  1
  Ho  Ho14  1  0.822019  0.330122  0.121195  1
  Ho  Ho15  1  0.316816  0.175514  0.376017  1
  Ho  Ho16  1  0.322667  0.175903  0.124315  1
  Ho  Ho17  1  0.820835  0.320693  0.376813  1
  Ho  Ho18  1  0.177456  0.673994  0.878018  1
  Ho  Ho19  1  0.680665  0.823042  0.623187  1
  Si  Si20  1  0.770099  0.620619  0.251424  1
  Si  Si21  1  0.272328  0.879171  0.250797  1
  Si  Si22  1  0.729332  0.116603  0.750307  1
  Si  Si23  1  0.229810  0.382929  0.747268  1
  Si  Si24  1  0.023102  0.116942  0.248541  1
  Si  Si25  1  0.526918  0.383540  0.251595  1
  Si  Si26  1  0.468679  0.617222  0.747044  1
  Si  Si27  1  0.973056  0.884680  0.748780  1
  Si  Si28  1  0.356689  0.970101  0.539687  1
  Si  Si29  1  0.643431  0.031252  0.040646  1
  Si  Si30  1  0.143821  0.467905  0.460585  1
  Si  Si31  1  0.153142  0.464359  0.042360  1
  Si  Si32  1  0.642903  0.031311  0.460199  1
  Si  Si33  1  0.356332  0.968265  0.960951  1
  Si  Si34  1  0.856954  0.533169  0.538391  1
  Pt  Pt35  1  0.859052  0.528232  0.954052  1
