# generated using pymatgen
data_LaTe19
_symmetry_space_group_name_H-M   'P 1'
_cell_length_a   8.01800484
_cell_length_b   9.02478963
_cell_length_c   10.16484400
_cell_angle_alpha   104.08862850
_cell_angle_beta   97.23290686
_cell_angle_gamma   106.97193268
_symmetry_Int_Tables_number   1
_chemical_formula_structural   LaTe19
_chemical_formula_sum   'La1 Te19'
_cell_volume   666.78472118
_cell_formula_units_Z   1
loop_
 _symmetry_equiv_pos_site_id
 _symmetry_equiv_pos_as_xyz
  1  'x, y, z'
loop_
 _atom_site_type_symbol
 _atom_site_label
 _atom_site_symmetry_multiplicity
 _atom_site_fract_x
 _atom_site_fract_y
 _atom_site_fract_z
 _atom_site_occupancy
  La  La0  1  0.000000  0.500000  0.000000  1
  Te  Te1  1  0.776522  0.588909  0.619668  1
  Te  Te2  1  0.652383  0.208877  0.215099  1
  Te  Te3  1  0.347617  0.791123  0.784901  1
  Te  Te4  1  0.601903  0.693430  0.198586  1
  Te  Te5  1  0.223478  0.411091  0.380332  1
  Te  Te6  1  0.398097  0.306570  0.801414  1
  Te  Te7  1  0.000000  0.000000  0.000000  1
  Te  Te8  1  0.194396  0.902751  0.393162  1
  Te  Te9  1  0.805604  0.097249  0.606838  1
  Te  Te10  1  0.683800  0.639928  0.904332  1
  Te  Te11  1  0.518521  0.259282  0.501152  1
  Te  Te12  1  0.709850  0.141302  0.907030  1
  Te  Te13  1  0.290150  0.858698  0.092970  1
  Te  Te14  1  0.481479  0.740718  0.498848  1
  Te  Te15  1  0.092265  0.459042  0.696208  1
  Te  Te16  1  0.316200  0.360072  0.095668  1
  Te  Te17  1  0.914746  0.044542  0.305084  1
  Te  Te18  1  0.085254  0.955458  0.694916  1
  Te  Te19  1  0.907735  0.540958  0.303792  1
