# generated using pymatgen
data_EuCd3P6N13
_symmetry_space_group_name_H-M   'P 1'
_cell_length_a   7.28598957
_cell_length_b   7.25900444
_cell_length_c   7.25900600
_cell_angle_alpha   109.39578975
_cell_angle_beta   109.54654612
_cell_angle_gamma   109.54655052
_symmetry_Int_Tables_number   1
_chemical_formula_structural   EuCd3P6N13
_chemical_formula_sum   'Eu1 Cd3 P6 N13'
_cell_volume   295.26792941
_cell_formula_units_Z   1
loop_
 _symmetry_equiv_pos_site_id
 _symmetry_equiv_pos_as_xyz
  1  'x, y, z'
loop_
 _atom_site_type_symbol
 _atom_site_label
 _atom_site_symmetry_multiplicity
 _atom_site_fract_x
 _atom_site_fract_y
 _atom_site_fract_z
 _atom_site_occupancy
  Eu  Eu0  1  0.708555  0.000000  0.000000  1
  Cd  Cd1  1  0.999367  0.000000  0.699099  1
  Cd  Cd2  1  0.999367  0.699099  0.000000  1
  Cd  Cd3  1  0.300268  0.300901  0.300901  1
  P  P4  1  0.246548  0.749759  0.497709  1
  P  P5  1  0.748838  0.252050  0.502291  1
  P  P6  1  0.748838  0.502291  0.252050  1
  P  P7  1  0.246548  0.497709  0.749759  1
  P  P8  1  0.496789  0.747950  0.250241  1
  P  P9  1  0.496789  0.250241  0.747950  1
  N  N10  1  0.011945  0.000000  0.000000  1
  N  N11  1  0.715299  0.284960  0.284960  1
  N  N12  1  0.276745  0.711375  0.277899  1
  N  N13  1  0.294803  0.573081  0.573081  1
  N  N14  1  0.565370  0.566524  0.288625  1
  N  N15  1  0.430339  0.715040  0.000000  1
  N  N16  1  0.998846  0.722101  0.433476  1
  N  N17  1  0.565370  0.288625  0.566524  1
  N  N18  1  0.721722  0.000000  0.426919  1
  N  N19  1  0.430339  0.000000  0.715040  1
  N  N20  1  0.721722  0.426919  0.000000  1
  N  N21  1  0.276745  0.277899  0.711375  1
  N  N22  1  0.998846  0.433476  0.722101  1
