# generated using pymatgen
data_NdTm2Nb(Co4P3)2
_symmetry_space_group_name_H-M   'P 1'
_cell_length_a   3.72179000
_cell_length_b   10.65001000
_cell_length_c   12.35323600
_cell_angle_alpha   90.00000000
_cell_angle_beta   90.00000000
_cell_angle_gamma   90.00000000
_symmetry_Int_Tables_number   1
_chemical_formula_structural   NdTm2Nb(Co4P3)2
_chemical_formula_sum   'Nd2 Tm4 Nb2 Co16 P12'
_cell_volume   489.64645952
_cell_formula_units_Z   2
loop_
 _symmetry_equiv_pos_site_id
 _symmetry_equiv_pos_as_xyz
  1  'x, y, z'
loop_
 _atom_site_type_symbol
 _atom_site_label
 _atom_site_symmetry_multiplicity
 _atom_site_fract_x
 _atom_site_fract_y
 _atom_site_fract_z
 _atom_site_occupancy
  Nd  Nd0  1  0.000000  0.500000  0.527587  1
  Nd  Nd1  1  0.500000  0.000000  0.472413  1
  Tm  Tm2  1  0.500000  0.820105  0.203761  1
  Tm  Tm3  1  0.500000  0.179895  0.203761  1
  Tm  Tm4  1  0.000000  0.679895  0.796239  1
  Tm  Tm5  1  0.000000  0.320105  0.796239  1
  Nb  Nb6  1  0.500000  0.500000  0.154848  1
  Nb  Nb7  1  0.000000  0.000000  0.845152  1
  Co  Co8  1  0.500000  0.500000  0.706280  1
  Co  Co9  1  0.000000  0.000000  0.293720  1
  Co  Co10  1  0.000000  0.500000  0.985711  1
  Co  Co11  1  0.500000  0.000000  0.014289  1
  Co  Co12  1  0.500000  0.332093  0.991291  1
  Co  Co13  1  0.500000  0.667907  0.991291  1
  Co  Co14  1  0.000000  0.167907  0.008709  1
  Co  Co15  1  0.000000  0.832093  0.008709  1
  Co  Co16  1  0.500000  0.294558  0.430982  1
  Co  Co17  1  0.500000  0.705442  0.430982  1
  Co  Co18  1  0.000000  0.205442  0.569018  1
  Co  Co19  1  0.000000  0.794558  0.569018  1
  Co  Co20  1  0.500000  0.877228  0.707242  1
  Co  Co21  1  0.500000  0.122772  0.707242  1
  Co  Co22  1  0.000000  0.622772  0.292758  1
  Co  Co23  1  0.000000  0.377228  0.292758  1
  P  P24  1  0.500000  0.500000  0.882888  1
  P  P25  1  0.000000  0.000000  0.117112  1
  P  P26  1  0.500000  0.500000  0.351740  1
  P  P27  1  0.000000  0.000000  0.648260  1
  P  P28  1  0.500000  0.307850  0.617984  1
  P  P29  1  0.500000  0.692150  0.617984  1
  P  P30  1  0.000000  0.192150  0.382016  1
  P  P31  1  0.000000  0.807850  0.382016  1
  P  P32  1  0.500000  0.840972  0.893336  1
  P  P33  1  0.500000  0.159028  0.893336  1
  P  P34  1  0.000000  0.659028  0.106664  1
  P  P35  1  0.000000  0.340972  0.106664  1
