# generated using pymatgen
data_Ho6Co8Re(P4Rh3)3
_symmetry_space_group_name_H-M   'P 1'
_cell_length_a   3.77105500
_cell_length_b   10.90368800
_cell_length_c   12.51147600
_cell_angle_alpha   90.00000000
_cell_angle_beta   90.00000000
_cell_angle_gamma   90.00000000
_symmetry_Int_Tables_number   1
_chemical_formula_structural   Ho6Co8Re(P4Rh3)3
_chemical_formula_sum   'Ho6 Co8 Re1 P12 Rh9'
_cell_volume   514.45196423
_cell_formula_units_Z   1
loop_
 _symmetry_equiv_pos_site_id
 _symmetry_equiv_pos_as_xyz
  1  'x, y, z'
loop_
 _atom_site_type_symbol
 _atom_site_label
 _atom_site_symmetry_multiplicity
 _atom_site_fract_x
 _atom_site_fract_y
 _atom_site_fract_z
 _atom_site_occupancy
  Ho  Ho0  1  0.000000  0.500000  0.517707  1
  Ho  Ho1  1  0.500000  0.000000  0.475813  1
  Ho  Ho2  1  0.500000  0.814868  0.197605  1
  Ho  Ho3  1  0.500000  0.185132  0.197605  1
  Ho  Ho4  1  0.000000  0.679738  0.805853  1
  Ho  Ho5  1  0.000000  0.320262  0.805853  1
  Co  Co6  1  0.000000  0.500000  0.992667  1
  Co  Co7  1  0.500000  0.000000  0.012567  1
  Co  Co8  1  0.000000  0.618682  0.283067  1
  Co  Co9  1  0.000000  0.381318  0.283067  1
  Co  Co10  1  0.500000  0.336743  0.996640  1
  Co  Co11  1  0.500000  0.663257  0.996640  1
  Co  Co12  1  0.000000  0.170487  0.008673  1
  Co  Co13  1  0.000000  0.829513  0.008673  1
  Re  Re14  1  0.500000  0.500000  0.154266  1
  P  P15  1  0.500000  0.316651  0.619176  1
  P  P16  1  0.500000  0.683349  0.619176  1
  P  P17  1  0.000000  0.192169  0.372494  1
  P  P18  1  0.000000  0.807831  0.372494  1
  P  P19  1  0.500000  0.500000  0.891759  1
  P  P20  1  0.000000  0.000000  0.107666  1
  P  P21  1  0.500000  0.840765  0.905536  1
  P  P22  1  0.500000  0.159235  0.905536  1
  P  P23  1  0.000000  0.654325  0.105873  1
  P  P24  1  0.000000  0.345675  0.105873  1
  P  P25  1  0.500000  0.500000  0.340079  1
  P  P26  1  0.000000  0.000000  0.653726  1
  Rh  Rh27  1  0.500000  0.300669  0.424754  1
  Rh  Rh28  1  0.500000  0.699331  0.424754  1
  Rh  Rh29  1  0.000000  0.205608  0.568028  1
  Rh  Rh30  1  0.000000  0.794392  0.568028  1
  Rh  Rh31  1  0.500000  0.871613  0.716878  1
  Rh  Rh32  1  0.500000  0.128387  0.716878  1
  Rh  Rh33  1  0.000000  0.000000  0.844481  1
  Rh  Rh34  1  0.500000  0.500000  0.706590  1
  Rh  Rh35  1  0.000000  0.000000  0.293526  1
