# generated using pymatgen
data_DyPa5(Al3Fe)8
_symmetry_space_group_name_H-M   'P 1'
_cell_length_a   8.69019903
_cell_length_b   8.69020030
_cell_length_c   9.17158700
_cell_angle_alpha   90.00000000
_cell_angle_beta   90.00000000
_cell_angle_gamma   119.95130282
_symmetry_Int_Tables_number   1
_chemical_formula_structural   DyPa5(Al3Fe)8
_chemical_formula_sum   'Dy1 Pa5 Al24 Fe8'
_cell_volume   600.13303389
_cell_formula_units_Z   1
loop_
 _symmetry_equiv_pos_site_id
 _symmetry_equiv_pos_as_xyz
  1  'x, y, z'
loop_
 _atom_site_type_symbol
 _atom_site_label
 _atom_site_symmetry_multiplicity
 _atom_site_fract_x
 _atom_site_fract_y
 _atom_site_fract_z
 _atom_site_occupancy
  Dy  Dy0  1  0.804126  0.195874  0.750000  1
  Pa  Pa1  1  0.196468  0.396368  0.250000  1
  Pa  Pa2  1  0.798819  0.606060  0.750000  1
  Pa  Pa3  1  0.603632  0.803532  0.250000  1
  Pa  Pa4  1  0.393940  0.201181  0.750000  1
  Pa  Pa5  1  0.199503  0.800497  0.250000  1
  Al  Al6  1  0.334204  0.665796  0.008188  1
  Al  Al7  1  0.669449  0.330551  0.986837  1
  Al  Al8  1  0.669449  0.330551  0.513163  1
  Al  Al9  1  0.334204  0.665796  0.491812  1
  Al  Al10  1  0.158814  0.320548  0.577158  1
  Al  Al11  1  0.840068  0.679205  0.421820  1
  Al  Al12  1  0.679452  0.841186  0.577158  1
  Al  Al13  1  0.840068  0.679205  0.078180  1
  Al  Al14  1  0.320795  0.159932  0.421820  1
  Al  Al15  1  0.158814  0.320548  0.922842  1
  Al  Al16  1  0.160140  0.839860  0.578479  1
  Al  Al17  1  0.320795  0.159932  0.078180  1
  Al  Al18  1  0.839926  0.160074  0.422591  1
  Al  Al19  1  0.679452  0.841186  0.922842  1
  Al  Al20  1  0.839926  0.160074  0.077409  1
  Al  Al21  1  0.160140  0.839860  0.921521  1
  Al  Al22  1  0.561896  0.123673  0.250000  1
  Al  Al23  1  0.442178  0.883899  0.750000  1
  Al  Al24  1  0.876327  0.438104  0.250000  1
  Al  Al25  1  0.116101  0.557822  0.750000  1
  Al  Al26  1  0.560395  0.439605  0.250000  1
  Al  Al27  1  0.437079  0.562921  0.750000  1
  Al  Al28  1  0.000354  0.999646  0.250000  1
  Al  Al29  1  0.000174  0.999826  0.750000  1
  Fe  Fe30  1  0.494997  0.994352  0.006507  1
  Fe  Fe31  1  0.005648  0.505003  0.006507  1
  Fe  Fe32  1  0.494997  0.994352  0.493493  1
  Fe  Fe33  1  0.501323  0.498677  0.997863  1
  Fe  Fe34  1  0.005648  0.505003  0.493493  1
  Fe  Fe35  1  0.501323  0.498677  0.502137  1
  Fe  Fe36  1  0.999689  0.000311  0.000125  1
  Fe  Fe37  1  0.999689  0.000311  0.499875  1
