# generated using pymatgen
data_Be4Co2Mo4W2C
_symmetry_space_group_name_H-M   'P 1'
_cell_length_a   7.52644423
_cell_length_b   7.52644438
_cell_length_c   7.53045322
_cell_angle_alpha   60.00511323
_cell_angle_beta   60.00511553
_cell_angle_gamma   60.02929731
_symmetry_Int_Tables_number   1
_chemical_formula_structural   Be4Co2Mo4W2C
_chemical_formula_sum   'Be8 Co4 Mo8 W4 C2'
_cell_volume   301.72790112
_cell_formula_units_Z   2
loop_
 _symmetry_equiv_pos_site_id
 _symmetry_equiv_pos_as_xyz
  1  'x, y, z'
loop_
 _atom_site_type_symbol
 _atom_site_label
 _atom_site_symmetry_multiplicity
 _atom_site_fract_x
 _atom_site_fract_y
 _atom_site_fract_z
 _atom_site_occupancy
  Be  Be0  1  0.422032  0.422032  0.734056  1
  Be  Be1  1  0.421994  0.733936  0.422019  1
  Be  Be2  1  0.733936  0.421994  0.422019  1
  Be  Be3  1  0.422103  0.422103  0.421984  1
  Be  Be4  1  0.828147  0.828147  0.515544  1
  Be  Be5  1  0.827960  0.515829  0.828015  1
  Be  Be6  1  0.515829  0.827960  0.828015  1
  Be  Be7  1  0.828028  0.828028  0.827877  1
  Co  Co8  1  0.625120  0.625120  0.124164  1
  Co  Co9  1  0.625290  0.124187  0.624862  1
  Co  Co10  1  0.124187  0.625290  0.624862  1
  Co  Co11  1  0.625398  0.625398  0.624999  1
  Mo  Mo12  1  0.049445  0.450506  0.049644  1
  Mo  Mo13  1  0.450506  0.049445  0.049644  1
  Mo  Mo14  1  0.200259  0.200259  0.799466  1
  Mo  Mo15  1  0.800092  0.200028  0.799794  1
  Mo  Mo16  1  0.200028  0.800092  0.799794  1
  Mo  Mo17  1  0.799739  0.799739  0.200210  1
  Mo  Mo18  1  0.200216  0.799656  0.200163  1
  Mo  Mo19  1  0.799656  0.200216  0.200163  1
  W  W20  1  0.049319  0.049319  0.450798  1
  W  W21  1  0.450992  0.049038  0.451093  1
  W  W22  1  0.049038  0.450992  0.451093  1
  W  W23  1  0.450684  0.450684  0.049517  1
  C  C24  1  0.250007  0.250007  0.250141  1
  C  C25  1  0.999996  0.999996  0.000062  1
