# generated using pymatgen
data_Lu6InRhO12
_symmetry_space_group_name_H-M   'P 1'
_cell_length_a   6.46926356
_cell_length_b   6.46926409
_cell_length_c   6.46926310
_cell_angle_alpha   93.67625677
_cell_angle_beta   93.67625582
_cell_angle_gamma   93.67626545
_symmetry_Int_Tables_number   1
_chemical_formula_structural   Lu6InRhO12
_chemical_formula_sum   'Lu6 In1 Rh1 O12'
_cell_volume   269.00089275
_cell_formula_units_Z   1
loop_
 _symmetry_equiv_pos_site_id
 _symmetry_equiv_pos_as_xyz
  1  'x, y, z'
loop_
 _atom_site_type_symbol
 _atom_site_label
 _atom_site_symmetry_multiplicity
 _atom_site_fract_x
 _atom_site_fract_y
 _atom_site_fract_z
 _atom_site_occupancy
  Lu  Lu0  1  0.567968  0.081201  0.260494  1
  Lu  Lu1  1  0.081201  0.260494  0.567968  1
  Lu  Lu2  1  0.739506  0.432032  0.918799  1
  Lu  Lu3  1  0.260494  0.567968  0.081201  1
  Lu  Lu4  1  0.918799  0.739506  0.432032  1
  Lu  Lu5  1  0.432032  0.918799  0.739506  1
  In  In6  1  0.000000  0.000000  0.000000  1
  Rh  Rh7  1  0.500000  0.500000  0.500000  1
  O  O8  1  0.681197  0.088890  0.930233  1
  O  O9  1  0.911110  0.069767  0.318803  1
  O  O10  1  0.408650  0.191161  0.539245  1
  O  O11  1  0.069767  0.318803  0.911110  1
  O  O12  1  0.539245  0.408650  0.191161  1
  O  O13  1  0.808839  0.460755  0.591350  1
  O  O14  1  0.191161  0.539245  0.408650  1
  O  O15  1  0.460755  0.591350  0.808839  1
  O  O16  1  0.930233  0.681197  0.088890  1
  O  O17  1  0.591350  0.808839  0.460755  1
  O  O18  1  0.088890  0.930233  0.681197  1
  O  O19  1  0.318803  0.911110  0.069767  1
