# generated using pymatgen
data_Dy8Er12Si15Ir
_symmetry_space_group_name_H-M   'P 1'
_cell_length_a   7.39414704
_cell_length_b   7.64173663
_cell_length_c   14.50681104
_cell_angle_alpha   90.23924173
_cell_angle_beta   90.37850509
_cell_angle_gamma   90.28991093
_symmetry_Int_Tables_number   1
_chemical_formula_structural   Dy8Er12Si15Ir
_chemical_formula_sum   'Dy8 Er12 Si15 Ir1'
_cell_volume   819.65901429
_cell_formula_units_Z   1
loop_
 _symmetry_equiv_pos_site_id
 _symmetry_equiv_pos_as_xyz
  1  'x, y, z'
loop_
 _atom_site_type_symbol
 _atom_site_label
 _atom_site_symmetry_multiplicity
 _atom_site_fract_x
 _atom_site_fract_y
 _atom_site_fract_z
 _atom_site_occupancy
  Dy  Dy0  1  0.023915  0.819835  0.598873  1
  Dy  Dy1  1  0.526136  0.685944  0.596356  1
  Dy  Dy2  1  0.320892  0.818567  0.121495  1
  Dy  Dy3  1  0.816435  0.679632  0.122188  1
  Dy  Dy4  1  0.853037  0.505824  0.748999  1
  Dy  Dy5  1  0.470642  0.315705  0.099171  1
  Dy  Dy6  1  0.028721  0.817553  0.901707  1
  Dy  Dy7  1  0.472330  0.313444  0.402321  1
  Er  Er8  1  0.652404  0.011771  0.258236  1
  Er  Er9  1  0.530051  0.682723  0.900775  1
  Er  Er10  1  0.681170  0.180041  0.877248  1
  Er  Er11  1  0.179926  0.321950  0.624056  1
  Er  Er12  1  0.185547  0.323256  0.875893  1
  Er  Er13  1  0.814888  0.688482  0.382333  1
  Er  Er14  1  0.323496  0.825411  0.377901  1
  Er  Er15  1  0.352463  0.989975  0.747570  1
  Er  Er16  1  0.682986  0.166283  0.619384  1
  Er  Er17  1  0.145870  0.489868  0.252585  1
  Er  Er18  1  0.970795  0.181637  0.098193  1
  Er  Er19  1  0.968939  0.175022  0.401994  1
  Si  Si20  1  0.235387  0.628720  0.750958  1
  Si  Si21  1  0.343608  0.028969  0.540895  1
  Si  Si22  1  0.027101  0.893352  0.246312  1
  Si  Si23  1  0.733967  0.870802  0.752816  1
  Si  Si24  1  0.263560  0.127288  0.246311  1
  Si  Si25  1  0.853638  0.472047  0.541780  1
  Si  Si26  1  0.481400  0.393563  0.749142  1
  Si  Si27  1  0.146287  0.530992  0.461389  1
  Si  Si28  1  0.145942  0.525841  0.039938  1
  Si  Si29  1  0.978414  0.104759  0.752088  1
  Si  Si30  1  0.767886  0.375489  0.248824  1
  Si  Si31  1  0.352924  0.030452  0.959271  1
  Si  Si32  1  0.856416  0.469769  0.959167  1
  Si  Si33  1  0.647053  0.972099  0.038630  1
  Si  Si34  1  0.520782  0.602108  0.248731  1
  Ir  Ir35  1  0.644990  0.980825  0.456467  1
