# generated using pymatgen
data_VCu4Ni2SnO8
_symmetry_space_group_name_H-M   'P 1'
_cell_length_a   5.29498821
_cell_length_b   6.81890937
_cell_length_c   6.25693806
_cell_angle_alpha   117.31895276
_cell_angle_beta   89.99700224
_cell_angle_gamma   105.53226753
_symmetry_Int_Tables_number   1
_chemical_formula_structural   VCu4Ni2SnO8
_chemical_formula_sum   'V1 Cu4 Ni2 Sn1 O8'
_cell_volume   191.38429906
_cell_formula_units_Z   1
loop_
 _symmetry_equiv_pos_site_id
 _symmetry_equiv_pos_as_xyz
  1  'x, y, z'
loop_
 _atom_site_type_symbol
 _atom_site_label
 _atom_site_symmetry_multiplicity
 _atom_site_fract_x
 _atom_site_fract_y
 _atom_site_fract_z
 _atom_site_occupancy
  V  V0  1  0.999999  0.500014  0.500007  1
  Cu  Cu1  1  0.000037  0.000004  0.499940  1
  Cu  Cu2  1  0.999962  0.999995  0.000060  1
  Cu  Cu3  1  0.503553  0.005111  0.252536  1
  Cu  Cu4  1  0.496452  0.994882  0.747462  1
  Ni  Ni5  1  0.500001  0.499996  0.747656  1
  Ni  Ni6  1  0.500001  0.500008  0.252344  1
  Sn  Sn7  1  0.999999  0.499987  0.999994  1
  O  O8  1  0.366265  0.675173  0.587641  1
  O  O9  1  0.397152  0.683070  0.091580  1
  O  O10  1  0.633740  0.324827  0.412355  1
  O  O11  1  0.602836  0.316927  0.908419  1
  O  O12  1  0.901769  0.681619  0.349268  1
  O  O13  1  0.901738  0.681591  0.832394  1
  O  O14  1  0.098245  0.318392  0.650718  1
  O  O15  1  0.098252  0.318404  0.167625  1
