# generated using pymatgen
data_Pr3Dy5Cd2IrPt
_symmetry_space_group_name_H-M   'P 1'
_cell_length_a   9.80043733
_cell_length_b   9.80043742
_cell_length_c   9.77506200
_cell_angle_alpha   60.08561358
_cell_angle_beta   60.08561329
_cell_angle_gamma   60.26170189
_symmetry_Int_Tables_number   1
_chemical_formula_structural   Pr3Dy5Cd2IrPt
_chemical_formula_sum   'Pr6 Dy10 Cd4 Ir2 Pt2'
_cell_volume   666.05493358
_cell_formula_units_Z   2
loop_
 _symmetry_equiv_pos_site_id
 _symmetry_equiv_pos_as_xyz
  1  'x, y, z'
loop_
 _atom_site_type_symbol
 _atom_site_label
 _atom_site_symmetry_multiplicity
 _atom_site_fract_x
 _atom_site_fract_y
 _atom_site_fract_z
 _atom_site_occupancy
  Pr  Pr0  1  0.940911  0.560800  0.558567  1
  Pr  Pr1  1  0.560800  0.940911  0.939722  1
  Pr  Pr2  1  0.560800  0.940911  0.558567  1
  Pr  Pr3  1  0.940911  0.560800  0.939722  1
  Pr  Pr4  1  0.559757  0.559757  0.940243  1
  Pr  Pr5  1  0.940560  0.940560  0.559440  1
  Dy  Dy6  1  0.349305  0.349305  0.345088  1
  Dy  Dy7  1  0.349305  0.349305  0.956302  1
  Dy  Dy8  1  0.352777  0.951847  0.347688  1
  Dy  Dy9  1  0.951847  0.352777  0.347688  1
  Dy  Dy10  1  0.808773  0.186737  0.188690  1
  Dy  Dy11  1  0.186737  0.808773  0.815800  1
  Dy  Dy12  1  0.186737  0.808773  0.188690  1
  Dy  Dy13  1  0.808773  0.186737  0.815800  1
  Dy  Dy14  1  0.188269  0.188269  0.811731  1
  Dy  Dy15  1  0.812981  0.812981  0.187019  1
  Cd  Cd16  1  0.579527  0.579527  0.579189  1
  Cd  Cd17  1  0.579527  0.579527  0.261755  1
  Cd  Cd18  1  0.579398  0.261901  0.579349  1
  Cd  Cd19  1  0.261901  0.579398  0.579349  1
  Ir  Ir20  1  0.141860  0.574254  0.141943  1
  Ir  Ir21  1  0.574254  0.141860  0.141943  1
  Pt  Pt22  1  0.142144  0.142144  0.142534  1
  Pt  Pt23  1  0.142144  0.142144  0.573179  1
