# generated using pymatgen
data_Er8Re(B8Ir)3
_symmetry_space_group_name_H-M   'P 1'
_cell_length_a   3.63921600
_cell_length_b   9.14114177
_cell_length_c   11.47007741
_cell_angle_alpha   90.12949931
_cell_angle_beta   90.00000000
_cell_angle_gamma   90.00000000
_symmetry_Int_Tables_number   1
_chemical_formula_structural   Er8Re(B8Ir)3
_chemical_formula_sum   'Er8 Re1 B24 Ir3'
_cell_volume   381.56938079
_cell_formula_units_Z   1
loop_
 _symmetry_equiv_pos_site_id
 _symmetry_equiv_pos_as_xyz
  1  'x, y, z'
loop_
 _atom_site_type_symbol
 _atom_site_label
 _atom_site_symmetry_multiplicity
 _atom_site_fract_x
 _atom_site_fract_y
 _atom_site_fract_z
 _atom_site_occupancy
  Er  Er0  1  0.000000  0.320443  0.413632  1
  Er  Er1  1  0.000000  0.683540  0.590635  1
  Er  Er2  1  0.000000  0.820564  0.082631  1
  Er  Er3  1  0.000000  0.175940  0.912070  1
  Er  Er4  1  0.000000  0.943820  0.373177  1
  Er  Er5  1  0.000000  0.053891  0.626139  1
  Er  Er6  1  0.000000  0.443571  0.126059  1
  Er  Er7  1  0.000000  0.557380  0.875087  1
  Re  Re8  1  0.000000  0.862613  0.821484  1
  B  B9  1  0.500000  0.553224  0.434441  1
  B  B10  1  0.500000  0.447857  0.566426  1
  B  B11  1  0.500000  0.053156  0.066089  1
  B  B12  1  0.500000  0.947036  0.933478  1
  B  B13  1  0.500000  0.750353  0.420747  1
  B  B14  1  0.500000  0.250581  0.578824  1
  B  B15  1  0.500000  0.248886  0.078789  1
  B  B16  1  0.500000  0.752034  0.920242  1
  B  B17  1  0.500000  0.792234  0.265181  1
  B  B18  1  0.500000  0.207734  0.733306  1
  B  B19  1  0.500000  0.292917  0.235028  1
  B  B20  1  0.500000  0.707971  0.766114  1
  B  B21  1  0.500000  0.631058  0.184641  1
  B  B22  1  0.500000  0.368241  0.815685  1
  B  B23  1  0.500000  0.132137  0.315488  1
  B  B24  1  0.500000  0.868885  0.685371  1
  B  B25  1  0.500000  0.981245  0.212673  1
  B  B26  1  0.500000  0.017725  0.786558  1
  B  B27  1  0.500000  0.480770  0.287526  1
  B  B28  1  0.500000  0.518484  0.714142  1
  B  B29  1  0.500000  0.608854  0.031428  1
  B  B30  1  0.500000  0.388701  0.970002  1
  B  B31  1  0.500000  0.109836  0.469072  1
  B  B32  1  0.500000  0.891146  0.528872  1
  Ir  Ir33  1  0.000000  0.637049  0.323016  1
  Ir  Ir34  1  0.000000  0.362969  0.677776  1
  Ir  Ir35  1  0.000000  0.137152  0.178172  1
