# generated using pymatgen
data_Sm4FeCo3I2
_symmetry_space_group_name_H-M   'P 1'
_cell_length_a   3.97546200
_cell_length_b   3.97546193
_cell_length_c   17.44325100
_cell_angle_alpha   90.00000000
_cell_angle_beta   90.00000000
_cell_angle_gamma   120.00000060
_symmetry_Int_Tables_number   1
_chemical_formula_structural   Sm4FeCo3I2
_chemical_formula_sum   'Sm4 Fe1 Co3 I2'
_cell_volume   238.74443893
_cell_formula_units_Z   1
loop_
 _symmetry_equiv_pos_site_id
 _symmetry_equiv_pos_as_xyz
  1  'x, y, z'
loop_
 _atom_site_type_symbol
 _atom_site_label
 _atom_site_symmetry_multiplicity
 _atom_site_fract_x
 _atom_site_fract_y
 _atom_site_fract_z
 _atom_site_occupancy
  Sm  Sm0  1  0.000000  0.000000  0.107231  1
  Sm  Sm1  1  0.000000  0.000000  0.395851  1
  Sm  Sm2  1  0.000000  0.000000  0.893026  1
  Sm  Sm3  1  0.000000  0.000000  0.604100  1
  Fe  Fe4  1  0.333333  0.666667  0.000858  1
  Co  Co5  1  0.666667  0.333333  0.999339  1
  Co  Co6  1  0.333333  0.666667  0.499709  1
  Co  Co7  1  0.666667  0.333333  0.500160  1
  I  I8  1  0.333333  0.666667  0.749086  1
  I  I9  1  0.666667  0.333333  0.250638  1
