# generated using pymatgen
data_Y(FeB)4
_symmetry_space_group_name_H-M   'P 1'
_cell_length_a   6.96249302
_cell_length_b   6.96249701
_cell_length_c   3.81820002
_cell_angle_alpha   90.00638913
_cell_angle_beta   90.00908928
_cell_angle_gamma   90.00164559
_symmetry_Int_Tables_number   1
_chemical_formula_structural   Y(FeB)4
_chemical_formula_sum   'Y2 Fe8 B8'
_cell_volume   185.09234672
_cell_formula_units_Z   2
loop_
 _symmetry_equiv_pos_site_id
 _symmetry_equiv_pos_as_xyz
  1  'x, y, z'
loop_
 _atom_site_type_symbol
 _atom_site_label
 _atom_site_symmetry_multiplicity
 _atom_site_fract_x
 _atom_site_fract_y
 _atom_site_fract_z
 _atom_site_occupancy
  Y  Y0  1  0.999942  0.999967  0.000007  1
  Y  Y1  1  0.500058  0.500033  0.499993  1
  Fe  Fe2  1  0.867687  0.385715  0.108812  1
  Fe  Fe3  1  0.132301  0.614322  0.108808  1
  Fe  Fe4  1  0.885671  0.632324  0.608810  1
  Fe  Fe5  1  0.114272  0.367735  0.608794  1
  Fe  Fe6  1  0.632313  0.114285  0.391188  1
  Fe  Fe7  1  0.367699  0.885678  0.391192  1
  Fe  Fe8  1  0.614329  0.867676  0.891190  1
  Fe  Fe9  1  0.385728  0.132265  0.891206  1
  B  B10  1  0.333385  0.800130  0.893660  1
  B  B11  1  0.666642  0.199878  0.893699  1
  B  B12  1  0.300134  0.166621  0.393639  1
  B  B13  1  0.699850  0.833375  0.393694  1
  B  B14  1  0.166615  0.699870  0.606340  1
  B  B15  1  0.833358  0.300122  0.606301  1
  B  B16  1  0.199866  0.333379  0.106361  1
  B  B17  1  0.800150  0.666625  0.106306  1
