# generated using pymatgen
data_Dy8Ga12NiPt3
_symmetry_space_group_name_H-M   'P 1'
_cell_length_a   6.99498100
_cell_length_b   8.80506751
_cell_length_c   8.80506700
_cell_angle_alpha   120.00000185
_cell_angle_beta   90.00000000
_cell_angle_gamma   90.00000000
_symmetry_Int_Tables_number   1
_chemical_formula_structural   Dy8Ga12NiPt3
_chemical_formula_sum   'Dy8 Ga12 Ni1 Pt3'
_cell_volume   469.65885792
_cell_formula_units_Z   1
loop_
 _symmetry_equiv_pos_site_id
 _symmetry_equiv_pos_as_xyz
  1  'x, y, z'
loop_
 _atom_site_type_symbol
 _atom_site_label
 _atom_site_symmetry_multiplicity
 _atom_site_fract_x
 _atom_site_fract_y
 _atom_site_fract_z
 _atom_site_occupancy
  Dy  Dy0  1  0.743423  0.000000  0.000000  1
  Dy  Dy1  1  0.247442  0.000000  0.000000  1
  Dy  Dy2  1  0.751288  0.479807  0.520193  1
  Dy  Dy3  1  0.250769  0.520500  0.479500  1
  Dy  Dy4  1  0.751288  0.040388  0.520193  1
  Dy  Dy5  1  0.250769  0.959001  0.479500  1
  Dy  Dy6  1  0.751288  0.479807  0.959612  1
  Dy  Dy7  1  0.250769  0.520500  0.040999  1
  Ga  Ga8  1  0.952240  0.833570  0.166430  1
  Ga  Ga9  1  0.048126  0.167119  0.832881  1
  Ga  Ga10  1  0.952240  0.332863  0.166430  1
  Ga  Ga11  1  0.454393  0.166218  0.833782  1
  Ga  Ga12  1  0.048126  0.665760  0.832881  1
  Ga  Ga13  1  0.546071  0.827849  0.172151  1
  Ga  Ga14  1  0.952240  0.833570  0.667137  1
  Ga  Ga15  1  0.454393  0.667563  0.833782  1
  Ga  Ga16  1  0.048126  0.167119  0.334240  1
  Ga  Ga17  1  0.546071  0.344304  0.172151  1
  Ga  Ga18  1  0.454393  0.166218  0.332437  1
  Ga  Ga19  1  0.546071  0.827849  0.655696  1
  Ni  Ni20  1  0.532060  0.666667  0.333333  1
  Pt  Pt21  1  0.967840  0.666667  0.333333  1
  Pt  Pt22  1  0.032062  0.333333  0.666667  1
  Pt  Pt23  1  0.468518  0.333333  0.666667  1
