# generated using pymatgen
data_Er10(BiPb)3
_symmetry_space_group_name_H-M   'P 1'
_cell_length_a   9.06818000
_cell_length_b   9.06818115
_cell_length_c   6.42863700
_cell_angle_alpha   90.00000000
_cell_angle_beta   90.00000000
_cell_angle_gamma   120.00000309
_symmetry_Int_Tables_number   1
_chemical_formula_structural   Er10(BiPb)3
_chemical_formula_sum   'Er10 Bi3 Pb3'
_cell_volume   457.81481367
_cell_formula_units_Z   1
loop_
 _symmetry_equiv_pos_site_id
 _symmetry_equiv_pos_as_xyz
  1  'x, y, z'
loop_
 _atom_site_type_symbol
 _atom_site_label
 _atom_site_symmetry_multiplicity
 _atom_site_fract_x
 _atom_site_fract_y
 _atom_site_fract_z
 _atom_site_occupancy
  Er  Er0  1  0.666667  0.333333  0.002888  1
  Er  Er1  1  0.333333  0.666667  0.002888  1
  Er  Er2  1  0.333333  0.666667  0.497112  1
  Er  Er3  1  0.666667  0.333333  0.497112  1
  Er  Er4  1  0.761774  0.761774  0.750000  1
  Er  Er5  1  0.238226  0.000000  0.750000  1
  Er  Er6  1  0.000000  0.238226  0.750000  1
  Er  Er7  1  0.238478  0.238478  0.250000  1
  Er  Er8  1  0.761522  0.000000  0.250000  1
  Er  Er9  1  0.000000  0.761522  0.250000  1
  Bi  Bi10  1  0.392896  0.392896  0.750000  1
  Bi  Bi11  1  0.607104  0.000000  0.750000  1
  Bi  Bi12  1  0.000000  0.607104  0.750000  1
  Pb  Pb13  1  0.607539  0.607539  0.250000  1
  Pb  Pb14  1  0.392461  0.000000  0.250000  1
  Pb  Pb15  1  0.000000  0.392461  0.250000  1
