# generated using pymatgen
data_Sm5YAl18(Si3Os4)2
_symmetry_space_group_name_H-M   'P 1'
_cell_length_a   8.75838914
_cell_length_b   8.72858602
_cell_length_c   9.61351900
_cell_angle_alpha   90.00000000
_cell_angle_beta   90.00000000
_cell_angle_gamma   120.13318886
_symmetry_Int_Tables_number   1
_chemical_formula_structural   Sm5YAl18(Si3Os4)2
_chemical_formula_sum   'Sm5 Y1 Al18 Si6 Os8'
_cell_volume   635.61878165
_cell_formula_units_Z   1
loop_
 _symmetry_equiv_pos_site_id
 _symmetry_equiv_pos_as_xyz
  1  'x, y, z'
loop_
 _atom_site_type_symbol
 _atom_site_label
 _atom_site_symmetry_multiplicity
 _atom_site_fract_x
 _atom_site_fract_y
 _atom_site_fract_z
 _atom_site_occupancy
  Sm  Sm0  1  0.191888  0.383729  0.250000  1
  Sm  Sm1  1  0.808095  0.615908  0.750000  1
  Sm  Sm2  1  0.613149  0.809125  0.250000  1
  Sm  Sm3  1  0.387154  0.190901  0.750000  1
  Sm  Sm4  1  0.196248  0.808929  0.250000  1
  Y  Y5  1  0.802267  0.192341  0.750000  1
  Al  Al6  1  0.164647  0.330138  0.577794  1
  Al  Al7  1  0.834620  0.669332  0.422788  1
  Al  Al8  1  0.670375  0.834903  0.576092  1
  Al  Al9  1  0.834620  0.669332  0.077212  1
  Al  Al10  1  0.330099  0.165815  0.424549  1
  Al  Al11  1  0.164647  0.330138  0.922206  1
  Al  Al12  1  0.164294  0.834208  0.575866  1
  Al  Al13  1  0.330099  0.165815  0.075451  1
  Al  Al14  1  0.835703  0.165721  0.425222  1
  Al  Al15  1  0.670375  0.834903  0.923908  1
  Al  Al16  1  0.835703  0.165721  0.074778  1
  Al  Al17  1  0.164294  0.834208  0.924134  1
  Al  Al18  1  0.871317  0.432086  0.250000  1
  Al  Al19  1  0.127842  0.566670  0.750000  1
  Al  Al20  1  0.560983  0.432224  0.250000  1
  Al  Al21  1  0.438932  0.567873  0.750000  1
  Al  Al22  1  0.999369  0.998561  0.250000  1
  Al  Al23  1  0.999613  0.002348  0.750000  1
  Si  Si24  1  0.332114  0.663756  0.035899  1
  Si  Si25  1  0.668470  0.335569  0.962947  1
  Si  Si26  1  0.668470  0.335569  0.537053  1
  Si  Si27  1  0.332114  0.663756  0.464101  1
  Si  Si28  1  0.564238  0.128200  0.250000  1
  Si  Si29  1  0.437211  0.872711  0.750000  1
  Os  Os30  1  0.500712  0.000451  0.999170  1
  Os  Os31  1  0.999644  0.499379  0.999397  1
  Os  Os32  1  0.500712  0.000451  0.500830  1
  Os  Os33  1  0.500202  0.499889  0.999762  1
  Os  Os34  1  0.999644  0.499379  0.500603  1
  Os  Os35  1  0.500202  0.499889  0.500238  1
  Os  Os36  1  0.999967  0.000036  0.999912  1
  Os  Os37  1  0.999967  0.000036  0.500088  1
