# generated using pymatgen
data_Y8GePd23Au
_symmetry_space_group_name_H-M   'P 1'
_cell_length_a   8.37596000
_cell_length_b   8.38056100
_cell_length_c   8.38676100
_cell_angle_alpha   90.00000000
_cell_angle_beta   90.00000000
_cell_angle_gamma   90.00000000
_symmetry_Int_Tables_number   1
_chemical_formula_structural   Y8GePd23Au
_chemical_formula_sum   'Y8 Ge1 Pd23 Au1'
_cell_volume   588.71073236
_cell_formula_units_Z   1
loop_
 _symmetry_equiv_pos_site_id
 _symmetry_equiv_pos_as_xyz
  1  'x, y, z'
loop_
 _atom_site_type_symbol
 _atom_site_label
 _atom_site_symmetry_multiplicity
 _atom_site_fract_x
 _atom_site_fract_y
 _atom_site_fract_z
 _atom_site_occupancy
  Y  Y0  1  0.252646  0.249917  0.257623  1
  Y  Y1  1  0.747141  0.746626  0.746105  1
  Y  Y2  1  0.747141  0.746626  0.253895  1
  Y  Y3  1  0.747141  0.253374  0.746105  1
  Y  Y4  1  0.252646  0.249917  0.742377  1
  Y  Y5  1  0.252646  0.750083  0.257623  1
  Y  Y6  1  0.252646  0.750083  0.742377  1
  Y  Y7  1  0.747141  0.253374  0.253895  1
  Ge  Ge8  1  0.999786  0.000000  0.000000  1
  Pd  Pd9  1  0.740736  0.500000  0.000000  1
  Pd  Pd10  1  0.999862  0.259418  0.500000  1
  Pd  Pd11  1  0.499689  0.259412  0.000000  1
  Pd  Pd12  1  0.999862  0.740582  0.500000  1
  Pd  Pd13  1  0.499689  0.740588  0.000000  1
  Pd  Pd14  1  0.500310  0.000000  0.260484  1
  Pd  Pd15  1  0.259410  0.000000  0.500000  1
  Pd  Pd16  1  0.500310  0.000000  0.739516  1
  Pd  Pd17  1  0.740445  0.000000  0.500000  1
  Pd  Pd18  1  0.000217  0.500000  0.260216  1
  Pd  Pd19  1  0.000217  0.500000  0.739784  1
  Pd  Pd20  1  0.252853  0.500000  0.500000  1
  Pd  Pd21  1  0.747186  0.500000  0.500000  1
  Pd  Pd22  1  0.500301  0.253030  0.500000  1
  Pd  Pd23  1  0.500301  0.746970  0.500000  1
  Pd  Pd24  1  0.499747  0.500000  0.254323  1
  Pd  Pd25  1  0.499747  0.500000  0.745677  1
  Pd  Pd26  1  0.289621  0.000000  0.000000  1
  Pd  Pd27  1  0.710334  0.000000  0.000000  1
  Pd  Pd28  1  0.000272  0.287668  0.000000  1
  Pd  Pd29  1  0.000272  0.712332  0.000000  1
  Pd  Pd30  1  0.999456  0.000000  0.288456  1
  Pd  Pd31  1  0.999456  0.000000  0.711544  1
  Au  Au32  1  0.260772  0.500000  0.000000  1
