# generated using pymatgen
data_Ho4Mn2FeOs5
_symmetry_space_group_name_H-M   'P 1'
_cell_length_a   5.30883809
_cell_length_b   5.30883812
_cell_length_c   8.60528600
_cell_angle_alpha   90.00000000
_cell_angle_beta   90.00000000
_cell_angle_gamma   120.07344815
_symmetry_Int_Tables_number   1
_chemical_formula_structural   Ho4Mn2FeOs5
_chemical_formula_sum   'Ho4 Mn2 Fe1 Os5'
_cell_volume   209.88094018
_cell_formula_units_Z   1
loop_
 _symmetry_equiv_pos_site_id
 _symmetry_equiv_pos_as_xyz
  1  'x, y, z'
loop_
 _atom_site_type_symbol
 _atom_site_label
 _atom_site_symmetry_multiplicity
 _atom_site_fract_x
 _atom_site_fract_y
 _atom_site_fract_z
 _atom_site_occupancy
  Ho  Ho0  1  0.332826  0.667174  0.432842  1
  Ho  Ho1  1  0.666957  0.333043  0.564437  1
  Ho  Ho2  1  0.666957  0.333043  0.935563  1
  Ho  Ho3  1  0.332826  0.667174  0.067158  1
  Mn  Mn4  1  0.002081  0.997919  0.501858  1
  Mn  Mn5  1  0.002081  0.997919  0.998142  1
  Fe  Fe6  1  0.835304  0.164696  0.250000  1
  Os  Os7  1  0.825686  0.662446  0.250000  1
  Os  Os8  1  0.337554  0.174314  0.250000  1
  Os  Os9  1  0.168462  0.831538  0.750000  1
  Os  Os10  1  0.169349  0.340084  0.750000  1
  Os  Os11  1  0.659916  0.830651  0.750000  1
