# generated using pymatgen
data_Nd3Ho3Co16(TcP6)2
_symmetry_space_group_name_H-M   'P 1'
_cell_length_a   3.73568000
_cell_length_b   10.56321207
_cell_length_c   12.30309632
_cell_angle_alpha   89.85864165
_cell_angle_beta   90.00000000
_cell_angle_gamma   90.00000000
_symmetry_Int_Tables_number   1
_chemical_formula_structural   Nd3Ho3Co16(TcP6)2
_chemical_formula_sum   'Nd3 Ho3 Co16 Tc2 P12'
_cell_volume   485.48830055
_cell_formula_units_Z   1
loop_
 _symmetry_equiv_pos_site_id
 _symmetry_equiv_pos_as_xyz
  1  'x, y, z'
loop_
 _atom_site_type_symbol
 _atom_site_label
 _atom_site_symmetry_multiplicity
 _atom_site_fract_x
 _atom_site_fract_y
 _atom_site_fract_z
 _atom_site_occupancy
  Nd  Nd0  1  0.000000  0.500600  0.523512  1
  Nd  Nd1  1  0.500000  0.999826  0.475511  1
  Nd  Nd2  1  0.000000  0.318276  0.794124  1
  Ho  Ho3  1  0.500000  0.817244  0.205484  1
  Ho  Ho4  1  0.500000  0.181961  0.204236  1
  Ho  Ho5  1  0.000000  0.683684  0.795720  1
  Co  Co6  1  0.500000  0.503432  0.705383  1
  Co  Co7  1  0.000000  0.999281  0.294218  1
  Co  Co8  1  0.000000  0.502055  0.988532  1
  Co  Co9  1  0.500000  0.998221  0.014523  1
  Co  Co10  1  0.500000  0.332313  0.992720  1
  Co  Co11  1  0.500000  0.669549  0.991128  1
  Co  Co12  1  0.000000  0.166406  0.011242  1
  Co  Co13  1  0.000000  0.831713  0.011085  1
  Co  Co14  1  0.500000  0.296234  0.426991  1
  Co  Co15  1  0.500000  0.704226  0.429329  1
  Co  Co16  1  0.000000  0.203404  0.567220  1
  Co  Co17  1  0.000000  0.796369  0.570587  1
  Co  Co18  1  0.500000  0.878754  0.711029  1
  Co  Co19  1  0.500000  0.118126  0.708992  1
  Co  Co20  1  0.000000  0.620442  0.289850  1
  Co  Co21  1  0.000000  0.379145  0.288033  1
  Tc  Tc22  1  0.500000  0.501060  0.154678  1
  Tc  Tc23  1  0.000000  0.998721  0.846046  1
  P  P24  1  0.500000  0.503155  0.884312  1
  P  P25  1  0.000000  0.998946  0.118767  1
  P  P26  1  0.500000  0.499689  0.344172  1
  P  P27  1  0.000000  0.000141  0.655480  1
  P  P28  1  0.500000  0.307319  0.612850  1
  P  P29  1  0.500000  0.692459  0.617650  1
  P  P30  1  0.000000  0.190878  0.380333  1
  P  P31  1  0.000000  0.808302  0.382381  1
  P  P32  1  0.500000  0.846258  0.894035  1
  P  P33  1  0.500000  0.151501  0.896124  1
  P  P34  1  0.000000  0.654651  0.107750  1
  P  P35  1  0.000000  0.345662  0.105971  1
