# generated using pymatgen
data_Ti8Tc3
_symmetry_space_group_name_H-M   'P 1'
_cell_length_a   5.27173670
_cell_length_b   5.27173678
_cell_length_c   11.55998919
_cell_angle_alpha   105.16043220
_cell_angle_beta   105.16043354
_cell_angle_gamma   34.92611432
_symmetry_Int_Tables_number   1
_chemical_formula_structural   Ti8Tc3
_chemical_formula_sum   'Ti8 Tc3'
_cell_volume   176.88371902
_cell_formula_units_Z   1
loop_
 _symmetry_equiv_pos_site_id
 _symmetry_equiv_pos_as_xyz
  1  'x, y, z'
loop_
 _atom_site_type_symbol
 _atom_site_label
 _atom_site_symmetry_multiplicity
 _atom_site_fract_x
 _atom_site_fract_y
 _atom_site_fract_z
 _atom_site_occupancy
  Ti  Ti0  1  0.704474  0.704474  0.082891  1
  Ti  Ti1  1  0.457021  0.457021  0.183263  1
  Ti  Ti2  1  0.206910  0.206910  0.284303  1
  Ti  Ti3  1  0.624339  0.624339  0.457483  1
  Ti  Ti4  1  0.375662  0.375662  0.542516  1
  Ti  Ti5  1  0.793090  0.793090  0.715697  1
  Ti  Ti6  1  0.542979  0.542979  0.816737  1
  Ti  Ti7  1  0.295527  0.295527  0.917110  1
  Tc  Tc8  1  0.000000  0.000000  0.000000  1
  Tc  Tc9  1  0.914925  0.914925  0.360772  1
  Tc  Tc10  1  0.085075  0.085075  0.639229  1
