# generated using pymatgen
data_Yb3DyYSi4
_symmetry_space_group_name_H-M   'P 1'
_cell_length_a   7.42152500
_cell_length_b   7.80742700
_cell_length_c   15.13374900
_cell_angle_alpha   90.00000000
_cell_angle_beta   90.00000000
_cell_angle_gamma   90.00000000
_symmetry_Int_Tables_number   1
_chemical_formula_structural   Yb3DyYSi4
_chemical_formula_sum   'Yb12 Dy4 Y4 Si16'
_cell_volume   876.89504026
_cell_formula_units_Z   4
loop_
 _symmetry_equiv_pos_site_id
 _symmetry_equiv_pos_as_xyz
  1  'x, y, z'
loop_
 _atom_site_type_symbol
 _atom_site_label
 _atom_site_symmetry_multiplicity
 _atom_site_fract_x
 _atom_site_fract_y
 _atom_site_fract_z
 _atom_site_occupancy
  Yb  Yb0  1  0.970825  0.815504  0.403227  1
  Yb  Yb1  1  0.470825  0.684496  0.096773  1
  Yb  Yb2  1  0.529175  0.315504  0.596773  1
  Yb  Yb3  1  0.029175  0.184496  0.903227  1
  Yb  Yb4  1  0.029256  0.184585  0.596813  1
  Yb  Yb5  1  0.529256  0.315415  0.903187  1
  Yb  Yb6  1  0.470744  0.684585  0.403187  1
  Yb  Yb7  1  0.970744  0.815415  0.096813  1
  Yb  Yb8  1  0.354478  0.019661  0.750029  1
  Yb  Yb9  1  0.854478  0.480339  0.749971  1
  Yb  Yb10  1  0.145522  0.519661  0.249971  1
  Yb  Yb11  1  0.645522  0.980339  0.250029  1
  Dy  Dy12  1  0.313882  0.176999  0.378777  1
  Dy  Dy13  1  0.813882  0.323001  0.121223  1
  Dy  Dy14  1  0.186118  0.676999  0.621223  1
  Dy  Dy15  1  0.686118  0.823001  0.878777  1
  Y  Y16  1  0.313514  0.176873  0.121050  1
  Y  Y17  1  0.813514  0.323127  0.378950  1
  Y  Y18  1  0.186486  0.676873  0.878950  1
  Y  Y19  1  0.686486  0.823127  0.621050  1
  Si  Si20  1  0.859063  0.532760  0.538505  1
  Si  Si21  1  0.359063  0.967240  0.961495  1
  Si  Si22  1  0.640937  0.032760  0.461495  1
  Si  Si23  1  0.140937  0.467240  0.038505  1
  Si  Si24  1  0.141282  0.467105  0.461605  1
  Si  Si25  1  0.641282  0.032895  0.038395  1
  Si  Si26  1  0.358718  0.967105  0.538395  1
  Si  Si27  1  0.858718  0.532895  0.961605  1
  Si  Si28  1  0.978140  0.885300  0.749827  1
  Si  Si29  1  0.478140  0.614700  0.750173  1
  Si  Si30  1  0.521860  0.385300  0.250173  1
  Si  Si31  1  0.021860  0.114700  0.249827  1
  Si  Si32  1  0.249754  0.393996  0.749843  1
  Si  Si33  1  0.749754  0.106004  0.750157  1
  Si  Si34  1  0.250246  0.893996  0.250157  1
  Si  Si35  1  0.750246  0.606004  0.249843  1
