# generated using pymatgen
data_Dy3Y2Tm3Pt4
_symmetry_space_group_name_H-M   'P 1'
_cell_length_a   4.75996500
_cell_length_b   7.14529961
_cell_length_c   8.73476713
_cell_angle_alpha   89.83939568
_cell_angle_beta   90.00000000
_cell_angle_gamma   90.00000000
_symmetry_Int_Tables_number   1
_chemical_formula_structural   Dy3Y2Tm3Pt4
_chemical_formula_sum   'Dy3 Y2 Tm3 Pt4'
_cell_volume   297.08028262
_cell_formula_units_Z   1
loop_
 _symmetry_equiv_pos_site_id
 _symmetry_equiv_pos_as_xyz
  1  'x, y, z'
loop_
 _atom_site_type_symbol
 _atom_site_label
 _atom_site_symmetry_multiplicity
 _atom_site_fract_x
 _atom_site_fract_y
 _atom_site_fract_z
 _atom_site_occupancy
  Dy  Dy0  1  0.750000  0.645098  0.420650  1
  Dy  Dy1  1  0.750000  0.011281  0.671182  1
  Dy  Dy2  1  0.750000  0.510534  0.830154  1
  Y  Y3  1  0.250000  0.991196  0.330652  1
  Y  Y4  1  0.250000  0.488892  0.168183  1
  Tm  Tm5  1  0.250000  0.856474  0.921610  1
  Tm  Tm6  1  0.250000  0.355237  0.579272  1
  Tm  Tm7  1  0.750000  0.143880  0.078402  1
  Pt  Pt8  1  0.250000  0.253613  0.905844  1
  Pt  Pt9  1  0.250000  0.755244  0.596991  1
  Pt  Pt10  1  0.750000  0.746064  0.090025  1
  Pt  Pt11  1  0.750000  0.242489  0.407035  1
