# generated using pymatgen
data_Nd7Ho(Sc3Sb4)4
_symmetry_space_group_name_H-M   'P 1'
_cell_length_a   7.80171836
_cell_length_b   14.87035634
_cell_length_c   7.92123600
_cell_angle_alpha   89.96466010
_cell_angle_beta   90.26644844
_cell_angle_gamma   90.12885007
_symmetry_Int_Tables_number   1
_chemical_formula_structural   Nd7Ho(Sc3Sb4)4
_chemical_formula_sum   'Nd7 Ho1 Sc12 Sb16'
_cell_volume   918.96447391
_cell_formula_units_Z   1
loop_
 _symmetry_equiv_pos_site_id
 _symmetry_equiv_pos_as_xyz
  1  'x, y, z'
loop_
 _atom_site_type_symbol
 _atom_site_label
 _atom_site_symmetry_multiplicity
 _atom_site_fract_x
 _atom_site_fract_y
 _atom_site_fract_z
 _atom_site_occupancy
  Nd  Nd0  1  0.480491  0.593093  0.677087  1
  Nd  Nd1  1  0.980550  0.907016  0.822196  1
  Nd  Nd2  1  0.519947  0.092860  0.322314  1
  Nd  Nd3  1  0.020284  0.407056  0.177971  1
  Nd  Nd4  1  0.520624  0.407992  0.321885  1
  Nd  Nd5  1  0.020170  0.093155  0.177788  1
  Nd  Nd6  1  0.479257  0.905767  0.678707  1
  Ho  Ho7  1  0.976910  0.593297  0.821262  1
  Sc  Sc8  1  0.650663  0.624666  0.148722  1
  Sc  Sc9  1  0.150909  0.874227  0.352657  1
  Sc  Sc10  1  0.348140  0.124969  0.851848  1
  Sc  Sc11  1  0.849674  0.375904  0.648752  1
  Sc  Sc12  1  0.349479  0.375577  0.851799  1
  Sc  Sc13  1  0.848448  0.124723  0.648192  1
  Sc  Sc14  1  0.653707  0.874851  0.147484  1
  Sc  Sc15  1  0.152854  0.624411  0.350397  1
  Sc  Sc16  1  0.814437  0.749605  0.498382  1
  Sc  Sc17  1  0.314888  0.749853  0.001390  1
  Sc  Sc18  1  0.185579  0.250387  0.501781  1
  Sc  Sc19  1  0.685878  0.250922  0.998341  1
  Sb  Sb20  1  0.699332  0.455260  0.949239  1
  Sb  Sb21  1  0.196087  0.046972  0.549706  1
  Sb  Sb22  1  0.304452  0.952419  0.050725  1
  Sb  Sb23  1  0.805927  0.547932  0.453447  1
  Sb  Sb24  1  0.297357  0.548094  0.043495  1
  Sb  Sb25  1  0.803088  0.952270  0.451140  1
  Sb  Sb26  1  0.695979  0.047462  0.950193  1
  Sb  Sb27  1  0.195961  0.453487  0.550238  1
  Sb  Sb28  1  0.455023  0.749991  0.359539  1
  Sb  Sb29  1  0.955364  0.748844  0.138924  1
  Sb  Sb30  1  0.545082  0.250514  0.640547  1
  Sb  Sb31  1  0.045087  0.250240  0.859745  1
  Sb  Sb32  1  0.669905  0.749054  0.849258  1
  Sb  Sb33  1  0.163967  0.746589  0.654097  1
  Sb  Sb34  1  0.332553  0.250373  0.151200  1
  Sb  Sb35  1  0.831945  0.250166  0.349550  1
