# generated using pymatgen
data_Hf12W3I16
_symmetry_space_group_name_H-M   'P 1'
_cell_length_a   9.24861217
_cell_length_b   12.05039563
_cell_length_c   12.81728678
_cell_angle_alpha   116.96101588
_cell_angle_beta   101.57895997
_cell_angle_gamma   100.45001691
_symmetry_Int_Tables_number   1
_chemical_formula_structural   Hf12W3I16
_chemical_formula_sum   'Hf12 W3 I16'
_cell_volume   1185.07455254
_cell_formula_units_Z   1
loop_
 _symmetry_equiv_pos_site_id
 _symmetry_equiv_pos_as_xyz
  1  'x, y, z'
loop_
 _atom_site_type_symbol
 _atom_site_label
 _atom_site_symmetry_multiplicity
 _atom_site_fract_x
 _atom_site_fract_y
 _atom_site_fract_z
 _atom_site_occupancy
  Hf  Hf0  1  0.093149  0.279479  0.363224  1
  Hf  Hf1  1  0.906851  0.720521  0.636776  1
  Hf  Hf2  1  0.782655  0.535297  0.338382  1
  Hf  Hf3  1  0.217345  0.464703  0.661618  1
  Hf  Hf4  1  0.273671  0.721606  0.633513  1
  Hf  Hf5  1  0.726329  0.278394  0.366487  1
  Hf  Hf6  1  0.150485  0.536109  0.336593  1
  Hf  Hf7  1  0.849515  0.463891  0.663407  1
  Hf  Hf8  1  0.409342  0.365479  0.284107  1
  Hf  Hf9  1  0.590658  0.634521  0.715893  1
  Hf  Hf10  1  0.459986  0.313752  0.519682  1
  Hf  Hf11  1  0.540014  0.686248  0.480318  1
  W  W12  1  0.000000  0.500000  0.500000  1
  W  W13  1  0.344167  0.500288  0.499442  1
  W  W14  1  0.655834  0.499712  0.500558  1
  I  I15  1  0.394062  0.736151  0.878844  1
  I  I16  1  0.605938  0.263849  0.121156  1
  I  I17  1  0.186047  0.958075  0.779076  1
  I  I18  1  0.813953  0.041925  0.220924  1
  I  I19  1  0.335738  0.094801  0.252347  1
  I  I20  1  0.664262  0.905199  0.747653  1
  I  I21  1  0.567083  0.434303  0.797320  1
  I  I22  1  0.432917  0.565697  0.202680  1
  I  I23  1  0.304805  0.828099  0.464502  1
  I  I24  1  0.695195  0.171901  0.535498  1
  I  I25  1  0.165696  0.173801  0.534593  1
  I  I26  1  0.834304  0.826199  0.465407  1
  I  I27  1  0.925760  0.575810  0.165283  1
  I  I28  1  0.074240  0.424190  0.834717  1
  I  I29  1  0.925587  0.736636  0.880518  1
  I  I30  1  0.074413  0.263364  0.119482  1
