# generated using pymatgen
data_Lu3Al12Os3Ru
_symmetry_space_group_name_H-M   'P 1'
_cell_length_a   8.75948900
_cell_length_b   8.75948825
_cell_length_c   9.53748000
_cell_angle_alpha   90.00000000
_cell_angle_beta   90.00000000
_cell_angle_gamma   119.99999150
_symmetry_Int_Tables_number   1
_chemical_formula_structural   Lu3Al12Os3Ru
_chemical_formula_sum   'Lu6 Al24 Os6 Ru2'
_cell_volume   633.75560780
_cell_formula_units_Z   2
loop_
 _symmetry_equiv_pos_site_id
 _symmetry_equiv_pos_as_xyz
  1  'x, y, z'
loop_
 _atom_site_type_symbol
 _atom_site_label
 _atom_site_symmetry_multiplicity
 _atom_site_fract_x
 _atom_site_fract_y
 _atom_site_fract_z
 _atom_site_occupancy
  Lu  Lu0  1  0.194764  0.389528  0.250000  1
  Lu  Lu1  1  0.805236  0.610472  0.750000  1
  Lu  Lu2  1  0.610472  0.805236  0.250000  1
  Lu  Lu3  1  0.389528  0.194764  0.750000  1
  Lu  Lu4  1  0.194764  0.805236  0.250000  1
  Lu  Lu5  1  0.805236  0.194764  0.750000  1
  Al  Al6  1  0.333333  0.666667  0.019626  1
  Al  Al7  1  0.666667  0.333333  0.980374  1
  Al  Al8  1  0.666667  0.333333  0.519626  1
  Al  Al9  1  0.333333  0.666667  0.480374  1
  Al  Al10  1  0.162450  0.324900  0.577870  1
  Al  Al11  1  0.837550  0.675100  0.422130  1
  Al  Al12  1  0.675100  0.837550  0.577870  1
  Al  Al13  1  0.837550  0.675100  0.077870  1
  Al  Al14  1  0.324900  0.162450  0.422130  1
  Al  Al15  1  0.162450  0.324900  0.922130  1
  Al  Al16  1  0.162450  0.837550  0.577870  1
  Al  Al17  1  0.324900  0.162450  0.077870  1
  Al  Al18  1  0.837550  0.162450  0.422130  1
  Al  Al19  1  0.675100  0.837550  0.922130  1
  Al  Al20  1  0.837550  0.162450  0.077870  1
  Al  Al21  1  0.162450  0.837550  0.922130  1
  Al  Al22  1  0.561144  0.122288  0.250000  1
  Al  Al23  1  0.438856  0.877712  0.750000  1
  Al  Al24  1  0.877712  0.438856  0.250000  1
  Al  Al25  1  0.122288  0.561144  0.750000  1
  Al  Al26  1  0.561144  0.438856  0.250000  1
  Al  Al27  1  0.438856  0.561144  0.750000  1
  Al  Al28  1  0.000000  0.000000  0.250000  1
  Al  Al29  1  0.000000  0.000000  0.750000  1
  Os  Os30  1  0.500000  0.000000  0.000000  1
  Os  Os31  1  0.000000  0.500000  0.000000  1
  Os  Os32  1  0.500000  0.000000  0.500000  1
  Os  Os33  1  0.500000  0.500000  0.000000  1
  Os  Os34  1  0.000000  0.500000  0.500000  1
  Os  Os35  1  0.500000  0.500000  0.500000  1
  Ru  Ru36  1  0.000000  0.000000  0.000000  1
  Ru  Ru37  1  0.000000  0.000000  0.500000  1
