# generated using pymatgen
data_Li3LaPr2Si3
_symmetry_space_group_name_H-M   'P 1'
_cell_length_a   7.29378700
_cell_length_b   7.32701973
_cell_length_c   4.40064100
_cell_angle_alpha   90.00000000
_cell_angle_beta   90.00000000
_cell_angle_gamma   119.85007080
_symmetry_Int_Tables_number   1
_chemical_formula_structural   Li3LaPr2Si3
_chemical_formula_sum   'Li3 La1 Pr2 Si3'
_cell_volume   203.97697887
_cell_formula_units_Z   1
loop_
 _symmetry_equiv_pos_site_id
 _symmetry_equiv_pos_as_xyz
  1  'x, y, z'
loop_
 _atom_site_type_symbol
 _atom_site_label
 _atom_site_symmetry_multiplicity
 _atom_site_fract_x
 _atom_site_fract_y
 _atom_site_fract_z
 _atom_site_occupancy
  Li  Li0  1  0.768699  0.000000  0.500000  1
  Li  Li1  1  0.231515  0.232699  0.500000  1
  Li  Li2  1  0.998817  0.767301  0.500000  1
  La  La3  1  0.419972  0.000000  0.000000  1
  Pr  Pr4  1  0.000422  0.417880  0.000000  1
  Pr  Pr5  1  0.582541  0.582120  0.000000  1
  Si  Si6  1  0.997456  0.000000  0.000000  1
  Si  Si7  1  0.668420  0.336264  0.500000  1
  Si  Si8  1  0.332156  0.663736  0.500000  1
