# generated using pymatgen
data_Er4NiOs4Ru3
_symmetry_space_group_name_H-M   'P 1'
_cell_length_a   5.27031499
_cell_length_b   5.22184536
_cell_length_c   8.80536400
_cell_angle_alpha   90.00000000
_cell_angle_beta   90.00000000
_cell_angle_gamma   119.77513475
_symmetry_Int_Tables_number   1
_chemical_formula_structural   Er4NiOs4Ru3
_chemical_formula_sum   'Er4 Ni1 Os4 Ru3'
_cell_volume   210.33819136
_cell_formula_units_Z   1
loop_
 _symmetry_equiv_pos_site_id
 _symmetry_equiv_pos_as_xyz
  1  'x, y, z'
loop_
 _atom_site_type_symbol
 _atom_site_label
 _atom_site_symmetry_multiplicity
 _atom_site_fract_x
 _atom_site_fract_y
 _atom_site_fract_z
 _atom_site_occupancy
  Er  Er0  1  0.333015  0.664604  0.432027  1
  Er  Er1  1  0.666374  0.332451  0.562957  1
  Er  Er2  1  0.666374  0.332451  0.937043  1
  Er  Er3  1  0.333015  0.664604  0.067973  1
  Ni  Ni4  1  0.336984  0.171747  0.250000  1
  Os  Os5  1  0.168923  0.341458  0.750000  1
  Os  Os6  1  0.168964  0.828349  0.750000  1
  Os  Os7  1  0.834187  0.663526  0.250000  1
  Os  Os8  1  0.656055  0.827798  0.750000  1
  Ru  Ru9  1  0.000590  0.995486  0.002932  1
  Ru  Ru10  1  0.834929  0.182041  0.250000  1
  Ru  Ru11  1  0.000590  0.995486  0.497068  1
