# generated using pymatgen
data_Lu3Hf(B4Ru5)2
_symmetry_space_group_name_H-M   'P 1'
_cell_length_a   3.03144300
_cell_length_b   8.80938609
_cell_length_c   10.05664783
_cell_angle_alpha   89.86049065
_cell_angle_beta   90.00000000
_cell_angle_gamma   90.00000000
_symmetry_Int_Tables_number   1
_chemical_formula_structural   Lu3Hf(B4Ru5)2
_chemical_formula_sum   'Lu3 Hf1 B8 Ru10'
_cell_volume   268.56351098
_cell_formula_units_Z   1
loop_
 _symmetry_equiv_pos_site_id
 _symmetry_equiv_pos_as_xyz
  1  'x, y, z'
loop_
 _atom_site_type_symbol
 _atom_site_label
 _atom_site_symmetry_multiplicity
 _atom_site_fract_x
 _atom_site_fract_y
 _atom_site_fract_z
 _atom_site_occupancy
  Lu  Lu0  1  0.500000  0.835328  0.180373  1
  Lu  Lu1  1  0.500000  0.164372  0.819847  1
  Lu  Lu2  1  0.500000  0.664647  0.680451  1
  Hf  Hf3  1  0.500000  0.336169  0.319501  1
  B  B4  1  0.500000  0.969153  0.584966  1
  B  B5  1  0.500000  0.031771  0.414821  1
  B  B6  1  0.500000  0.857123  0.897025  1
  B  B7  1  0.500000  0.143383  0.102632  1
  B  B8  1  0.500000  0.643074  0.397098  1
  B  B9  1  0.500000  0.356273  0.603677  1
  B  B10  1  0.500000  0.469399  0.914785  1
  B  B11  1  0.500000  0.531380  0.085039  1
  Ru  Ru12  1  0.000000  0.670566  0.950640  1
  Ru  Ru13  1  0.000000  0.329161  0.054327  1
  Ru  Ru14  1  0.000000  0.827704  0.447482  1
  Ru  Ru15  1  0.000000  0.172569  0.547843  1
  Ru  Ru16  1  0.000000  0.999909  0.001128  1
  Ru  Ru17  1  0.000000  0.413433  0.765043  1
  Ru  Ru18  1  0.000000  0.582352  0.235504  1
  Ru  Ru19  1  0.000000  0.495270  0.496997  1
  Ru  Ru20  1  0.000000  0.913668  0.734423  1
  Ru  Ru21  1  0.000000  0.093296  0.266399  1
