# generated using pymatgen
data_BaCrP3N5O2
_symmetry_space_group_name_H-M   'P 1'
_cell_length_a   6.86612200
_cell_length_b   7.24807400
_cell_length_c   14.33582236
_cell_angle_alpha   59.97004578
_cell_angle_beta   90.00000000
_cell_angle_gamma   90.00000000
_symmetry_Int_Tables_number   1
_chemical_formula_structural   BaCrP3N5O2
_chemical_formula_sum   'Ba4 Cr4 P12 N20 O8'
_cell_volume   617.66957737
_cell_formula_units_Z   4
loop_
 _symmetry_equiv_pos_site_id
 _symmetry_equiv_pos_as_xyz
  1  'x, y, z'
loop_
 _atom_site_type_symbol
 _atom_site_label
 _atom_site_symmetry_multiplicity
 _atom_site_fract_x
 _atom_site_fract_y
 _atom_site_fract_z
 _atom_site_occupancy
  Ba  Ba0  1  0.753928  0.508034  0.612782  1
  Ba  Ba1  1  0.253928  0.491966  0.887218  1
  Ba  Ba2  1  0.246072  0.491966  0.387218  1
  Ba  Ba3  1  0.746072  0.508034  0.112782  1
  Cr  Cr4  1  0.485835  0.987705  0.873207  1
  Cr  Cr5  1  0.985835  0.012295  0.626793  1
  Cr  Cr6  1  0.514165  0.012295  0.126793  1
  Cr  Cr7  1  0.014165  0.987705  0.373207  1
  P  P8  1  0.007234  0.958601  0.874102  1
  P  P9  1  0.507234  0.041399  0.625898  1
  P  P10  1  0.992766  0.041399  0.125898  1
  P  P11  1  0.492766  0.958601  0.374102  1
  P  P12  1  0.285348  0.745099  0.583965  1
  P  P13  1  0.785348  0.254901  0.916035  1
  P  P14  1  0.714652  0.254901  0.416035  1
  P  P15  1  0.214652  0.745099  0.083965  1
  P  P16  1  0.763895  0.720518  0.798687  1
  P  P17  1  0.263895  0.279482  0.701313  1
  P  P18  1  0.236105  0.279482  0.201313  1
  P  P19  1  0.736105  0.720518  0.298687  1
  N  N20  1  0.307453  0.918546  0.625676  1
  N  N21  1  0.807453  0.081454  0.874324  1
  N  N22  1  0.692547  0.081454  0.374324  1
  N  N23  1  0.192547  0.918546  0.125676  1
  N  N24  1  0.695700  0.878270  0.671742  1
  N  N25  1  0.195700  0.121730  0.828258  1
  N  N26  1  0.304300  0.121730  0.328258  1
  N  N27  1  0.804300  0.878270  0.171742  1
  N  N28  1  0.968296  0.843991  0.800233  1
  N  N29  1  0.468296  0.156009  0.699767  1
  N  N30  1  0.031704  0.156009  0.199767  1
  N  N31  1  0.531704  0.843991  0.300233  1
  N  N32  1  0.816148  0.491394  0.810376  1
  N  N33  1  0.316148  0.508606  0.689624  1
  N  N34  1  0.183852  0.508606  0.189624  1
  N  N35  1  0.683852  0.491394  0.310376  1
  N  N36  1  0.562148  0.238112  0.506750  1
  N  N37  1  0.062148  0.761888  0.993250  1
  N  N38  1  0.437852  0.761888  0.493250  1
  N  N39  1  0.937852  0.238112  0.006750  1
  O  O40  1  0.070946  0.781266  0.539546  1
  O  O41  1  0.570946  0.218734  0.960454  1
  O  O42  1  0.929054  0.218734  0.460454  1
  O  O43  1  0.429054  0.781266  0.039546  1
  O  O44  1  0.612629  0.697912  0.883766  1
  O  O45  1  0.112629  0.302088  0.616234  1
  O  O46  1  0.387371  0.302088  0.116234  1
  O  O47  1  0.887371  0.697912  0.383766  1
