# generated using pymatgen
data_YbCd(FeBr4)4
_symmetry_space_group_name_H-M   'P 1'
_cell_length_a   7.51926004
_cell_length_b   7.71390734
_cell_length_c   14.10250676
_cell_angle_alpha   87.53996991
_cell_angle_beta   89.89735985
_cell_angle_gamma   89.87635478
_symmetry_Int_Tables_number   1
_chemical_formula_structural   YbCd(FeBr4)4
_chemical_formula_sum   'Yb1 Cd1 Fe4 Br16'
_cell_volume   817.22900639
_cell_formula_units_Z   1
loop_
 _symmetry_equiv_pos_site_id
 _symmetry_equiv_pos_as_xyz
  1  'x, y, z'
loop_
 _atom_site_type_symbol
 _atom_site_label
 _atom_site_symmetry_multiplicity
 _atom_site_fract_x
 _atom_site_fract_y
 _atom_site_fract_z
 _atom_site_occupancy
  Yb  Yb0  1  0.754798  0.073870  0.812356  1
  Cd  Cd1  1  0.245689  0.074892  0.311790  1
  Fe  Fe2  1  0.935788  0.218668  0.578101  1
  Fe  Fe3  1  0.068890  0.217723  0.081791  1
  Fe  Fe4  1  0.573012  0.640336  0.779451  1
  Fe  Fe5  1  0.422230  0.640067  0.279566  1
  Br  Br6  1  0.424908  0.615272  0.638775  1
  Br  Br7  1  0.575321  0.614882  0.139904  1
  Br  Br8  1  0.873725  0.731908  0.756796  1
  Br  Br9  1  0.123262  0.738106  0.257415  1
  Br  Br10  1  0.936059  0.481913  0.496786  1
  Br  Br11  1  0.062673  0.478912  0.998303  1
  Br  Br12  1  0.918028  0.998624  0.997727  1
  Br  Br13  1  0.088508  0.001542  0.492017  1
  Br  Br14  1  0.639254  0.127856  0.615588  1
  Br  Br15  1  0.366014  0.127865  0.119290  1
  Br  Br16  1  0.564938  0.376790  0.875201  1
  Br  Br17  1  0.427291  0.370873  0.372484  1
  Br  Br18  1  0.442361  0.868076  0.866263  1
  Br  Br19  1  0.547915  0.871089  0.366642  1
  Br  Br20  1  0.937685  0.233244  0.237018  1
  Br  Br21  1  0.071650  0.232290  0.731135  1
