# generated using pymatgen
data_Tb5Ge9P3Ir19
_symmetry_space_group_name_H-M   'P 1'
_cell_length_a   13.06784100
_cell_length_b   13.06784051
_cell_length_c   3.99197200
_cell_angle_alpha   90.00000000
_cell_angle_beta   90.00000000
_cell_angle_gamma   119.99999871
_symmetry_Int_Tables_number   1
_chemical_formula_structural   Tb5Ge9P3Ir19
_chemical_formula_sum   'Tb5 Ge9 P3 Ir19'
_cell_volume   590.37205310
_cell_formula_units_Z   1
loop_
 _symmetry_equiv_pos_site_id
 _symmetry_equiv_pos_as_xyz
  1  'x, y, z'
loop_
 _atom_site_type_symbol
 _atom_site_label
 _atom_site_symmetry_multiplicity
 _atom_site_fract_x
 _atom_site_fract_y
 _atom_site_fract_z
 _atom_site_occupancy
  Tb  Tb0  1  0.666667  0.333333  0.000000  1
  Tb  Tb1  1  0.333333  0.666667  0.000000  1
  Tb  Tb2  1  0.817111  0.817111  0.500000  1
  Tb  Tb3  1  0.182889  0.000000  0.500000  1
  Tb  Tb4  1  0.000000  0.182889  0.500000  1
  Ge  Ge5  1  0.683081  0.164532  0.500000  1
  Ge  Ge6  1  0.835468  0.518549  0.500000  1
  Ge  Ge7  1  0.481451  0.316919  0.500000  1
  Ge  Ge8  1  0.164532  0.683081  0.500000  1
  Ge  Ge9  1  0.518549  0.835468  0.500000  1
  Ge  Ge10  1  0.316919  0.481451  0.500000  1
  Ge  Ge11  1  0.636769  0.636769  0.000000  1
  Ge  Ge12  1  0.363231  0.000000  0.000000  1
  Ge  Ge13  1  0.000000  0.363231  0.000000  1
  P  P14  1  0.177062  0.177062  0.000000  1
  P  P15  1  0.822938  0.000000  0.000000  1
  P  P16  1  0.000000  0.822938  0.000000  1
  Ir  Ir17  1  0.807672  0.175013  0.000000  1
  Ir  Ir18  1  0.824987  0.632659  0.000000  1
  Ir  Ir19  1  0.367341  0.192328  0.000000  1
  Ir  Ir20  1  0.175013  0.807672  0.000000  1
  Ir  Ir21  1  0.632659  0.824987  0.000000  1
  Ir  Ir22  1  0.192328  0.367341  0.000000  1
  Ir  Ir23  1  0.446395  0.446395  0.000000  1
  Ir  Ir24  1  0.553605  0.000000  0.000000  1
  Ir  Ir25  1  0.000000  0.553605  0.000000  1
  Ir  Ir26  1  0.271215  0.271215  0.500000  1
  Ir  Ir27  1  0.728785  0.000000  0.500000  1
  Ir  Ir28  1  0.000000  0.728785  0.500000  1
  Ir  Ir29  1  0.872303  0.355901  0.500000  1
  Ir  Ir30  1  0.644099  0.516403  0.500000  1
  Ir  Ir31  1  0.483597  0.127697  0.500000  1
  Ir  Ir32  1  0.355901  0.872303  0.500000  1
  Ir  Ir33  1  0.516403  0.644099  0.500000  1
  Ir  Ir34  1  0.127697  0.483597  0.500000  1
  Ir  Ir35  1  0.000000  0.000000  0.000000  1
