# generated using pymatgen
data_Dy10Ho6In4Ru3Rh
_symmetry_space_group_name_H-M   'P 1'
_cell_length_a   9.65803919
_cell_length_b   9.66595924
_cell_length_c   9.62325539
_cell_angle_alpha   59.87102490
_cell_angle_beta   59.74316430
_cell_angle_gamma   59.86725108
_symmetry_Int_Tables_number   1
_chemical_formula_structural   Dy10Ho6In4Ru3Rh
_chemical_formula_sum   'Dy10 Ho6 In4 Ru3 Rh1'
_cell_volume   632.75025766
_cell_formula_units_Z   1
loop_
 _symmetry_equiv_pos_site_id
 _symmetry_equiv_pos_as_xyz
  1  'x, y, z'
loop_
 _atom_site_type_symbol
 _atom_site_label
 _atom_site_symmetry_multiplicity
 _atom_site_fract_x
 _atom_site_fract_y
 _atom_site_fract_z
 _atom_site_occupancy
  Dy  Dy0  1  0.190747  0.191154  0.806151  1
  Dy  Dy1  1  0.596962  0.597165  0.209555  1
  Dy  Dy2  1  0.441682  0.058332  0.441490  1
  Dy  Dy3  1  0.441286  0.441160  0.059545  1
  Dy  Dy4  1  0.813327  0.188325  0.807978  1
  Dy  Dy5  1  0.192172  0.807090  0.191730  1
  Dy  Dy6  1  0.440046  0.055016  0.059199  1
  Dy  Dy7  1  0.188853  0.812348  0.807538  1
  Dy  Dy8  1  0.054977  0.439918  0.059375  1
  Dy  Dy9  1  0.809980  0.809217  0.188925  1
  Ho  Ho10  1  0.206389  0.599265  0.597062  1
  Ho  Ho11  1  0.057889  0.441703  0.441625  1
  Ho  Ho12  1  0.057369  0.057657  0.439030  1
  Ho  Ho13  1  0.806721  0.192669  0.191951  1
  Ho  Ho14  1  0.599314  0.207145  0.597238  1
  Ho  Ho15  1  0.599986  0.599157  0.597374  1
  In  In16  1  0.831428  0.832332  0.830755  1
  In  In17  1  0.833035  0.833314  0.501551  1
  In  In18  1  0.503206  0.832008  0.832401  1
  In  In19  1  0.832208  0.502511  0.832656  1
  Ru  Ru20  1  0.390522  0.831782  0.393139  1
  Ru  Ru21  1  0.388612  0.388177  0.391842  1
  Ru  Ru22  1  0.831908  0.390694  0.392640  1
  Rh  Rh23  1  0.391381  0.391859  0.829249  1
