# generated using pymatgen
data_Tb5Y3Cd2CoIr
_symmetry_space_group_name_H-M   'P 1'
_cell_length_a   9.61590029
_cell_length_b   9.61590015
_cell_length_c   9.58765300
_cell_angle_alpha   60.09712232
_cell_angle_beta   60.09712282
_cell_angle_gamma   60.26457357
_symmetry_Int_Tables_number   1
_chemical_formula_structural   Tb5Y3Cd2CoIr
_chemical_formula_sum   'Tb10 Y6 Cd4 Co2 Ir2'
_cell_volume   629.03760524
_cell_formula_units_Z   2
loop_
 _symmetry_equiv_pos_site_id
 _symmetry_equiv_pos_as_xyz
  1  'x, y, z'
loop_
 _atom_site_type_symbol
 _atom_site_label
 _atom_site_symmetry_multiplicity
 _atom_site_fract_x
 _atom_site_fract_y
 _atom_site_fract_z
 _atom_site_occupancy
  Tb  Tb0  1  0.345381  0.345381  0.352844  1
  Tb  Tb1  1  0.345381  0.345381  0.956394  1
  Tb  Tb2  1  0.342553  0.959014  0.349216  1
  Tb  Tb3  1  0.959014  0.342553  0.349216  1
  Tb  Tb4  1  0.814826  0.189097  0.189668  1
  Tb  Tb5  1  0.189097  0.814826  0.806409  1
  Tb  Tb6  1  0.189097  0.814826  0.189668  1
  Tb  Tb7  1  0.814826  0.189097  0.806409  1
  Tb  Tb8  1  0.188737  0.188737  0.811263  1
  Tb  Tb9  1  0.809836  0.809836  0.190164  1
  Y  Y10  1  0.938664  0.562807  0.560776  1
  Y  Y11  1  0.562807  0.938664  0.937754  1
  Y  Y12  1  0.562807  0.938664  0.560776  1
  Y  Y13  1  0.938664  0.562807  0.937754  1
  Y  Y14  1  0.560798  0.560798  0.939202  1
  Y  Y15  1  0.936925  0.936925  0.563075  1
  Cd  Cd16  1  0.580680  0.580680  0.580270  1
  Cd  Cd17  1  0.580680  0.580680  0.258372  1
  Cd  Cd18  1  0.581411  0.256564  0.581013  1
  Cd  Cd19  1  0.256564  0.581411  0.581013  1
  Co  Co20  1  0.141239  0.141239  0.140403  1
  Co  Co21  1  0.141239  0.141239  0.577119  1
  Ir  Ir22  1  0.142137  0.576640  0.140611  1
  Ir  Ir23  1  0.576640  0.142137  0.140611  1
