# generated using pymatgen
data_Er12Al(InFe)2
_symmetry_space_group_name_H-M   'P 1'
_cell_length_a   8.33400872
_cell_length_b   8.33400850
_cell_length_c   8.33400816
_cell_angle_alpha   109.97801716
_cell_angle_beta   109.97802184
_cell_angle_gamma   108.46230824
_symmetry_Int_Tables_number   1
_chemical_formula_structural   Er12Al(InFe)2
_chemical_formula_sum   'Er12 Al1 In2 Fe2'
_cell_volume   445.49120362
_cell_formula_units_Z   1
loop_
 _symmetry_equiv_pos_site_id
 _symmetry_equiv_pos_as_xyz
  1  'x, y, z'
loop_
 _atom_site_type_symbol
 _atom_site_label
 _atom_site_symmetry_multiplicity
 _atom_site_fract_x
 _atom_site_fract_y
 _atom_site_fract_z
 _atom_site_occupancy
  Er  Er0  1  0.304249  0.304249  0.608498  1
  Er  Er1  1  0.695751  0.695751  0.391502  1
  Er  Er2  1  0.304249  0.695751  0.000000  1
  Er  Er3  1  0.695751  0.304249  0.000000  1
  Er  Er4  1  0.450328  0.205300  0.245029  1
  Er  Er5  1  0.549672  0.794700  0.754971  1
  Er  Er6  1  0.960271  0.205300  0.754971  1
  Er  Er7  1  0.205300  0.960271  0.754971  1
  Er  Er8  1  0.039729  0.794700  0.245029  1
  Er  Er9  1  0.794700  0.039729  0.245029  1
  Er  Er10  1  0.205300  0.450328  0.245029  1
  Er  Er11  1  0.794700  0.549672  0.754971  1
  Al  Al12  1  0.000000  0.000000  0.000000  1
  In  In13  1  0.500000  0.000000  0.500000  1
  In  In14  1  0.000000  0.500000  0.500000  1
  Fe  Fe15  1  0.387942  0.387942  0.000000  1
  Fe  Fe16  1  0.612058  0.612058  0.000000  1
