# generated using pymatgen
data_Tb4RuBr4
_symmetry_space_group_name_H-M   'P 1'
_cell_length_a   9.04959190
_cell_length_b   9.04959064
_cell_length_c   6.58495276
_cell_angle_alpha   89.63740935
_cell_angle_beta   89.63741720
_cell_angle_gamma   89.45334714
_symmetry_Int_Tables_number   1
_chemical_formula_structural   Tb4RuBr4
_chemical_formula_sum   'Tb8 Ru2 Br8'
_cell_volume   539.22944276
_cell_formula_units_Z   2
loop_
 _symmetry_equiv_pos_site_id
 _symmetry_equiv_pos_as_xyz
  1  'x, y, z'
loop_
 _atom_site_type_symbol
 _atom_site_label
 _atom_site_symmetry_multiplicity
 _atom_site_fract_x
 _atom_site_fract_y
 _atom_site_fract_z
 _atom_site_occupancy
  Tb  Tb0  1  0.248841  0.902293  0.009745  1
  Tb  Tb1  1  0.751159  0.097707  0.990255  1
  Tb  Tb2  1  0.097707  0.751159  0.490255  1
  Tb  Tb3  1  0.902293  0.248841  0.509745  1
  Tb  Tb4  1  0.751769  0.903373  0.505307  1
  Tb  Tb5  1  0.248231  0.096627  0.494693  1
  Tb  Tb6  1  0.096627  0.248231  0.994693  1
  Tb  Tb7  1  0.903373  0.751769  0.005307  1
  Ru  Ru8  1  0.995531  0.004469  0.250000  1
  Ru  Ru9  1  0.004469  0.995531  0.750000  1
  Br  Br10  1  0.415553  0.818228  0.413712  1
  Br  Br11  1  0.584447  0.181772  0.586288  1
  Br  Br12  1  0.181772  0.584447  0.086288  1
  Br  Br13  1  0.818228  0.415553  0.913712  1
  Br  Br14  1  0.411541  0.187752  0.089088  1
  Br  Br15  1  0.588459  0.812248  0.910912  1
  Br  Br16  1  0.812248  0.588459  0.410912  1
  Br  Br17  1  0.187752  0.411541  0.589088  1
