# generated using pymatgen
data_Ho16In4Ir3Pd
_symmetry_space_group_name_H-M   'P 1'
_cell_length_a   9.64167962
_cell_length_b   9.65121153
_cell_length_c   9.65121200
_cell_angle_alpha   59.99999840
_cell_angle_beta   59.96728986
_cell_angle_gamma   59.96729084
_symmetry_Int_Tables_number   1
_chemical_formula_structural   Ho16In4Ir3Pd
_chemical_formula_sum   'Ho16 In4 Ir3 Pd1'
_cell_volume   634.72629189
_cell_formula_units_Z   1
loop_
 _symmetry_equiv_pos_site_id
 _symmetry_equiv_pos_as_xyz
  1  'x, y, z'
loop_
 _atom_site_type_symbol
 _atom_site_label
 _atom_site_symmetry_multiplicity
 _atom_site_fract_x
 _atom_site_fract_y
 _atom_site_fract_z
 _atom_site_occupancy
  Ho  Ho0  1  0.440618  0.436161  0.061611  1
  Ho  Ho1  1  0.654823  0.647882  0.049415  1
  Ho  Ho2  1  0.185546  0.809533  0.195388  1
  Ho  Ho3  1  0.060906  0.439721  0.059653  1
  Ho  Ho4  1  0.185546  0.809533  0.809533  1
  Ho  Ho5  1  0.060906  0.439721  0.439721  1
  Ho  Ho6  1  0.810147  0.189972  0.189972  1
  Ho  Ho7  1  0.654823  0.647882  0.647882  1
  Ho  Ho8  1  0.810147  0.189972  0.809910  1
  Ho  Ho9  1  0.185546  0.195388  0.809533  1
  Ho  Ho10  1  0.046710  0.651097  0.651097  1
  Ho  Ho11  1  0.440618  0.061611  0.061611  1
  Ho  Ho12  1  0.060906  0.059653  0.439721  1
  Ho  Ho13  1  0.654823  0.049415  0.647882  1
  Ho  Ho14  1  0.810147  0.809910  0.189972  1
  Ho  Ho15  1  0.440618  0.061611  0.436161  1
  In  In16  1  0.416752  0.416661  0.416661  1
  In  In17  1  0.416752  0.416661  0.749927  1
  In  In18  1  0.416752  0.749927  0.416661  1
  In  In19  1  0.749419  0.416861  0.416861  1
  Ir  Ir20  1  0.857262  0.858486  0.858486  1
  Ir  Ir21  1  0.857262  0.425764  0.858486  1
  Ir  Ir22  1  0.857262  0.858486  0.425764  1
  Pd  Pd23  1  0.425713  0.858095  0.858095  1
