# generated using pymatgen
data_Gd3In3CuAg2
_symmetry_space_group_name_H-M   'P 1'
_cell_length_a   7.74296800
_cell_length_b   7.74296682
_cell_length_c   4.04384200
_cell_angle_alpha   90.00000000
_cell_angle_beta   90.00000000
_cell_angle_gamma   119.99487850
_symmetry_Int_Tables_number   1
_chemical_formula_structural   Gd3In3CuAg2
_chemical_formula_sum   'Gd3 In3 Cu1 Ag2'
_cell_volume   209.97233775
_cell_formula_units_Z   1
loop_
 _symmetry_equiv_pos_site_id
 _symmetry_equiv_pos_as_xyz
  1  'x, y, z'
loop_
 _atom_site_type_symbol
 _atom_site_label
 _atom_site_symmetry_multiplicity
 _atom_site_fract_x
 _atom_site_fract_y
 _atom_site_fract_z
 _atom_site_occupancy
  Gd  Gd0  1  0.589176  0.000040  0.499998  1
  Gd  Gd1  1  0.410861  0.410859  0.499998  1
  Gd  Gd2  1  0.000039  0.589174  0.499998  1
  In  In3  1  0.253021  0.000042  0.000000  1
  In  In4  1  0.000040  0.253021  0.000000  1
  In  In5  1  0.746959  0.746958  0.000000  1
  Cu  Cu6  1  0.999979  0.999980  0.499998  1
  Ag  Ag7  1  0.666668  0.333363  0.000000  1
  Ag  Ag8  1  0.333360  0.666666  0.000000  1
