# generated using pymatgen
data_Er8Sc12Si15Ir
_symmetry_space_group_name_H-M   'P 1'
_cell_length_a   7.04996262
_cell_length_b   7.40464542
_cell_length_c   13.89420300
_cell_angle_alpha   90.00000000
_cell_angle_beta   90.00000000
_cell_angle_gamma   90.12816843
_symmetry_Int_Tables_number   1
_chemical_formula_structural   Er8Sc12Si15Ir
_chemical_formula_sum   'Er8 Sc12 Si15 Ir1'
_cell_volume   725.30994773
_cell_formula_units_Z   1
loop_
 _symmetry_equiv_pos_site_id
 _symmetry_equiv_pos_as_xyz
  1  'x, y, z'
loop_
 _atom_site_type_symbol
 _atom_site_label
 _atom_site_symmetry_multiplicity
 _atom_site_fract_x
 _atom_site_fract_y
 _atom_site_fract_z
 _atom_site_occupancy
  Er  Er0  1  0.011825  0.179960  0.096244  1
  Er  Er1  1  0.990412  0.825255  0.904567  1
  Er  Er2  1  0.488995  0.676835  0.905139  1
  Er  Er3  1  0.990412  0.825255  0.595433  1
  Er  Er4  1  0.511464  0.323293  0.096167  1
  Er  Er5  1  0.011825  0.179960  0.403756  1
  Er  Er6  1  0.511464  0.323293  0.403833  1
  Er  Er7  1  0.488995  0.676835  0.594861  1
  Sc  Sc8  1  0.157342  0.502717  0.750000  1
  Sc  Sc9  1  0.838793  0.496868  0.250000  1
  Sc  Sc10  1  0.340630  0.006233  0.250000  1
  Sc  Sc11  1  0.667080  0.996003  0.750000  1
  Sc  Sc12  1  0.318683  0.171826  0.627451  1
  Sc  Sc13  1  0.672524  0.825965  0.373538  1
  Sc  Sc14  1  0.171416  0.678216  0.373944  1
  Sc  Sc15  1  0.672524  0.825965  0.126462  1
  Sc  Sc16  1  0.835457  0.319451  0.627406  1
  Sc  Sc17  1  0.318683  0.171826  0.872549  1
  Sc  Sc18  1  0.835457  0.319451  0.872594  1
  Sc  Sc19  1  0.171416  0.678216  0.126056  1
  Si  Si20  1  0.970503  0.887769  0.250000  1
  Si  Si21  1  0.469737  0.613846  0.250000  1
  Si  Si22  1  0.529086  0.388734  0.750000  1
  Si  Si23  1  0.287156  0.864902  0.750000  1
  Si  Si24  1  0.714365  0.132561  0.250000  1
  Si  Si25  1  0.213961  0.370704  0.250000  1
  Si  Si26  1  0.778496  0.626181  0.750000  1
  Si  Si27  1  0.160172  0.467778  0.537729  1
  Si  Si28  1  0.842175  0.535647  0.461616  1
  Si  Si29  1  0.344333  0.966881  0.460254  1
  Si  Si30  1  0.842175  0.535647  0.038384  1
  Si  Si31  1  0.656458  0.033972  0.538463  1
  Si  Si32  1  0.160172  0.467778  0.962271  1
  Si  Si33  1  0.656458  0.033972  0.961537  1
  Si  Si34  1  0.344333  0.966881  0.039746  1
  Ir  Ir35  1  0.025025  0.103324  0.750000  1
