# generated using pymatgen
data_Th4SiPtRh11
_symmetry_space_group_name_H-M   'P 1'
_cell_length_a   7.31602375
_cell_length_b   7.31602345
_cell_length_c   7.31602368
_cell_angle_alpha   109.17899674
_cell_angle_beta   109.17899453
_cell_angle_gamma   110.05726582
_symmetry_Int_Tables_number   1
_chemical_formula_structural   Th4SiPtRh11
_chemical_formula_sum   'Th4 Si1 Pt1 Rh11'
_cell_volume   301.41806919
_cell_formula_units_Z   1
loop_
 _symmetry_equiv_pos_site_id
 _symmetry_equiv_pos_as_xyz
  1  'x, y, z'
loop_
 _atom_site_type_symbol
 _atom_site_label
 _atom_site_symmetry_multiplicity
 _atom_site_fract_x
 _atom_site_fract_y
 _atom_site_fract_z
 _atom_site_occupancy
  Th  Th0  1  0.002254  0.997746  0.500000  1
  Th  Th1  1  0.002254  0.502254  0.004507  1
  Th  Th2  1  0.497746  0.997746  0.995493  1
  Th  Th3  1  0.497746  0.502254  0.500000  1
  Si  Si4  1  0.000000  0.000000  0.000000  1
  Pt  Pt5  1  0.750000  0.250000  0.500000  1
  Rh  Rh6  1  0.750645  0.500470  0.250175  1
  Rh  Rh7  1  0.499530  0.249355  0.749825  1
  Rh  Rh8  1  0.250295  0.500470  0.749825  1
  Rh  Rh9  1  0.250000  0.750000  0.500000  1
  Rh  Rh10  1  0.499530  0.749705  0.250175  1
  Rh  Rh11  1  0.723611  0.723611  0.000000  1
  Rh  Rh12  1  0.275239  0.999952  0.275287  1
  Rh  Rh13  1  0.000048  0.275335  0.275287  1
  Rh  Rh14  1  0.276389  0.276389  0.000000  1
  Rh  Rh15  1  0.724665  0.999952  0.724713  1
  Rh  Rh16  1  0.000048  0.724761  0.724713  1
