# generated using pymatgen
data_Dy3In3Ru2Pb
_symmetry_space_group_name_H-M   'P 1'
_cell_length_a   7.87149500
_cell_length_b   7.87149593
_cell_length_c   3.90531600
_cell_angle_alpha   90.00000000
_cell_angle_beta   90.00000000
_cell_angle_gamma   119.99999188
_symmetry_Int_Tables_number   1
_chemical_formula_structural   Dy3In3Ru2Pb
_chemical_formula_sum   'Dy3 In3 Ru2 Pb1'
_cell_volume   209.55660176
_cell_formula_units_Z   1
loop_
 _symmetry_equiv_pos_site_id
 _symmetry_equiv_pos_as_xyz
  1  'x, y, z'
loop_
 _atom_site_type_symbol
 _atom_site_label
 _atom_site_symmetry_multiplicity
 _atom_site_fract_x
 _atom_site_fract_y
 _atom_site_fract_z
 _atom_site_occupancy
  Dy  Dy0  1  0.035382  0.613271  0.500000  1
  Dy  Dy1  1  0.577889  0.964618  0.500000  1
  Dy  Dy2  1  0.386729  0.422111  0.500000  1
  In  In3  1  0.014853  0.258805  0.000000  1
  In  In4  1  0.243952  0.985147  0.000000  1
  In  In5  1  0.741195  0.756048  0.000000  1
  Ru  Ru6  1  0.000000  0.000000  0.500000  1
  Ru  Ru7  1  0.333333  0.666667  0.000000  1
  Pb  Pb8  1  0.666667  0.333333  0.000000  1
