# generated using pymatgen
data_Gd4Tc3B16W
_symmetry_space_group_name_H-M   'P 1'
_cell_length_a   3.62023400
_cell_length_b   6.01296054
_cell_length_c   11.64570087
_cell_angle_alpha   89.90016481
_cell_angle_beta   90.00000000
_cell_angle_gamma   90.00000000
_symmetry_Int_Tables_number   1
_chemical_formula_structural   Gd4Tc3B16W
_chemical_formula_sum   'Gd4 Tc3 B16 W1'
_cell_volume   253.50700680
_cell_formula_units_Z   1
loop_
 _symmetry_equiv_pos_site_id
 _symmetry_equiv_pos_as_xyz
  1  'x, y, z'
loop_
 _atom_site_type_symbol
 _atom_site_label
 _atom_site_symmetry_multiplicity
 _atom_site_fract_x
 _atom_site_fract_y
 _atom_site_fract_z
 _atom_site_occupancy
  Gd  Gd0  1  0.000000  0.626118  0.347335  1
  Gd  Gd1  1  0.000000  0.372241  0.652647  1
  Gd  Gd2  1  0.000000  0.126613  0.148359  1
  Gd  Gd3  1  0.000000  0.873017  0.852199  1
  Tc  Tc4  1  0.000000  0.634258  0.088178  1
  Tc  Tc5  1  0.000000  0.366427  0.913347  1
  Tc  Tc6  1  0.000000  0.129191  0.414547  1
  B  B7  1  0.500000  0.786131  0.184413  1
  B  B8  1  0.500000  0.215092  0.816232  1
  B  B9  1  0.500000  0.286084  0.314840  1
  B  B10  1  0.500000  0.711209  0.686653  1
  B  B11  1  0.500000  0.863086  0.031716  1
  B  B12  1  0.500000  0.137210  0.968779  1
  B  B13  1  0.500000  0.363963  0.466761  1
  B  B14  1  0.500000  0.633644  0.530737  1
  B  B15  1  0.500000  0.887830  0.451036  1
  B  B16  1  0.500000  0.116118  0.545760  1
  B  B17  1  0.500000  0.387539  0.046943  1
  B  B18  1  0.500000  0.612724  0.953687  1
  B  B19  1  0.500000  0.978065  0.306891  1
  B  B20  1  0.500000  0.025132  0.693250  1
  B  B21  1  0.500000  0.476238  0.191363  1
  B  B22  1  0.500000  0.522396  0.809325  1
  W  W23  1  0.000000  0.869674  0.585000  1
