# generated using pymatgen
data_CsAcGeSe4
_symmetry_space_group_name_H-M   'P 1'
_cell_length_a   7.32407100
_cell_length_b   6.99725825
_cell_length_c   10.05279400
_cell_angle_alpha   72.51613297
_cell_angle_beta   90.00000000
_cell_angle_gamma   90.00000000
_symmetry_Int_Tables_number   1
_chemical_formula_structural   CsAcGeSe4
_chemical_formula_sum   'Cs2 Ac2 Ge2 Se8'
_cell_volume   491.38881962
_cell_formula_units_Z   2
loop_
 _symmetry_equiv_pos_site_id
 _symmetry_equiv_pos_as_xyz
  1  'x, y, z'
loop_
 _atom_site_type_symbol
 _atom_site_label
 _atom_site_symmetry_multiplicity
 _atom_site_fract_x
 _atom_site_fract_y
 _atom_site_fract_z
 _atom_site_occupancy
  Cs  Cs0  1  0.988034  0.737570  0.063459  1
  Cs  Cs1  1  0.488034  0.262430  0.936541  1
  Ac  Ac2  1  0.503686  0.229714  0.453079  1
  Ac  Ac3  1  0.003686  0.770286  0.546921  1
  Ge  Ge4  1  0.470891  0.788283  0.323616  1
  Ge  Ge5  1  0.970891  0.211717  0.676384  1
  Se  Se6  1  0.473998  0.587861  0.173142  1
  Se  Se7  1  0.229810  0.029927  0.280459  1
  Se  Se8  1  0.741216  0.987901  0.293898  1
  Se  Se9  1  0.925366  0.403182  0.436910  1
  Se  Se10  1  0.425366  0.596818  0.563090  1
  Se  Se11  1  0.241216  0.012099  0.706102  1
  Se  Se12  1  0.729810  0.970073  0.719541  1
  Se  Se13  1  0.973998  0.412139  0.826858  1
