# generated using pymatgen
data_Gd2RuWC3
_symmetry_space_group_name_H-M   'P 1'
_cell_length_a   6.13950207
_cell_length_b   6.13950127
_cell_length_c   5.75967839
_cell_angle_alpha   66.63763835
_cell_angle_beta   66.63763302
_cell_angle_gamma   31.96987683
_symmetry_Int_Tables_number   1
_chemical_formula_structural   Gd2RuWC3
_chemical_formula_sum   'Gd2 Ru1 W1 C3'
_cell_volume   104.71476823
_cell_formula_units_Z   1
loop_
 _symmetry_equiv_pos_site_id
 _symmetry_equiv_pos_as_xyz
  1  'x, y, z'
loop_
 _atom_site_type_symbol
 _atom_site_label
 _atom_site_symmetry_multiplicity
 _atom_site_fract_x
 _atom_site_fract_y
 _atom_site_fract_z
 _atom_site_occupancy
  Gd  Gd0  1  0.392759  0.392759  0.827255  1
  Gd  Gd1  1  0.607417  0.607417  0.186682  1
  Ru  Ru2  1  0.841043  0.841043  0.317007  1
  W  W3  1  0.160141  0.160141  0.675626  1
  C  C4  1  0.999567  0.999567  0.993082  1
  C  C5  1  0.247786  0.247786  0.270913  1
  C  C6  1  0.751288  0.751288  0.729436  1
