# generated using pymatgen
data_Cs2K4SbAsSe6
_symmetry_space_group_name_H-M   'P 1'
_cell_length_a   10.18391400
_cell_length_b   10.19124098
_cell_length_c   10.19654688
_cell_angle_alpha   90.40264366
_cell_angle_beta   90.00000000
_cell_angle_gamma   90.00000000
_symmetry_Int_Tables_number   1
_chemical_formula_structural   Cs2K4SbAsSe6
_chemical_formula_sum   'Cs4 K8 Sb2 As2 Se12'
_cell_volume   1058.24004171
_cell_formula_units_Z   2
loop_
 _symmetry_equiv_pos_site_id
 _symmetry_equiv_pos_as_xyz
  1  'x, y, z'
loop_
 _atom_site_type_symbol
 _atom_site_label
 _atom_site_symmetry_multiplicity
 _atom_site_fract_x
 _atom_site_fract_y
 _atom_site_fract_z
 _atom_site_occupancy
  Cs  Cs0  1  0.927657  0.429411  0.078249  1
  Cs  Cs1  1  0.427657  0.070589  0.921751  1
  Cs  Cs2  1  0.074432  0.923755  0.430803  1
  Cs  Cs3  1  0.574432  0.576245  0.569197  1
  K  K4  1  0.186218  0.686087  0.812187  1
  K  K5  1  0.686218  0.813913  0.187813  1
  K  K6  1  0.811229  0.189271  0.687351  1
  K  K7  1  0.311229  0.310729  0.312649  1
  K  K8  1  0.690265  0.192646  0.312642  1
  K  K9  1  0.190265  0.307354  0.687358  1
  K  K10  1  0.308824  0.688884  0.194615  1
  K  K11  1  0.808824  0.811116  0.805385  1
  Sb  Sb12  1  0.522932  0.475749  0.976533  1
  Sb  Sb13  1  0.022932  0.024251  0.023467  1
  As  As14  1  0.484110  0.985578  0.515301  1
  As  As15  1  0.984110  0.514422  0.484699  1
  Se  Se16  1  0.003882  0.779520  0.088791  1
  Se  Se17  1  0.915156  0.503979  0.712696  1
  Se  Se18  1  0.278273  0.409048  0.995029  1
  Se  Se19  1  0.503882  0.720480  0.911209  1
  Se  Se20  1  0.415156  0.996021  0.287304  1
  Se  Se21  1  0.778273  0.090952  0.004971  1
  Se  Se22  1  0.996145  0.285992  0.416040  1
  Se  Se23  1  0.087992  0.003836  0.778621  1
  Se  Se24  1  0.712886  0.917653  0.502963  1
  Se  Se25  1  0.496145  0.214008  0.583960  1
  Se  Se26  1  0.587992  0.496164  0.221379  1
  Se  Se27  1  0.212886  0.582347  0.497037  1
