# generated using pymatgen
data_ZrTi2TeCl7
_symmetry_space_group_name_H-M   'P 1'
_cell_length_a   7.15527000
_cell_length_b   7.27821656
_cell_length_c   7.01808866
_cell_angle_alpha   89.77078366
_cell_angle_beta   90.00000000
_cell_angle_gamma   119.44275952
_symmetry_Int_Tables_number   1
_chemical_formula_structural   ZrTi2TeCl7
_chemical_formula_sum   'Zr1 Ti2 Te1 Cl7'
_cell_volume   318.27844874
_cell_formula_units_Z   1
loop_
 _symmetry_equiv_pos_site_id
 _symmetry_equiv_pos_as_xyz
  1  'x, y, z'
loop_
 _atom_site_type_symbol
 _atom_site_label
 _atom_site_symmetry_multiplicity
 _atom_site_fract_x
 _atom_site_fract_y
 _atom_site_fract_z
 _atom_site_occupancy
  Zr  Zr0  1  0.152932  0.305863  0.500201  1
  Ti  Ti1  1  0.151702  0.846829  0.497873  1
  Ti  Ti2  1  0.695127  0.846829  0.497873  1
  Te  Te3  1  0.997682  0.995365  0.782612  1
  Cl  Cl4  1  0.321682  0.153175  0.283651  1
  Cl  Cl5  1  0.831494  0.153175  0.283651  1
  Cl  Cl6  1  0.842905  0.685811  0.292215  1
  Cl  Cl7  1  0.335782  0.671563  0.295553  1
  Cl  Cl8  1  0.009552  0.513428  0.681725  1
  Cl  Cl9  1  0.503876  0.513428  0.681725  1
  Cl  Cl10  1  0.490600  0.981198  0.672799  1
