# generated using pymatgen
data_ZnMo12Pt6RhN4
_symmetry_space_group_name_H-M   'P 1'
_cell_length_a   6.88720588
_cell_length_b   6.88720616
_cell_length_c   6.88720660
_cell_angle_alpha   89.99638005
_cell_angle_beta   89.99637620
_cell_angle_gamma   89.99637981
_symmetry_Int_Tables_number   1
_chemical_formula_structural   ZnMo12Pt6RhN4
_chemical_formula_sum   'Zn1 Mo12 Pt6 Rh1 N4'
_cell_volume   326.68504756
_cell_formula_units_Z   1
loop_
 _symmetry_equiv_pos_site_id
 _symmetry_equiv_pos_as_xyz
  1  'x, y, z'
loop_
 _atom_site_type_symbol
 _atom_site_label
 _atom_site_symmetry_multiplicity
 _atom_site_fract_x
 _atom_site_fract_y
 _atom_site_fract_z
 _atom_site_occupancy
  Zn  Zn0  1  0.189035  0.189035  0.189035  1
  Mo  Mo1  1  0.621331  0.702560  0.948763  1
  Mo  Mo2  1  0.459417  0.871504  0.305943  1
  Mo  Mo3  1  0.702560  0.948763  0.621331  1
  Mo  Mo4  1  0.550791  0.375392  0.204380  1
  Mo  Mo5  1  0.375392  0.204380  0.550791  1
  Mo  Mo6  1  0.204380  0.550791  0.375392  1
  Mo  Mo7  1  0.871504  0.305943  0.459417  1
  Mo  Mo8  1  0.046050  0.121087  0.795711  1
  Mo  Mo9  1  0.305943  0.459417  0.871504  1
  Mo  Mo10  1  0.121087  0.795711  0.046050  1
  Mo  Mo11  1  0.795711  0.046050  0.121087  1
  Mo  Mo12  1  0.948763  0.621331  0.702560  1
  Pt  Pt13  1  0.307857  0.811442  0.686962  1
  Pt  Pt14  1  0.428487  0.062559  0.950497  1
  Pt  Pt15  1  0.811442  0.686962  0.307857  1
  Pt  Pt16  1  0.686962  0.307857  0.811442  1
  Pt  Pt17  1  0.062559  0.950497  0.428487  1
  Pt  Pt18  1  0.950497  0.428487  0.062559  1
  Rh  Rh19  1  0.557876  0.557876  0.557876  1
  N  N20  1  0.376132  0.626225  0.126850  1
  N  N21  1  0.873149  0.873149  0.873149  1
  N  N22  1  0.126850  0.376132  0.626225  1
  N  N23  1  0.626225  0.126850  0.376132  1
