# generated using pymatgen
data_Ac4Ir3Pt
_symmetry_space_group_name_H-M   'P 1'
_cell_length_a   5.96082427
_cell_length_b   4.68251100
_cell_length_c   8.10055665
_cell_angle_alpha   90.00000000
_cell_angle_beta   89.89489353
_cell_angle_gamma   90.00000000
_symmetry_Int_Tables_number   1
_chemical_formula_structural   Ac4Ir3Pt
_chemical_formula_sum   'Ac4 Ir3 Pt1'
_cell_volume   226.09932094
_cell_formula_units_Z   1
loop_
 _symmetry_equiv_pos_site_id
 _symmetry_equiv_pos_as_xyz
  1  'x, y, z'
loop_
 _atom_site_type_symbol
 _atom_site_label
 _atom_site_symmetry_multiplicity
 _atom_site_fract_x
 _atom_site_fract_y
 _atom_site_fract_z
 _atom_site_occupancy
  Ac  Ac0  1  0.739868  0.250000  0.078986  1
  Ac  Ac1  1  0.256951  0.250000  0.421030  1
  Ac  Ac2  1  0.751317  0.750001  0.588936  1
  Ac  Ac3  1  0.251576  0.750001  0.911276  1
  Ir  Ir4  1  0.498053  0.750001  0.250355  1
  Ir  Ir5  1  0.502123  0.250000  0.749218  1
  Ir  Ir6  1  0.002323  0.250000  0.751054  1
  Pt  Pt7  1  0.997788  0.750001  0.249141  1
