# generated using pymatgen
data_Dy6LuCd(Co3Sn11)2
_symmetry_space_group_name_H-M   'P 1'
_cell_length_a   9.66430728
_cell_length_b   9.66430681
_cell_length_c   10.01634242
_cell_angle_alpha   90.09323336
_cell_angle_beta   89.90676617
_cell_angle_gamma   119.98538267
_symmetry_Int_Tables_number   1
_chemical_formula_structural   Dy6LuCd(Co3Sn11)2
_chemical_formula_sum   'Dy6 Lu1 Cd1 Co6 Sn22'
_cell_volume   810.29734708
_cell_formula_units_Z   1
loop_
 _symmetry_equiv_pos_site_id
 _symmetry_equiv_pos_as_xyz
  1  'x, y, z'
loop_
 _atom_site_type_symbol
 _atom_site_label
 _atom_site_symmetry_multiplicity
 _atom_site_fract_x
 _atom_site_fract_y
 _atom_site_fract_z
 _atom_site_occupancy
  Dy  Dy0  1  0.999634  0.000366  0.000392  1
  Dy  Dy1  1  0.520998  0.479002  0.693427  1
  Dy  Dy2  1  0.478764  0.958413  0.306085  1
  Dy  Dy3  1  0.520881  0.041792  0.693525  1
  Dy  Dy4  1  0.041587  0.521236  0.306085  1
  Dy  Dy5  1  0.958208  0.479119  0.693525  1
  Lu  Lu6  1  0.480457  0.519543  0.305326  1
  Cd  Cd7  1  0.999889  0.000111  0.499438  1
  Co  Co8  1  0.832130  0.167870  0.196896  1
  Co  Co9  1  0.168280  0.831720  0.803646  1
  Co  Co10  1  0.830298  0.662763  0.197062  1
  Co  Co11  1  0.168300  0.336543  0.803356  1
  Co  Co12  1  0.337237  0.169702  0.197062  1
  Co  Co13  1  0.663457  0.831700  0.803356  1
  Sn  Sn14  1  0.346411  0.000630  0.000504  1
  Sn  Sn15  1  0.653807  0.999921  0.999972  1
  Sn  Sn16  1  0.000079  0.346193  0.999972  1
  Sn  Sn17  1  0.999370  0.653589  0.000504  1
  Sn  Sn18  1  0.653535  0.653424  0.000387  1
  Sn  Sn19  1  0.346576  0.346465  0.000387  1
  Sn  Sn20  1  0.333484  0.666516  0.818531  1
  Sn  Sn21  1  0.666357  0.333643  0.181594  1
  Sn  Sn22  1  0.782825  0.217175  0.453058  1
  Sn  Sn23  1  0.216998  0.783002  0.546615  1
  Sn  Sn24  1  0.781493  0.565761  0.452705  1
  Sn  Sn25  1  0.217991  0.434599  0.545759  1
  Sn  Sn26  1  0.434239  0.218507  0.452705  1
  Sn  Sn27  1  0.565401  0.782009  0.545759  1
  Sn  Sn28  1  0.335052  0.664948  0.120732  1
  Sn  Sn29  1  0.666702  0.333298  0.881193  1
  Sn  Sn30  1  0.115825  0.884175  0.270095  1
  Sn  Sn31  1  0.883792  0.116208  0.729808  1
  Sn  Sn32  1  0.117937  0.233967  0.270163  1
  Sn  Sn33  1  0.883392  0.767422  0.730106  1
  Sn  Sn34  1  0.766033  0.882063  0.270163  1
  Sn  Sn35  1  0.232578  0.116608  0.730106  1
