# generated using pymatgen
data_Nd12Zn(SiBr4)3
_symmetry_space_group_name_H-M   'P 1'
_cell_length_a   10.43085023
_cell_length_b   10.43084978
_cell_length_c   10.43084942
_cell_angle_alpha   109.57952897
_cell_angle_beta   109.57952887
_cell_angle_gamma   109.57952617
_symmetry_Int_Tables_number   1
_chemical_formula_structural   Nd12Zn(SiBr4)3
_chemical_formula_sum   'Nd12 Zn1 Si3 Br12'
_cell_volume   870.12846421
_cell_formula_units_Z   1
loop_
 _symmetry_equiv_pos_site_id
 _symmetry_equiv_pos_as_xyz
  1  'x, y, z'
loop_
 _atom_site_type_symbol
 _atom_site_label
 _atom_site_symmetry_multiplicity
 _atom_site_fract_x
 _atom_site_fract_y
 _atom_site_fract_z
 _atom_site_occupancy
  Nd  Nd0  1  0.482317  0.492104  0.239728  1
  Nd  Nd1  1  0.750000  0.238667  0.261333  1
  Nd  Nd2  1  0.750000  0.010530  0.489470  1
  Nd  Nd3  1  0.239728  0.482317  0.492104  1
  Nd  Nd4  1  0.261333  0.750000  0.238667  1
  Nd  Nd5  1  0.017683  0.260272  0.007896  1
  Nd  Nd6  1  0.007896  0.017683  0.260272  1
  Nd  Nd7  1  0.489470  0.750000  0.010530  1
  Nd  Nd8  1  0.492104  0.239728  0.482317  1
  Nd  Nd9  1  0.010530  0.489470  0.750000  1
  Nd  Nd10  1  0.260272  0.007896  0.017683  1
  Nd  Nd11  1  0.238667  0.261333  0.750000  1
  Zn  Zn12  1  0.250000  0.250000  0.250000  1
  Si  Si13  1  0.499467  0.000533  0.250000  1
  Si  Si14  1  0.000533  0.250000  0.499467  1
  Si  Si15  1  0.250000  0.499467  0.000533  1
  Br  Br16  1  0.250000  0.754793  0.745207  1
  Br  Br17  1  0.509321  0.505122  0.755573  1
  Br  Br18  1  0.990679  0.744427  0.994878  1
  Br  Br19  1  0.745207  0.250000  0.754793  1
  Br  Br20  1  0.994878  0.990679  0.744427  1
  Br  Br21  1  0.250000  0.993342  0.506658  1
  Br  Br22  1  0.755573  0.509321  0.505122  1
  Br  Br23  1  0.506658  0.250000  0.993342  1
  Br  Br24  1  0.754793  0.745207  0.250000  1
  Br  Br25  1  0.744427  0.994878  0.990679  1
  Br  Br26  1  0.993342  0.506658  0.250000  1
  Br  Br27  1  0.505122  0.755573  0.509321  1
