# generated using pymatgen
data_Ce3Th(HgRu)4
_symmetry_space_group_name_H-M   'P 1'
_cell_length_a   6.35058815
_cell_length_b   6.35058796
_cell_length_c   9.84464704
_cell_angle_alpha   77.04383811
_cell_angle_beta   77.04383961
_cell_angle_gamma   44.87251468
_symmetry_Int_Tables_number   1
_chemical_formula_structural   Ce3Th(HgRu)4
_chemical_formula_sum   'Ce3 Th1 Hg4 Ru4'
_cell_volume   271.75442397
_cell_formula_units_Z   1
loop_
 _symmetry_equiv_pos_site_id
 _symmetry_equiv_pos_as_xyz
  1  'x, y, z'
loop_
 _atom_site_type_symbol
 _atom_site_label
 _atom_site_symmetry_multiplicity
 _atom_site_fract_x
 _atom_site_fract_y
 _atom_site_fract_z
 _atom_site_occupancy
  Ce  Ce0  1  0.863159  0.863159  0.415557  1
  Ce  Ce1  1  0.862871  0.862871  0.919336  1
  Ce  Ce2  1  0.139223  0.139223  0.085474  1
  Th  Th3  1  0.130747  0.130747  0.588582  1
  Hg  Hg4  1  0.430609  0.430609  0.148057  1
  Hg  Hg5  1  0.423177  0.423177  0.649841  1
  Hg  Hg6  1  0.574352  0.574352  0.856570  1
  Hg  Hg7  1  0.575879  0.575879  0.359367  1
  Ru  Ru8  1  0.799216  0.799216  0.158279  1
  Ru  Ru9  1  0.203160  0.203160  0.321281  1
  Ru  Ru10  1  0.201778  0.201778  0.842777  1
  Ru  Ru11  1  0.795828  0.795828  0.654877  1
