# generated using pymatgen
data_Ho2ErCo7(P3Rh)2
_symmetry_space_group_name_H-M   'P 1'
_cell_length_a   3.70889200
_cell_length_b   10.63669000
_cell_length_c   12.33767400
_cell_angle_alpha   90.00000000
_cell_angle_beta   90.00000000
_cell_angle_gamma   90.00000000
_symmetry_Int_Tables_number   1
_chemical_formula_structural   Ho2ErCo7(P3Rh)2
_chemical_formula_sum   'Ho4 Er2 Co14 P12 Rh4'
_cell_volume   486.72536560
_cell_formula_units_Z   2
loop_
 _symmetry_equiv_pos_site_id
 _symmetry_equiv_pos_as_xyz
  1  'x, y, z'
loop_
 _atom_site_type_symbol
 _atom_site_label
 _atom_site_symmetry_multiplicity
 _atom_site_fract_x
 _atom_site_fract_y
 _atom_site_fract_z
 _atom_site_occupancy
  Ho  Ho0  1  0.000000  0.500000  0.520278  1
  Ho  Ho1  1  0.500000  0.000000  0.479608  1
  Ho  Ho2  1  0.000000  0.685954  0.794139  1
  Ho  Ho3  1  0.000000  0.314046  0.794139  1
  Er  Er4  1  0.500000  0.813940  0.205971  1
  Er  Er5  1  0.500000  0.186060  0.205971  1
  Co  Co6  1  0.000000  0.500000  0.988285  1
  Co  Co7  1  0.500000  0.000000  0.011954  1
  Co  Co8  1  0.500000  0.300263  0.429576  1
  Co  Co9  1  0.500000  0.699737  0.429576  1
  Co  Co10  1  0.000000  0.199717  0.570186  1
  Co  Co11  1  0.000000  0.800283  0.570186  1
  Co  Co12  1  0.500000  0.880172  0.709794  1
  Co  Co13  1  0.500000  0.119828  0.709794  1
  Co  Co14  1  0.000000  0.620049  0.290075  1
  Co  Co15  1  0.000000  0.379951  0.290075  1
  Co  Co16  1  0.500000  0.331986  0.993948  1
  Co  Co17  1  0.500000  0.668014  0.993948  1
  Co  Co18  1  0.000000  0.167845  0.006368  1
  Co  Co19  1  0.000000  0.832155  0.006368  1
  P  P20  1  0.500000  0.302391  0.613454  1
  P  P21  1  0.500000  0.697609  0.613454  1
  P  P22  1  0.000000  0.197496  0.386230  1
  P  P23  1  0.000000  0.802504  0.386230  1
  P  P24  1  0.500000  0.500000  0.889822  1
  P  P25  1  0.000000  0.000000  0.110445  1
  P  P26  1  0.500000  0.844306  0.894299  1
  P  P27  1  0.500000  0.155694  0.894299  1
  P  P28  1  0.000000  0.655959  0.105873  1
  P  P29  1  0.000000  0.344041  0.105873  1
  P  P30  1  0.500000  0.500000  0.350331  1
  P  P31  1  0.000000  0.000000  0.649647  1
  Rh  Rh32  1  0.500000  0.500000  0.160162  1
  Rh  Rh33  1  0.000000  0.000000  0.839976  1
  Rh  Rh34  1  0.500000  0.500000  0.703117  1
  Rh  Rh35  1  0.000000  0.000000  0.296551  1
