# generated using pymatgen
data_TbTh2In3CuPd2
_symmetry_space_group_name_H-M   'P 1'
_cell_length_a   7.75884067
_cell_length_b   7.71710724
_cell_length_c   3.97965700
_cell_angle_alpha   90.00000000
_cell_angle_beta   90.00000000
_cell_angle_gamma   119.82221459
_symmetry_Int_Tables_number   1
_chemical_formula_structural   TbTh2In3CuPd2
_chemical_formula_sum   'Tb1 Th2 In3 Cu1 Pd2'
_cell_volume   206.72970749
_cell_formula_units_Z   1
loop_
 _symmetry_equiv_pos_site_id
 _symmetry_equiv_pos_as_xyz
  1  'x, y, z'
loop_
 _atom_site_type_symbol
 _atom_site_label
 _atom_site_symmetry_multiplicity
 _atom_site_fract_x
 _atom_site_fract_y
 _atom_site_fract_z
 _atom_site_occupancy
  Tb  Tb0  1  0.000000  0.590601  0.500000  1
  Th  Th1  1  0.586887  0.999337  0.500000  1
  Th  Th2  1  0.413113  0.412449  0.500000  1
  In  In3  1  0.759687  0.751762  0.000000  1
  In  In4  1  0.240313  0.992075  0.000000  1
  In  In5  1  0.000000  0.253451  0.000000  1
  Cu  Cu6  1  0.000000  0.004482  0.500000  1
  Pd  Pd7  1  0.660171  0.328007  0.000000  1
  Pd  Pd8  1  0.339829  0.667837  0.000000  1
