# generated using pymatgen
data_Tc2PtBr12
_symmetry_space_group_name_H-M   'P 1'
_cell_length_a   9.39005949
_cell_length_b   9.39005876
_cell_length_c   7.00814652
_cell_angle_alpha   73.77366997
_cell_angle_beta   73.77367122
_cell_angle_gamma   83.21325692
_symmetry_Int_Tables_number   1
_chemical_formula_structural   Tc2PtBr12
_chemical_formula_sum   'Tc2 Pt1 Br12'
_cell_volume   569.14229887
_cell_formula_units_Z   1
loop_
 _symmetry_equiv_pos_site_id
 _symmetry_equiv_pos_as_xyz
  1  'x, y, z'
loop_
 _atom_site_type_symbol
 _atom_site_label
 _atom_site_symmetry_multiplicity
 _atom_site_fract_x
 _atom_site_fract_y
 _atom_site_fract_z
 _atom_site_occupancy
  Tc  Tc0  1  0.258848  0.258848  0.741779  1
  Tc  Tc1  1  0.741152  0.741152  0.258221  1
  Pt  Pt2  1  0.000000  0.000000  0.000000  1
  Br  Br3  1  0.972679  0.244750  0.750108  1
  Br  Br4  1  0.244750  0.972679  0.750108  1
  Br  Br5  1  0.027321  0.755250  0.249892  1
  Br  Br6  1  0.755250  0.027321  0.249892  1
  Br  Br7  1  0.218821  0.507983  0.784852  1
  Br  Br8  1  0.507983  0.218821  0.784852  1
  Br  Br9  1  0.781179  0.492017  0.215148  1
  Br  Br10  1  0.492017  0.781179  0.215148  1
  Br  Br11  1  0.139989  0.139989  0.143606  1
  Br  Br12  1  0.860011  0.860011  0.856394  1
  Br  Br13  1  0.669895  0.669895  0.631591  1
  Br  Br14  1  0.330105  0.330105  0.368409  1
