# generated using pymatgen
data_Er5In4HgRu
_symmetry_space_group_name_H-M   'P 1'
_cell_length_a   3.57988800
_cell_length_b   8.24537133
_cell_length_c   18.45360775
_cell_angle_alpha   89.85960797
_cell_angle_beta   90.00000000
_cell_angle_gamma   90.00000000
_symmetry_Int_Tables_number   1
_chemical_formula_structural   Er5In4HgRu
_chemical_formula_sum   'Er10 In8 Hg2 Ru2'
_cell_volume   544.70284020
_cell_formula_units_Z   2
loop_
 _symmetry_equiv_pos_site_id
 _symmetry_equiv_pos_as_xyz
  1  'x, y, z'
loop_
 _atom_site_type_symbol
 _atom_site_label
 _atom_site_symmetry_multiplicity
 _atom_site_fract_x
 _atom_site_fract_y
 _atom_site_fract_z
 _atom_site_occupancy
  Er  Er0  1  0.000000  0.122650  0.423069  1
  Er  Er1  1  0.000000  0.877350  0.576931  1
  Er  Er2  1  0.000000  0.384144  0.914559  1
  Er  Er3  1  0.000000  0.615856  0.085441  1
  Er  Er4  1  0.000000  0.268350  0.213633  1
  Er  Er5  1  0.000000  0.731650  0.786367  1
  Er  Er6  1  0.000000  0.288157  0.723280  1
  Er  Er7  1  0.000000  0.711843  0.276720  1
  Er  Er8  1  0.000000  0.000000  0.000000  1
  Er  Er9  1  0.000000  0.500000  0.500000  1
  In  In10  1  0.500000  0.419963  0.351516  1
  In  In11  1  0.500000  0.580037  0.648484  1
  In  In12  1  0.500000  0.082890  0.854296  1
  In  In13  1  0.500000  0.917110  0.145704  1
  In  In14  1  0.500000  0.294618  0.065497  1
  In  In15  1  0.500000  0.705382  0.934503  1
  In  In16  1  0.500000  0.212835  0.567901  1
  In  In17  1  0.500000  0.787165  0.432099  1
  Hg  Hg18  1  0.500000  0.024904  0.299944  1
  Hg  Hg19  1  0.500000  0.975096  0.700056  1
  Ru  Ru20  1  0.500000  0.476699  0.806192  1
  Ru  Ru21  1  0.500000  0.523301  0.193808  1
