# generated using pymatgen
data_DyHo3(WO6)2
_symmetry_space_group_name_H-M   'P 1'
_cell_length_a   5.38447300
_cell_length_b   7.69434587
_cell_length_c   11.45633294
_cell_angle_alpha   75.40812263
_cell_angle_beta   90.00000000
_cell_angle_gamma   90.00000000
_symmetry_Int_Tables_number   1
_chemical_formula_structural   DyHo3(WO6)2
_chemical_formula_sum   'Dy2 Ho6 W4 O24'
_cell_volume   459.32641730
_cell_formula_units_Z   2
loop_
 _symmetry_equiv_pos_site_id
 _symmetry_equiv_pos_as_xyz
  1  'x, y, z'
loop_
 _atom_site_type_symbol
 _atom_site_label
 _atom_site_symmetry_multiplicity
 _atom_site_fract_x
 _atom_site_fract_y
 _atom_site_fract_z
 _atom_site_occupancy
  Dy  Dy0  1  0.683955  0.500000  0.750000  1
  Dy  Dy1  1  0.316045  0.500000  0.250000  1
  Ho  Ho2  1  0.739473  0.000000  0.750000  1
  Ho  Ho3  1  0.260527  0.000000  0.250000  1
  Ho  Ho4  1  0.185457  0.795421  0.577930  1
  Ho  Ho5  1  0.814543  0.795421  0.077930  1
  Ho  Ho6  1  0.185457  0.204579  0.922070  1
  Ho  Ho7  1  0.814543  0.204579  0.422070  1
  W  W8  1  0.254886  0.723445  0.885423  1
  W  W9  1  0.745114  0.723445  0.385423  1
  W  W10  1  0.254886  0.276555  0.614577  1
  W  W11  1  0.745114  0.276555  0.114577  1
  O  O12  1  0.042080  0.939852  0.895488  1
  O  O13  1  0.532360  0.848320  0.930676  1
  O  O14  1  0.957920  0.939852  0.395488  1
  O  O15  1  0.459236  0.790491  0.727268  1
  O  O16  1  0.467640  0.848320  0.430676  1
  O  O17  1  0.981344  0.710954  0.771149  1
  O  O18  1  0.540764  0.790491  0.227268  1
  O  O19  1  0.850437  0.635010  0.548455  1
  O  O20  1  0.360918  0.489562  0.886197  1
  O  O21  1  0.018656  0.710954  0.271149  1
  O  O22  1  0.360918  0.510438  0.613803  1
  O  O23  1  0.850437  0.364990  0.951545  1
  O  O24  1  0.149563  0.635010  0.048455  1
  O  O25  1  0.639082  0.489562  0.386197  1
  O  O26  1  0.981344  0.289046  0.728851  1
  O  O27  1  0.639082  0.510438  0.113803  1
  O  O28  1  0.149563  0.364990  0.451545  1
  O  O29  1  0.459236  0.209509  0.772732  1
  O  O30  1  0.018656  0.289046  0.228851  1
  O  O31  1  0.532360  0.151680  0.569324  1
  O  O32  1  0.540764  0.209509  0.272732  1
  O  O33  1  0.042080  0.060148  0.604512  1
  O  O34  1  0.467640  0.151680  0.069324  1
  O  O35  1  0.957920  0.060148  0.104512  1
