# generated using pymatgen
data_LuTaB2Ru5W
_symmetry_space_group_name_H-M   'P 1'
_cell_length_a   9.49357802
_cell_length_b   9.49357850
_cell_length_c   3.05131600
_cell_angle_alpha   90.00000000
_cell_angle_beta   90.00000000
_cell_angle_gamma   90.23009382
_symmetry_Int_Tables_number   1
_chemical_formula_structural   LuTaB2Ru5W
_chemical_formula_sum   'Lu2 Ta2 B4 Ru10 W2'
_cell_volume   275.00687667
_cell_formula_units_Z   2
loop_
 _symmetry_equiv_pos_site_id
 _symmetry_equiv_pos_as_xyz
  1  'x, y, z'
loop_
 _atom_site_type_symbol
 _atom_site_label
 _atom_site_symmetry_multiplicity
 _atom_site_fract_x
 _atom_site_fract_y
 _atom_site_fract_z
 _atom_site_occupancy
  Lu  Lu0  1  0.824025  0.675975  0.000000  1
  Lu  Lu1  1  0.175975  0.324025  0.000000  1
  Ta  Ta2  1  0.323398  0.823398  0.000000  1
  Ta  Ta3  1  0.676602  0.176602  0.000000  1
  B  B4  1  0.620871  0.879129  0.000000  1
  B  B5  1  0.379129  0.120871  0.000000  1
  B  B6  1  0.120550  0.620550  0.000000  1
  B  B7  1  0.879450  0.379450  0.000000  1
  Ru  Ru8  1  0.563270  0.719536  0.500000  1
  Ru  Ru9  1  0.436730  0.280464  0.500000  1
  Ru  Ru10  1  0.077671  0.786685  0.500000  1
  Ru  Ru11  1  0.922329  0.213315  0.500000  1
  Ru  Ru12  1  0.286685  0.577671  0.500000  1
  Ru  Ru13  1  0.713315  0.422329  0.500000  1
  Ru  Ru14  1  0.219536  0.063270  0.500000  1
  Ru  Ru15  1  0.780464  0.936730  0.500000  1
  Ru  Ru16  1  0.500000  0.000000  0.500000  1
  Ru  Ru17  1  0.000000  0.500000  0.500000  1
  W  W18  1  0.500000  0.500000  0.000000  1
  W  W19  1  0.000000  0.000000  0.000000  1
