# generated using pymatgen
data_Tm6Sc4SnBi5
_symmetry_space_group_name_H-M   'P 1'
_cell_length_a   6.15293900
_cell_length_b   8.91382829
_cell_length_c   8.90195900
_cell_angle_alpha   119.95517141
_cell_angle_beta   90.00060980
_cell_angle_gamma   89.99985654
_symmetry_Int_Tables_number   1
_chemical_formula_structural   Tm6Sc4SnBi5
_chemical_formula_sum   'Tm6 Sc4 Sn1 Bi5'
_cell_volume   423.01824434
_cell_formula_units_Z   1
loop_
 _symmetry_equiv_pos_site_id
 _symmetry_equiv_pos_as_xyz
  1  'x, y, z'
loop_
 _atom_site_type_symbol
 _atom_site_label
 _atom_site_symmetry_multiplicity
 _atom_site_fract_x
 _atom_site_fract_y
 _atom_site_fract_z
 _atom_site_occupancy
  Tm  Tm0  1  0.749999  0.237827  0.999085  1
  Tm  Tm1  1  0.750002  0.762183  0.761210  1
  Tm  Tm2  1  0.750003  0.999977  0.239805  1
  Tm  Tm3  1  0.249998  0.765934  0.006373  1
  Tm  Tm4  1  0.250002  0.234160  0.240466  1
  Tm  Tm5  1  0.250001  0.000000  0.757033  1
  Sc  Sc6  1  0.498288  0.330017  0.664081  1
  Sc  Sc7  1  0.498311  0.669954  0.334040  1
  Sc  Sc8  1  0.001664  0.669956  0.334035  1
  Sc  Sc9  1  0.001706  0.330013  0.664080  1
  Sn  Sn10  1  0.250020  0.999938  0.396611  1
  Bi  Bi11  1  0.749996  0.603350  0.998481  1
  Bi  Bi12  1  0.749999  0.396664  0.395142  1
  Bi  Bi13  1  0.750005  0.999996  0.602647  1
  Bi  Bi14  1  0.249999  0.395182  0.001033  1
  Bi  Bi15  1  0.250002  0.604848  0.605878  1
