# generated using pymatgen
data_Pr16CdHg3(OsPd)2
_symmetry_space_group_name_H-M   'P 1'
_cell_length_a   10.03903090
_cell_length_b   10.06253170
_cell_length_c   10.16458200
_cell_angle_alpha   59.66394725
_cell_angle_beta   59.58542548
_cell_angle_gamma   59.55498578
_symmetry_Int_Tables_number   1
_chemical_formula_structural   Pr16CdHg3(OsPd)2
_chemical_formula_sum   'Pr16 Cd1 Hg3 Os2 Pd2'
_cell_volume   719.48339927
_cell_formula_units_Z   1
loop_
 _symmetry_equiv_pos_site_id
 _symmetry_equiv_pos_as_xyz
  1  'x, y, z'
loop_
 _atom_site_type_symbol
 _atom_site_label
 _atom_site_symmetry_multiplicity
 _atom_site_fract_x
 _atom_site_fract_y
 _atom_site_fract_z
 _atom_site_occupancy
  Pr  Pr0  1  0.350168  0.349240  0.355776  1
  Pr  Pr1  1  0.350168  0.349240  0.944817  1
  Pr  Pr2  1  0.344548  0.955215  0.350119  1
  Pr  Pr3  1  0.952817  0.344999  0.351093  1
  Pr  Pr4  1  0.814567  0.189316  0.193597  1
  Pr  Pr5  1  0.187804  0.815594  0.803519  1
  Pr  Pr6  1  0.187804  0.815594  0.193083  1
  Pr  Pr7  1  0.814567  0.189316  0.802521  1
  Pr  Pr8  1  0.188559  0.189360  0.811041  1
  Pr  Pr9  1  0.804168  0.804278  0.195777  1
  Pr  Pr10  1  0.937629  0.556163  0.565901  1
  Pr  Pr11  1  0.554989  0.938604  0.940540  1
  Pr  Pr12  1  0.554989  0.938604  0.565866  1
  Pr  Pr13  1  0.937629  0.556163  0.940307  1
  Pr  Pr14  1  0.561983  0.562781  0.937618  1
  Pr  Pr15  1  0.937968  0.938931  0.561550  1
  Cd  Cd16  1  0.261396  0.580147  0.579227  1
  Hg  Hg17  1  0.582098  0.584763  0.584484  1
  Hg  Hg18  1  0.582098  0.584763  0.248655  1
  Hg  Hg19  1  0.583174  0.246770  0.585027  1
  Os  Os20  1  0.144685  0.144726  0.136232  1
  Os  Os21  1  0.144685  0.144726  0.574356  1
  Pd  Pd22  1  0.147815  0.573166  0.139509  1
  Pd  Pd23  1  0.573692  0.147540  0.139383  1
