# generated using pymatgen
data_Nb6C2N
_symmetry_space_group_name_H-M   'P 1'
_cell_length_a   5.41622900
_cell_length_b   5.41622846
_cell_length_c   4.97616000
_cell_angle_alpha   90.00000000
_cell_angle_beta   90.00000000
_cell_angle_gamma   120.00000938
_symmetry_Int_Tables_number   1
_chemical_formula_structural   Nb6C2N
_chemical_formula_sum   'Nb6 C2 N1'
_cell_volume   126.42091230
_cell_formula_units_Z   1
loop_
 _symmetry_equiv_pos_site_id
 _symmetry_equiv_pos_as_xyz
  1  'x, y, z'
loop_
 _atom_site_type_symbol
 _atom_site_label
 _atom_site_symmetry_multiplicity
 _atom_site_fract_x
 _atom_site_fract_y
 _atom_site_fract_z
 _atom_site_occupancy
  Nb  Nb0  1  0.663081  0.663081  0.752316  1
  Nb  Nb1  1  0.000000  0.336919  0.752316  1
  Nb  Nb2  1  0.336919  0.000000  0.752316  1
  Nb  Nb3  1  0.336919  0.336919  0.247684  1
  Nb  Nb4  1  0.000000  0.663081  0.247684  1
  Nb  Nb5  1  0.663081  0.000000  0.247684  1
  C  C6  1  0.666667  0.333333  0.500000  1
  C  C7  1  0.333333  0.666667  0.500000  1
  N  N8  1  0.000000  0.000000  0.000000  1
