# generated using pymatgen
data_Er10Tm6MgIn3Co4
_symmetry_space_group_name_H-M   'P 1'
_cell_length_a   9.46524196
_cell_length_b   9.43351088
_cell_length_c   9.43351100
_cell_angle_alpha   59.99999607
_cell_angle_beta   60.11083009
_cell_angle_gamma   60.11082893
_symmetry_Int_Tables_number   1
_chemical_formula_structural   Er10Tm6MgIn3Co4
_chemical_formula_sum   'Er10 Tm6 Mg1 In3 Co4'
_cell_volume   596.60779254
_cell_formula_units_Z   1
loop_
 _symmetry_equiv_pos_site_id
 _symmetry_equiv_pos_as_xyz
  1  'x, y, z'
loop_
 _atom_site_type_symbol
 _atom_site_label
 _atom_site_symmetry_multiplicity
 _atom_site_fract_x
 _atom_site_fract_y
 _atom_site_fract_z
 _atom_site_occupancy
  Er  Er0  1  0.347185  0.345262  0.345262  1
  Er  Er1  1  0.347185  0.345262  0.962291  1
  Er  Er2  1  0.347185  0.962291  0.345262  1
  Er  Er3  1  0.959480  0.346840  0.346840  1
  Er  Er4  1  0.809946  0.189473  0.189473  1
  Er  Er5  1  0.185272  0.813414  0.813414  1
  Er  Er6  1  0.185272  0.813414  0.187902  1
  Er  Er7  1  0.809946  0.189473  0.811109  1
  Er  Er8  1  0.185272  0.187902  0.813414  1
  Er  Er9  1  0.809946  0.811109  0.189473  1
  Tm  Tm10  1  0.938972  0.561169  0.561169  1
  Tm  Tm11  1  0.562056  0.938990  0.938990  1
  Tm  Tm12  1  0.562056  0.938990  0.559964  1
  Tm  Tm13  1  0.938972  0.561169  0.938690  1
  Tm  Tm14  1  0.562056  0.559964  0.938990  1
  Tm  Tm15  1  0.938972  0.938690  0.561169  1
  Mg  Mg16  1  0.267479  0.577507  0.577507  1
  In  In17  1  0.582050  0.583204  0.583204  1
  In  In18  1  0.582050  0.583204  0.251541  1
  In  In19  1  0.582050  0.251541  0.583204  1
  Co  Co20  1  0.139129  0.141273  0.141273  1
  Co  Co21  1  0.139129  0.141273  0.578326  1
  Co  Co22  1  0.139129  0.578326  0.141273  1
  Co  Co23  1  0.579213  0.140262  0.140262  1
