# generated using pymatgen
data_Ti8Al15Ir4Pt3
_symmetry_space_group_name_H-M   'P 1'
_cell_length_a   8.68540849
_cell_length_b   8.66751365
_cell_length_c   8.68540850
_cell_angle_alpha   119.96933503
_cell_angle_beta   120.01246178
_cell_angle_gamma   90.07489478
_symmetry_Int_Tables_number   1
_chemical_formula_structural   Ti8Al15Ir4Pt3
_chemical_formula_sum   'Ti8 Al15 Ir4 Pt3'
_cell_volume   462.16277277
_cell_formula_units_Z   1
loop_
 _symmetry_equiv_pos_site_id
 _symmetry_equiv_pos_as_xyz
  1  'x, y, z'
loop_
 _atom_site_type_symbol
 _atom_site_label
 _atom_site_symmetry_multiplicity
 _atom_site_fract_x
 _atom_site_fract_y
 _atom_site_fract_z
 _atom_site_occupancy
  Ti  Ti0  1  0.790016  0.290339  0.075437  1
  Ti  Ti1  1  0.214902  0.290339  0.500323  1
  Ti  Ti2  1  0.209729  0.709505  0.499776  1
  Ti  Ti3  1  0.212530  0.714112  0.922292  1
  Ti  Ti4  1  0.791819  0.714112  0.501581  1
  Ti  Ti5  1  0.785175  0.286296  0.501121  1
  Ti  Ti6  1  0.380327  0.122133  0.741807  1
  Ti  Ti7  1  0.376708  0.635545  0.258838  1
  Al  Al8  1  0.997674  0.496951  0.499277  1
  Al  Al9  1  0.154134  0.343487  0.189352  1
  Al  Al10  1  0.155308  0.968643  0.813335  1
  Al  Al11  1  0.151605  0.345596  0.808049  1
  Al  Al12  1  0.537546  0.345596  0.193991  1
  Al  Al13  1  0.844912  0.653253  0.808342  1
  Al  Al14  1  0.847154  0.038190  0.191036  1
  Al  Al15  1  0.844934  0.653597  0.187085  1
  Al  Al16  1  0.466512  0.653597  0.808664  1
  Al  Al17  1  0.376626  0.123838  0.261188  1
  Al  Al18  1  0.862650  0.123838  0.747212  1
  Al  Al19  1  0.620199  0.878781  0.258582  1
  Al  Al20  1  0.623318  0.364135  0.740819  1
  Al  Al21  1  0.624880  0.876364  0.741198  1
  Al  Al22  1  0.135165  0.876364  0.251484  1
  Ir  Ir23  1  0.498511  0.499929  0.498639  1
  Ir  Ir24  1  0.001291  0.499929  0.001419  1
  Ir  Ir25  1  0.000160  0.999659  0.999499  1
  Ir  Ir26  1  0.498240  0.998591  0.500351  1
  Pt  Pt27  1  0.998903  0.998603  0.498659  1
  Pt  Pt28  1  0.499944  0.998603  0.999700  1
  Pt  Pt29  1  0.499128  0.500071  0.000943  1
