# generated using pymatgen
data_DyTh7(Si4Mo3)4
_symmetry_space_group_name_H-M   'P 1'
_cell_length_a   6.99704247
_cell_length_b   7.06523297
_cell_length_c   13.15595585
_cell_angle_alpha   90.00312711
_cell_angle_beta   89.90527259
_cell_angle_gamma   89.84950574
_symmetry_Int_Tables_number   1
_chemical_formula_structural   DyTh7(Si4Mo3)4
_chemical_formula_sum   'Dy1 Th7 Si16 Mo12'
_cell_volume   650.37121585
_cell_formula_units_Z   1
loop_
 _symmetry_equiv_pos_site_id
 _symmetry_equiv_pos_as_xyz
  1  'x, y, z'
loop_
 _atom_site_type_symbol
 _atom_site_label
 _atom_site_symmetry_multiplicity
 _atom_site_fract_x
 _atom_site_fract_y
 _atom_site_fract_z
 _atom_site_occupancy
  Dy  Dy0  1  0.993887  0.167229  0.095323  1
  Th  Th1  1  0.491442  0.338273  0.095778  1
  Th  Th2  1  0.992024  0.161693  0.404948  1
  Th  Th3  1  0.508679  0.663820  0.595561  1
  Th  Th4  1  0.006136  0.834546  0.905519  1
  Th  Th5  1  0.507795  0.663403  0.906628  1
  Th  Th6  1  0.009426  0.837375  0.594887  1
  Th  Th7  1  0.490357  0.334823  0.402708  1
  Si  Si8  1  0.655779  0.049541  0.548557  1
  Si  Si9  1  0.152817  0.447727  0.953386  1
  Si  Si10  1  0.338464  0.954548  0.049506  1
  Si  Si11  1  0.842290  0.547991  0.451501  1
  Si  Si12  1  0.348319  0.947286  0.449201  1
  Si  Si13  1  0.846863  0.543553  0.049213  1
  Si  Si14  1  0.657109  0.049025  0.954270  1
  Si  Si15  1  0.155630  0.450870  0.548114  1
  Si  Si16  1  0.539049  0.351016  0.750526  1
  Si  Si17  1  0.039089  0.147637  0.751230  1
  Si  Si18  1  0.460885  0.652109  0.252735  1
  Si  Si19  1  0.963081  0.858237  0.245508  1
  Si  Si20  1  0.815522  0.615018  0.750501  1
  Si  Si21  1  0.314115  0.884240  0.751128  1
  Si  Si22  1  0.179997  0.381101  0.248144  1
  Si  Si23  1  0.691846  0.117523  0.246193  1
  Mo  Mo24  1  0.831964  0.335751  0.625636  1
  Mo  Mo25  1  0.333048  0.163788  0.875981  1
  Mo  Mo26  1  0.167148  0.662568  0.125133  1
  Mo  Mo27  1  0.678899  0.840375  0.372913  1
  Mo  Mo28  1  0.160910  0.661976  0.372691  1
  Mo  Mo29  1  0.663405  0.834672  0.123998  1
  Mo  Mo30  1  0.830883  0.337026  0.875060  1
  Mo  Mo31  1  0.332045  0.161956  0.625754  1
  Mo  Mo32  1  0.670532  0.996953  0.751690  1
  Mo  Mo33  1  0.171972  0.501095  0.750275  1
  Mo  Mo34  1  0.330887  0.004511  0.249618  1
  Mo  Mo35  1  0.827704  0.500744  0.250185  1
