# generated using pymatgen
data_LaPr3(IrI)2
_symmetry_space_group_name_H-M   'P 1'
_cell_length_a   4.24771600
_cell_length_b   4.24771603
_cell_length_c   16.37286700
_cell_angle_alpha   90.00000000
_cell_angle_beta   90.00000000
_cell_angle_gamma   119.99999976
_symmetry_Int_Tables_number   1
_chemical_formula_structural   LaPr3(IrI)2
_chemical_formula_sum   'La1 Pr3 Ir2 I2'
_cell_volume   255.83874418
_cell_formula_units_Z   1
loop_
 _symmetry_equiv_pos_site_id
 _symmetry_equiv_pos_as_xyz
  1  'x, y, z'
loop_
 _atom_site_type_symbol
 _atom_site_label
 _atom_site_symmetry_multiplicity
 _atom_site_fract_x
 _atom_site_fract_y
 _atom_site_fract_z
 _atom_site_occupancy
  La  La0  1  0.333333  0.666667  0.092161  1
  Pr  Pr1  1  0.666667  0.333333  0.592613  1
  Pr  Pr2  1  0.666667  0.333333  0.906051  1
  Pr  Pr3  1  0.333333  0.666667  0.407495  1
  Ir  Ir4  1  0.000000  0.000000  0.000867  1
  Ir  Ir5  1  0.000000  0.000000  0.500106  1
  I  I6  1  0.666667  0.333333  0.250619  1
  I  I7  1  0.333333  0.666667  0.750090  1
