# generated using pymatgen
data_Sr7Ca3Al(InSb4)3
_symmetry_space_group_name_H-M   'P 1'
_cell_length_a   4.70509900
_cell_length_b   12.57266918
_cell_length_c   14.60880617
_cell_angle_alpha   89.90833442
_cell_angle_beta   90.00000000
_cell_angle_gamma   90.00000000
_symmetry_Int_Tables_number   1
_chemical_formula_structural   Sr7Ca3Al(InSb4)3
_chemical_formula_sum   'Sr7 Ca3 Al1 In3 Sb12'
_cell_volume   864.19236511
_cell_formula_units_Z   1
loop_
 _symmetry_equiv_pos_site_id
 _symmetry_equiv_pos_as_xyz
  1  'x, y, z'
loop_
 _atom_site_type_symbol
 _atom_site_label
 _atom_site_symmetry_multiplicity
 _atom_site_fract_x
 _atom_site_fract_y
 _atom_site_fract_z
 _atom_site_occupancy
  Sr  Sr0  1  0.500000  0.175053  0.014832  1
  Sr  Sr1  1  0.500000  0.412326  0.249067  1
  Sr  Sr2  1  0.500000  0.827295  0.979043  1
  Sr  Sr3  1  0.500000  0.326089  0.525474  1
  Sr  Sr4  1  0.500000  0.589570  0.751853  1
  Sr  Sr5  1  0.500000  0.912838  0.251031  1
  Sr  Sr6  1  0.500000  0.673334  0.482609  1
  Ca  Ca7  1  0.500000  0.088839  0.749012  1
  Ca  Ca8  1  0.500000  0.002411  0.502552  1
  Ca  Ca9  1  0.500000  0.496480  0.997361  1
  Al  Al10  1  0.000000  0.325087  0.712763  1
  In  In11  1  0.000000  0.171162  0.215007  1
  In  In12  1  0.000000  0.672110  0.285197  1
  In  In13  1  0.000000  0.829215  0.785256  1
  Sb  Sb14  1  0.000000  0.646926  0.910129  1
  Sb  Sb15  1  0.500000  0.662568  0.169582  1
  Sb  Sb16  1  0.000000  0.029602  0.897825  1
  Sb  Sb17  1  0.000000  0.473963  0.405775  1
  Sb  Sb18  1  0.500000  0.334084  0.816035  1
  Sb  Sb19  1  0.500000  0.163054  0.330493  1
  Sb  Sb20  1  0.000000  0.352425  0.090178  1
  Sb  Sb21  1  0.000000  0.148592  0.603917  1
  Sb  Sb22  1  0.000000  0.976368  0.092225  1
  Sb  Sb23  1  0.500000  0.841592  0.671974  1
  Sb  Sb24  1  0.000000  0.515923  0.600567  1
  Sb  Sb25  1  0.000000  0.853092  0.410243  1
