# generated using pymatgen
data_YbHgPdPtO7
_symmetry_space_group_name_H-M   'P 1'
_cell_length_a   7.21303528
_cell_length_b   7.22523975
_cell_length_c   7.22524000
_cell_angle_alpha   60.01834724
_cell_angle_beta   60.05587644
_cell_angle_gamma   60.05586480
_symmetry_Int_Tables_number   1
_chemical_formula_structural   YbHgPdPtO7
_chemical_formula_sum   'Yb2 Hg2 Pd2 Pt2 O14'
_cell_volume   266.52264989
_cell_formula_units_Z   2
loop_
 _symmetry_equiv_pos_site_id
 _symmetry_equiv_pos_as_xyz
  1  'x, y, z'
loop_
 _atom_site_type_symbol
 _atom_site_label
 _atom_site_symmetry_multiplicity
 _atom_site_fract_x
 _atom_site_fract_y
 _atom_site_fract_z
 _atom_site_occupancy
  Yb  Yb0  1  0.625000  0.625000  0.125000  1
  Yb  Yb1  1  0.625000  0.125000  0.625000  1
  Hg  Hg2  1  0.625000  0.625000  0.625000  1
  Hg  Hg3  1  0.125000  0.625000  0.625000  1
  Pd  Pd4  1  0.125000  0.625000  0.125000  1
  Pd  Pd5  1  0.125000  0.125000  0.625000  1
  Pt  Pt6  1  0.625000  0.125000  0.125000  1
  Pt  Pt7  1  0.125000  0.125000  0.125000  1
  O  O8  1  0.043630  0.456370  0.456370  1
  O  O9  1  0.791189  0.796175  0.194251  1
  O  O10  1  0.789172  0.210828  0.210828  1
  O  O11  1  0.766537  0.733463  0.733463  1
  O  O12  1  0.031616  0.453825  0.055749  1
  O  O13  1  0.458811  0.055749  0.453825  1
  O  O14  1  0.031616  0.055749  0.453825  1
  O  O15  1  0.483463  0.516537  0.516537  1
  O  O16  1  0.218384  0.194251  0.796175  1
  O  O17  1  0.218384  0.796175  0.194251  1
  O  O18  1  0.791189  0.194251  0.796175  1
  O  O19  1  0.460828  0.039172  0.039172  1
  O  O20  1  0.458811  0.453825  0.055749  1
  O  O21  1  0.206370  0.793630  0.793630  1
