# generated using pymatgen
data_TbY2Th(CoB10)2
_symmetry_space_group_name_H-M   'P 1'
_cell_length_a   4.15230300
_cell_length_b   5.56800712
_cell_length_c   11.11366603
_cell_angle_alpha   90.10812789
_cell_angle_beta   90.00000000
_cell_angle_gamma   90.00000000
_symmetry_Int_Tables_number   1
_chemical_formula_structural   TbY2Th(CoB10)2
_chemical_formula_sum   'Tb1 Y2 Th1 Co2 B20'
_cell_volume   256.94808625
_cell_formula_units_Z   1
loop_
 _symmetry_equiv_pos_site_id
 _symmetry_equiv_pos_as_xyz
  1  'x, y, z'
loop_
 _atom_site_type_symbol
 _atom_site_label
 _atom_site_symmetry_multiplicity
 _atom_site_fract_x
 _atom_site_fract_y
 _atom_site_fract_z
 _atom_site_occupancy
  Tb  Tb0  1  0.500000  0.802627  0.637000  1
  Y  Y1  1  0.500000  0.301081  0.866413  1
  Y  Y2  1  0.500000  0.700032  0.130509  1
  Th  Th3  1  0.500000  0.197602  0.365905  1
  Co  Co4  1  0.000000  0.497966  0.500013  1
  Co  Co5  1  0.000000  0.999343  0.999925  1
  B  B6  1  0.000000  0.125737  0.541744  1
  B  B7  1  0.000000  0.870625  0.461288  1
  B  B8  1  0.000000  0.627350  0.959458  1
  B  B9  1  0.000000  0.372549  0.038778  1
  B  B10  1  0.000000  0.157720  0.699614  1
  B  B11  1  0.000000  0.845747  0.302702  1
  B  B12  1  0.299965  0.201427  0.111671  1
  B  B13  1  0.300152  0.798339  0.886736  1
  B  B14  1  0.700047  0.699460  0.386256  1
  B  B15  1  0.699785  0.297753  0.614781  1
  B  B16  1  0.699848  0.798339  0.886736  1
  B  B17  1  0.700035  0.201427  0.111671  1
  B  B18  1  0.300215  0.297753  0.614781  1
  B  B19  1  0.299953  0.699460  0.386256  1
  B  B20  1  0.000000  0.032306  0.186363  1
  B  B21  1  0.000000  0.969718  0.814401  1
  B  B22  1  0.000000  0.533078  0.312606  1
  B  B23  1  0.000000  0.470043  0.686250  1
  B  B24  1  0.000000  0.344370  0.196382  1
  B  B25  1  0.000000  0.658146  0.801763  1
