# generated using pymatgen
data_Hf3Al(ZnCu3)2
_symmetry_space_group_name_H-M   'P 1'
_cell_length_a   4.38032700
_cell_length_b   6.15245300
_cell_length_c   13.21214600
_cell_angle_alpha   90.00000000
_cell_angle_beta   89.99999566
_cell_angle_gamma   90.00000000
_symmetry_Int_Tables_number   1
_chemical_formula_structural   Hf3Al(ZnCu3)2
_chemical_formula_sum   'Hf6 Al2 Zn4 Cu12'
_cell_volume   356.06411083
_cell_formula_units_Z   2
loop_
 _symmetry_equiv_pos_site_id
 _symmetry_equiv_pos_as_xyz
  1  'x, y, z'
loop_
 _atom_site_type_symbol
 _atom_site_label
 _atom_site_symmetry_multiplicity
 _atom_site_fract_x
 _atom_site_fract_y
 _atom_site_fract_z
 _atom_site_occupancy
  Hf  Hf0  1  0.999998  0.000000  0.999525  1
  Hf  Hf1  1  0.500225  0.500001  0.167120  1
  Hf  Hf2  1  0.000221  0.000000  0.333733  1
  Hf  Hf3  1  0.500001  0.500001  0.499994  1
  Hf  Hf4  1  0.999766  0.000000  0.666650  1
  Hf  Hf5  1  0.499773  0.500001  0.832987  1
  Al  Al6  1  0.999998  0.500001  0.999749  1
  Al  Al7  1  0.500082  0.000000  0.166908  1
  Zn  Zn8  1  0.000055  0.500001  0.333511  1
  Zn  Zn9  1  0.500000  0.000000  0.500093  1
  Zn  Zn10  1  0.999943  0.500001  0.666582  1
  Zn  Zn11  1  0.499944  0.000000  0.833140  1
  Cu  Cu12  1  0.499999  0.250187  0.000128  1
  Cu  Cu13  1  0.499999  0.749813  0.000128  1
  Cu  Cu14  1  0.000239  0.249700  0.166590  1
  Cu  Cu15  1  0.000239  0.750298  0.166590  1
  Cu  Cu16  1  0.500241  0.249282  0.333142  1
  Cu  Cu17  1  0.500241  0.750720  0.333142  1
  Cu  Cu18  1  0.000000  0.250234  0.500113  1
  Cu  Cu19  1  0.000000  0.749765  0.500113  1
  Cu  Cu20  1  0.499758  0.249884  0.666604  1
  Cu  Cu21  1  0.499758  0.750118  0.666604  1
  Cu  Cu22  1  0.999759  0.250716  0.833427  1
  Cu  Cu23  1  0.999759  0.749282  0.833427  1
