# generated using pymatgen
data_Yb3Mn3(AsO4)4
_symmetry_space_group_name_H-M   'P 1'
_cell_length_a   5.11800500
_cell_length_b   9.04922968
_cell_length_c   17.22111800
_cell_angle_alpha   63.00349120
_cell_angle_beta   90.00000000
_cell_angle_gamma   90.00000000
_symmetry_Int_Tables_number   1
_chemical_formula_structural   Yb3Mn3(AsO4)4
_chemical_formula_sum   'Yb6 Mn6 As8 O32'
_cell_volume   710.67007146
_cell_formula_units_Z   2
loop_
 _symmetry_equiv_pos_site_id
 _symmetry_equiv_pos_as_xyz
  1  'x, y, z'
loop_
 _atom_site_type_symbol
 _atom_site_label
 _atom_site_symmetry_multiplicity
 _atom_site_fract_x
 _atom_site_fract_y
 _atom_site_fract_z
 _atom_site_occupancy
  Yb  Yb0  1  0.542016  0.312551  0.228610  1
  Yb  Yb1  1  0.042016  0.687449  0.271390  1
  Yb  Yb2  1  0.457984  0.687449  0.771390  1
  Yb  Yb3  1  0.957984  0.312551  0.728610  1
  Yb  Yb4  1  0.500000  0.000000  0.500000  1
  Yb  Yb5  1  0.000000  0.000000  0.000000  1
  Mn  Mn6  1  0.476062  0.191769  0.622309  1
  Mn  Mn7  1  0.523938  0.808231  0.377691  1
  Mn  Mn8  1  0.976062  0.808231  0.877691  1
  Mn  Mn9  1  0.023938  0.191769  0.122309  1
  Mn  Mn10  1  0.000000  0.500000  0.500000  1
  Mn  Mn11  1  0.500000  0.500000  0.000000  1
  As  As12  1  0.020776  0.041506  0.346460  1
  As  As13  1  0.485124  0.437814  0.396261  1
  As  As14  1  0.985124  0.562186  0.103739  1
  As  As15  1  0.014876  0.437814  0.896261  1
  As  As16  1  0.979224  0.958494  0.653540  1
  As  As17  1  0.514876  0.562186  0.603739  1
  As  As18  1  0.479224  0.041506  0.846460  1
  As  As19  1  0.520776  0.958494  0.153540  1
  O  O20  1  0.450887  0.811045  0.257749  1
  O  O21  1  0.932877  0.744170  0.011914  1
  O  O22  1  0.363155  0.440677  0.304392  1
  O  O23  1  0.436630  0.152730  0.144083  1
  O  O24  1  0.636845  0.559323  0.695608  1
  O  O25  1  0.049113  0.811045  0.757749  1
  O  O26  1  0.863155  0.559323  0.195608  1
  O  O27  1  0.697994  0.505380  0.890387  1
  O  O28  1  0.641941  0.096387  0.914214  1
  O  O29  1  0.549113  0.188955  0.742251  1
  O  O30  1  0.063370  0.152730  0.644083  1
  O  O31  1  0.302006  0.494620  0.109613  1
  O  O32  1  0.301796  0.584758  0.412146  1
  O  O33  1  0.358059  0.903613  0.085786  1
  O  O34  1  0.640626  0.957334  0.642160  1
  O  O35  1  0.140626  0.042666  0.857840  1
  O  O36  1  0.801796  0.415242  0.087854  1
  O  O37  1  0.136845  0.440677  0.804392  1
  O  O38  1  0.141941  0.903613  0.585786  1
  O  O39  1  0.197994  0.494620  0.609613  1
  O  O40  1  0.859374  0.957334  0.142160  1
  O  O41  1  0.359374  0.042666  0.357840  1
  O  O42  1  0.067123  0.255830  0.988086  1
  O  O43  1  0.432877  0.255830  0.488086  1
  O  O44  1  0.698204  0.415242  0.587854  1
  O  O45  1  0.950887  0.188955  0.242251  1
  O  O46  1  0.563370  0.847270  0.855917  1
  O  O47  1  0.858059  0.096387  0.414214  1
  O  O48  1  0.567123  0.744170  0.511914  1
  O  O49  1  0.802006  0.505380  0.390387  1
  O  O50  1  0.198204  0.584758  0.912146  1
  O  O51  1  0.936630  0.847270  0.355917  1
