# generated using pymatgen
data_La4ErTl3
_symmetry_space_group_name_H-M   'P 1'
_cell_length_a   9.44584239
_cell_length_b   9.44607684
_cell_length_c   9.44584224
_cell_angle_alpha   97.01301850
_cell_angle_beta   97.00867829
_cell_angle_gamma   139.10088344
_symmetry_Int_Tables_number   1
_chemical_formula_structural   La4ErTl3
_chemical_formula_sum   'La8 Er2 Tl6'
_cell_volume   517.04737863
_cell_formula_units_Z   2
loop_
 _symmetry_equiv_pos_site_id
 _symmetry_equiv_pos_as_xyz
  1  'x, y, z'
loop_
 _atom_site_type_symbol
 _atom_site_label
 _atom_site_symmetry_multiplicity
 _atom_site_fract_x
 _atom_site_fract_y
 _atom_site_fract_z
 _atom_site_occupancy
  La  La0  1  0.908790  0.220583  0.129387  1
  La  La1  1  0.220565  0.091183  0.311797  1
  La  La2  1  0.779435  0.908817  0.688203  1
  La  La3  1  0.091210  0.779417  0.870613  1
  La  La4  1  0.720614  0.408817  0.129382  1
  La  La5  1  0.279386  0.591183  0.870618  1
  La  La6  1  0.591196  0.720583  0.311792  1
  La  La7  1  0.408804  0.279417  0.688208  1
  Er  Er8  1  0.749982  0.250000  0.499982  1
  Er  Er9  1  0.250018  0.750000  0.500018  1
  Tl  Tl10  1  0.749999  0.750000  0.999999  1
  Tl  Tl11  1  0.250001  0.250000  0.000001  1
  Tl  Tl12  1  0.846994  0.653029  0.499987  1
  Tl  Tl13  1  0.653042  0.153029  0.806035  1
  Tl  Tl14  1  0.346958  0.846971  0.193965  1
  Tl  Tl15  1  0.153006  0.346971  0.500013  1
