# generated using pymatgen
data_Er10OsRu3
_symmetry_space_group_name_H-M   'P 1'
_cell_length_a   6.27344807
_cell_length_b   7.26460462
_cell_length_c   8.37828420
_cell_angle_alpha   96.78141355
_cell_angle_beta   112.03220046
_cell_angle_gamma   90.05480952
_symmetry_Int_Tables_number   1
_chemical_formula_structural   Er10OsRu3
_chemical_formula_sum   'Er10 Os1 Ru3'
_cell_volume   351.04762651
_cell_formula_units_Z   1
loop_
 _symmetry_equiv_pos_site_id
 _symmetry_equiv_pos_as_xyz
  1  'x, y, z'
loop_
 _atom_site_type_symbol
 _atom_site_label
 _atom_site_symmetry_multiplicity
 _atom_site_fract_x
 _atom_site_fract_y
 _atom_site_fract_z
 _atom_site_occupancy
  Er  Er0  1  0.791791  0.583595  0.813640  1
  Er  Er1  1  0.976677  0.915706  0.184871  1
  Er  Er2  1  0.208219  0.415576  0.186245  1
  Er  Er3  1  0.023057  0.084322  0.813934  1
  Er  Er4  1  0.206247  0.685067  0.565474  1
  Er  Er5  1  0.640272  0.815697  0.436094  1
  Er  Er6  1  0.794479  0.315192  0.434848  1
  Er  Er7  1  0.359116  0.184748  0.564639  1
  Er  Er8  1  0.419014  0.750043  0.999333  1
  Er  Er9  1  0.581194  0.250044  0.000024  1
  Os  Os10  1  0.602039  0.923639  0.780237  1
  Ru  Ru11  1  0.823320  0.576373  0.220639  1
  Ru  Ru12  1  0.397540  0.076532  0.220372  1
  Ru  Ru13  1  0.177034  0.423466  0.779651  1
