# generated using pymatgen
data_SrCrAgF6
_symmetry_space_group_name_H-M   'P 1'
_cell_length_a   9.55167800
_cell_length_b   5.77293324
_cell_length_c   9.90798785
_cell_angle_alpha   86.37996786
_cell_angle_beta   90.00000000
_cell_angle_gamma   90.00000000
_symmetry_Int_Tables_number   1
_chemical_formula_structural   SrCrAgF6
_chemical_formula_sum   'Sr4 Cr4 Ag4 F24'
_cell_volume   545.24823259
_cell_formula_units_Z   4
loop_
 _symmetry_equiv_pos_site_id
 _symmetry_equiv_pos_as_xyz
  1  'x, y, z'
loop_
 _atom_site_type_symbol
 _atom_site_label
 _atom_site_symmetry_multiplicity
 _atom_site_fract_x
 _atom_site_fract_y
 _atom_site_fract_z
 _atom_site_occupancy
  Sr  Sr0  1  0.328155  0.762703  0.491577  1
  Sr  Sr1  1  0.828155  0.237297  0.008423  1
  Sr  Sr2  1  0.671845  0.237297  0.508423  1
  Sr  Sr3  1  0.171845  0.762703  0.991577  1
  Cr  Cr4  1  0.918999  0.768307  0.263796  1
  Cr  Cr5  1  0.418999  0.231693  0.236204  1
  Cr  Cr6  1  0.081001  0.231693  0.736204  1
  Cr  Cr7  1  0.581001  0.768307  0.763796  1
  Ag  Ag8  1  0.047750  0.278118  0.394981  1
  Ag  Ag9  1  0.547750  0.721882  0.105019  1
  Ag  Ag10  1  0.952250  0.721882  0.605019  1
  Ag  Ag11  1  0.452250  0.278118  0.894981  1
  F  F12  1  0.024007  0.996381  0.147621  1
  F  F13  1  0.524007  0.003619  0.352379  1
  F  F14  1  0.975993  0.003619  0.852379  1
  F  F15  1  0.475993  0.996381  0.647621  1
  F  F16  1  0.686121  0.531060  0.870551  1
  F  F17  1  0.186121  0.468940  0.629449  1
  F  F18  1  0.313879  0.468940  0.129449  1
  F  F19  1  0.813879  0.531060  0.370551  1
  F  F20  1  0.908758  0.306003  0.631196  1
  F  F21  1  0.408758  0.693997  0.868804  1
  F  F22  1  0.091242  0.693997  0.368804  1
  F  F23  1  0.591242  0.306003  0.131196  1
  F  F24  1  0.529834  0.538071  0.635053  1
  F  F25  1  0.029834  0.461929  0.864947  1
  F  F26  1  0.470166  0.461929  0.364947  1
  F  F27  1  0.970166  0.538071  0.135053  1
  F  F28  1  0.234824  0.129167  0.850671  1
  F  F29  1  0.734824  0.870833  0.649329  1
  F  F30  1  0.765176  0.870833  0.149329  1
  F  F31  1  0.265176  0.129167  0.350671  1
  F  F32  1  0.636500  0.000484  0.889730  1
  F  F33  1  0.136500  0.999516  0.610270  1
  F  F34  1  0.363500  0.999516  0.110270  1
  F  F35  1  0.863500  0.000484  0.389730  1
