# generated using pymatgen
data_BeV8SiSb4
_symmetry_space_group_name_H-M   'P 1'
_cell_length_a   7.36086426
_cell_length_b   7.36086546
_cell_length_c   7.36086518
_cell_angle_alpha   95.53587935
_cell_angle_beta   95.53588412
_cell_angle_gamma   143.80983309
_symmetry_Int_Tables_number   1
_chemical_formula_structural   BeV8SiSb4
_chemical_formula_sum   'Be1 V8 Si1 Sb4'
_cell_volume   223.84831323
_cell_formula_units_Z   1
loop_
 _symmetry_equiv_pos_site_id
 _symmetry_equiv_pos_as_xyz
  1  'x, y, z'
loop_
 _atom_site_type_symbol
 _atom_site_label
 _atom_site_symmetry_multiplicity
 _atom_site_fract_x
 _atom_site_fract_y
 _atom_site_fract_z
 _atom_site_occupancy
  Be  Be0  1  0.250000  0.250000  0.000000  1
  V  V1  1  0.924769  0.808478  0.717597  1
  V  V2  1  0.808478  0.090881  0.883709  1
  V  V3  1  0.409119  0.691522  0.116291  1
  V  V4  1  0.575231  0.292828  0.883709  1
  V  V5  1  0.691522  0.575231  0.282403  1
  V  V6  1  0.292828  0.409119  0.717597  1
  V  V7  1  0.207172  0.924769  0.116291  1
  V  V8  1  0.090881  0.207172  0.282403  1
  Si  Si9  1  0.750000  0.750000  0.000000  1
  Sb  Sb10  1  0.641104  0.858896  0.500000  1
  Sb  Sb11  1  0.141104  0.641104  0.782208  1
  Sb  Sb12  1  0.858896  0.358896  0.217791  1
  Sb  Sb13  1  0.358896  0.141104  0.500000  1
