# generated using pymatgen
data_Dy2Al5Ga4Ir3
_symmetry_space_group_name_H-M   'P 1'
_cell_length_a   7.54549611
_cell_length_b   7.54321468
_cell_length_c   9.55188460
_cell_angle_alpha   90.08562118
_cell_angle_beta   89.87901009
_cell_angle_gamma   119.63183965
_symmetry_Int_Tables_number   1
_chemical_formula_structural   Dy2Al5Ga4Ir3
_chemical_formula_sum   'Dy4 Al10 Ga8 Ir6'
_cell_volume   472.56567347
_cell_formula_units_Z   2
loop_
 _symmetry_equiv_pos_site_id
 _symmetry_equiv_pos_as_xyz
  1  'x, y, z'
loop_
 _atom_site_type_symbol
 _atom_site_label
 _atom_site_symmetry_multiplicity
 _atom_site_fract_x
 _atom_site_fract_y
 _atom_site_fract_z
 _atom_site_occupancy
  Dy  Dy0  1  0.996202  0.666937  0.745872  1
  Dy  Dy1  1  0.003798  0.333063  0.254128  1
  Dy  Dy2  1  0.672123  0.998387  0.749091  1
  Dy  Dy3  1  0.327877  0.001613  0.250909  1
  Al  Al4  1  0.997871  0.665366  0.070737  1
  Al  Al5  1  0.334473  0.000763  0.927727  1
  Al  Al6  1  0.002129  0.334634  0.929263  1
  Al  Al7  1  0.665527  0.999237  0.072273  1
  Al  Al8  1  0.664333  0.997136  0.426628  1
  Al  Al9  1  0.335667  0.002864  0.573372  1
  Al  Al10  1  0.333445  0.333404  0.055228  1
  Al  Al11  1  0.666555  0.666596  0.944772  1
  Al  Al12  1  0.666995  0.666184  0.554191  1
  Al  Al13  1  0.333005  0.333816  0.445809  1
  Ga  Ga14  1  0.129688  0.126406  0.750594  1
  Ga  Ga15  1  0.870312  0.873594  0.249406  1
  Ga  Ga16  1  0.999585  0.333758  0.579466  1
  Ga  Ga17  1  0.000415  0.666242  0.420534  1
  Ga  Ga18  1  0.340930  0.548665  0.750835  1
  Ga  Ga19  1  0.659070  0.451335  0.249165  1
  Ga  Ga20  1  0.546445  0.339748  0.750179  1
  Ga  Ga21  1  0.453555  0.660252  0.249821  1
  Ir  Ir22  1  0.667255  0.326062  0.499236  1
  Ir  Ir23  1  0.332745  0.673938  0.500764  1
  Ir  Ir24  1  0.328230  0.671691  0.000669  1
  Ir  Ir25  1  0.671770  0.328309  0.999331  1
  Ir  Ir26  1  0.000000  0.000000  0.500000  1
  Ir  Ir27  1  0.000000  0.000000  0.000000  1
