# generated using pymatgen
data_Rb2Fe(PO3)4
_symmetry_space_group_name_H-M   'P 1'
_cell_length_a   8.67904441
_cell_length_b   8.67904386
_cell_length_c   7.92890718
_cell_angle_alpha   81.59125759
_cell_angle_beta   81.59125859
_cell_angle_gamma   97.22501555
_symmetry_Int_Tables_number   1
_chemical_formula_structural   Rb2Fe(PO3)4
_chemical_formula_sum   'Rb4 Fe2 P8 O24'
_cell_volume   577.83416776
_cell_formula_units_Z   2
loop_
 _symmetry_equiv_pos_site_id
 _symmetry_equiv_pos_as_xyz
  1  'x, y, z'
loop_
 _atom_site_type_symbol
 _atom_site_label
 _atom_site_symmetry_multiplicity
 _atom_site_fract_x
 _atom_site_fract_y
 _atom_site_fract_z
 _atom_site_occupancy
  Rb  Rb0  1  0.486935  0.239679  0.082228  1
  Rb  Rb1  1  0.239679  0.486935  0.582228  1
  Rb  Rb2  1  0.533037  0.791765  0.917572  1
  Rb  Rb3  1  0.791765  0.533037  0.417572  1
  Fe  Fe4  1  0.847838  0.151754  0.750635  1
  Fe  Fe5  1  0.151754  0.847838  0.250635  1
  P  P6  1  0.184337  0.027863  0.833077  1
  P  P7  1  0.027863  0.184337  0.333077  1
  P  P8  1  0.494137  0.166009  0.577514  1
  P  P9  1  0.166009  0.494137  0.077514  1
  P  P10  1  0.494730  0.871578  0.416157  1
  P  P11  1  0.871578  0.494730  0.916157  1
  P  P12  1  0.812092  0.968290  0.180686  1
  P  P13  1  0.968290  0.812092  0.680686  1
  O  O14  1  0.504958  0.330215  0.483407  1
  O  O15  1  0.330215  0.504958  0.983407  1
  O  O16  1  0.601492  0.127187  0.705616  1
  O  O17  1  0.127187  0.601492  0.205616  1
  O  O18  1  0.313034  0.110877  0.667351  1
  O  O19  1  0.110877  0.313034  0.167351  1
  O  O20  1  0.508442  0.057295  0.426786  1
  O  O21  1  0.057295  0.508442  0.926786  1
  O  O22  1  0.386752  0.841835  0.286764  1
  O  O23  1  0.841835  0.386752  0.786764  1
  O  O24  1  0.463995  0.767346  0.587624  1
  O  O25  1  0.767346  0.463995  0.087624  1
  O  O26  1  0.673497  0.861656  0.326519  1
  O  O27  1  0.861656  0.673497  0.826519  1
  O  O28  1  0.740929  0.030037  0.026891  1
  O  O29  1  0.030037  0.740929  0.526891  1
  O  O30  1  0.937025  0.863595  0.163288  1
  O  O31  1  0.863595  0.937025  0.663288  1
  O  O32  1  0.866337  0.115745  0.271399  1
  O  O33  1  0.115745  0.866337  0.771399  1
  O  O34  1  0.265118  0.979031  0.983336  1
  O  O35  1  0.979031  0.265118  0.483336  1
  O  O36  1  0.063826  0.136729  0.847549  1
  O  O37  1  0.136729  0.063826  0.347549  1
