# generated using pymatgen
data_Ti12Be8ZnCu3N4
_symmetry_space_group_name_H-M   'P 1'
_cell_length_a   7.75167434
_cell_length_b   7.75167469
_cell_length_c   7.74816140
_cell_angle_alpha   59.98500703
_cell_angle_beta   59.98500545
_cell_angle_gamma   60.00000000
_symmetry_Int_Tables_number   1
_chemical_formula_structural   Ti12Be8ZnCu3N4
_chemical_formula_sum   'Ti12 Be8 Zn1 Cu3 N4'
_cell_volume   329.13665957
_cell_formula_units_Z   1
loop_
 _symmetry_equiv_pos_site_id
 _symmetry_equiv_pos_as_xyz
  1  'x, y, z'
loop_
 _atom_site_type_symbol
 _atom_site_label
 _atom_site_symmetry_multiplicity
 _atom_site_fract_x
 _atom_site_fract_y
 _atom_site_fract_z
 _atom_site_occupancy
  Ti  Ti0  1  0.810305  0.810305  0.192417  1
  Ti  Ti1  1  0.190798  0.190798  0.809027  1
  Ti  Ti2  1  0.809376  0.190798  0.809027  1
  Ti  Ti3  1  0.186973  0.810305  0.192417  1
  Ti  Ti4  1  0.190798  0.809376  0.809027  1
  Ti  Ti5  1  0.810305  0.186973  0.192417  1
  Ti  Ti6  1  0.439695  0.439695  0.057583  1
  Ti  Ti7  1  0.059202  0.059202  0.440973  1
  Ti  Ti8  1  0.440624  0.059202  0.440973  1
  Ti  Ti9  1  0.063027  0.439695  0.057583  1
  Ti  Ti10  1  0.059202  0.440624  0.440973  1
  Ti  Ti11  1  0.439695  0.063027  0.057583  1
  Be  Be12  1  0.728469  0.421286  0.428959  1
  Be  Be13  1  0.421286  0.728469  0.428959  1
  Be  Be14  1  0.424380  0.424380  0.726861  1
  Be  Be15  1  0.421286  0.421286  0.428959  1
  Be  Be16  1  0.521531  0.828714  0.821041  1
  Be  Be17  1  0.828714  0.521531  0.821041  1
  Be  Be18  1  0.825620  0.825620  0.523139  1
  Be  Be19  1  0.828714  0.828714  0.821041  1
  Zn  Zn20  1  0.625000  0.625000  0.125000  1
  Cu  Cu21  1  0.125000  0.625000  0.625000  1
  Cu  Cu22  1  0.625000  0.125000  0.625000  1
  Cu  Cu23  1  0.625000  0.625000  0.625000  1
  N  N24  1  0.625000  0.125000  0.125000  1
  N  N25  1  0.125000  0.625000  0.125000  1
  N  N26  1  0.125000  0.125000  0.625000  1
  N  N27  1  0.125000  0.125000  0.125000  1
