# generated using pymatgen
data_Zr2TiCo2
_symmetry_space_group_name_H-M   'P 1'
_cell_length_a   5.25165596
_cell_length_b   5.25165605
_cell_length_c   5.25165541
_cell_angle_alpha   137.63932930
_cell_angle_beta   118.95779929
_cell_angle_gamma   77.10980596
_symmetry_Int_Tables_number   1
_chemical_formula_structural   Zr2TiCo2
_chemical_formula_sum   'Zr2 Ti1 Co2'
_cell_volume   83.13339205
_cell_formula_units_Z   1
loop_
 _symmetry_equiv_pos_site_id
 _symmetry_equiv_pos_as_xyz
  1  'x, y, z'
loop_
 _atom_site_type_symbol
 _atom_site_label
 _atom_site_symmetry_multiplicity
 _atom_site_fract_x
 _atom_site_fract_y
 _atom_site_fract_z
 _atom_site_occupancy
  Zr  Zr0  1  0.701244  0.201245  0.499999  1
  Zr  Zr1  1  0.298755  0.798755  0.499999  1
  Ti  Ti2  1  0.000000  0.000000  0.000000  1
  Co  Co3  1  0.732175  0.500000  0.232174  1
  Co  Co4  1  0.267825  0.499999  0.767824  1
