# generated using pymatgen
data_Tb4Mg4Ir3Rh
_symmetry_space_group_name_H-M   'P 1'
_cell_length_a   4.12753100
_cell_length_b   7.10782458
_cell_length_c   8.54225712
_cell_angle_alpha   90.22609214
_cell_angle_beta   90.00000000
_cell_angle_gamma   90.00000000
_symmetry_Int_Tables_number   1
_chemical_formula_structural   Tb4Mg4Ir3Rh
_chemical_formula_sum   'Tb4 Mg4 Ir3 Rh1'
_cell_volume   250.60879205
_cell_formula_units_Z   1
loop_
 _symmetry_equiv_pos_site_id
 _symmetry_equiv_pos_as_xyz
  1  'x, y, z'
loop_
 _atom_site_type_symbol
 _atom_site_label
 _atom_site_symmetry_multiplicity
 _atom_site_fract_x
 _atom_site_fract_y
 _atom_site_fract_z
 _atom_site_occupancy
  Tb  Tb0  1  0.250000  0.536570  0.176974  1
  Tb  Tb1  1  0.750000  0.457071  0.825037  1
  Tb  Tb2  1  0.250000  0.038419  0.323269  1
  Tb  Tb3  1  0.750000  0.965733  0.673861  1
  Mg  Mg4  1  0.250000  0.135268  0.939855  1
  Mg  Mg5  1  0.750000  0.864260  0.060270  1
  Mg  Mg6  1  0.250000  0.636257  0.559477  1
  Mg  Mg7  1  0.750000  0.365193  0.439301  1
  Ir  Ir8  1  0.750000  0.747890  0.371813  1
  Ir  Ir9  1  0.250000  0.254543  0.630023  1
  Ir  Ir10  1  0.750000  0.247809  0.127860  1
  Rh  Rh11  1  0.250000  0.750987  0.872260  1
