# generated using pymatgen
data_La4Dy12Cd4Ni3Ru
_symmetry_space_group_name_H-M   'P 1'
_cell_length_a   9.74047106
_cell_length_b   9.74047121
_cell_length_c   9.74047147
_cell_angle_alpha   59.36166351
_cell_angle_beta   59.36166050
_cell_angle_gamma   59.36165855
_symmetry_Int_Tables_number   1
_chemical_formula_structural   La4Dy12Cd4Ni3Ru
_chemical_formula_sum   'La4 Dy12 Cd4 Ni3 Ru1'
_cell_volume   643.97419009
_cell_formula_units_Z   1
loop_
 _symmetry_equiv_pos_site_id
 _symmetry_equiv_pos_as_xyz
  1  'x, y, z'
loop_
 _atom_site_type_symbol
 _atom_site_label
 _atom_site_symmetry_multiplicity
 _atom_site_fract_x
 _atom_site_fract_y
 _atom_site_fract_z
 _atom_site_occupancy
  La  La0  1  0.599321  0.599321  0.599321  1
  La  La1  1  0.600096  0.600096  0.201218  1
  La  La2  1  0.600096  0.201218  0.600096  1
  La  La3  1  0.201218  0.600096  0.600096  1
  Dy  Dy4  1  0.063596  0.435755  0.435755  1
  Dy  Dy5  1  0.434493  0.063950  0.063950  1
  Dy  Dy6  1  0.435755  0.063596  0.435755  1
  Dy  Dy7  1  0.063950  0.434493  0.063950  1
  Dy  Dy8  1  0.435755  0.435755  0.063596  1
  Dy  Dy9  1  0.063950  0.063950  0.434493  1
  Dy  Dy10  1  0.183736  0.817981  0.817981  1
  Dy  Dy11  1  0.812179  0.184823  0.184823  1
  Dy  Dy12  1  0.817981  0.183736  0.817981  1
  Dy  Dy13  1  0.184823  0.812179  0.184823  1
  Dy  Dy14  1  0.817981  0.817981  0.183736  1
  Dy  Dy15  1  0.184823  0.184823  0.812179  1
  Cd  Cd16  1  0.831304  0.831304  0.831304  1
  Cd  Cd17  1  0.830901  0.830901  0.502860  1
  Cd  Cd18  1  0.830901  0.502860  0.830901  1
  Cd  Cd19  1  0.502860  0.830901  0.830901  1
  Ni  Ni20  1  0.390507  0.390507  0.830826  1
  Ni  Ni21  1  0.390507  0.830826  0.390507  1
  Ni  Ni22  1  0.830826  0.390507  0.390507  1
  Ru  Ru23  1  0.392445  0.392445  0.392445  1
