# generated using pymatgen
data_Yb2CeDy(B4Os)4
_symmetry_space_group_name_H-M   'P 1'
_cell_length_a   3.57618800
_cell_length_b   5.98617980
_cell_length_c   11.57750096
_cell_angle_alpha   89.94352716
_cell_angle_beta   90.00000000
_cell_angle_gamma   90.00000000
_symmetry_Int_Tables_number   1
_chemical_formula_structural   Yb2CeDy(B4Os)4
_chemical_formula_sum   'Yb2 Ce1 Dy1 B16 Os4'
_cell_volume   247.84759753
_cell_formula_units_Z   1
loop_
 _symmetry_equiv_pos_site_id
 _symmetry_equiv_pos_as_xyz
  1  'x, y, z'
loop_
 _atom_site_type_symbol
 _atom_site_label
 _atom_site_symmetry_multiplicity
 _atom_site_fract_x
 _atom_site_fract_y
 _atom_site_fract_z
 _atom_site_occupancy
  Yb  Yb0  1  0.000000  0.370990  0.650318  1
  Yb  Yb1  1  0.000000  0.129038  0.147931  1
  Ce  Ce2  1  0.000000  0.628269  0.349452  1
  Dy  Dy3  1  0.000000  0.872120  0.850104  1
  B  B4  1  0.500000  0.787442  0.184552  1
  B  B5  1  0.500000  0.212771  0.814690  1
  B  B6  1  0.500000  0.286211  0.314726  1
  B  B7  1  0.500000  0.712596  0.686230  1
  B  B8  1  0.500000  0.863164  0.030084  1
  B  B9  1  0.500000  0.136750  0.969808  1
  B  B10  1  0.500000  0.363071  0.470186  1
  B  B11  1  0.500000  0.637176  0.531845  1
  B  B12  1  0.500000  0.889975  0.454804  1
  B  B13  1  0.500000  0.114417  0.548552  1
  B  B14  1  0.500000  0.384943  0.046208  1
  B  B15  1  0.500000  0.611275  0.953335  1
  B  B16  1  0.500000  0.974960  0.309291  1
  B  B17  1  0.500000  0.024897  0.691660  1
  B  B18  1  0.500000  0.475252  0.189721  1
  B  B19  1  0.500000  0.525118  0.808620  1
  Os  Os20  1  0.000000  0.639035  0.091538  1
  Os  Os21  1  0.000000  0.360230  0.907645  1
  Os  Os22  1  0.000000  0.140242  0.406928  1
  Os  Os23  1  0.000000  0.860059  0.591772  1
