# generated using pymatgen
data_Lu10In2Sn3Sb
_symmetry_space_group_name_H-M   'P 1'
_cell_length_a   8.76769162
_cell_length_b   8.76769203
_cell_length_c   6.42083300
_cell_angle_alpha   90.00000000
_cell_angle_beta   90.00000000
_cell_angle_gamma   119.82281867
_symmetry_Int_Tables_number   1
_chemical_formula_structural   Lu10In2Sn3Sb
_chemical_formula_sum   'Lu10 In2 Sn3 Sb1'
_cell_volume   428.21825937
_cell_formula_units_Z   1
loop_
 _symmetry_equiv_pos_site_id
 _symmetry_equiv_pos_as_xyz
  1  'x, y, z'
loop_
 _atom_site_type_symbol
 _atom_site_label
 _atom_site_symmetry_multiplicity
 _atom_site_fract_x
 _atom_site_fract_y
 _atom_site_fract_z
 _atom_site_occupancy
  Lu  Lu0  1  0.668548  0.333011  0.999144  1
  Lu  Lu1  1  0.333011  0.668548  0.999144  1
  Lu  Lu2  1  0.333011  0.668548  0.500856  1
  Lu  Lu3  1  0.668548  0.333011  0.500856  1
  Lu  Lu4  1  0.764467  0.764467  0.750000  1
  Lu  Lu5  1  0.235074  0.995343  0.750000  1
  Lu  Lu6  1  0.995343  0.235074  0.750000  1
  Lu  Lu7  1  0.237128  0.237128  0.250000  1
  Lu  Lu8  1  0.763901  0.001494  0.250000  1
  Lu  Lu9  1  0.001494  0.763901  0.250000  1
  In  In10  1  0.602604  0.999902  0.750000  1
  In  In11  1  0.999902  0.602604  0.750000  1
  Sn  Sn12  1  0.604225  0.604225  0.250000  1
  Sn  Sn13  1  0.397254  0.002660  0.250000  1
  Sn  Sn14  1  0.002660  0.397254  0.250000  1
  Sb  Sb15  1  0.392829  0.392829  0.750000  1
