# generated using pymatgen
data_Nb12Zn3Au5N4
_symmetry_space_group_name_H-M   'P 1'
_cell_length_a   7.11963713
_cell_length_b   7.11963650
_cell_length_c   7.11963676
_cell_angle_alpha   90.05883878
_cell_angle_beta   90.05883774
_cell_angle_gamma   90.05883982
_symmetry_Int_Tables_number   1
_chemical_formula_structural   Nb12Zn3Au5N4
_chemical_formula_sum   'Nb12 Zn3 Au5 N4'
_cell_volume   360.88832212
_cell_formula_units_Z   1
loop_
 _symmetry_equiv_pos_site_id
 _symmetry_equiv_pos_as_xyz
  1  'x, y, z'
loop_
 _atom_site_type_symbol
 _atom_site_label
 _atom_site_symmetry_multiplicity
 _atom_site_fract_x
 _atom_site_fract_y
 _atom_site_fract_z
 _atom_site_occupancy
  Nb  Nb0  1  0.791460  0.958640  0.375689  1
  Nb  Nb1  1  0.707950  0.039435  0.875252  1
  Nb  Nb2  1  0.206409  0.461772  0.126870  1
  Nb  Nb3  1  0.293374  0.538346  0.627359  1
  Nb  Nb4  1  0.958640  0.375689  0.791460  1
  Nb  Nb5  1  0.039435  0.875252  0.707950  1
  Nb  Nb6  1  0.461772  0.126870  0.206409  1
  Nb  Nb7  1  0.538346  0.627359  0.293374  1
  Nb  Nb8  1  0.375689  0.791460  0.958640  1
  Nb  Nb9  1  0.875252  0.707950  0.039435  1
  Nb  Nb10  1  0.126870  0.206409  0.461772  1
  Nb  Nb11  1  0.627359  0.293374  0.538346  1
  Zn  Zn12  1  0.180379  0.820307  0.317358  1
  Zn  Zn13  1  0.317358  0.180379  0.820307  1
  Zn  Zn14  1  0.820307  0.317358  0.180379  1
  Au  Au15  1  0.682312  0.682312  0.682312  1
  Au  Au16  1  0.566957  0.420536  0.937615  1
  Au  Au17  1  0.420536  0.937615  0.566957  1
  Au  Au18  1  0.937615  0.566957  0.420536  1
  Au  Au19  1  0.071183  0.071183  0.071183  1
  N  N20  1  0.874556  0.124785  0.625820  1
  N  N21  1  0.625820  0.874556  0.124785  1
  N  N22  1  0.124785  0.625820  0.874556  1
  N  N23  1  0.375640  0.375640  0.375640  1
