# generated using pymatgen
data_Ba3YPd2O9
_symmetry_space_group_name_H-M   'P 1'
_cell_length_a   5.95650500
_cell_length_b   5.95650382
_cell_length_c   14.94927400
_cell_angle_alpha   90.00000000
_cell_angle_beta   90.00000000
_cell_angle_gamma   120.00001209
_symmetry_Int_Tables_number   1
_chemical_formula_structural   Ba3YPd2O9
_chemical_formula_sum   'Ba6 Y2 Pd4 O18'
_cell_volume   459.33931278
_cell_formula_units_Z   2
loop_
 _symmetry_equiv_pos_site_id
 _symmetry_equiv_pos_as_xyz
  1  'x, y, z'
loop_
 _atom_site_type_symbol
 _atom_site_label
 _atom_site_symmetry_multiplicity
 _atom_site_fract_x
 _atom_site_fract_y
 _atom_site_fract_z
 _atom_site_occupancy
  Ba  Ba0  1  0.333333  0.666667  0.589992  1
  Ba  Ba1  1  0.666667  0.333333  0.089992  1
  Ba  Ba2  1  0.666667  0.333333  0.410008  1
  Ba  Ba3  1  0.333333  0.666667  0.910008  1
  Ba  Ba4  1  0.000000  0.000000  0.750000  1
  Ba  Ba5  1  0.000000  0.000000  0.250000  1
  Y  Y6  1  0.000000  0.000000  0.000000  1
  Y  Y7  1  0.000000  0.000000  0.500000  1
  Pd  Pd8  1  0.666667  0.333333  0.659601  1
  Pd  Pd9  1  0.333333  0.666667  0.159601  1
  Pd  Pd10  1  0.666667  0.333333  0.840399  1
  Pd  Pd11  1  0.333333  0.666667  0.340399  1
  O  O12  1  0.174057  0.825943  0.085392  1
  O  O13  1  0.174057  0.348116  0.085392  1
  O  O14  1  0.651884  0.825943  0.085392  1
  O  O15  1  0.348116  0.174057  0.585392  1
  O  O16  1  0.825943  0.651884  0.914608  1
  O  O17  1  0.825943  0.174057  0.585392  1
  O  O18  1  0.825943  0.651884  0.585392  1
  O  O19  1  0.174057  0.825943  0.414608  1
  O  O20  1  0.651884  0.825943  0.414608  1
  O  O21  1  0.348116  0.174057  0.914608  1
  O  O22  1  0.825943  0.174057  0.914608  1
  O  O23  1  0.174057  0.348116  0.414608  1
  O  O24  1  0.483535  0.967069  0.250000  1
  O  O25  1  0.516465  0.483535  0.750000  1
  O  O26  1  0.967069  0.483535  0.750000  1
  O  O27  1  0.032931  0.516465  0.250000  1
  O  O28  1  0.483535  0.516465  0.250000  1
  O  O29  1  0.516465  0.032931  0.750000  1
