# generated using pymatgen
data_AcYb2(ZnPd)4
_symmetry_space_group_name_H-M   'P 1'
_cell_length_a   8.14681503
_cell_length_b   8.14681499
_cell_length_c   8.14681500
_cell_angle_alpha   149.97033806
_cell_angle_beta   126.81581600
_cell_angle_gamma   62.28906102
_symmetry_Int_Tables_number   1
_chemical_formula_structural   AcYb2(ZnPd)4
_chemical_formula_sum   'Ac1 Yb2 Zn4 Pd4'
_cell_volume   214.66896311
_cell_formula_units_Z   1
loop_
 _symmetry_equiv_pos_site_id
 _symmetry_equiv_pos_as_xyz
  1  'x, y, z'
loop_
 _atom_site_type_symbol
 _atom_site_label
 _atom_site_symmetry_multiplicity
 _atom_site_fract_x
 _atom_site_fract_y
 _atom_site_fract_z
 _atom_site_occupancy
  Ac  Ac0  1  0.500000  0.000000  0.500000  1
  Yb  Yb1  1  0.872122  0.872122  0.000000  1
  Yb  Yb2  1  0.127878  0.127878  0.000000  1
  Zn  Zn3  1  0.480739  0.677150  0.803589  1
  Zn  Zn4  1  0.873561  0.677150  0.196411  1
  Zn  Zn5  1  0.126439  0.322850  0.803589  1
  Zn  Zn6  1  0.519261  0.322850  0.196411  1
  Pd  Pd7  1  0.278740  0.778740  0.500000  1
  Pd  Pd8  1  0.721260  0.221260  0.500000  1
  Pd  Pd9  1  0.816276  0.500000  0.316276  1
  Pd  Pd10  1  0.183724  0.500000  0.683724  1
