# generated using pymatgen
data_ScSiB2Ru5W
_symmetry_space_group_name_H-M   'P 1'
_cell_length_a   9.28910700
_cell_length_b   9.32644800
_cell_length_c   2.93982000
_cell_angle_alpha   90.00000000
_cell_angle_beta   90.00000000
_cell_angle_gamma   90.00000000
_symmetry_Int_Tables_number   1
_chemical_formula_structural   ScSiB2Ru5W
_chemical_formula_sum   'Sc2 Si2 B4 Ru10 W2'
_cell_volume   254.68946361
_cell_formula_units_Z   2
loop_
 _symmetry_equiv_pos_site_id
 _symmetry_equiv_pos_as_xyz
  1  'x, y, z'
loop_
 _atom_site_type_symbol
 _atom_site_label
 _atom_site_symmetry_multiplicity
 _atom_site_fract_x
 _atom_site_fract_y
 _atom_site_fract_z
 _atom_site_occupancy
  Sc  Sc0  1  0.324732  0.177065  0.000000  1
  Sc  Sc1  1  0.824732  0.322935  0.000000  1
  Si  Si2  1  0.001556  0.004840  0.000000  1
  Si  Si3  1  0.501556  0.495160  0.000000  1
  B  B4  1  0.374449  0.875599  0.000000  1
  B  B5  1  0.874449  0.624401  0.000000  1
  B  B6  1  0.123900  0.374516  0.000000  1
  B  B7  1  0.623900  0.125484  0.000000  1
  Ru  Ru8  1  0.002601  0.505423  0.500000  1
  Ru  Ru9  1  0.502601  0.994577  0.500000  1
  Ru  Ru10  1  0.286649  0.444773  0.500000  1
  Ru  Ru11  1  0.707682  0.579641  0.500000  1
  Ru  Ru12  1  0.568464  0.288206  0.500000  1
  Ru  Ru13  1  0.433504  0.709719  0.500000  1
  Ru  Ru14  1  0.933504  0.790281  0.500000  1
  Ru  Ru15  1  0.786648  0.055227  0.500000  1
  Ru  Ru16  1  0.207681  0.920359  0.500000  1
  Ru  Ru17  1  0.068464  0.211794  0.500000  1
  W  W18  1  0.176464  0.675707  0.000000  1
  W  W19  1  0.676464  0.824293  0.000000  1
