# generated using pymatgen
data_Dy7Lu3IrRu3
_symmetry_space_group_name_H-M   'P 1'
_cell_length_a   6.31863579
_cell_length_b   7.28731767
_cell_length_c   8.41195963
_cell_angle_alpha   96.86147627
_cell_angle_beta   111.97952286
_cell_angle_gamma   89.97714205
_symmetry_Int_Tables_number   1
_chemical_formula_structural   Dy7Lu3IrRu3
_chemical_formula_sum   'Dy7 Lu3 Ir1 Ru3'
_cell_volume   356.19794357
_cell_formula_units_Z   1
loop_
 _symmetry_equiv_pos_site_id
 _symmetry_equiv_pos_as_xyz
  1  'x, y, z'
loop_
 _atom_site_type_symbol
 _atom_site_label
 _atom_site_symmetry_multiplicity
 _atom_site_fract_x
 _atom_site_fract_y
 _atom_site_fract_z
 _atom_site_occupancy
  Dy  Dy0  1  0.524180  0.082973  0.814544  1
  Dy  Dy1  1  0.475019  0.918368  0.184267  1
  Dy  Dy2  1  0.711624  0.416449  0.183776  1
  Dy  Dy3  1  0.290058  0.584406  0.813104  1
  Dy  Dy4  1  0.291563  0.313636  0.435505  1
  Dy  Dy5  1  0.707164  0.684495  0.566353  1
  Dy  Dy6  1  0.858377  0.183729  0.565445  1
  Lu  Lu7  1  0.140080  0.817485  0.434126  1
  Lu  Lu8  1  0.078615  0.249096  0.998990  1
  Lu  Lu9  1  0.922259  0.750550  0.001592  1
  Ir  Ir10  1  0.316807  0.576703  0.219568  1
  Ru  Ru11  1  0.679489  0.424947  0.783430  1
  Ru  Ru12  1  0.105426  0.923073  0.781107  1
  Ru  Ru13  1  0.899340  0.074088  0.218193  1
