# generated using pymatgen
data_AcPr(CrN3)2
_symmetry_space_group_name_H-M   'P 1'
_cell_length_a   7.29138884
_cell_length_b   7.29138828
_cell_length_c   6.02521972
_cell_angle_alpha   78.92807836
_cell_angle_beta   78.92808883
_cell_angle_gamma   90.22646547
_symmetry_Int_Tables_number   1
_chemical_formula_structural   AcPr(CrN3)2
_chemical_formula_sum   'Ac2 Pr2 Cr4 N12'
_cell_volume   308.23591719
_cell_formula_units_Z   2
loop_
 _symmetry_equiv_pos_site_id
 _symmetry_equiv_pos_as_xyz
  1  'x, y, z'
loop_
 _atom_site_type_symbol
 _atom_site_label
 _atom_site_symmetry_multiplicity
 _atom_site_fract_x
 _atom_site_fract_y
 _atom_site_fract_z
 _atom_site_occupancy
  Ac  Ac0  1  0.332488  0.667512  0.750000  1
  Ac  Ac1  1  0.667512  0.332488  0.250000  1
  Pr  Pr2  1  0.095607  0.904393  0.250000  1
  Pr  Pr3  1  0.904393  0.095607  0.750000  1
  Cr  Cr4  1  0.369389  0.198027  0.765474  1
  Cr  Cr5  1  0.630611  0.801973  0.234526  1
  Cr  Cr6  1  0.801973  0.630611  0.734526  1
  Cr  Cr7  1  0.198027  0.369389  0.265474  1
  N  N8  1  0.994871  0.778211  0.656298  1
  N  N9  1  0.862477  0.414522  0.824657  1
  N  N10  1  0.778211  0.994871  0.156298  1
  N  N11  1  0.137523  0.585478  0.175343  1
  N  N12  1  0.005129  0.221789  0.343702  1
  N  N13  1  0.221789  0.005129  0.843702  1
  N  N14  1  0.585478  0.137523  0.675343  1
  N  N15  1  0.643261  0.681560  0.985265  1
  N  N16  1  0.356739  0.318440  0.014735  1
  N  N17  1  0.414522  0.862477  0.324657  1
  N  N18  1  0.681560  0.643261  0.485265  1
  N  N19  1  0.318440  0.356739  0.514735  1
