# generated using pymatgen
data_Sm2Mn6Ni6P7
_symmetry_space_group_name_H-M   'P 1'
_cell_length_a   9.17235600
_cell_length_b   9.17235660
_cell_length_c   3.71696600
_cell_angle_alpha   90.00000000
_cell_angle_beta   90.00000000
_cell_angle_gamma   120.00000409
_symmetry_Int_Tables_number   1
_chemical_formula_structural   Sm2Mn6Ni6P7
_chemical_formula_sum   'Sm2 Mn6 Ni6 P7'
_cell_volume   270.82018808
_cell_formula_units_Z   1
loop_
 _symmetry_equiv_pos_site_id
 _symmetry_equiv_pos_as_xyz
  1  'x, y, z'
loop_
 _atom_site_type_symbol
 _atom_site_label
 _atom_site_symmetry_multiplicity
 _atom_site_fract_x
 _atom_site_fract_y
 _atom_site_fract_z
 _atom_site_occupancy
  Sm  Sm0  1  0.666667  0.333333  0.000000  1
  Sm  Sm1  1  0.333333  0.666667  0.500000  1
  Mn  Mn2  1  0.153838  0.275791  0.500000  1
  Mn  Mn3  1  0.724209  0.878047  0.500000  1
  Mn  Mn4  1  0.121953  0.846162  0.500000  1
  Mn  Mn5  1  0.217717  0.098448  0.000000  1
  Mn  Mn6  1  0.901552  0.119269  0.000000  1
  Mn  Mn7  1  0.880731  0.782283  0.000000  1
  Ni  Ni8  1  0.433684  0.061287  0.500000  1
  Ni  Ni9  1  0.938713  0.372397  0.500000  1
  Ni  Ni10  1  0.627603  0.566316  0.500000  1
  Ni  Ni11  1  0.385342  0.434920  0.000000  1
  Ni  Ni12  1  0.565080  0.950422  0.000000  1
  Ni  Ni13  1  0.049578  0.614658  0.000000  1
  P  P14  1  0.111493  0.399690  0.000000  1
  P  P15  1  0.600310  0.711802  0.000000  1
  P  P16  1  0.288198  0.888507  0.000000  1
  P  P17  1  0.000000  0.000000  0.500000  1
  P  P18  1  0.404700  0.295405  0.500000  1
  P  P19  1  0.704595  0.109295  0.500000  1
  P  P20  1  0.890705  0.595300  0.500000  1
