# generated using pymatgen
data_TbY19(NiHg3)2
_symmetry_space_group_name_H-M   'P 1'
_cell_length_a   9.72533915
_cell_length_b   9.72534030
_cell_length_c   9.55374013
_cell_angle_alpha   90.15461968
_cell_angle_beta   89.84538682
_cell_angle_gamma   120.05105673
_symmetry_Int_Tables_number   1
_chemical_formula_structural   TbY19(NiHg3)2
_chemical_formula_sum   'Tb1 Y19 Ni2 Hg6'
_cell_volume   782.14602696
_cell_formula_units_Z   1
loop_
 _symmetry_equiv_pos_site_id
 _symmetry_equiv_pos_as_xyz
  1  'x, y, z'
loop_
 _atom_site_type_symbol
 _atom_site_label
 _atom_site_symmetry_multiplicity
 _atom_site_fract_x
 _atom_site_fract_y
 _atom_site_fract_z
 _atom_site_occupancy
  Tb  Tb0  1  0.210486  0.789514  0.434796  1
  Y  Y1  1  0.000143  0.999857  0.499939  1
  Y  Y2  1  0.999923  0.000077  0.000259  1
  Y  Y3  1  0.543286  0.456714  0.250492  1
  Y  Y4  1  0.542981  0.086205  0.249859  1
  Y  Y5  1  0.913795  0.457019  0.249859  1
  Y  Y6  1  0.456854  0.543146  0.749962  1
  Y  Y7  1  0.456894  0.913502  0.749949  1
  Y  Y8  1  0.086498  0.543106  0.749949  1
  Y  Y9  1  0.209455  0.417688  0.436234  1
  Y  Y10  1  0.582312  0.790545  0.436234  1
  Y  Y11  1  0.790457  0.209543  0.563996  1
  Y  Y12  1  0.791121  0.581933  0.564122  1
  Y  Y13  1  0.418067  0.208879  0.564122  1
  Y  Y14  1  0.790835  0.209165  0.936141  1
  Y  Y15  1  0.790695  0.581120  0.936100  1
  Y  Y16  1  0.418880  0.209305  0.936100  1
  Y  Y17  1  0.208592  0.791408  0.063010  1
  Y  Y18  1  0.209397  0.419512  0.064153  1
  Y  Y19  1  0.580488  0.790603  0.064153  1
  Ni  Ni20  1  0.332471  0.667529  0.250411  1
  Ni  Ni21  1  0.666699  0.333301  0.749628  1
  Hg  Hg22  1  0.878746  0.121254  0.250344  1
  Hg  Hg23  1  0.878475  0.757454  0.249680  1
  Hg  Hg24  1  0.242546  0.121525  0.249680  1
  Hg  Hg25  1  0.121198  0.878802  0.750342  1
  Hg  Hg26  1  0.121204  0.242499  0.750245  1
  Hg  Hg27  1  0.757501  0.878796  0.750245  1
