# generated using pymatgen
data_Tb4Al16ZnCuPd6
_symmetry_space_group_name_H-M   'P 1'
_cell_length_a   7.59637012
_cell_length_b   7.59637024
_cell_length_c   9.46646700
_cell_angle_alpha   90.00000000
_cell_angle_beta   90.00000000
_cell_angle_gamma   118.76799620
_symmetry_Int_Tables_number   1
_chemical_formula_structural   Tb4Al16ZnCuPd6
_chemical_formula_sum   'Tb4 Al16 Zn1 Cu1 Pd6'
_cell_volume   478.83905166
_cell_formula_units_Z   1
loop_
 _symmetry_equiv_pos_site_id
 _symmetry_equiv_pos_as_xyz
  1  'x, y, z'
loop_
 _atom_site_type_symbol
 _atom_site_label
 _atom_site_symmetry_multiplicity
 _atom_site_fract_x
 _atom_site_fract_y
 _atom_site_fract_z
 _atom_site_occupancy
  Tb  Tb0  1  0.992191  0.673890  0.250000  1
  Tb  Tb1  1  0.005898  0.325421  0.750000  1
  Tb  Tb2  1  0.673890  0.992191  0.250000  1
  Tb  Tb3  1  0.325421  0.005898  0.750000  1
  Al  Al4  1  0.004017  0.329452  0.084098  1
  Al  Al5  1  0.997889  0.665369  0.921155  1
  Al  Al6  1  0.997889  0.665369  0.578845  1
  Al  Al7  1  0.329452  0.004017  0.415902  1
  Al  Al8  1  0.004017  0.329452  0.415902  1
  Al  Al9  1  0.665369  0.997889  0.578845  1
  Al  Al10  1  0.665369  0.997889  0.921155  1
  Al  Al11  1  0.329452  0.004017  0.084098  1
  Al  Al12  1  0.331886  0.331886  0.547033  1
  Al  Al13  1  0.667130  0.667130  0.447505  1
  Al  Al14  1  0.667130  0.667130  0.052495  1
  Al  Al15  1  0.331886  0.331886  0.952967  1
  Al  Al16  1  0.340178  0.545453  0.250000  1
  Al  Al17  1  0.657986  0.451283  0.750000  1
  Al  Al18  1  0.545453  0.340178  0.250000  1
  Al  Al19  1  0.451283  0.657986  0.750000  1
  Zn  Zn20  1  0.857599  0.857599  0.750000  1
  Cu  Cu21  1  0.158542  0.158542  0.250000  1
  Pd  Pd22  1  0.674791  0.326922  0.000239  1
  Pd  Pd23  1  0.326922  0.674791  0.000239  1
  Pd  Pd24  1  0.326922  0.674791  0.499761  1
  Pd  Pd25  1  0.674791  0.326922  0.499761  1
  Pd  Pd26  1  0.998324  0.998324  0.999066  1
  Pd  Pd27  1  0.998324  0.998324  0.500934  1
