# generated using pymatgen
data_Ba4TbY5(BiS8)2
_symmetry_space_group_name_H-M   'P 1'
_cell_length_a   4.08032100
_cell_length_b   12.36997307
_cell_length_c   14.69299309
_cell_angle_alpha   90.01236427
_cell_angle_beta   90.00000000
_cell_angle_gamma   90.00000000
_symmetry_Int_Tables_number   1
_chemical_formula_structural   Ba4TbY5(BiS8)2
_chemical_formula_sum   'Ba4 Tb1 Y5 Bi2 S16'
_cell_volume   741.60619467
_cell_formula_units_Z   1
loop_
 _symmetry_equiv_pos_site_id
 _symmetry_equiv_pos_as_xyz
  1  'x, y, z'
loop_
 _atom_site_type_symbol
 _atom_site_label
 _atom_site_symmetry_multiplicity
 _atom_site_fract_x
 _atom_site_fract_y
 _atom_site_fract_z
 _atom_site_occupancy
  Ba  Ba0  1  0.250000  0.759005  0.337874  1
  Ba  Ba1  1  0.250000  0.259004  0.162086  1
  Ba  Ba2  1  0.750000  0.241756  0.661588  1
  Ba  Ba3  1  0.750000  0.741662  0.838453  1
  Tb  Tb4  1  0.250000  0.920667  0.601902  1
  Y  Y5  1  0.750000  0.567426  0.611005  1
  Y  Y6  1  0.750000  0.067445  0.889020  1
  Y  Y7  1  0.250000  0.420805  0.898161  1
  Y  Y8  1  0.750000  0.577665  0.099888  1
  Y  Y9  1  0.750000  0.077691  0.400050  1
  Bi  Bi10  1  0.250000  0.433528  0.390520  1
  Bi  Bi11  1  0.250000  0.933539  0.109484  1
  S  S12  1  0.250000  0.207264  0.834816  1
  S  S13  1  0.250000  0.706870  0.665271  1
  S  S14  1  0.750000  0.787058  0.167690  1
  S  S15  1  0.750000  0.287060  0.332301  1
  S  S16  1  0.250000  0.123607  0.523730  1
  S  S17  1  0.250000  0.623291  0.976111  1
  S  S18  1  0.750000  0.875377  0.477374  1
  S  S19  1  0.750000  0.375469  0.022254  1
  S  S20  1  0.250000  0.023354  0.286735  1
  S  S21  1  0.250000  0.523338  0.213267  1
  S  S22  1  0.750000  0.977352  0.716506  1
  S  S23  1  0.750000  0.477087  0.783914  1
  S  S24  1  0.250000  0.419972  0.580836  1
  S  S25  1  0.250000  0.919969  0.919165  1
  S  S26  1  0.750000  0.586378  0.426044  1
  S  S27  1  0.750000  0.086365  0.073954  1
