# generated using pymatgen
data_Dy5Bi2Sb
_symmetry_space_group_name_H-M   'P 1'
_cell_length_a   8.19673000
_cell_length_b   9.48508800
_cell_length_c   11.99537700
_cell_angle_alpha   90.00000000
_cell_angle_beta   90.00000000
_cell_angle_gamma   90.00000000
_symmetry_Int_Tables_number   1
_chemical_formula_structural   Dy5Bi2Sb
_chemical_formula_sum   'Dy20 Bi8 Sb4'
_cell_volume   932.60104133
_cell_formula_units_Z   4
loop_
 _symmetry_equiv_pos_site_id
 _symmetry_equiv_pos_as_xyz
  1  'x, y, z'
loop_
 _atom_site_type_symbol
 _atom_site_label
 _atom_site_symmetry_multiplicity
 _atom_site_fract_x
 _atom_site_fract_y
 _atom_site_fract_z
 _atom_site_occupancy
  Dy  Dy0  1  0.190034  0.937878  0.443270  1
  Dy  Dy1  1  0.309966  0.062122  0.943270  1
  Dy  Dy2  1  0.690034  0.562121  0.056730  1
  Dy  Dy3  1  0.809966  0.437878  0.556730  1
  Dy  Dy4  1  0.809966  0.062122  0.556730  1
  Dy  Dy5  1  0.690034  0.937878  0.056730  1
  Dy  Dy6  1  0.309966  0.437878  0.943270  1
  Dy  Dy7  1  0.190034  0.562121  0.443270  1
  Dy  Dy8  1  0.684654  0.750000  0.781254  1
  Dy  Dy9  1  0.815345  0.250000  0.281254  1
  Dy  Dy10  1  0.184655  0.750000  0.718746  1
  Dy  Dy11  1  0.315346  0.250000  0.218746  1
  Dy  Dy12  1  0.528269  0.750000  0.512402  1
  Dy  Dy13  1  0.971730  0.250000  0.012402  1
  Dy  Dy14  1  0.028270  0.750000  0.987597  1
  Dy  Dy15  1  0.471730  0.250000  0.487598  1
  Dy  Dy16  1  0.852216  0.750000  0.286941  1
  Dy  Dy17  1  0.647785  0.250000  0.786941  1
  Dy  Dy18  1  0.352215  0.750000  0.213059  1
  Dy  Dy19  1  0.147784  0.250000  0.713059  1
  Bi  Bi20  1  0.065272  0.504505  0.174941  1
  Bi  Bi21  1  0.434727  0.495495  0.674941  1
  Bi  Bi22  1  0.565272  0.995496  0.325059  1
  Bi  Bi23  1  0.934726  0.004505  0.825059  1
  Bi  Bi24  1  0.934726  0.495495  0.825059  1
  Bi  Bi25  1  0.565272  0.504505  0.325059  1
  Bi  Bi26  1  0.434727  0.004505  0.674941  1
  Bi  Bi27  1  0.065272  0.995496  0.174941  1
  Sb  Sb28  1  0.908771  0.750000  0.542111  1
  Sb  Sb29  1  0.591228  0.250000  0.042112  1
  Sb  Sb30  1  0.408771  0.750000  0.957888  1
  Sb  Sb31  1  0.091229  0.250000  0.457888  1
