# generated using pymatgen
data_Hf3PaCo4
_symmetry_space_group_name_H-M   'P 1'
_cell_length_a   4.23101100
_cell_length_b   5.09820934
_cell_length_c   5.98206100
_cell_angle_alpha   90.08289456
_cell_angle_beta   90.00000000
_cell_angle_gamma   90.00000000
_symmetry_Int_Tables_number   1
_chemical_formula_structural   Hf3PaCo4
_chemical_formula_sum   'Hf3 Pa1 Co4'
_cell_volume   129.03638900
_cell_formula_units_Z   1
loop_
 _symmetry_equiv_pos_site_id
 _symmetry_equiv_pos_as_xyz
  1  'x, y, z'
loop_
 _atom_site_type_symbol
 _atom_site_label
 _atom_site_symmetry_multiplicity
 _atom_site_fract_x
 _atom_site_fract_y
 _atom_site_fract_z
 _atom_site_occupancy
  Hf  Hf0  1  0.250000  0.358668  0.670921  1
  Hf  Hf1  1  0.750000  0.632778  0.320440  1
  Hf  Hf2  1  0.250000  0.146529  0.185586  1
  Pa  Pa3  1  0.750000  0.862314  0.819828  1
  Co  Co4  1  0.750000  0.151736  0.471455  1
  Co  Co5  1  0.250000  0.837934  0.542648  1
  Co  Co6  1  0.250000  0.661979  0.045219  1
  Co  Co7  1  0.750000  0.348064  0.943903  1
