# generated using pymatgen
data_Ce2Pr2Al17SiRh6
_symmetry_space_group_name_H-M   'P 1'
_cell_length_a   7.63271814
_cell_length_b   7.60094994
_cell_length_c   9.52771330
_cell_angle_alpha   90.02873915
_cell_angle_beta   89.93821304
_cell_angle_gamma   119.53776342
_symmetry_Int_Tables_number   1
_chemical_formula_structural   Ce2Pr2Al17SiRh6
_chemical_formula_sum   'Ce2 Pr2 Al17 Si1 Rh6'
_cell_volume   480.91710949
_cell_formula_units_Z   1
loop_
 _symmetry_equiv_pos_site_id
 _symmetry_equiv_pos_as_xyz
  1  'x, y, z'
loop_
 _atom_site_type_symbol
 _atom_site_label
 _atom_site_symmetry_multiplicity
 _atom_site_fract_x
 _atom_site_fract_y
 _atom_site_fract_z
 _atom_site_occupancy
  Ce  Ce0  1  0.994834  0.664055  0.747093  1
  Ce  Ce1  1  0.004293  0.329256  0.254994  1
  Pr  Pr2  1  0.675065  0.001040  0.747157  1
  Pr  Pr3  1  0.329053  0.005260  0.250319  1
  Al  Al4  1  0.130675  0.128774  0.749670  1
  Al  Al5  1  0.868592  0.871654  0.249026  1
  Al  Al6  1  0.996813  0.669021  0.424471  1
  Al  Al7  1  0.997542  0.664498  0.073212  1
  Al  Al8  1  0.333826  0.000325  0.924750  1
  Al  Al9  1  0.003471  0.335436  0.932113  1
  Al  Al10  1  0.664977  0.998533  0.074488  1
  Al  Al11  1  0.660423  0.992966  0.422831  1
  Al  Al12  1  0.333542  0.000835  0.575569  1
  Al  Al13  1  0.334841  0.334455  0.048521  1
  Al  Al14  1  0.667066  0.667140  0.951254  1
  Al  Al15  1  0.666017  0.666114  0.549709  1
  Al  Al16  1  0.337362  0.334787  0.452689  1
  Al  Al17  1  0.339967  0.547721  0.750170  1
  Al  Al18  1  0.661603  0.452291  0.250222  1
  Al  Al19  1  0.545887  0.343002  0.750075  1
  Al  Al20  1  0.450102  0.654870  0.249345  1
  Si  Si21  1  0.004469  0.336177  0.572735  1
  Rh  Rh22  1  0.680266  0.330210  0.502052  1
  Rh  Rh23  1  0.320296  0.663373  0.500639  1
  Rh  Rh24  1  0.327570  0.670147  0.998976  1
  Rh  Rh25  1  0.672531  0.329732  0.998735  1
  Rh  Rh26  1  0.998996  0.007354  0.500194  1
  Rh  Rh27  1  0.999923  0.000977  0.998993  1
