# generated using pymatgen
data_Hf5SiTe3
_symmetry_space_group_name_H-M   'P 1'
_cell_length_a   3.84155000
_cell_length_b   13.06306400
_cell_length_c   17.70532200
_cell_angle_alpha   90.00000000
_cell_angle_beta   90.00000000
_cell_angle_gamma   90.00000000
_symmetry_Int_Tables_number   1
_chemical_formula_structural   Hf5SiTe3
_chemical_formula_sum   'Hf20 Si4 Te12'
_cell_volume   888.49578992
_cell_formula_units_Z   4
loop_
 _symmetry_equiv_pos_site_id
 _symmetry_equiv_pos_as_xyz
  1  'x, y, z'
loop_
 _atom_site_type_symbol
 _atom_site_label
 _atom_site_symmetry_multiplicity
 _atom_site_fract_x
 _atom_site_fract_y
 _atom_site_fract_z
 _atom_site_occupancy
  Hf  Hf0  1  0.250000  0.651367  0.245211  1
  Hf  Hf1  1  0.750000  0.348633  0.754789  1
  Hf  Hf2  1  0.750000  0.151367  0.254789  1
  Hf  Hf3  1  0.250000  0.848633  0.745211  1
  Hf  Hf4  1  0.250000  0.571547  0.963111  1
  Hf  Hf5  1  0.750000  0.428453  0.036889  1
  Hf  Hf6  1  0.750000  0.071547  0.536889  1
  Hf  Hf7  1  0.250000  0.928453  0.463111  1
  Hf  Hf8  1  0.750000  0.841359  0.590624  1
  Hf  Hf9  1  0.250000  0.158641  0.409376  1
  Hf  Hf10  1  0.250000  0.341359  0.909376  1
  Hf  Hf11  1  0.750000  0.658641  0.090624  1
  Hf  Hf12  1  0.250000  0.215169  0.619229  1
  Hf  Hf13  1  0.750000  0.784831  0.380771  1
  Hf  Hf14  1  0.750000  0.715169  0.880771  1
  Hf  Hf15  1  0.250000  0.284831  0.119229  1
  Hf  Hf16  1  0.250000  0.554306  0.788015  1
  Hf  Hf17  1  0.750000  0.445694  0.211985  1
  Hf  Hf18  1  0.750000  0.054306  0.711985  1
  Hf  Hf19  1  0.250000  0.945694  0.288015  1
  Si  Si20  1  0.250000  0.520557  0.123565  1
  Si  Si21  1  0.750000  0.479443  0.876435  1
  Si  Si22  1  0.750000  0.020557  0.376435  1
  Si  Si23  1  0.250000  0.979443  0.623565  1
  Te  Te24  1  0.250000  0.435323  0.649856  1
  Te  Te25  1  0.750000  0.564677  0.350144  1
  Te  Te26  1  0.750000  0.935323  0.850144  1
  Te  Te27  1  0.250000  0.064677  0.149856  1
  Te  Te28  1  0.750000  0.687050  0.707807  1
  Te  Te29  1  0.250000  0.312950  0.292193  1
  Te  Te30  1  0.250000  0.187050  0.792193  1
  Te  Te31  1  0.750000  0.812950  0.207807  1
  Te  Te32  1  0.250000  0.790275  0.002790  1
  Te  Te33  1  0.750000  0.209725  0.997210  1
  Te  Te34  1  0.750000  0.290275  0.497210  1
  Te  Te35  1  0.250000  0.709725  0.502790  1
