# generated using pymatgen
data_Na8Hf3SeBr24
_symmetry_space_group_name_H-M   'P 1'
_cell_length_a   7.17417700
_cell_length_b   7.17417715
_cell_length_c   26.66783500
_cell_angle_alpha   90.00000000
_cell_angle_beta   90.00000000
_cell_angle_gamma   119.99999468
_symmetry_Int_Tables_number   1
_chemical_formula_structural   Na8Hf3SeBr24
_chemical_formula_sum   'Na8 Hf3 Se1 Br24'
_cell_volume   1188.67354807
_cell_formula_units_Z   1
loop_
 _symmetry_equiv_pos_site_id
 _symmetry_equiv_pos_as_xyz
  1  'x, y, z'
loop_
 _atom_site_type_symbol
 _atom_site_label
 _atom_site_symmetry_multiplicity
 _atom_site_fract_x
 _atom_site_fract_y
 _atom_site_fract_z
 _atom_site_occupancy
  Na  Na0  1  0.000000  0.000000  0.250182  1
  Na  Na1  1  0.000000  0.000000  0.749818  1
  Na  Na2  1  0.333333  0.666667  0.000338  1
  Na  Na3  1  0.333333  0.666667  0.499601  1
  Na  Na4  1  0.333333  0.666667  0.250113  1
  Na  Na5  1  0.666667  0.333333  0.749887  1
  Na  Na6  1  0.666667  0.333333  0.999662  1
  Na  Na7  1  0.666667  0.333333  0.500399  1
  Hf  Hf8  1  0.000000  0.000000  0.500000  1
  Hf  Hf9  1  0.333333  0.666667  0.749795  1
  Hf  Hf10  1  0.666667  0.333333  0.250205  1
  Se  Se11  1  0.000000  0.000000  0.000000  1
  Br  Br12  1  0.369841  0.036108  0.308110  1
  Br  Br13  1  0.333861  0.963779  0.807762  1
  Br  Br14  1  0.999531  0.295042  0.057565  1
  Br  Br15  1  0.000789  0.297341  0.557928  1
  Br  Br16  1  0.963892  0.333735  0.308110  1
  Br  Br17  1  0.036221  0.370081  0.807762  1
  Br  Br18  1  0.370081  0.333861  0.192238  1
  Br  Br19  1  0.333735  0.369841  0.691890  1
  Br  Br20  1  0.297341  0.296552  0.442072  1
  Br  Br21  1  0.295042  0.295511  0.942435  1
  Br  Br22  1  0.703448  0.000789  0.442072  1
  Br  Br23  1  0.295511  0.000469  0.057565  1
  Br  Br24  1  0.296552  0.999211  0.557928  1
  Br  Br25  1  0.704958  0.704489  0.057565  1
  Br  Br26  1  0.702659  0.703448  0.557928  1
  Br  Br27  1  0.666265  0.630159  0.308110  1
  Br  Br28  1  0.629919  0.666139  0.807762  1
  Br  Br29  1  0.963779  0.629919  0.192238  1
  Br  Br30  1  0.036108  0.666265  0.691890  1
  Br  Br31  1  0.999211  0.702659  0.442072  1
  Br  Br32  1  0.000469  0.704958  0.942435  1
  Br  Br33  1  0.704489  0.999531  0.942435  1
  Br  Br34  1  0.666139  0.036221  0.192238  1
  Br  Br35  1  0.630159  0.963892  0.691890  1
