# generated using pymatgen
data_ZrPt(SeO3)4
_symmetry_space_group_name_H-M   'P 1'
_cell_length_a   8.20298500
_cell_length_b   8.55348941
_cell_length_c   8.43935282
_cell_angle_alpha   89.06203403
_cell_angle_beta   89.99919628
_cell_angle_gamma   90.00085584
_symmetry_Int_Tables_number   1
_chemical_formula_structural   ZrPt(SeO3)4
_chemical_formula_sum   'Zr2 Pt2 Se8 O24'
_cell_volume   592.06063375
_cell_formula_units_Z   2
loop_
 _symmetry_equiv_pos_site_id
 _symmetry_equiv_pos_as_xyz
  1  'x, y, z'
loop_
 _atom_site_type_symbol
 _atom_site_label
 _atom_site_symmetry_multiplicity
 _atom_site_fract_x
 _atom_site_fract_y
 _atom_site_fract_z
 _atom_site_occupancy
  Zr  Zr0  1  0.000000  0.000000  0.500000  1
  Zr  Zr1  1  0.500000  0.000000  0.000000  1
  Pt  Pt2  1  0.000000  0.500000  0.000000  1
  Pt  Pt3  1  0.500000  0.500000  0.500000  1
  Se  Se4  1  0.305184  0.653281  0.195008  1
  Se  Se5  1  0.805174  0.346684  0.304978  1
  Se  Se6  1  0.668799  0.795403  0.665956  1
  Se  Se7  1  0.168803  0.204625  0.834063  1
  Se  Se8  1  0.694816  0.346719  0.804992  1
  Se  Se9  1  0.194826  0.653316  0.695022  1
  Se  Se10  1  0.331201  0.204597  0.334044  1
  Se  Se11  1  0.831197  0.795375  0.165937  1
  O  O12  1  0.242446  0.534867  0.037314  1
  O  O13  1  0.742432  0.465033  0.462707  1
  O  O14  1  0.758527  0.947342  0.562053  1
  O  O15  1  0.258527  0.052714  0.937994  1
  O  O16  1  0.530469  0.897305  0.776611  1
  O  O17  1  0.456429  0.520251  0.262991  1
  O  O18  1  0.956381  0.479746  0.236999  1
  O  O19  1  0.030533  0.102721  0.723356  1
  O  O20  1  0.928092  0.219869  0.408056  1
  O  O21  1  0.537436  0.733911  0.513246  1
  O  O22  1  0.428063  0.780111  0.091896  1
  O  O23  1  0.037343  0.266082  0.986710  1
  O  O24  1  0.757554  0.465133  0.962686  1
  O  O25  1  0.257568  0.534967  0.537293  1
  O  O26  1  0.241473  0.052658  0.437947  1
  O  O27  1  0.741473  0.947286  0.062006  1
  O  O28  1  0.469531  0.102695  0.223389  1
  O  O29  1  0.543571  0.479749  0.737009  1
  O  O30  1  0.043619  0.520254  0.763001  1
  O  O31  1  0.969467  0.897279  0.276644  1
  O  O32  1  0.071908  0.780131  0.591944  1
  O  O33  1  0.462564  0.266089  0.486754  1
  O  O34  1  0.571937  0.219889  0.908104  1
  O  O35  1  0.962657  0.733918  0.013290  1
