# generated using pymatgen
data_TmLu3Zr4F28
_symmetry_space_group_name_H-M   'P 1'
_cell_length_a   5.67686327
_cell_length_b   8.97147319
_cell_length_c   12.07664850
_cell_angle_alpha   62.59289745
_cell_angle_beta   89.99592236
_cell_angle_gamma   90.00352133
_symmetry_Int_Tables_number   1
_chemical_formula_structural   TmLu3Zr4F28
_chemical_formula_sum   'Tm1 Lu3 Zr4 F28'
_cell_volume   546.02606733
_cell_formula_units_Z   1
loop_
 _symmetry_equiv_pos_site_id
 _symmetry_equiv_pos_as_xyz
  1  'x, y, z'
loop_
 _atom_site_type_symbol
 _atom_site_label
 _atom_site_symmetry_multiplicity
 _atom_site_fract_x
 _atom_site_fract_y
 _atom_site_fract_z
 _atom_site_occupancy
  Tm  Tm0  1  0.756510  0.817509  0.765958  1
  Lu  Lu1  1  0.743720  0.818140  0.265939  1
  Lu  Lu2  1  0.243647  0.182242  0.234246  1
  Lu  Lu3  1  0.257176  0.181958  0.734337  1
  Zr  Zr4  1  0.744073  0.274967  0.454462  1
  Zr  Zr5  1  0.243982  0.725506  0.046077  1
  Zr  Zr6  1  0.255252  0.725203  0.544823  1
  Zr  Zr7  1  0.755709  0.273910  0.954678  1
  F  F8  1  0.469058  0.711647  0.920133  1
  F  F9  1  0.970176  0.288472  0.580212  1
  F  F10  1  0.529789  0.288755  0.080038  1
  F  F11  1  0.030274  0.710708  0.419005  1
  F  F12  1  0.448839  0.278429  0.551961  1
  F  F13  1  0.948848  0.721143  0.949291  1
  F  F14  1  0.551258  0.721427  0.447747  1
  F  F15  1  0.050601  0.278720  0.052198  1
  F  F16  1  0.769514  0.528158  0.857153  1
  F  F17  1  0.268406  0.470806  0.642801  1
  F  F18  1  0.232769  0.471069  0.143826  1
  F  F19  1  0.731806  0.529385  0.356017  1
  F  F20  1  0.759407  0.019652  0.059418  1
  F  F21  1  0.259022  0.979680  0.440416  1
  F  F22  1  0.240868  0.979660  0.940394  1
  F  F23  1  0.739890  0.020920  0.559170  1
  F  F24  1  0.981050  0.734518  0.650420  1
  F  F25  1  0.481921  0.265628  0.848100  1
  F  F26  1  0.015543  0.264804  0.347198  1
  F  F27  1  0.515896  0.735322  0.153071  1
  F  F28  1  0.030420  0.747763  0.175632  1
  F  F29  1  0.529125  0.252670  0.325216  1
  F  F30  1  0.970451  0.251587  0.825534  1
  F  F31  1  0.468132  0.746952  0.674417  1
  F  F32  1  0.433476  0.975609  0.235722  1
  F  F33  1  0.932602  0.024946  0.264497  1
  F  F34  1  0.569220  0.027413  0.764841  1
  F  F35  1  0.071571  0.974719  0.735048  1
