# generated using pymatgen
data_Zr8Ti5V7Si16
_symmetry_space_group_name_H-M   'P 1'
_cell_length_a   6.71463276
_cell_length_b   6.71597799
_cell_length_c   12.41177179
_cell_angle_alpha   89.91178368
_cell_angle_beta   89.89610360
_cell_angle_gamma   90.00446503
_symmetry_Int_Tables_number   1
_chemical_formula_structural   Zr8Ti5V7Si16
_chemical_formula_sum   'Zr8 Ti5 V7 Si16'
_cell_volume   559.71130792
_cell_formula_units_Z   1
loop_
 _symmetry_equiv_pos_site_id
 _symmetry_equiv_pos_as_xyz
  1  'x, y, z'
loop_
 _atom_site_type_symbol
 _atom_site_label
 _atom_site_symmetry_multiplicity
 _atom_site_fract_x
 _atom_site_fract_y
 _atom_site_fract_z
 _atom_site_occupancy
  Zr  Zr0  1  0.001240  0.661531  0.029459  1
  Zr  Zr1  1  0.998007  0.338996  0.531240  1
  Zr  Zr2  1  0.661048  0.001872  0.969682  1
  Zr  Zr3  1  0.161382  0.498378  0.780499  1
  Zr  Zr4  1  0.839661  0.502588  0.279973  1
  Zr  Zr5  1  0.498097  0.160971  0.218800  1
  Zr  Zr6  1  0.502165  0.839568  0.720640  1
  Zr  Zr7  1  0.339439  0.997279  0.469869  1
  Ti  Ti8  1  0.341842  0.502489  0.377573  1
  Ti  Ti9  1  0.667897  0.668112  0.500859  1
  Ti  Ti10  1  0.833034  0.167067  0.750134  1
  Ti  Ti11  1  0.165740  0.833140  0.249320  1
  Ti  Ti12  1  0.332583  0.332614  0.999430  1
  V  V13  1  0.841124  0.994267  0.372922  1
  V  V14  1  0.003810  0.158263  0.126125  1
  V  V15  1  0.993797  0.842516  0.627925  1
  V  V16  1  0.659566  0.494534  0.877224  1
  V  V17  1  0.505380  0.341290  0.622706  1
  V  V18  1  0.494252  0.660076  0.122761  1
  V  V19  1  0.159308  0.005283  0.872858  1
  Si  Si20  1  0.039779  0.710554  0.438009  1
  Si  Si21  1  0.957912  0.290373  0.937123  1
  Si  Si22  1  0.708991  0.041445  0.563189  1
  Si  Si23  1  0.207762  0.457209  0.185630  1
  Si  Si24  1  0.790500  0.542016  0.687637  1
  Si  Si25  1  0.458267  0.209858  0.812584  1
  Si  Si26  1  0.543813  0.793660  0.312432  1
  Si  Si27  1  0.290204  0.958265  0.062473  1
  Si  Si28  1  0.873196  0.793167  0.822096  1
  Si  Si29  1  0.125075  0.204007  0.320926  1
  Si  Si30  1  0.793275  0.872736  0.177531  1
  Si  Si31  1  0.292192  0.628308  0.573895  1
  Si  Si32  1  0.706721  0.373717  0.071686  1
  Si  Si33  1  0.631829  0.290118  0.428342  1
  Si  Si34  1  0.373352  0.706942  0.928060  1
  Si  Si35  1  0.207761  0.126791  0.678385  1
