# generated using pymatgen
data_ErSc11(Si3Os)4
_symmetry_space_group_name_H-M   'P 1'
_cell_length_a   4.01557800
_cell_length_b   10.35242336
_cell_length_c   11.74548385
_cell_angle_alpha   89.90747332
_cell_angle_beta   90.00000000
_cell_angle_gamma   90.00000000
_symmetry_Int_Tables_number   1
_chemical_formula_structural   ErSc11(Si3Os)4
_chemical_formula_sum   'Er1 Sc11 Si12 Os4'
_cell_volume   488.27044346
_cell_formula_units_Z   1
loop_
 _symmetry_equiv_pos_site_id
 _symmetry_equiv_pos_as_xyz
  1  'x, y, z'
loop_
 _atom_site_type_symbol
 _atom_site_label
 _atom_site_symmetry_multiplicity
 _atom_site_fract_x
 _atom_site_fract_y
 _atom_site_fract_z
 _atom_site_occupancy
  Er  Er0  1  0.250000  0.877996  0.017861  1
  Sc  Sc1  1  0.250000  0.622174  0.518278  1
  Sc  Sc2  1  0.750000  0.125152  0.981436  1
  Sc  Sc3  1  0.750000  0.377307  0.481930  1
  Sc  Sc4  1  0.250000  0.920488  0.604474  1
  Sc  Sc5  1  0.250000  0.576916  0.106380  1
  Sc  Sc6  1  0.750000  0.079813  0.395734  1
  Sc  Sc7  1  0.750000  0.420434  0.894214  1
  Sc  Sc8  1  0.250000  0.656928  0.796524  1
  Sc  Sc9  1  0.250000  0.841469  0.300089  1
  Sc  Sc10  1  0.750000  0.341269  0.202600  1
  Sc  Sc11  1  0.750000  0.159977  0.701101  1
  Si  Si12  1  0.250000  0.017883  0.817152  1
  Si  Si13  1  0.250000  0.484496  0.323055  1
  Si  Si14  1  0.750000  0.987397  0.180276  1
  Si  Si15  1  0.750000  0.514442  0.677580  1
  Si  Si16  1  0.250000  0.252094  0.842021  1
  Si  Si17  1  0.250000  0.249519  0.344178  1
  Si  Si18  1  0.750000  0.746317  0.159770  1
  Si  Si19  1  0.750000  0.750289  0.656310  1
  Si  Si20  1  0.250000  0.195411  0.546174  1
  Si  Si21  1  0.250000  0.305086  0.046231  1
  Si  Si22  1  0.750000  0.804594  0.454131  1
  Si  Si23  1  0.750000  0.689856  0.952529  1
  Os  Os24  1  0.250000  0.390430  0.676636  1
  Os  Os25  1  0.250000  0.112311  0.179273  1
  Os  Os26  1  0.750000  0.608927  0.324951  1
  Os  Os27  1  0.750000  0.891025  0.819111  1
