# generated using pymatgen
data_Nb5Tc3Se16
_symmetry_space_group_name_H-M   'P 1'
_cell_length_a   6.79722510
_cell_length_b   6.78407985
_cell_length_c   13.92816100
_cell_angle_alpha   90.00036673
_cell_angle_beta   90.00030026
_cell_angle_gamma   120.06210892
_symmetry_Int_Tables_number   1
_chemical_formula_structural   Nb5Tc3Se16
_chemical_formula_sum   'Nb5 Tc3 Se16'
_cell_volume   555.87209152
_cell_formula_units_Z   1
loop_
 _symmetry_equiv_pos_site_id
 _symmetry_equiv_pos_as_xyz
  1  'x, y, z'
loop_
 _atom_site_type_symbol
 _atom_site_label
 _atom_site_symmetry_multiplicity
 _atom_site_fract_x
 _atom_site_fract_y
 _atom_site_fract_z
 _atom_site_occupancy
  Nb  Nb0  1  0.493830  0.987677  0.750001  1
  Nb  Nb1  1  0.999438  0.498747  0.249999  1
  Nb  Nb2  1  0.499331  0.498722  0.249999  1
  Nb  Nb3  1  0.493632  0.506027  0.749999  1
  Nb  Nb4  1  0.012385  0.506040  0.750001  1
  Tc  Tc5  1  0.002107  0.004191  0.249998  1
  Tc  Tc6  1  0.000012  0.000036  0.750001  1
  Tc  Tc7  1  0.502007  0.003958  0.249999  1
  Se  Se8  1  0.662376  0.324722  0.128111  1
  Se  Se9  1  0.333451  0.666902  0.623215  1
  Se  Se10  1  0.333457  0.666907  0.876786  1
  Se  Se11  1  0.662380  0.324726  0.371887  1
  Se  Se12  1  0.162486  0.324968  0.128122  1
  Se  Se13  1  0.835896  0.671798  0.630992  1
  Se  Se14  1  0.669953  0.839951  0.132544  1
  Se  Se15  1  0.170014  0.839973  0.132544  1
  Se  Se16  1  0.836005  0.164477  0.630978  1
  Se  Se17  1  0.328470  0.164481  0.630976  1
  Se  Se18  1  0.835900  0.671802  0.869009  1
  Se  Se19  1  0.836015  0.164490  0.869030  1
  Se  Se20  1  0.328485  0.164497  0.869025  1
  Se  Se21  1  0.669958  0.839956  0.367454  1
  Se  Se22  1  0.170020  0.839977  0.367454  1
  Se  Se23  1  0.162491  0.324973  0.371876  1
