# generated using pymatgen
data_CePa2Ni11(BPt)2
_symmetry_space_group_name_H-M   'P 1'
_cell_length_a   5.06096542
_cell_length_b   4.95761069
_cell_length_c   11.19184000
_cell_angle_alpha   90.00000000
_cell_angle_beta   90.00000000
_cell_angle_gamma   119.32671309
_symmetry_Int_Tables_number   1
_chemical_formula_structural   CePa2Ni11(BPt)2
_chemical_formula_sum   'Ce1 Pa2 Ni11 B2 Pt2'
_cell_volume   244.81869419
_cell_formula_units_Z   1
loop_
 _symmetry_equiv_pos_site_id
 _symmetry_equiv_pos_as_xyz
  1  'x, y, z'
loop_
 _atom_site_type_symbol
 _atom_site_label
 _atom_site_symmetry_multiplicity
 _atom_site_fract_x
 _atom_site_fract_y
 _atom_site_fract_z
 _atom_site_occupancy
  Ce  Ce0  1  0.000000  0.000000  0.005789  1
  Pa  Pa1  1  0.000000  0.000000  0.667133  1
  Pa  Pa2  1  0.000000  0.000000  0.335451  1
  Ni  Ni3  1  0.500000  0.500000  0.495653  1
  Ni  Ni4  1  0.500000  0.000000  0.495653  1
  Ni  Ni5  1  0.619954  0.309977  0.680803  1
  Ni  Ni6  1  0.380046  0.690023  0.680803  1
  Ni  Ni7  1  0.346560  0.673280  0.314337  1
  Ni  Ni8  1  0.653440  0.326720  0.314337  1
  Ni  Ni9  1  0.500000  0.500000  0.871239  1
  Ni  Ni10  1  0.500000  0.000000  0.871239  1
  Ni  Ni11  1  0.500000  0.500000  0.132894  1
  Ni  Ni12  1  0.500000  0.000000  0.132894  1
  Ni  Ni13  1  0.000000  0.500000  0.136592  1
  B  B14  1  0.661394  0.330696  0.003389  1
  B  B15  1  0.338606  0.669304  0.003389  1
  Pt  Pt16  1  0.000000  0.500000  0.502104  1
  Pt  Pt17  1  0.000000  0.500000  0.856300  1
