# generated using pymatgen
data_HfMn4Nb2Si4W
_symmetry_space_group_name_H-M   'P 1'
_cell_length_a   3.54934700
_cell_length_b   6.38318106
_cell_length_c   7.49480494
_cell_angle_alpha   90.74260323
_cell_angle_beta   90.00000000
_cell_angle_gamma   90.00000000
_symmetry_Int_Tables_number   1
_chemical_formula_structural   HfMn4Nb2Si4W
_chemical_formula_sum   'Hf1 Mn4 Nb2 Si4 W1'
_cell_volume   169.78897218
_cell_formula_units_Z   1
loop_
 _symmetry_equiv_pos_site_id
 _symmetry_equiv_pos_as_xyz
  1  'x, y, z'
loop_
 _atom_site_type_symbol
 _atom_site_label
 _atom_site_symmetry_multiplicity
 _atom_site_fract_x
 _atom_site_fract_y
 _atom_site_fract_z
 _atom_site_occupancy
  Hf  Hf0  1  0.750000  0.533321  0.824199  1
  Mn  Mn1  1  0.250000  0.361864  0.563166  1
  Mn  Mn2  1  0.250000  0.862368  0.938529  1
  Mn  Mn3  1  0.750000  0.640263  0.438429  1
  Mn  Mn4  1  0.750000  0.133905  0.061353  1
  Nb  Nb5  1  0.250000  0.967686  0.328836  1
  Nb  Nb6  1  0.250000  0.465607  0.175320  1
  Si  Si7  1  0.250000  0.743540  0.627760  1
  Si  Si8  1  0.250000  0.225405  0.868696  1
  Si  Si9  1  0.750000  0.266077  0.373022  1
  Si  Si10  1  0.750000  0.764991  0.131752  1
  W  W11  1  0.750000  0.034973  0.668938  1
