# generated using pymatgen
data_TbPr4In3
_symmetry_space_group_name_H-M   'P 1'
_cell_length_a   6.29146154
_cell_length_b   9.48037762
_cell_length_c   9.48037719
_cell_angle_alpha   83.68979333
_cell_angle_beta   70.64823020
_cell_angle_gamma   70.64823357
_symmetry_Int_Tables_number   1
_chemical_formula_structural   TbPr4In3
_chemical_formula_sum   'Tb2 Pr8 In6'
_cell_volume   503.37122975
_cell_formula_units_Z   2
loop_
 _symmetry_equiv_pos_site_id
 _symmetry_equiv_pos_as_xyz
  1  'x, y, z'
loop_
 _atom_site_type_symbol
 _atom_site_label
 _atom_site_symmetry_multiplicity
 _atom_site_fract_x
 _atom_site_fract_y
 _atom_site_fract_z
 _atom_site_occupancy
  Tb  Tb0  1  0.750000  0.500143  0.499857  1
  Tb  Tb1  1  0.250000  0.499857  0.500143  1
  Pr  Pr2  1  0.720175  0.865576  0.694006  1
  Pr  Pr3  1  0.279825  0.134424  0.305994  1
  Pr  Pr4  1  0.779825  0.305994  0.134424  1
  Pr  Pr5  1  0.220175  0.694006  0.865576  1
  Pr  Pr6  1  0.585759  0.694150  0.134564  1
  Pr  Pr7  1  0.414241  0.305850  0.865436  1
  Pr  Pr8  1  0.085759  0.134564  0.694150  1
  Pr  Pr9  1  0.914241  0.865436  0.305850  1
  In  In10  1  0.158837  0.499983  0.184403  1
  In  In11  1  0.841163  0.500017  0.815597  1
  In  In12  1  0.341163  0.815597  0.500017  1
  In  In13  1  0.658837  0.184403  0.499983  1
  In  In14  1  0.250000  0.999954  0.000046  1
  In  In15  1  0.750000  0.000046  0.999954  1
