# generated using pymatgen
data_Y4Al4CuIr3
_symmetry_space_group_name_H-M   'P 1'
_cell_length_a   4.32098700
_cell_length_b   6.85494162
_cell_length_c   7.84403659
_cell_angle_alpha   90.18558456
_cell_angle_beta   90.00000000
_cell_angle_gamma   90.00000000
_symmetry_Int_Tables_number   1
_chemical_formula_structural   Y4Al4CuIr3
_chemical_formula_sum   'Y4 Al4 Cu1 Ir3'
_cell_volume   232.34003629
_cell_formula_units_Z   1
loop_
 _symmetry_equiv_pos_site_id
 _symmetry_equiv_pos_as_xyz
  1  'x, y, z'
loop_
 _atom_site_type_symbol
 _atom_site_label
 _atom_site_symmetry_multiplicity
 _atom_site_fract_x
 _atom_site_fract_y
 _atom_site_fract_z
 _atom_site_occupancy
  Y  Y0  1  0.250000  0.026363  0.680042  1
  Y  Y1  1  0.250000  0.534865  0.818551  1
  Y  Y2  1  0.750000  0.970983  0.320578  1
  Y  Y3  1  0.750000  0.474523  0.184160  1
  Al  Al4  1  0.250000  0.142689  0.061745  1
  Al  Al5  1  0.250000  0.642211  0.436971  1
  Al  Al6  1  0.750000  0.852974  0.937497  1
  Al  Al7  1  0.750000  0.360568  0.560057  1
  Cu  Cu8  1  0.750000  0.224475  0.879552  1
  Ir  Ir9  1  0.250000  0.268874  0.382243  1
  Ir  Ir10  1  0.250000  0.770611  0.117451  1
  Ir  Ir11  1  0.750000  0.730865  0.621151  1
