# generated using pymatgen
data_Hf3Ga3PdRuPt
_symmetry_space_group_name_H-M   'P 1'
_cell_length_a   7.35466900
_cell_length_b   7.35466945
_cell_length_c   6.63089700
_cell_angle_alpha   90.00000000
_cell_angle_beta   90.00000000
_cell_angle_gamma   119.99999347
_symmetry_Int_Tables_number   1
_chemical_formula_structural   Hf3Ga3PdRuPt
_chemical_formula_sum   'Hf6 Ga6 Pd2 Ru2 Pt2'
_cell_volume   310.61986929
_cell_formula_units_Z   2
loop_
 _symmetry_equiv_pos_site_id
 _symmetry_equiv_pos_as_xyz
  1  'x, y, z'
loop_
 _atom_site_type_symbol
 _atom_site_label
 _atom_site_symmetry_multiplicity
 _atom_site_fract_x
 _atom_site_fract_y
 _atom_site_fract_z
 _atom_site_occupancy
  Hf  Hf0  1  0.733500  0.055603  0.000000  1
  Hf  Hf1  1  0.322104  0.266500  0.000000  1
  Hf  Hf2  1  0.944397  0.677896  0.000000  1
  Hf  Hf3  1  0.323601  0.266552  0.500000  1
  Hf  Hf4  1  0.733448  0.057049  0.500000  1
  Hf  Hf5  1  0.942951  0.676399  0.500000  1
  Ga  Ga6  1  0.607651  0.667841  0.749979  1
  Ga  Ga7  1  0.060190  0.392349  0.749979  1
  Ga  Ga8  1  0.332159  0.939810  0.749979  1
  Ga  Ga9  1  0.607651  0.667841  0.250021  1
  Ga  Ga10  1  0.060190  0.392349  0.250021  1
  Ga  Ga11  1  0.332159  0.939810  0.250021  1
  Pd  Pd12  1  0.333333  0.666667  0.000000  1
  Pd  Pd13  1  0.333333  0.666667  0.500000  1
  Ru  Ru14  1  0.000000  0.000000  0.250105  1
  Ru  Ru15  1  0.000000  0.000000  0.749895  1
  Pt  Pt16  1  0.666667  0.333333  0.751079  1
  Pt  Pt17  1  0.666667  0.333333  0.248921  1
