# generated using pymatgen
data_Hg3BiPt3WO14
_symmetry_space_group_name_H-M   'P 1'
_cell_length_a   7.30738384
_cell_length_b   7.46137238
_cell_length_c   7.30738500
_cell_angle_alpha   60.68038574
_cell_angle_beta   59.99999930
_cell_angle_gamma   60.68037834
_symmetry_Int_Tables_number   1
_chemical_formula_structural   Hg3BiPt3WO14
_chemical_formula_sum   'Hg3 Bi1 Pt3 W1 O14'
_cell_volume   284.58903974
_cell_formula_units_Z   1
loop_
 _symmetry_equiv_pos_site_id
 _symmetry_equiv_pos_as_xyz
  1  'x, y, z'
loop_
 _atom_site_type_symbol
 _atom_site_label
 _atom_site_symmetry_multiplicity
 _atom_site_fract_x
 _atom_site_fract_y
 _atom_site_fract_z
 _atom_site_occupancy
  Hg  Hg0  1  0.125000  0.125000  0.625000  1
  Hg  Hg1  1  0.625000  0.125000  0.125000  1
  Hg  Hg2  1  0.125000  0.125000  0.125000  1
  Bi  Bi3  1  0.125000  0.625000  0.125000  1
  Pt  Pt4  1  0.625000  0.625000  0.125000  1
  Pt  Pt5  1  0.125000  0.625000  0.625000  1
  Pt  Pt6  1  0.625000  0.625000  0.625000  1
  W  W7  1  0.625000  0.125000  0.625000  1
  O  O8  1  0.251420  0.245742  0.251420  1
  O  O9  1  0.998580  0.004258  0.998580  1
  O  O10  1  0.559969  0.942266  0.559969  1
  O  O11  1  0.291442  0.707377  0.291442  1
  O  O12  1  0.540261  0.542623  0.958558  1
  O  O13  1  0.958558  0.542623  0.540261  1
  O  O14  1  0.559969  0.942266  0.937795  1
  O  O15  1  0.937795  0.942266  0.559969  1
  O  O16  1  0.958558  0.542623  0.958558  1
  O  O17  1  0.690031  0.307734  0.312205  1
  O  O18  1  0.291442  0.707377  0.709739  1
  O  O19  1  0.690031  0.307734  0.690031  1
  O  O20  1  0.312205  0.307734  0.690031  1
  O  O21  1  0.709739  0.707377  0.291442  1
