# generated using pymatgen
data_Mg4Zn7Os
_symmetry_space_group_name_H-M   'P 1'
_cell_length_a   5.18889400
_cell_length_b   5.25051484
_cell_length_c   8.40329500
_cell_angle_alpha   90.00000000
_cell_angle_beta   90.00000000
_cell_angle_gamma   119.61252471
_symmetry_Int_Tables_number   1
_chemical_formula_structural   Mg4Zn7Os
_chemical_formula_sum   'Mg4 Zn7 Os1'
_cell_volume   199.03956235
_cell_formula_units_Z   1
loop_
 _symmetry_equiv_pos_site_id
 _symmetry_equiv_pos_as_xyz
  1  'x, y, z'
loop_
 _atom_site_type_symbol
 _atom_site_label
 _atom_site_symmetry_multiplicity
 _atom_site_fract_x
 _atom_site_fract_y
 _atom_site_fract_z
 _atom_site_occupancy
  Mg  Mg0  1  0.324562  0.649126  0.056081  1
  Mg  Mg1  1  0.669279  0.338557  0.576030  1
  Mg  Mg2  1  0.669279  0.338557  0.923970  1
  Mg  Mg3  1  0.324562  0.649126  0.443919  1
  Zn  Zn4  1  0.007838  0.015676  0.000146  1
  Zn  Zn5  1  0.007838  0.015676  0.499854  1
  Zn  Zn6  1  0.819196  0.164277  0.250000  1
  Zn  Zn7  1  0.345081  0.164277  0.250000  1
  Zn  Zn8  1  0.660337  0.829494  0.750000  1
  Zn  Zn9  1  0.169157  0.829494  0.750000  1
  Zn  Zn10  1  0.832094  0.664187  0.250000  1
  Os  Os11  1  0.170777  0.341553  0.750000  1
