# generated using pymatgen
data_Yb3Pr(Ga3Pd)6
_symmetry_space_group_name_H-M   'P 1'
_cell_length_a   7.69169400
_cell_length_b   7.68803037
_cell_length_c   9.58402300
_cell_angle_alpha   90.00000000
_cell_angle_beta   90.00000000
_cell_angle_gamma   119.68908475
_symmetry_Int_Tables_number   1
_chemical_formula_structural   Yb3Pr(Ga3Pd)6
_chemical_formula_sum   'Yb3 Pr1 Ga18 Pd6'
_cell_volume   492.34292203
_cell_formula_units_Z   1
loop_
 _symmetry_equiv_pos_site_id
 _symmetry_equiv_pos_as_xyz
  1  'x, y, z'
loop_
 _atom_site_type_symbol
 _atom_site_label
 _atom_site_symmetry_multiplicity
 _atom_site_fract_x
 _atom_site_fract_y
 _atom_site_fract_z
 _atom_site_occupancy
  Yb  Yb0  1  0.996781  0.668430  0.250000  1
  Yb  Yb1  1  0.001008  0.331373  0.750000  1
  Yb  Yb2  1  0.671101  0.999680  0.250000  1
  Pr  Pr3  1  0.331584  0.999396  0.750000  1
  Ga  Ga4  1  0.127756  0.130572  0.250000  1
  Ga  Ga5  1  0.870966  0.871534  0.750000  1
  Ga  Ga6  1  0.997957  0.334699  0.080905  1
  Ga  Ga7  1  0.997296  0.660724  0.921527  1
  Ga  Ga8  1  0.997296  0.660724  0.578473  1
  Ga  Ga9  1  0.334785  0.996801  0.413353  1
  Ga  Ga10  1  0.997957  0.334699  0.419095  1
  Ga  Ga11  1  0.670763  0.002681  0.578037  1
  Ga  Ga12  1  0.670763  0.002681  0.921963  1
  Ga  Ga13  1  0.334785  0.996801  0.086647  1
  Ga  Ga14  1  0.329151  0.332889  0.566163  1
  Ga  Ga15  1  0.669583  0.669687  0.431582  1
  Ga  Ga16  1  0.669583  0.669687  0.068418  1
  Ga  Ga17  1  0.329151  0.332889  0.933837  1
  Ga  Ga18  1  0.338035  0.545785  0.250000  1
  Ga  Ga19  1  0.662411  0.458709  0.750000  1
  Ga  Ga20  1  0.544018  0.341552  0.250000  1
  Ga  Ga21  1  0.458648  0.661657  0.750000  1
  Pd  Pd22  1  0.667868  0.328598  0.000955  1
  Pd  Pd23  1  0.330417  0.670516  0.999971  1
  Pd  Pd24  1  0.330417  0.670516  0.500029  1
  Pd  Pd25  1  0.667868  0.328598  0.499045  1
  Pd  Pd26  1  0.001026  0.999061  0.001201  1
  Pd  Pd27  1  0.001026  0.999061  0.498799  1
