# generated using pymatgen
data_Ta2BeNb2P3Rh4
_symmetry_space_group_name_H-M   'P 1'
_cell_length_a   3.69637900
_cell_length_b   6.33496147
_cell_length_c   7.25187700
_cell_angle_alpha   90.09298757
_cell_angle_beta   90.00000000
_cell_angle_gamma   90.00000000
_symmetry_Int_Tables_number   1
_chemical_formula_structural   Ta2BeNb2P3Rh4
_chemical_formula_sum   'Ta2 Be1 Nb2 P3 Rh4'
_cell_volume   169.81276342
_cell_formula_units_Z   1
loop_
 _symmetry_equiv_pos_site_id
 _symmetry_equiv_pos_as_xyz
  1  'x, y, z'
loop_
 _atom_site_type_symbol
 _atom_site_label
 _atom_site_symmetry_multiplicity
 _atom_site_fract_x
 _atom_site_fract_y
 _atom_site_fract_z
 _atom_site_occupancy
  Ta  Ta0  1  0.750000  0.963916  0.177591  1
  Ta  Ta1  1  0.750000  0.483374  0.332257  1
  Be  Be2  1  0.250000  0.766767  0.376196  1
  Nb  Nb3  1  0.250000  0.023942  0.825595  1
  Nb  Nb4  1  0.250000  0.532323  0.668979  1
  P  P5  1  0.250000  0.259592  0.126809  1
  P  P6  1  0.750000  0.233809  0.624738  1
  P  P7  1  0.750000  0.737493  0.870030  1
  Rh  Rh8  1  0.250000  0.146629  0.434612  1
  Rh  Rh9  1  0.250000  0.647487  0.067413  1
  Rh  Rh10  1  0.750000  0.853729  0.554767  1
  Rh  Rh11  1  0.750000  0.350939  0.941014  1
