# generated using pymatgen
data_Y4Ho8In2Fe2Tc
_symmetry_space_group_name_H-M   'P 1'
_cell_length_a   8.39450464
_cell_length_b   8.39450605
_cell_length_c   8.39450412
_cell_angle_alpha   108.79661704
_cell_angle_beta   108.79661927
_cell_angle_gamma   110.82900484
_symmetry_Int_Tables_number   1
_chemical_formula_structural   Y4Ho8In2Fe2Tc
_chemical_formula_sum   'Y4 Ho8 In2 Fe2 Tc1'
_cell_volume   455.17666664
_cell_formula_units_Z   1
loop_
 _symmetry_equiv_pos_site_id
 _symmetry_equiv_pos_as_xyz
  1  'x, y, z'
loop_
 _atom_site_type_symbol
 _atom_site_label
 _atom_site_symmetry_multiplicity
 _atom_site_fract_x
 _atom_site_fract_y
 _atom_site_fract_z
 _atom_site_occupancy
  Y  Y0  1  0.306865  0.306865  0.613731  1
  Y  Y1  1  0.693135  0.693135  0.386269  1
  Y  Y2  1  0.693135  0.306865  0.000000  1
  Y  Y3  1  0.306865  0.693135  0.000000  1
  Ho  Ho4  1  0.191871  0.429527  0.237656  1
  Ho  Ho5  1  0.808129  0.570473  0.762344  1
  Ho  Ho6  1  0.191871  0.954214  0.762344  1
  Ho  Ho7  1  0.954214  0.191871  0.762344  1
  Ho  Ho8  1  0.808129  0.045786  0.237656  1
  Ho  Ho9  1  0.045786  0.808129  0.237656  1
  Ho  Ho10  1  0.429527  0.191871  0.237656  1
  Ho  Ho11  1  0.570473  0.808129  0.762344  1
  In  In12  1  0.000000  0.500000  0.500000  1
  In  In13  1  0.500000  0.000000  0.500000  1
  Fe  Fe14  1  0.385864  0.385864  0.000000  1
  Fe  Fe15  1  0.614136  0.614136  0.000000  1
  Tc  Tc16  1  0.000000  0.000000  0.000000  1
