# generated using pymatgen
data_Nd3YEr12(CdIr)4
_symmetry_space_group_name_H-M   'P 1'
_cell_length_a   9.64973365
_cell_length_b   9.65179012
_cell_length_c   9.63410854
_cell_angle_alpha   60.04646831
_cell_angle_beta   59.86569934
_cell_angle_gamma   59.88587803
_symmetry_Int_Tables_number   1
_chemical_formula_structural   Nd3YEr12(CdIr)4
_chemical_formula_sum   'Nd3 Y1 Er12 Cd4 Ir4'
_cell_volume   633.51002374
_cell_formula_units_Z   1
loop_
 _symmetry_equiv_pos_site_id
 _symmetry_equiv_pos_as_xyz
  1  'x, y, z'
loop_
 _atom_site_type_symbol
 _atom_site_label
 _atom_site_symmetry_multiplicity
 _atom_site_fract_x
 _atom_site_fract_y
 _atom_site_fract_z
 _atom_site_occupancy
  Nd  Nd0  1  0.938272  0.561728  0.938272  1
  Nd  Nd1  1  0.562254  0.564795  0.936238  1
  Nd  Nd2  1  0.936238  0.936713  0.562254  1
  Y  Y3  1  0.560431  0.939569  0.560431  1
  Er  Er4  1  0.350234  0.346292  0.347851  1
  Er  Er5  1  0.349235  0.349373  0.955823  1
  Er  Er6  1  0.347851  0.955622  0.350234  1
  Er  Er7  1  0.955823  0.345568  0.349235  1
  Er  Er8  1  0.811846  0.187062  0.187250  1
  Er  Er9  1  0.187250  0.813842  0.811846  1
  Er  Er10  1  0.188566  0.811434  0.188566  1
  Er  Er11  1  0.811520  0.188480  0.811520  1
  Er  Er12  1  0.188739  0.189223  0.810351  1
  Er  Er13  1  0.810351  0.811687  0.188739  1
  Er  Er14  1  0.943398  0.557090  0.553853  1
  Er  Er15  1  0.553853  0.945659  0.943398  1
  Cd  Cd16  1  0.582222  0.580294  0.578416  1
  Cd  Cd17  1  0.578911  0.582456  0.259652  1
  Cd  Cd18  1  0.578416  0.259065  0.582222  1
  Cd  Cd19  1  0.259652  0.578979  0.578911  1
  Ir  Ir20  1  0.147198  0.138632  0.139023  1
  Ir  Ir21  1  0.142932  0.143706  0.575780  1
  Ir  Ir22  1  0.139023  0.575146  0.147198  1
  Ir  Ir23  1  0.575780  0.137582  0.142932  1
