# generated using pymatgen
data_Dy4Tm2Al24Os7Au
_symmetry_space_group_name_H-M   'P 1'
_cell_length_a   8.85403533
_cell_length_b   8.85403585
_cell_length_c   9.55949013
_cell_angle_alpha   89.85580318
_cell_angle_beta   90.14419549
_cell_angle_gamma   120.05114644
_symmetry_Int_Tables_number   1
_chemical_formula_structural   Dy4Tm2Al24Os7Au
_chemical_formula_sum   'Dy4 Tm2 Al24 Os7 Au1'
_cell_volume   648.66728390
_cell_formula_units_Z   1
loop_
 _symmetry_equiv_pos_site_id
 _symmetry_equiv_pos_as_xyz
  1  'x, y, z'
loop_
 _atom_site_type_symbol
 _atom_site_label
 _atom_site_symmetry_multiplicity
 _atom_site_fract_x
 _atom_site_fract_y
 _atom_site_fract_z
 _atom_site_occupancy
  Dy  Dy0  1  0.190658  0.386637  0.251205  1
  Dy  Dy1  1  0.809342  0.613363  0.748795  1
  Dy  Dy2  1  0.613363  0.809342  0.251205  1
  Dy  Dy3  1  0.386637  0.190658  0.748795  1
  Tm  Tm4  1  0.195946  0.804054  0.254273  1
  Tm  Tm5  1  0.804054  0.195946  0.745727  1
  Al  Al6  1  0.328366  0.671634  0.023511  1
  Al  Al7  1  0.671634  0.328366  0.976489  1
  Al  Al8  1  0.666236  0.333764  0.518516  1
  Al  Al9  1  0.333764  0.666236  0.481484  1
  Al  Al10  1  0.162738  0.325845  0.575810  1
  Al  Al11  1  0.837262  0.674155  0.424190  1
  Al  Al12  1  0.674155  0.837262  0.575810  1
  Al  Al13  1  0.848922  0.677663  0.079871  1
  Al  Al14  1  0.325845  0.162738  0.424190  1
  Al  Al15  1  0.151078  0.322337  0.920129  1
  Al  Al16  1  0.163264  0.836736  0.575218  1
  Al  Al17  1  0.322337  0.151078  0.079871  1
  Al  Al18  1  0.836736  0.163264  0.424782  1
  Al  Al19  1  0.677663  0.848922  0.920129  1
  Al  Al20  1  0.836614  0.163386  0.075449  1
  Al  Al21  1  0.163386  0.836614  0.924551  1
  Al  Al22  1  0.560456  0.121554  0.249163  1
  Al  Al23  1  0.439544  0.878446  0.750837  1
  Al  Al24  1  0.878446  0.439544  0.249163  1
  Al  Al25  1  0.121554  0.560456  0.750837  1
  Al  Al26  1  0.563841  0.436159  0.255740  1
  Al  Al27  1  0.436159  0.563841  0.744260  1
  Al  Al28  1  0.000178  0.999822  0.250356  1
  Al  Al29  1  0.999822  0.000178  0.749644  1
  Os  Os30  1  0.500000  0.000000  0.000000  1
  Os  Os31  1  0.000000  0.500000  0.000000  1
  Os  Os32  1  0.500000  0.000000  0.500000  1
  Os  Os33  1  0.000000  0.500000  0.500000  1
  Os  Os34  1  0.500000  0.500000  0.500000  1
  Os  Os35  1  0.000000  0.000000  0.000000  1
  Os  Os36  1  0.000000  0.000000  0.500000  1
  Au  Au37  1  0.500000  0.500000  0.000000  1
