# generated using pymatgen
data_SmHo3(Co5As3)4
_symmetry_space_group_name_H-M   'P 1'
_cell_length_a   3.78758400
_cell_length_b   12.17429928
_cell_length_c   10.67367076
_cell_angle_alpha   90.09613737
_cell_angle_beta   90.00000000
_cell_angle_gamma   90.00000000
_symmetry_Int_Tables_number   1
_chemical_formula_structural   SmHo3(Co5As3)4
_chemical_formula_sum   'Sm1 Ho3 Co20 As12'
_cell_volume   492.17487328
_cell_formula_units_Z   1
loop_
 _symmetry_equiv_pos_site_id
 _symmetry_equiv_pos_as_xyz
  1  'x, y, z'
loop_
 _atom_site_type_symbol
 _atom_site_label
 _atom_site_symmetry_multiplicity
 _atom_site_fract_x
 _atom_site_fract_y
 _atom_site_fract_z
 _atom_site_occupancy
  Sm  Sm0  1  0.750000  0.701994  0.082348  1
  Ho  Ho1  1  0.250000  0.298744  0.918130  1
  Ho  Ho2  1  0.250000  0.798608  0.581606  1
  Ho  Ho3  1  0.750000  0.201397  0.418426  1
  Co  Co4  1  0.750000  0.696912  0.385392  1
  Co  Co5  1  0.250000  0.302747  0.615913  1
  Co  Co6  1  0.250000  0.803896  0.882528  1
  Co  Co7  1  0.750000  0.197280  0.116046  1
  Co  Co8  1  0.750000  0.990985  0.211711  1
  Co  Co9  1  0.250000  0.009273  0.787922  1
  Co  Co10  1  0.250000  0.507981  0.711238  1
  Co  Co11  1  0.750000  0.490479  0.288728  1
  Co  Co12  1  0.750000  0.677532  0.783470  1
  Co  Co13  1  0.250000  0.322111  0.216331  1
  Co  Co14  1  0.250000  0.822797  0.284876  1
  Co  Co15  1  0.750000  0.177486  0.715654  1
  Co  Co16  1  0.750000  0.933754  0.968406  1
  Co  Co17  1  0.250000  0.069281  0.030126  1
  Co  Co18  1  0.250000  0.567427  0.470826  1
  Co  Co19  1  0.750000  0.431778  0.530927  1
  Co  Co20  1  0.750000  0.987897  0.592957  1
  Co  Co21  1  0.250000  0.012273  0.407045  1
  Co  Co22  1  0.250000  0.510023  0.092647  1
  Co  Co23  1  0.750000  0.487092  0.906382  1
  As  As24  1  0.750000  0.614244  0.584995  1
  As  As25  1  0.250000  0.385352  0.415562  1
  As  As26  1  0.250000  0.887977  0.084681  1
  As  As27  1  0.750000  0.115328  0.914995  1
  As  As28  1  0.750000  0.890651  0.399540  1
  As  As29  1  0.250000  0.109372  0.600384  1
  As  As30  1  0.250000  0.608532  0.897540  1
  As  As31  1  0.750000  0.390416  0.100570  1
  As  As32  1  0.750000  0.870243  0.768671  1
  As  As33  1  0.250000  0.129794  0.231091  1
  As  As34  1  0.250000  0.628655  0.271430  1
  As  As35  1  0.750000  0.369689  0.730909  1
