# generated using pymatgen
data_La5InSn2
_symmetry_space_group_name_H-M   'P 1'
_cell_length_a   9.55314417
_cell_length_b   9.55314504
_cell_length_c   9.55314500
_cell_angle_alpha   96.16064599
_cell_angle_beta   96.16064051
_cell_angle_gamma   141.75465046
_symmetry_Int_Tables_number   1
_chemical_formula_structural   La5InSn2
_chemical_formula_sum   'La10 In2 Sn4'
_cell_volume   509.91721517
_cell_formula_units_Z   2
loop_
 _symmetry_equiv_pos_site_id
 _symmetry_equiv_pos_as_xyz
  1  'x, y, z'
loop_
 _atom_site_type_symbol
 _atom_site_label
 _atom_site_symmetry_multiplicity
 _atom_site_fract_x
 _atom_site_fract_y
 _atom_site_fract_z
 _atom_site_occupancy
  La  La0  1  0.750000  0.250000  0.500000  1
  La  La1  1  0.250000  0.750000  0.500000  1
  La  La2  1  0.913488  0.220230  0.133718  1
  La  La3  1  0.220230  0.086512  0.306741  1
  La  La4  1  0.779770  0.913488  0.693259  1
  La  La5  1  0.086512  0.779770  0.866282  1
  La  La6  1  0.720230  0.413488  0.133718  1
  La  La7  1  0.279770  0.586512  0.866282  1
  La  La8  1  0.586512  0.720230  0.306741  1
  La  La9  1  0.413488  0.279770  0.693259  1
  In  In10  1  0.750000  0.750000  0.000000  1
  In  In11  1  0.250000  0.250000  0.000000  1
  Sn  Sn12  1  0.839767  0.660233  0.500000  1
  Sn  Sn13  1  0.660233  0.160233  0.820465  1
  Sn  Sn14  1  0.339767  0.839767  0.179535  1
  Sn  Sn15  1  0.160233  0.339767  0.500000  1
