# generated using pymatgen
data_CeSm2Dy3(SiPt5)2
_symmetry_space_group_name_H-M   'P 1'
_cell_length_a   8.28572109
_cell_length_b   8.26574350
_cell_length_c   8.26574196
_cell_angle_alpha   127.30930955
_cell_angle_beta   126.09372760
_cell_angle_gamma   78.68660224
_symmetry_Int_Tables_number   1
_chemical_formula_structural   CeSm2Dy3(SiPt5)2
_chemical_formula_sum   'Ce1 Sm2 Dy3 Si2 Pt10'
_cell_volume   352.25175891
_cell_formula_units_Z   1
loop_
 _symmetry_equiv_pos_site_id
 _symmetry_equiv_pos_as_xyz
  1  'x, y, z'
loop_
 _atom_site_type_symbol
 _atom_site_label
 _atom_site_symmetry_multiplicity
 _atom_site_fract_x
 _atom_site_fract_y
 _atom_site_fract_z
 _atom_site_occupancy
  Ce  Ce0  1  0.774321  0.050168  0.724153  1
  Sm  Sm1  1  0.387313  0.749705  0.637608  1
  Sm  Sm2  1  0.227150  0.948877  0.278273  1
  Dy  Dy3  1  0.829455  0.549665  0.279790  1
  Dy  Dy4  1  0.610097  0.250636  0.359460  1
  Dy  Dy5  1  0.171121  0.449965  0.721156  1
  Si  Si6  1  0.220119  0.250906  0.969213  1
  Si  Si7  1  0.785718  0.749784  0.035934  1
  Pt  Pt8  1  0.168077  0.899746  0.856810  1
  Pt  Pt9  1  0.829054  0.099739  0.142091  1
  Pt  Pt10  1  0.458722  0.193471  0.860817  1
  Pt  Pt11  1  0.545228  0.401912  0.733366  1
  Pt  Pt12  1  0.829054  0.686962  0.729314  1
  Pt  Pt13  1  0.458722  0.597905  0.265251  1
  Pt  Pt14  1  0.545228  0.811862  0.143317  1
  Pt  Pt15  1  0.168077  0.311268  0.268332  1
  Pt  Pt16  1  0.996271  0.003457  0.502299  1
  Pt  Pt17  1  0.996271  0.493972  0.992814  1
