# generated using pymatgen
data_Pr3Y3Al24Os5Pt3
_symmetry_space_group_name_H-M   'P 1'
_cell_length_a   8.90154517
_cell_length_b   8.91109884
_cell_length_c   9.60781229
_cell_angle_alpha   89.93572338
_cell_angle_beta   89.77964538
_cell_angle_gamma   119.82735720
_symmetry_Int_Tables_number   1
_chemical_formula_structural   Pr3Y3Al24Os5Pt3
_chemical_formula_sum   'Pr3 Y3 Al24 Os5 Pt3'
_cell_volume   661.14822069
_cell_formula_units_Z   1
loop_
 _symmetry_equiv_pos_site_id
 _symmetry_equiv_pos_as_xyz
  1  'x, y, z'
loop_
 _atom_site_type_symbol
 _atom_site_label
 _atom_site_symmetry_multiplicity
 _atom_site_fract_x
 _atom_site_fract_y
 _atom_site_fract_z
 _atom_site_occupancy
  Pr  Pr0  1  0.186140  0.377665  0.250318  1
  Pr  Pr1  1  0.813353  0.623231  0.749806  1
  Pr  Pr2  1  0.618669  0.814146  0.251750  1
  Y  Y3  1  0.385980  0.186316  0.748085  1
  Y  Y4  1  0.193940  0.809106  0.250279  1
  Y  Y5  1  0.804539  0.189905  0.749491  1
  Al  Al6  1  0.334914  0.671654  0.023715  1
  Al  Al7  1  0.663220  0.328004  0.971869  1
  Al  Al8  1  0.668946  0.330969  0.525542  1
  Al  Al9  1  0.329679  0.668938  0.478315  1
  Al  Al10  1  0.157834  0.324584  0.576538  1
  Al  Al11  1  0.843064  0.674268  0.425287  1
  Al  Al12  1  0.673757  0.842382  0.576410  1
  Al  Al13  1  0.838536  0.675826  0.077376  1
  Al  Al14  1  0.326235  0.157626  0.426967  1
  Al  Al15  1  0.162233  0.322679  0.920771  1
  Al  Al16  1  0.165354  0.836926  0.573329  1
  Al  Al17  1  0.326244  0.157710  0.072704  1
  Al  Al18  1  0.834763  0.164671  0.428378  1
  Al  Al19  1  0.673922  0.842424  0.924051  1
  Al  Al20  1  0.831811  0.160202  0.073195  1
  Al  Al21  1  0.168639  0.842172  0.924899  1
  Al  Al22  1  0.559930  0.125118  0.249216  1
  Al  Al23  1  0.438924  0.876461  0.750756  1
  Al  Al24  1  0.873128  0.438187  0.253651  1
  Al  Al25  1  0.125859  0.561146  0.746933  1
  Al  Al26  1  0.564029  0.434818  0.249381  1
  Al  Al27  1  0.434942  0.561933  0.750588  1
  Al  Al28  1  0.001121  0.998788  0.250194  1
  Al  Al29  1  0.004942  0.005105  0.749627  1
  Os  Os30  1  0.499434  0.000634  0.998669  1
  Os  Os31  1  0.499544  0.000868  0.501554  1
  Os  Os32  1  0.999514  0.499521  0.500640  1
  Os  Os33  1  0.999890  0.999954  0.999462  1
  Os  Os34  1  0.999859  0.999838  0.500401  1
  Pt  Pt35  1  0.999291  0.499551  0.999656  1
  Pt  Pt36  1  0.498873  0.498404  0.999099  1
  Pt  Pt37  1  0.498948  0.498268  0.501099  1
