# generated using pymatgen
data_RbCd2H8Rh
_symmetry_space_group_name_H-M   'P 1'
_cell_length_a   5.14963200
_cell_length_b   5.14963200
_cell_length_c   11.13081200
_cell_angle_alpha   90.00000000
_cell_angle_beta   90.00000000
_cell_angle_gamma   90.00000000
_symmetry_Int_Tables_number   1
_chemical_formula_structural   RbCd2H8Rh
_chemical_formula_sum   'Rb2 Cd4 H16 Rh2'
_cell_volume   295.17477255
_cell_formula_units_Z   2
loop_
 _symmetry_equiv_pos_site_id
 _symmetry_equiv_pos_as_xyz
  1  'x, y, z'
loop_
 _atom_site_type_symbol
 _atom_site_label
 _atom_site_symmetry_multiplicity
 _atom_site_fract_x
 _atom_site_fract_y
 _atom_site_fract_z
 _atom_site_occupancy
  Rb  Rb0  1  0.500000  0.000000  0.000000  1
  Rb  Rb1  1  0.000000  0.500000  0.500000  1
  Cd  Cd2  1  0.500000  0.000000  0.632627  1
  Cd  Cd3  1  0.000000  0.500000  0.132627  1
  Cd  Cd4  1  0.500000  0.000000  0.367373  1
  Cd  Cd5  1  0.000000  0.500000  0.867373  1
  H  H6  1  0.230344  0.230344  0.750000  1
  H  H7  1  0.769656  0.769656  0.750000  1
  H  H8  1  0.769656  0.230344  0.250000  1
  H  H9  1  0.230344  0.769656  0.250000  1
  H  H10  1  0.769656  0.769656  0.250000  1
  H  H11  1  0.230344  0.230344  0.250000  1
  H  H12  1  0.230344  0.769656  0.750000  1
  H  H13  1  0.769656  0.230344  0.750000  1
  H  H14  1  0.500000  0.257149  0.500000  1
  H  H15  1  0.500000  0.742851  0.500000  1
  H  H16  1  0.742851  0.500000  0.000000  1
  H  H17  1  0.257149  0.500000  0.000000  1
  H  H18  1  0.000000  0.000000  0.600875  1
  H  H19  1  0.000000  0.000000  0.100875  1
  H  H20  1  0.000000  0.000000  0.399125  1
  H  H21  1  0.000000  0.000000  0.899125  1
  Rh  Rh22  1  0.000000  0.000000  0.750000  1
  Rh  Rh23  1  0.000000  0.000000  0.250000  1
