# generated using pymatgen
data_Tb3Sm5(PBr6)2
_symmetry_space_group_name_H-M   'P 1'
_cell_length_a   4.07182500
_cell_length_b   13.34117212
_cell_length_c   14.06651386
_cell_angle_alpha   90.17230449
_cell_angle_beta   90.00000000
_cell_angle_gamma   90.00000000
_symmetry_Int_Tables_number   1
_chemical_formula_structural   Tb3Sm5(PBr6)2
_chemical_formula_sum   'Tb3 Sm5 P2 Br12'
_cell_volume   764.13062609
_cell_formula_units_Z   1
loop_
 _symmetry_equiv_pos_site_id
 _symmetry_equiv_pos_as_xyz
  1  'x, y, z'
loop_
 _atom_site_type_symbol
 _atom_site_label
 _atom_site_symmetry_multiplicity
 _atom_site_fract_x
 _atom_site_fract_y
 _atom_site_fract_z
 _atom_site_occupancy
  Tb  Tb0  1  0.500000  0.882560  0.657474  1
  Tb  Tb1  1  0.500000  0.616821  0.156544  1
  Tb  Tb2  1  0.500000  0.383225  0.843366  1
  Sm  Sm3  1  0.500000  0.116893  0.343378  1
  Sm  Sm4  1  0.000000  0.116774  0.577338  1
  Sm  Sm5  1  0.000000  0.883877  0.421792  1
  Sm  Sm6  1  0.000000  0.616410  0.922374  1
  Sm  Sm7  1  0.000000  0.384055  0.077318  1
  P  P8  1  0.500000  0.998442  0.502107  1
  P  P9  1  0.500000  0.500299  0.999789  1
  Br  Br10  1  0.500000  0.242246  0.162646  1
  Br  Br11  1  0.500000  0.759098  0.834807  1
  Br  Br12  1  0.500000  0.740441  0.334733  1
  Br  Br13  1  0.500000  0.259159  0.665895  1
  Br  Br14  1  0.000000  0.258601  0.413387  1
  Br  Br15  1  0.000000  0.745613  0.589919  1
  Br  Br16  1  0.000000  0.754324  0.090024  1
  Br  Br17  1  0.000000  0.245634  0.909810  1
  Br  Br18  1  0.000000  0.999149  0.240436  1
  Br  Br19  1  0.000000  0.996284  0.756982  1
  Br  Br20  1  0.000000  0.503964  0.256862  1
  Br  Br21  1  0.000000  0.496132  0.743020  1
