# generated using pymatgen
data_Li30Si7Sn
_symmetry_space_group_name_H-M   'P 1'
_cell_length_a   9.22049759
_cell_length_b   9.22049699
_cell_length_c   9.24449900
_cell_angle_alpha   109.52395643
_cell_angle_beta   109.52395509
_cell_angle_gamma   109.41843606
_symmetry_Int_Tables_number   1
_chemical_formula_structural   Li30Si7Sn
_chemical_formula_sum   'Li30 Si7 Sn1'
_cell_volume   604.62639855
_cell_formula_units_Z   1
loop_
 _symmetry_equiv_pos_site_id
 _symmetry_equiv_pos_as_xyz
  1  'x, y, z'
loop_
 _atom_site_type_symbol
 _atom_site_label
 _atom_site_symmetry_multiplicity
 _atom_site_fract_x
 _atom_site_fract_y
 _atom_site_fract_z
 _atom_site_occupancy
  Li  Li0  1  0.337625  0.805860  0.726703  1
  Li  Li1  1  0.124049  0.749349  0.873999  1
  Li  Li2  1  0.730251  0.352649  0.816665  1
  Li  Li3  1  0.622398  0.769749  0.586414  1
  Li  Li4  1  0.031522  0.913878  0.691053  1
  Li  Li5  1  0.086211  0.276221  0.117244  1
  Li  Li6  1  0.914870  0.692307  0.032573  1
  Li  Li7  1  0.276046  0.117246  0.085766  1
  Li  Li8  1  0.190010  0.413789  0.531034  1
  Li  Li9  1  0.777437  0.585130  0.617703  1
  Li  Li10  1  0.694140  0.031765  0.920842  1
  Li  Li11  1  0.532653  0.194750  0.408767  1
  Li  Li12  1  0.625299  0.375951  0.249949  1
  Li  Li13  1  0.468235  0.162375  0.889077  1
  Li  Li14  1  0.881438  0.126679  0.752810  1
  Li  Li15  1  0.967821  0.381899  0.658939  1
  Li  Li16  1  0.414078  0.532179  0.191118  1
  Li  Li17  1  0.118101  0.085922  0.277040  1
  Li  Li18  1  0.305250  0.837903  0.214017  1
  Li  Li19  1  0.750651  0.874701  0.124650  1
  Li  Li20  1  0.882356  0.468478  0.159530  1
  Li  Li21  1  0.586122  0.617644  0.777175  1
  Li  Li22  1  0.382754  0.658800  0.968520  1
  Li  Li23  1  0.807693  0.722563  0.340266  1
  Li  Li24  1  0.662097  0.967347  0.376114  1
  Li  Li25  1  0.147351  0.877602  0.464016  1
  Li  Li26  1  0.223779  0.309990  0.841023  1
  Li  Li27  1  0.373321  0.254759  0.626131  1
  Li  Li28  1  0.841200  0.223954  0.309720  1
  Li  Li29  1  0.245241  0.618562  0.371372  1
  Si  Si30  1  0.584301  0.500819  0.000316  1
  Si  Si31  1  0.500000  0.000000  0.084177  1
  Si  Si32  1  0.000763  0.084733  0.500403  1
  Si  Si33  1  0.999181  0.583482  0.499497  1
  Si  Si34  1  0.083970  0.499237  0.999640  1
  Si  Si35  1  0.415267  0.416030  0.415670  1
  Si  Si36  1  0.916518  0.915699  0.916015  1
  Sn  Sn37  1  0.500000  0.000000  0.584052  1
