# generated using pymatgen
data_LiTb2Ho4Co17P12
_symmetry_space_group_name_H-M   'P 1'
_cell_length_a   3.71000800
_cell_length_b   10.54304200
_cell_length_c   12.19058000
_cell_angle_alpha   90.00000000
_cell_angle_beta   90.00000000
_cell_angle_gamma   90.00000000
_symmetry_Int_Tables_number   1
_chemical_formula_structural   LiTb2Ho4Co17P12
_chemical_formula_sum   'Li1 Tb2 Ho4 Co17 P12'
_cell_volume   476.83173487
_cell_formula_units_Z   1
loop_
 _symmetry_equiv_pos_site_id
 _symmetry_equiv_pos_as_xyz
  1  'x, y, z'
loop_
 _atom_site_type_symbol
 _atom_site_label
 _atom_site_symmetry_multiplicity
 _atom_site_fract_x
 _atom_site_fract_y
 _atom_site_fract_z
 _atom_site_occupancy
  Li  Li0  1  0.500000  0.500000  0.151730  1
  Tb  Tb1  1  0.000000  0.500000  0.523043  1
  Tb  Tb2  1  0.500000  0.000000  0.478185  1
  Ho  Ho3  1  0.500000  0.819443  0.206227  1
  Ho  Ho4  1  0.500000  0.180557  0.206227  1
  Ho  Ho5  1  0.000000  0.682401  0.794467  1
  Ho  Ho6  1  0.000000  0.317599  0.794467  1
  Co  Co7  1  0.000000  0.500000  0.985820  1
  Co  Co8  1  0.500000  0.000000  0.012188  1
  Co  Co9  1  0.500000  0.295939  0.431873  1
  Co  Co10  1  0.500000  0.704061  0.431873  1
  Co  Co11  1  0.000000  0.202451  0.570554  1
  Co  Co12  1  0.000000  0.797549  0.570554  1
  Co  Co13  1  0.500000  0.879684  0.709652  1
  Co  Co14  1  0.500000  0.120316  0.709652  1
  Co  Co15  1  0.000000  0.622415  0.292705  1
  Co  Co16  1  0.000000  0.377585  0.292705  1
  Co  Co17  1  0.500000  0.330841  0.994934  1
  Co  Co18  1  0.500000  0.669159  0.994934  1
  Co  Co19  1  0.000000  0.164876  0.003225  1
  Co  Co20  1  0.000000  0.835124  0.003225  1
  Co  Co21  1  0.000000  0.000000  0.840575  1
  Co  Co22  1  0.500000  0.500000  0.704787  1
  Co  Co23  1  0.000000  0.000000  0.295984  1
  P  P24  1  0.500000  0.309538  0.617182  1
  P  P25  1  0.500000  0.690462  0.617182  1
  P  P26  1  0.000000  0.189999  0.384704  1
  P  P27  1  0.000000  0.810001  0.384704  1
  P  P28  1  0.500000  0.500000  0.884386  1
  P  P29  1  0.000000  0.000000  0.116618  1
  P  P30  1  0.500000  0.847447  0.891748  1
  P  P31  1  0.500000  0.152553  0.891748  1
  P  P32  1  0.000000  0.657474  0.105411  1
  P  P33  1  0.000000  0.342526  0.105411  1
  P  P34  1  0.500000  0.500000  0.345055  1
  P  P35  1  0.000000  0.000000  0.656264  1
