# generated using pymatgen
data_La2Pr2DyIr3
_symmetry_space_group_name_H-M   'P 1'
_cell_length_a   11.31701200
_cell_length_b   11.31701200
_cell_length_c   6.57482100
_cell_angle_alpha   90.00000000
_cell_angle_beta   90.00000000
_cell_angle_gamma   90.00000000
_symmetry_Int_Tables_number   1
_chemical_formula_structural   La2Pr2DyIr3
_chemical_formula_sum   'La8 Pr8 Dy4 Ir12'
_cell_volume   842.06862562
_cell_formula_units_Z   4
loop_
 _symmetry_equiv_pos_site_id
 _symmetry_equiv_pos_as_xyz
  1  'x, y, z'
loop_
 _atom_site_type_symbol
 _atom_site_label
 _atom_site_symmetry_multiplicity
 _atom_site_fract_x
 _atom_site_fract_y
 _atom_site_fract_z
 _atom_site_occupancy
  La  La0  1  0.287609  0.089236  0.384804  1
  La  La1  1  0.287609  0.910764  0.884804  1
  La  La2  1  0.712391  0.089236  0.884804  1
  La  La3  1  0.712391  0.910764  0.384804  1
  La  La4  1  0.589236  0.787609  0.884804  1
  La  La5  1  0.589236  0.212391  0.384804  1
  La  La6  1  0.410764  0.787609  0.384804  1
  La  La7  1  0.410764  0.212391  0.884804  1
  Pr  Pr8  1  0.210568  0.412886  0.615727  1
  Pr  Pr9  1  0.210568  0.587114  0.115727  1
  Pr  Pr10  1  0.789432  0.412886  0.115727  1
  Pr  Pr11  1  0.789432  0.587114  0.615727  1
  Pr  Pr12  1  0.912886  0.710568  0.115727  1
  Pr  Pr13  1  0.912886  0.289432  0.615727  1
  Pr  Pr14  1  0.087114  0.710568  0.615727  1
  Pr  Pr15  1  0.087114  0.289432  0.115727  1
  Dy  Dy16  1  0.000000  0.000000  0.500475  1
  Dy  Dy17  1  0.000000  0.000000  0.000475  1
  Dy  Dy18  1  0.500000  0.500000  0.000475  1
  Dy  Dy19  1  0.500000  0.500000  0.500475  1
  Ir  Ir20  1  0.850872  0.147398  0.248540  1
  Ir  Ir21  1  0.850872  0.852602  0.748540  1
  Ir  Ir22  1  0.149128  0.147398  0.748540  1
  Ir  Ir23  1  0.149128  0.852602  0.248540  1
  Ir  Ir24  1  0.647398  0.350872  0.748540  1
  Ir  Ir25  1  0.647398  0.649128  0.248540  1
  Ir  Ir26  1  0.352602  0.350872  0.248540  1
  Ir  Ir27  1  0.352602  0.649128  0.748540  1
  Ir  Ir28  1  0.500000  0.000000  0.120104  1
  Ir  Ir29  1  0.500000  0.000000  0.620104  1
  Ir  Ir30  1  0.000000  0.500000  0.882660  1
  Ir  Ir31  1  0.000000  0.500000  0.382660  1
