# generated using pymatgen
data_Nd8Tm12CdSn15
_symmetry_space_group_name_H-M   'P 1'
_cell_length_a   8.23592286
_cell_length_b   8.23562486
_cell_length_c   14.96710100
_cell_angle_alpha   89.74261555
_cell_angle_beta   90.05548060
_cell_angle_gamma   90.22921371
_symmetry_Int_Tables_number   1
_chemical_formula_structural   Nd8Tm12CdSn15
_chemical_formula_sum   'Nd8 Tm12 Cd1 Sn15'
_cell_volume   1015.16926790
_cell_formula_units_Z   1
loop_
 _symmetry_equiv_pos_site_id
 _symmetry_equiv_pos_as_xyz
  1  'x, y, z'
loop_
 _atom_site_type_symbol
 _atom_site_label
 _atom_site_symmetry_multiplicity
 _atom_site_fract_x
 _atom_site_fract_y
 _atom_site_fract_z
 _atom_site_occupancy
  Nd  Nd0  1  0.655100  0.006290  0.468371  1
  Nd  Nd1  1  0.345909  0.997539  0.967139  1
  Nd  Nd2  1  0.004169  0.654600  0.532471  1
  Nd  Nd3  1  0.504603  0.846868  0.217554  1
  Nd  Nd4  1  0.499956  0.151923  0.717804  1
  Nd  Nd5  1  0.842123  0.506748  0.781246  1
  Nd  Nd6  1  0.153108  0.495129  0.282243  1
  Nd  Nd7  1  0.994494  0.347430  0.033763  1
  Tm  Tm8  1  0.496793  0.335943  0.119280  1
  Tm  Tm9  1  0.998357  0.165106  0.629937  1
  Tm  Tm10  1  0.838530  0.000773  0.870383  1
  Tm  Tm11  1  0.164493  0.001113  0.369969  1
  Tm  Tm12  1  0.501100  0.664315  0.620253  1
  Tm  Tm13  1  0.337157  0.499882  0.881386  1
  Tm  Tm14  1  0.665562  0.499103  0.379784  1
  Tm  Tm15  1  0.998153  0.837061  0.129582  1
  Tm  Tm16  1  0.331310  0.328509  0.499915  1
  Tm  Tm17  1  0.169915  0.827456  0.749939  1
  Tm  Tm18  1  0.830712  0.169025  0.250099  1
  Tm  Tm19  1  0.667122  0.669439  0.000079  1
  Cd  Cd20  1  0.134651  0.203452  0.823982  1
  Sn  Sn21  1  0.290873  0.962664  0.567681  1
  Sn  Sn22  1  0.706705  0.034686  0.067777  1
  Sn  Sn23  1  0.967448  0.291204  0.432473  1
  Sn  Sn24  1  0.468133  0.208591  0.317995  1
  Sn  Sn25  1  0.534610  0.792041  0.818045  1
  Sn  Sn26  1  0.208633  0.460367  0.684902  1
  Sn  Sn27  1  0.790859  0.532587  0.181651  1
  Sn  Sn28  1  0.034074  0.710334  0.932221  1
  Sn  Sn29  1  0.802256  0.865685  0.671320  1
  Sn  Sn30  1  0.197944  0.131529  0.171336  1
  Sn  Sn31  1  0.867911  0.801184  0.329112  1
  Sn  Sn32  1  0.369198  0.699737  0.421543  1
  Sn  Sn33  1  0.631842  0.300490  0.920976  1
  Sn  Sn34  1  0.698314  0.368640  0.578388  1
  Sn  Sn35  1  0.297885  0.632560  0.079401  1
