# generated using pymatgen
data_Lu3ZrSc2MnBi2
_symmetry_space_group_name_H-M   'P 1'
_cell_length_a   7.87533000
_cell_length_b   7.92018017
_cell_length_c   4.15020900
_cell_angle_alpha   90.00000000
_cell_angle_beta   90.00000000
_cell_angle_gamma   119.81286150
_symmetry_Int_Tables_number   1
_chemical_formula_structural   Lu3ZrSc2MnBi2
_chemical_formula_sum   'Lu3 Zr1 Sc2 Mn1 Bi2'
_cell_volume   224.60545502
_cell_formula_units_Z   1
loop_
 _symmetry_equiv_pos_site_id
 _symmetry_equiv_pos_as_xyz
  1  'x, y, z'
loop_
 _atom_site_type_symbol
 _atom_site_label
 _atom_site_symmetry_multiplicity
 _atom_site_fract_x
 _atom_site_fract_y
 _atom_site_fract_z
 _atom_site_occupancy
  Lu  Lu0  1  0.613752  0.000000  0.000000  1
  Lu  Lu1  1  0.002031  0.618476  0.000000  1
  Lu  Lu2  1  0.383556  0.381524  0.000000  1
  Zr  Zr3  1  0.219751  0.000000  0.500000  1
  Sc  Sc4  1  0.000820  0.225480  0.500000  1
  Sc  Sc5  1  0.775340  0.774520  0.500000  1
  Mn  Mn6  1  0.001299  0.000000  0.000000  1
  Bi  Bi7  1  0.334048  0.664646  0.500000  1
  Bi  Bi8  1  0.669403  0.335354  0.500000  1
