# generated using pymatgen
data_KUBr4O
_symmetry_space_group_name_H-M   'P 1'
_cell_length_a   7.98290283
_cell_length_b   7.98290281
_cell_length_c   8.07466003
_cell_angle_alpha   105.62950446
_cell_angle_beta   105.62950476
_cell_angle_gamma   30.18073979
_symmetry_Int_Tables_number   1
_chemical_formula_structural   KUBr4O
_chemical_formula_sum   'K1 U1 Br4 O1'
_cell_volume   248.41517118
_cell_formula_units_Z   1
loop_
 _symmetry_equiv_pos_site_id
 _symmetry_equiv_pos_as_xyz
  1  'x, y, z'
loop_
 _atom_site_type_symbol
 _atom_site_label
 _atom_site_symmetry_multiplicity
 _atom_site_fract_x
 _atom_site_fract_y
 _atom_site_fract_z
 _atom_site_occupancy
  K  K0  1  0.996625  0.003374  0.000000  1
  U  U1  1  0.499805  0.500195  0.500000  1
  Br  Br2  1  0.371186  0.369688  0.186713  1
  Br  Br3  1  0.628500  0.628135  0.322441  1
  Br  Br4  1  0.371865  0.371499  0.677559  1
  Br  Br5  1  0.630312  0.628814  0.813287  1
  O  O6  1  0.001032  0.998969  0.500000  1
