# generated using pymatgen
data_Dy16Sc4Si11Ir
_symmetry_space_group_name_H-M   'P 1'
_cell_length_a   11.05651520
_cell_length_b   11.05651526
_cell_length_c   6.17155700
_cell_angle_alpha   89.67197754
_cell_angle_beta   89.67197754
_cell_angle_gamma   89.94902781
_symmetry_Int_Tables_number   1
_chemical_formula_structural   Dy16Sc4Si11Ir
_chemical_formula_sum   'Dy16 Sc4 Si11 Ir1'
_cell_volume   754.42641644
_cell_formula_units_Z   1
loop_
 _symmetry_equiv_pos_site_id
 _symmetry_equiv_pos_as_xyz
  1  'x, y, z'
loop_
 _atom_site_type_symbol
 _atom_site_label
 _atom_site_symmetry_multiplicity
 _atom_site_fract_x
 _atom_site_fract_y
 _atom_site_fract_z
 _atom_site_occupancy
  Dy  Dy0  1  0.282683  0.086730  0.349407  1
  Dy  Dy1  1  0.290013  0.908425  0.850184  1
  Dy  Dy2  1  0.712697  0.084397  0.847724  1
  Dy  Dy3  1  0.716305  0.913337  0.347915  1
  Dy  Dy4  1  0.578008  0.786714  0.852836  1
  Dy  Dy5  1  0.586456  0.217152  0.345146  1
  Dy  Dy6  1  0.411107  0.780759  0.358670  1
  Dy  Dy7  1  0.414327  0.214403  0.847057  1
  Dy  Dy8  1  0.213286  0.421992  0.647164  1
  Dy  Dy9  1  0.219241  0.588893  0.141330  1
  Dy  Dy10  1  0.782848  0.413544  0.154854  1
  Dy  Dy11  1  0.785597  0.585673  0.652943  1
  Dy  Dy12  1  0.913270  0.717317  0.150593  1
  Dy  Dy13  1  0.915603  0.287303  0.652276  1
  Dy  Dy14  1  0.091575  0.709987  0.649816  1
  Dy  Dy15  1  0.086663  0.283695  0.152085  1
  Sc  Sc16  1  0.999021  0.000178  0.500755  1
  Sc  Sc17  1  0.999822  0.000979  0.999245  1
  Sc  Sc18  1  0.500069  0.504333  0.000631  1
  Sc  Sc19  1  0.495667  0.499931  0.499369  1
  Si  Si20  1  0.845993  0.154007  0.250000  1
  Si  Si21  1  0.846909  0.845782  0.749274  1
  Si  Si22  1  0.154218  0.153091  0.750726  1
  Si  Si23  1  0.150598  0.849402  0.250000  1
  Si  Si24  1  0.653440  0.346560  0.750000  1
  Si  Si25  1  0.656788  0.653532  0.248414  1
  Si  Si26  1  0.346468  0.343212  0.251586  1
  Si  Si27  1  0.500548  0.002328  0.105862  1
  Si  Si28  1  0.500003  0.001848  0.575621  1
  Si  Si29  1  0.998152  0.499997  0.924379  1
  Si  Si30  1  0.997672  0.499452  0.394138  1
  Ir  Ir31  1  0.354955  0.645045  0.750000  1
