# generated using pymatgen
data_Er8MnOsI8
_symmetry_space_group_name_H-M   'P 1'
_cell_length_a   11.20268799
_cell_length_b   11.20268984
_cell_length_c   6.07056940
_cell_angle_alpha   89.77333907
_cell_angle_beta   89.77334126
_cell_angle_gamma   89.14726230
_symmetry_Int_Tables_number   1
_chemical_formula_structural   Er8MnOsI8
_chemical_formula_sum   'Er8 Mn1 Os1 I8'
_cell_volume   761.76178696
_cell_formula_units_Z   1
loop_
 _symmetry_equiv_pos_site_id
 _symmetry_equiv_pos_as_xyz
  1  'x, y, z'
loop_
 _atom_site_type_symbol
 _atom_site_label
 _atom_site_symmetry_multiplicity
 _atom_site_fract_x
 _atom_site_fract_y
 _atom_site_fract_z
 _atom_site_occupancy
  Er  Er0  1  0.196739  0.917572  0.003875  1
  Er  Er1  1  0.803380  0.082430  0.005381  1
  Er  Er2  1  0.082428  0.803261  0.496125  1
  Er  Er3  1  0.917570  0.196620  0.494619  1
  Er  Er4  1  0.805992  0.921812  0.497463  1
  Er  Er5  1  0.193931  0.078050  0.493010  1
  Er  Er6  1  0.078188  0.194008  0.002537  1
  Er  Er7  1  0.921950  0.806069  0.006990  1
  Mn  Mn8  1  0.999964  0.000036  0.250000  1
  Os  Os9  1  0.000128  0.999872  0.750000  1
  I  I10  1  0.357724  0.847369  0.493473  1
  I  I11  1  0.642209  0.152310  0.495141  1
  I  I12  1  0.152631  0.642276  0.006527  1
  I  I13  1  0.847690  0.357791  0.004859  1
  I  I14  1  0.354657  0.147111  0.007279  1
  I  I15  1  0.645255  0.853323  0.003810  1
  I  I16  1  0.852889  0.645343  0.492721  1
  I  I17  1  0.146677  0.354745  0.496190  1
