# generated using pymatgen
data_DyY2CdIn3Ni2
_symmetry_space_group_name_H-M   'P 1'
_cell_length_a   7.85077100
_cell_length_b   7.85485980
_cell_length_c   3.69001700
_cell_angle_alpha   90.00000000
_cell_angle_beta   90.00000000
_cell_angle_gamma   119.97901698
_symmetry_Int_Tables_number   1
_chemical_formula_structural   DyY2CdIn3Ni2
_chemical_formula_sum   'Dy1 Y2 Cd1 In3 Ni2'
_cell_volume   197.10676683
_cell_formula_units_Z   1
loop_
 _symmetry_equiv_pos_site_id
 _symmetry_equiv_pos_as_xyz
  1  'x, y, z'
loop_
 _atom_site_type_symbol
 _atom_site_label
 _atom_site_symmetry_multiplicity
 _atom_site_fract_x
 _atom_site_fract_y
 _atom_site_fract_z
 _atom_site_occupancy
  Dy  Dy0  1  0.035183  0.614483  0.500000  1
  Y  Y1  1  0.580164  0.966039  0.500000  1
  Y  Y2  1  0.385809  0.419840  0.500000  1
  Cd  Cd3  1  0.667013  0.333652  0.000000  1
  In  In4  1  0.995069  0.248448  0.000000  1
  In  In5  1  0.253211  0.004853  0.000000  1
  In  In6  1  0.751696  0.746598  0.000000  1
  Ni  Ni7  1  0.999924  0.999595  0.500000  1
  Ni  Ni8  1  0.331931  0.666494  0.000000  1
