# generated using pymatgen
data_Zr5InHgBi2
_symmetry_space_group_name_H-M   'P 1'
_cell_length_a   8.92223731
_cell_length_b   8.92223745
_cell_length_c   6.03031900
_cell_angle_alpha   90.00000000
_cell_angle_beta   90.00000000
_cell_angle_gamma   119.85332826
_symmetry_Int_Tables_number   1
_chemical_formula_structural   Zr5InHgBi2
_chemical_formula_sum   'Zr10 In2 Hg2 Bi4'
_cell_volume   416.34987721
_cell_formula_units_Z   2
loop_
 _symmetry_equiv_pos_site_id
 _symmetry_equiv_pos_as_xyz
  1  'x, y, z'
loop_
 _atom_site_type_symbol
 _atom_site_label
 _atom_site_symmetry_multiplicity
 _atom_site_fract_x
 _atom_site_fract_y
 _atom_site_fract_z
 _atom_site_occupancy
  Zr  Zr0  1  0.720406  0.005736  0.250000  1
  Zr  Zr1  1  0.005736  0.720406  0.250000  1
  Zr  Zr2  1  0.280015  0.280015  0.250000  1
  Zr  Zr3  1  0.278071  0.998823  0.750000  1
  Zr  Zr4  1  0.998823  0.278071  0.750000  1
  Zr  Zr5  1  0.721711  0.721711  0.750000  1
  Zr  Zr6  1  0.331136  0.666349  0.496443  1
  Zr  Zr7  1  0.666349  0.331136  0.496443  1
  Zr  Zr8  1  0.666349  0.331136  0.003557  1
  Zr  Zr9  1  0.331136  0.666349  0.003557  1
  In  In10  1  0.379068  0.000759  0.250000  1
  In  In11  1  0.000759  0.379068  0.250000  1
  Hg  Hg12  1  0.001816  0.001816  0.496369  1
  Hg  Hg13  1  0.001816  0.001816  0.003631  1
  Bi  Bi14  1  0.620265  0.620265  0.250000  1
  Bi  Bi15  1  0.615505  0.998983  0.750000  1
  Bi  Bi16  1  0.998983  0.615505  0.750000  1
  Bi  Bi17  1  0.382055  0.382055  0.750000  1
