# generated using pymatgen
data_Tb3Pr16HoSn16
_symmetry_space_group_name_H-M   'P 1'
_cell_length_a   8.29443705
_cell_length_b   8.45625620
_cell_length_c   16.05766900
_cell_angle_alpha   90.00000000
_cell_angle_beta   90.00000000
_cell_angle_gamma   89.99421769
_symmetry_Int_Tables_number   1
_chemical_formula_structural   Tb3Pr16HoSn16
_chemical_formula_sum   'Tb3 Pr16 Ho1 Sn16'
_cell_volume   1126.28304719
_cell_formula_units_Z   1
loop_
 _symmetry_equiv_pos_site_id
 _symmetry_equiv_pos_as_xyz
  1  'x, y, z'
loop_
 _atom_site_type_symbol
 _atom_site_label
 _atom_site_symmetry_multiplicity
 _atom_site_fract_x
 _atom_site_fract_y
 _atom_site_fract_z
 _atom_site_occupancy
  Tb  Tb0  1  0.698813  0.998683  0.750000  1
  Tb  Tb1  1  0.801171  0.498616  0.250000  1
  Tb  Tb2  1  0.301188  0.001419  0.250000  1
  Pr  Pr3  1  0.367561  0.836360  0.878835  1
  Pr  Pr4  1  0.867939  0.663339  0.621085  1
  Pr  Pr5  1  0.632281  0.163570  0.378900  1
  Pr  Pr6  1  0.132257  0.336466  0.120904  1
  Pr  Pr7  1  0.632281  0.163570  0.121100  1
  Pr  Pr8  1  0.132257  0.336466  0.379096  1
  Pr  Pr9  1  0.367561  0.836360  0.621165  1
  Pr  Pr10  1  0.867939  0.663339  0.878915  1
  Pr  Pr11  1  0.519453  0.319446  0.901469  1
  Pr  Pr12  1  0.019671  0.180806  0.598510  1
  Pr  Pr13  1  0.480439  0.680663  0.401587  1
  Pr  Pr14  1  0.980394  0.819353  0.098488  1
  Pr  Pr15  1  0.480439  0.680663  0.098413  1
  Pr  Pr16  1  0.980394  0.819353  0.401512  1
  Pr  Pr17  1  0.519453  0.319446  0.598531  1
  Pr  Pr18  1  0.019671  0.180806  0.901490  1
  Ho  Ho19  1  0.199199  0.501402  0.750000  1
  Sn  Sn20  1  0.292599  0.034273  0.043434  1
  Sn  Sn21  1  0.792539  0.465596  0.456532  1
  Sn  Sn22  1  0.707445  0.965711  0.543528  1
  Sn  Sn23  1  0.207491  0.534122  0.956138  1
  Sn  Sn24  1  0.707445  0.965711  0.956472  1
  Sn  Sn25  1  0.207491  0.534122  0.543862  1
  Sn  Sn26  1  0.292599  0.034273  0.456566  1
  Sn  Sn27  1  0.792539  0.465596  0.043468  1
  Sn  Sn28  1  0.564497  0.615997  0.750000  1
  Sn  Sn29  1  0.065214  0.883574  0.750000  1
  Sn  Sn30  1  0.434779  0.383908  0.250000  1
  Sn  Sn31  1  0.934943  0.116186  0.250000  1
  Sn  Sn32  1  0.325689  0.147177  0.750000  1
  Sn  Sn33  1  0.825919  0.353812  0.750000  1
  Sn  Sn34  1  0.674120  0.853533  0.250000  1
  Sn  Sn35  1  0.174333  0.646284  0.250000  1
