# generated using pymatgen
data_Ca3LuAs6Ir7
_symmetry_space_group_name_H-M   'P 1'
_cell_length_a   7.26156982
_cell_length_b   7.26157088
_cell_length_c   7.26157095
_cell_angle_alpha   109.33656934
_cell_angle_beta   109.33657583
_cell_angle_gamma   109.33657163
_symmetry_Int_Tables_number   1
_chemical_formula_structural   Ca3LuAs6Ir7
_chemical_formula_sum   'Ca3 Lu1 As6 Ir7'
_cell_volume   296.22118128
_cell_formula_units_Z   1
loop_
 _symmetry_equiv_pos_site_id
 _symmetry_equiv_pos_as_xyz
  1  'x, y, z'
loop_
 _atom_site_type_symbol
 _atom_site_label
 _atom_site_symmetry_multiplicity
 _atom_site_fract_x
 _atom_site_fract_y
 _atom_site_fract_z
 _atom_site_occupancy
  Ca  Ca0  1  0.000000  0.000000  0.500000  1
  Ca  Ca1  1  0.500000  0.000000  0.000000  1
  Ca  Ca2  1  0.000000  0.500000  0.000000  1
  Lu  Lu3  1  0.500000  0.500000  0.500000  1
  As  As4  1  0.681076  0.681076  0.002394  1
  As  As5  1  0.318924  0.318924  0.997606  1
  As  As6  1  0.002394  0.681076  0.681076  1
  As  As7  1  0.997606  0.318924  0.318924  1
  As  As8  1  0.681076  0.002394  0.681076  1
  As  As9  1  0.318924  0.997606  0.318924  1
  Ir  Ir10  1  0.000000  0.000000  0.000000  1
  Ir  Ir11  1  0.252606  0.500000  0.747394  1
  Ir  Ir12  1  0.747394  0.252606  0.500000  1
  Ir  Ir13  1  0.500000  0.252606  0.747394  1
  Ir  Ir14  1  0.500000  0.747394  0.252606  1
  Ir  Ir15  1  0.747394  0.500000  0.252606  1
  Ir  Ir16  1  0.252606  0.747394  0.500000  1
