# generated using pymatgen
data_Ca5Yb5(GaSb3)4
_symmetry_space_group_name_H-M   'P 1'
_cell_length_a   4.48862800
_cell_length_b   12.11372825
_cell_length_c   14.03405762
_cell_angle_alpha   89.93010174
_cell_angle_beta   90.00000000
_cell_angle_gamma   90.00000000
_symmetry_Int_Tables_number   1
_chemical_formula_structural   Ca5Yb5(GaSb3)4
_chemical_formula_sum   'Ca5 Yb5 Ga4 Sb12'
_cell_volume   763.08755889
_cell_formula_units_Z   1
loop_
 _symmetry_equiv_pos_site_id
 _symmetry_equiv_pos_as_xyz
  1  'x, y, z'
loop_
 _atom_site_type_symbol
 _atom_site_label
 _atom_site_symmetry_multiplicity
 _atom_site_fract_x
 _atom_site_fract_y
 _atom_site_fract_z
 _atom_site_occupancy
  Ca  Ca0  1  0.500000  0.999922  0.499903  1
  Ca  Ca1  1  0.500000  0.499961  0.000076  1
  Ca  Ca2  1  0.500000  0.091282  0.747149  1
  Ca  Ca3  1  0.500000  0.408635  0.247116  1
  Ca  Ca4  1  0.500000  0.591327  0.752899  1
  Yb  Yb5  1  0.500000  0.670911  0.481192  1
  Yb  Yb6  1  0.500000  0.329062  0.518720  1
  Yb  Yb7  1  0.500000  0.829281  0.981409  1
  Yb  Yb8  1  0.500000  0.170706  0.018772  1
  Yb  Yb9  1  0.500000  0.908581  0.253182  1
  Ga  Ga10  1  0.000000  0.330437  0.711258  1
  Ga  Ga11  1  0.000000  0.670335  0.288516  1
  Ga  Ga12  1  0.000000  0.830622  0.788745  1
  Ga  Ga13  1  0.000000  0.168815  0.211345  1
  Sb  Sb14  1  0.000000  0.973407  0.100379  1
  Sb  Sb15  1  0.000000  0.026025  0.899947  1
  Sb  Sb16  1  0.000000  0.474376  0.399860  1
  Sb  Sb17  1  0.000000  0.526040  0.600024  1
  Sb  Sb18  1  0.500000  0.162659  0.323235  1
  Sb  Sb19  1  0.500000  0.837156  0.676833  1
  Sb  Sb20  1  0.500000  0.663060  0.176823  1
  Sb  Sb21  1  0.500000  0.337121  0.823160  1
  Sb  Sb22  1  0.000000  0.344409  0.090872  1
  Sb  Sb23  1  0.000000  0.655273  0.909318  1
  Sb  Sb24  1  0.000000  0.845285  0.408584  1
  Sb  Sb25  1  0.000000  0.155313  0.590683  1
