# generated using pymatgen
data_Er8Hf12Si15Pd
_symmetry_space_group_name_H-M   'P 1'
_cell_length_a   7.24669455
_cell_length_b   7.28809372
_cell_length_c   13.35033906
_cell_angle_alpha   89.95282711
_cell_angle_beta   89.88192925
_cell_angle_gamma   90.07369887
_symmetry_Int_Tables_number   1
_chemical_formula_structural   Er8Hf12Si15Pd
_chemical_formula_sum   'Er8 Hf12 Si15 Pd1'
_cell_volume   705.09034980
_cell_formula_units_Z   1
loop_
 _symmetry_equiv_pos_site_id
 _symmetry_equiv_pos_as_xyz
  1  'x, y, z'
loop_
 _atom_site_type_symbol
 _atom_site_label
 _atom_site_symmetry_multiplicity
 _atom_site_fract_x
 _atom_site_fract_y
 _atom_site_fract_z
 _atom_site_occupancy
  Er  Er0  1  0.992962  0.347642  0.214429  1
  Er  Er1  1  0.005115  0.654817  0.715268  1
  Er  Er2  1  0.156815  0.496864  0.465067  1
  Er  Er3  1  0.504196  0.843198  0.033344  1
  Er  Er4  1  0.843588  0.502778  0.965324  1
  Er  Er5  1  0.496808  0.154795  0.537507  1
  Er  Er6  1  0.343766  0.997682  0.784991  1
  Er  Er7  1  0.661532  0.998445  0.283673  1
  Hf  Hf8  1  0.174455  0.176232  0.998987  1
  Hf  Hf9  1  0.827230  0.824869  0.500234  1
  Hf  Hf10  1  0.325313  0.679109  0.249925  1
  Hf  Hf11  1  0.675355  0.324684  0.750227  1
  Hf  Hf12  1  0.148679  0.001302  0.374077  1
  Hf  Hf13  1  0.851606  0.003065  0.875008  1
  Hf  Hf14  1  0.503860  0.649462  0.624810  1
  Hf  Hf15  1  0.352120  0.496337  0.874682  1
  Hf  Hf16  1  0.493892  0.349569  0.124389  1
  Hf  Hf17  1  0.647977  0.507258  0.379933  1
  Hf  Hf18  1  0.997152  0.148215  0.626127  1
  Hf  Hf19  1  0.000164  0.849435  0.123280  1
  Si  Si20  1  0.638726  0.706183  0.818811  1
  Si  Si21  1  0.204574  0.861002  0.567799  1
  Si  Si22  1  0.139006  0.794996  0.931198  1
  Si  Si23  1  0.795277  0.139019  0.067456  1
  Si  Si24  1  0.858424  0.200703  0.434511  1
  Si  Si25  1  0.295755  0.361258  0.682875  1
  Si  Si26  1  0.703649  0.639739  0.181583  1
  Si  Si27  1  0.293135  0.045529  0.182309  1
  Si  Si28  1  0.704129  0.951003  0.685841  1
  Si  Si29  1  0.449679  0.797875  0.436348  1
  Si  Si30  1  0.203135  0.549256  0.063367  1
  Si  Si31  1  0.548124  0.203191  0.935198  1
  Si  Si32  1  0.797041  0.450513  0.566287  1
  Si  Si33  1  0.047929  0.297659  0.814744  1
  Si  Si34  1  0.951282  0.704538  0.313630  1
  Pd  Pd35  1  0.367551  0.291779  0.316759  1
