# generated using pymatgen
data_Pr7Ho(Si3Au)4
_symmetry_space_group_name_H-M   'P 1'
_cell_length_a   8.28097164
_cell_length_b   8.31876270
_cell_length_c   8.71456800
_cell_angle_alpha   90.00000000
_cell_angle_beta   90.00000000
_cell_angle_gamma   120.15107525
_symmetry_Int_Tables_number   1
_chemical_formula_structural   Pr7Ho(Si3Au)4
_chemical_formula_sum   'Pr7 Ho1 Si12 Au4'
_cell_volume   519.10280011
_cell_formula_units_Z   1
loop_
 _symmetry_equiv_pos_site_id
 _symmetry_equiv_pos_as_xyz
  1  'x, y, z'
loop_
 _atom_site_type_symbol
 _atom_site_label
 _atom_site_symmetry_multiplicity
 _atom_site_fract_x
 _atom_site_fract_y
 _atom_site_fract_z
 _atom_site_occupancy
  Pr  Pr0  1  0.000054  0.000027  0.250000  1
  Pr  Pr1  1  0.999799  0.999900  0.750000  1
  Pr  Pr2  1  0.500426  0.499239  0.250000  1
  Pr  Pr3  1  0.500426  0.001188  0.250000  1
  Pr  Pr4  1  0.998298  0.499148  0.250000  1
  Pr  Pr5  1  0.499225  0.500990  0.750000  1
  Pr  Pr6  1  0.499225  0.998235  0.750000  1
  Ho  Ho7  1  0.002066  0.501033  0.750000  1
  Si  Si8  1  0.163768  0.836555  0.503051  1
  Si  Si9  1  0.163768  0.327213  0.503051  1
  Si  Si10  1  0.669855  0.834927  0.500252  1
  Si  Si11  1  0.836105  0.163360  0.500375  1
  Si  Si12  1  0.836105  0.672746  0.500375  1
  Si  Si13  1  0.330382  0.165192  0.498486  1
  Si  Si14  1  0.836105  0.163360  0.999625  1
  Si  Si15  1  0.836105  0.672746  0.999625  1
  Si  Si16  1  0.330382  0.165192  0.001514  1
  Si  Si17  1  0.163768  0.836555  0.996949  1
  Si  Si18  1  0.163768  0.327213  0.996949  1
  Si  Si19  1  0.669855  0.834927  0.999748  1
  Au  Au20  1  0.328534  0.664268  0.502820  1
  Au  Au21  1  0.671723  0.335861  0.509546  1
  Au  Au22  1  0.671723  0.335861  0.990454  1
  Au  Au23  1  0.328534  0.664268  0.997180  1
