# generated using pymatgen
data_Hf9AlRe3Pt
_symmetry_space_group_name_H-M   'P 1'
_cell_length_a   8.71167000
_cell_length_b   8.71167041
_cell_length_c   8.43740000
_cell_angle_alpha   90.00000000
_cell_angle_beta   90.00000000
_cell_angle_gamma   119.99999845
_symmetry_Int_Tables_number   1
_chemical_formula_structural   Hf9AlRe3Pt
_chemical_formula_sum   'Hf18 Al2 Re6 Pt2'
_cell_volume   554.55181262
_cell_formula_units_Z   2
loop_
 _symmetry_equiv_pos_site_id
 _symmetry_equiv_pos_as_xyz
  1  'x, y, z'
loop_
 _atom_site_type_symbol
 _atom_site_label
 _atom_site_symmetry_multiplicity
 _atom_site_fract_x
 _atom_site_fract_y
 _atom_site_fract_z
 _atom_site_occupancy
  Hf  Hf0  1  0.193313  0.806687  0.445164  1
  Hf  Hf1  1  0.193313  0.386623  0.445164  1
  Hf  Hf2  1  0.613377  0.806687  0.445164  1
  Hf  Hf3  1  0.806687  0.193313  0.554836  1
  Hf  Hf4  1  0.806687  0.613377  0.554836  1
  Hf  Hf5  1  0.386623  0.193313  0.554836  1
  Hf  Hf6  1  0.806687  0.193313  0.945164  1
  Hf  Hf7  1  0.806687  0.613377  0.945164  1
  Hf  Hf8  1  0.386623  0.193313  0.945164  1
  Hf  Hf9  1  0.193313  0.806687  0.054836  1
  Hf  Hf10  1  0.193313  0.386623  0.054836  1
  Hf  Hf11  1  0.613377  0.806687  0.054836  1
  Hf  Hf12  1  0.543527  0.456473  0.250000  1
  Hf  Hf13  1  0.543527  0.087055  0.250000  1
  Hf  Hf14  1  0.912945  0.456473  0.250000  1
  Hf  Hf15  1  0.456473  0.543527  0.750000  1
  Hf  Hf16  1  0.456473  0.912945  0.750000  1
  Hf  Hf17  1  0.087055  0.543527  0.750000  1
  Al  Al18  1  0.000000  0.000000  0.500000  1
  Al  Al19  1  0.000000  0.000000  0.000000  1
  Re  Re20  1  0.886529  0.113471  0.250000  1
  Re  Re21  1  0.886529  0.773057  0.250000  1
  Re  Re22  1  0.226943  0.113471  0.250000  1
  Re  Re23  1  0.113471  0.886529  0.750000  1
  Re  Re24  1  0.113471  0.226943  0.750000  1
  Re  Re25  1  0.773057  0.886529  0.750000  1
  Pt  Pt26  1  0.333333  0.666667  0.250000  1
  Pt  Pt27  1  0.666667  0.333333  0.750000  1
