# generated using pymatgen
data_Li3(AlCu)2
_symmetry_space_group_name_H-M   'P 1'
_cell_length_a   6.76388034
_cell_length_b   6.76388030
_cell_length_c   6.76387890
_cell_angle_alpha   36.42678987
_cell_angle_beta   36.42677735
_cell_angle_gamma   36.42678026
_symmetry_Int_Tables_number   1
_chemical_formula_structural   Li3(AlCu)2
_chemical_formula_sum   'Li3 Al2 Cu2'
_cell_volume   97.66351223
_cell_formula_units_Z   1
loop_
 _symmetry_equiv_pos_site_id
 _symmetry_equiv_pos_as_xyz
  1  'x, y, z'
loop_
 _atom_site_type_symbol
 _atom_site_label
 _atom_site_symmetry_multiplicity
 _atom_site_fract_x
 _atom_site_fract_y
 _atom_site_fract_z
 _atom_site_occupancy
  Li  Li0  1  0.646372  0.646372  0.646372  1
  Li  Li1  1  0.353628  0.353628  0.353628  1
  Li  Li2  1  0.500000  0.500000  0.500000  1
  Al  Al3  1  0.918351  0.918351  0.918351  1
  Al  Al4  1  0.081649  0.081649  0.081649  1
  Cu  Cu5  1  0.784344  0.784344  0.784344  1
  Cu  Cu6  1  0.215657  0.215657  0.215657  1
