# generated using pymatgen
data_La9PrC4Br15
_symmetry_space_group_name_H-M   'P 1'
_cell_length_a   9.35918236
_cell_length_b   10.43736334
_cell_length_c   11.29165716
_cell_angle_alpha   70.52241608
_cell_angle_beta   66.48024611
_cell_angle_gamma   70.82881296
_symmetry_Int_Tables_number   1
_chemical_formula_structural   La9PrC4Br15
_chemical_formula_sum   'La9 Pr1 C4 Br15'
_cell_volume   928.85068251
_cell_formula_units_Z   1
loop_
 _symmetry_equiv_pos_site_id
 _symmetry_equiv_pos_as_xyz
  1  'x, y, z'
loop_
 _atom_site_type_symbol
 _atom_site_label
 _atom_site_symmetry_multiplicity
 _atom_site_fract_x
 _atom_site_fract_y
 _atom_site_fract_z
 _atom_site_occupancy
  La  La0  1  0.335810  0.750932  0.830932  1
  La  La1  1  0.665627  0.249739  0.167554  1
  La  La2  1  0.171218  0.430697  0.045075  1
  La  La3  1  0.828988  0.570642  0.953895  1
  La  La4  1  0.077307  0.182334  0.888204  1
  La  La5  1  0.921715  0.818828  0.111317  1
  La  La6  1  0.244388  0.543468  0.643144  1
  La  La7  1  0.755360  0.456640  0.357144  1
  La  La8  1  0.030196  0.104105  0.264370  1
  Pr  Pr9  1  0.971359  0.892626  0.738689  1
  C  C10  1  0.880211  0.358285  0.172311  1
  C  C11  1  0.120678  0.640772  0.828533  1
  C  C12  1  0.955567  0.296728  0.062249  1
  C  C13  1  0.045756  0.702575  0.938323  1
  Br  Br14  1  0.500078  0.500161  0.999689  1
  Br  Br15  1  0.127254  0.817069  0.471710  1
  Br  Br16  1  0.869202  0.183082  0.531299  1
  Br  Br17  1  0.250781  0.025150  0.648534  1
  Br  Br18  1  0.745497  0.974149  0.351666  1
  Br  Br19  1  0.337392  0.168393  0.219708  1
  Br  Br20  1  0.665371  0.832490  0.779444  1
  Br  Br21  1  0.454221  0.369705  0.411794  1
  Br  Br22  1  0.545804  0.630796  0.587466  1
  Br  Br23  1  0.947203  0.444031  0.704628  1
  Br  Br24  1  0.052435  0.557037  0.294761  1
  Br  Br25  1  0.230694  0.909589  0.060129  1
  Br  Br26  1  0.770095  0.089849  0.937571  1
  Br  Br27  1  0.382583  0.275630  0.816285  1
  Br  Br28  1  0.617212  0.724497  0.183577  1
