# generated using pymatgen
data_TaTiBe9W
_symmetry_space_group_name_H-M   'P 1'
_cell_length_a   7.45695007
_cell_length_b   7.45694990
_cell_length_c   7.45694972
_cell_angle_alpha   35.13055444
_cell_angle_beta   35.13055587
_cell_angle_gamma   35.13055001
_symmetry_Int_Tables_number   1
_chemical_formula_structural   TaTiBe9W
_chemical_formula_sum   'Ta1 Ti1 Be9 W1'
_cell_volume   122.62426888
_cell_formula_units_Z   1
loop_
 _symmetry_equiv_pos_site_id
 _symmetry_equiv_pos_as_xyz
  1  'x, y, z'
loop_
 _atom_site_type_symbol
 _atom_site_label
 _atom_site_symmetry_multiplicity
 _atom_site_fract_x
 _atom_site_fract_y
 _atom_site_fract_z
 _atom_site_occupancy
  Ta  Ta0  1  0.857261  0.857261  0.857261  1
  Ti  Ti1  1  0.001466  0.001466  0.001466  1
  Be  Be2  1  0.413976  0.924665  0.413976  1
  Be  Be3  1  0.413976  0.413976  0.924665  1
  Be  Be4  1  0.924665  0.413976  0.413976  1
  Be  Be5  1  0.584704  0.078044  0.584704  1
  Be  Be6  1  0.584704  0.584704  0.078044  1
  Be  Be7  1  0.078044  0.584704  0.584704  1
  Be  Be8  1  0.664660  0.664660  0.664660  1
  Be  Be9  1  0.334338  0.334338  0.334338  1
  Be  Be10  1  0.499618  0.499618  0.499618  1
  W  W11  1  0.142589  0.142589  0.142589  1
