# generated using pymatgen
data_Zr5Mn(ZnRh2)6
_symmetry_space_group_name_H-M   'P 1'
_cell_length_a   4.46453400
_cell_length_b   6.27480500
_cell_length_c   13.34754800
_cell_angle_alpha   90.00005744
_cell_angle_beta   89.99766885
_cell_angle_gamma   90.00007503
_symmetry_Int_Tables_number   1
_chemical_formula_structural   Zr5Mn(ZnRh2)6
_chemical_formula_sum   'Zr5 Mn1 Zn6 Rh12'
_cell_volume   373.91928087
_cell_formula_units_Z   1
loop_
 _symmetry_equiv_pos_site_id
 _symmetry_equiv_pos_as_xyz
  1  'x, y, z'
loop_
 _atom_site_type_symbol
 _atom_site_label
 _atom_site_symmetry_multiplicity
 _atom_site_fract_x
 _atom_site_fract_y
 _atom_site_fract_z
 _atom_site_occupancy
  Zr  Zr0  1  0.999990  0.500001  0.995574  1
  Zr  Zr1  1  0.499853  0.000000  0.164583  1
  Zr  Zr2  1  0.999847  0.500000  0.333332  1
  Zr  Zr3  1  0.500001  0.000001  0.502075  1
  Zr  Zr4  1  0.000164  0.500002  0.671090  1
  Mn  Mn5  1  0.500153  0.999998  0.833338  1
  Zn  Zn6  1  0.999971  0.999998  0.998060  1
  Zn  Zn7  1  0.499867  0.500002  0.162845  1
  Zn  Zn8  1  0.999848  0.999999  0.333341  1
  Zn  Zn9  1  0.499999  0.500002  0.503820  1
  Zn  Zn10  1  0.000153  0.999998  0.668616  1
  Zn  Zn11  1  0.500143  0.500004  0.833346  1
  Rh  Rh12  1  0.499984  0.243967  0.995844  1
  Rh  Rh13  1  0.499982  0.756032  0.995842  1
  Rh  Rh14  1  0.999848  0.250079  0.165663  1
  Rh  Rh15  1  0.999850  0.749922  0.165664  1
  Rh  Rh16  1  0.499839  0.250790  0.333330  1
  Rh  Rh17  1  0.499837  0.749210  0.333329  1
  Rh  Rh18  1  0.999997  0.250074  0.500996  1
  Rh  Rh19  1  0.999998  0.749926  0.500997  1
  Rh  Rh20  1  0.500178  0.243957  0.670829  1
  Rh  Rh21  1  0.500177  0.756042  0.670832  1
  Rh  Rh22  1  0.000157  0.236170  0.833329  1
  Rh  Rh23  1  0.000158  0.763827  0.833327  1
