# generated using pymatgen
data_Tb4Zr3Au10
_symmetry_space_group_name_H-M   'P 1'
_cell_length_a   8.66732487
_cell_length_b   8.66732415
_cell_length_c   10.15872400
_cell_angle_alpha   90.00000000
_cell_angle_beta   90.00000000
_cell_angle_gamma   107.71120635
_symmetry_Int_Tables_number   1
_chemical_formula_structural   Tb4Zr3Au10
_chemical_formula_sum   'Tb8 Zr6 Au20'
_cell_volume   726.97715525
_cell_formula_units_Z   2
loop_
 _symmetry_equiv_pos_site_id
 _symmetry_equiv_pos_as_xyz
  1  'x, y, z'
loop_
 _atom_site_type_symbol
 _atom_site_label
 _atom_site_symmetry_multiplicity
 _atom_site_fract_x
 _atom_site_fract_y
 _atom_site_fract_z
 _atom_site_occupancy
  Tb  Tb0  1  0.688647  0.311353  0.000000  1
  Tb  Tb1  1  0.188647  0.811353  0.500000  1
  Tb  Tb2  1  0.809123  0.809123  0.306633  1
  Tb  Tb3  1  0.309123  0.309123  0.193367  1
  Tb  Tb4  1  0.811353  0.188647  0.500000  1
  Tb  Tb5  1  0.311353  0.688647  0.000000  1
  Tb  Tb6  1  0.690877  0.690877  0.806633  1
  Tb  Tb7  1  0.190877  0.190877  0.693367  1
  Zr  Zr8  1  0.504081  0.004081  0.250000  1
  Zr  Zr9  1  0.995919  0.495919  0.750000  1
  Zr  Zr10  1  0.000000  0.000000  0.000000  1
  Zr  Zr11  1  0.004081  0.504081  0.250000  1
  Zr  Zr12  1  0.495919  0.995919  0.750000  1
  Zr  Zr13  1  0.500000  0.500000  0.500000  1
  Au  Au14  1  0.148357  0.442393  0.496019  1
  Au  Au15  1  0.897083  0.897083  0.599669  1
  Au  Au16  1  0.557607  0.851643  0.503981  1
  Au  Au17  1  0.858663  0.153723  0.203414  1
  Au  Au18  1  0.358663  0.653723  0.296586  1
  Au  Au19  1  0.653723  0.358663  0.296586  1
  Au  Au20  1  0.397083  0.397083  0.900331  1
  Au  Au21  1  0.942393  0.648357  0.003981  1
  Au  Au22  1  0.346277  0.641337  0.703414  1
  Au  Au23  1  0.351643  0.057607  0.996019  1
  Au  Au24  1  0.602917  0.602917  0.099669  1
  Au  Au25  1  0.648357  0.942393  0.003981  1
  Au  Au26  1  0.102917  0.102917  0.400331  1
  Au  Au27  1  0.641337  0.346277  0.703414  1
  Au  Au28  1  0.141337  0.846277  0.796586  1
  Au  Au29  1  0.057607  0.351643  0.996019  1
  Au  Au30  1  0.851643  0.557607  0.503981  1
  Au  Au31  1  0.153723  0.858663  0.203414  1
  Au  Au32  1  0.442393  0.148357  0.496019  1
  Au  Au33  1  0.846277  0.141337  0.796586  1
