# generated using pymatgen
data_ErTmNiOs3
_symmetry_space_group_name_H-M   'P 1'
_cell_length_a   5.23608198
_cell_length_b   5.23608205
_cell_length_c   5.28229765
_cell_angle_alpha   60.28900876
_cell_angle_beta   60.28900538
_cell_angle_gamma   59.99999673
_symmetry_Int_Tables_number   1
_chemical_formula_structural   ErTmNiOs3
_chemical_formula_sum   'Er1 Tm1 Ni1 Os3'
_cell_volume   102.84996292
_cell_formula_units_Z   1
loop_
 _symmetry_equiv_pos_site_id
 _symmetry_equiv_pos_as_xyz
  1  'x, y, z'
loop_
 _atom_site_type_symbol
 _atom_site_label
 _atom_site_symmetry_multiplicity
 _atom_site_fract_x
 _atom_site_fract_y
 _atom_site_fract_z
 _atom_site_occupancy
  Er  Er0  1  0.998110  0.998110  0.005669  1
  Tm  Tm1  1  0.751963  0.751963  0.744111  1
  Ni  Ni2  1  0.375088  0.375088  0.874739  1
  Os  Os3  1  0.375026  0.375026  0.375161  1
  Os  Os4  1  0.874788  0.375026  0.375161  1
  Os  Os5  1  0.375026  0.874788  0.375161  1
