# generated using pymatgen
data_Yb2Cu3Rh
_symmetry_space_group_name_H-M   'P 1'
_cell_length_a   5.04741100
_cell_length_b   5.04741062
_cell_length_c   8.86832400
_cell_angle_alpha   90.00000000
_cell_angle_beta   90.00000000
_cell_angle_gamma   119.99999593
_symmetry_Int_Tables_number   1
_chemical_formula_structural   Yb2Cu3Rh
_chemical_formula_sum   'Yb4 Cu6 Rh2'
_cell_volume   195.66336042
_cell_formula_units_Z   2
loop_
 _symmetry_equiv_pos_site_id
 _symmetry_equiv_pos_as_xyz
  1  'x, y, z'
loop_
 _atom_site_type_symbol
 _atom_site_label
 _atom_site_symmetry_multiplicity
 _atom_site_fract_x
 _atom_site_fract_y
 _atom_site_fract_z
 _atom_site_occupancy
  Yb  Yb0  1  0.333333  0.666667  0.437940  1
  Yb  Yb1  1  0.666667  0.333333  0.562060  1
  Yb  Yb2  1  0.666667  0.333333  0.937940  1
  Yb  Yb3  1  0.333333  0.666667  0.062060  1
  Cu  Cu4  1  0.831434  0.168566  0.250000  1
  Cu  Cu5  1  0.831434  0.662868  0.250000  1
  Cu  Cu6  1  0.337132  0.168566  0.250000  1
  Cu  Cu7  1  0.168566  0.831434  0.750000  1
  Cu  Cu8  1  0.168566  0.337132  0.750000  1
  Cu  Cu9  1  0.662868  0.831434  0.750000  1
  Rh  Rh10  1  0.000000  0.000000  0.500000  1
  Rh  Rh11  1  0.000000  0.000000  0.000000  1
