# generated using pymatgen
data_Gd3Ho4TmAl4
_symmetry_space_group_name_H-M   'P 1'
_cell_length_a   5.09620600
_cell_length_b   6.56487668
_cell_length_c   9.42459900
_cell_angle_alpha   89.75163721
_cell_angle_beta   90.00000000
_cell_angle_gamma   90.00000000
_symmetry_Int_Tables_number   1
_chemical_formula_structural   Gd3Ho4TmAl4
_chemical_formula_sum   'Gd3 Ho4 Tm1 Al4'
_cell_volume   315.30608169
_cell_formula_units_Z   1
loop_
 _symmetry_equiv_pos_site_id
 _symmetry_equiv_pos_as_xyz
  1  'x, y, z'
loop_
 _atom_site_type_symbol
 _atom_site_label
 _atom_site_symmetry_multiplicity
 _atom_site_fract_x
 _atom_site_fract_y
 _atom_site_fract_z
 _atom_site_occupancy
  Gd  Gd0  1  0.750000  0.687755  0.427462  1
  Gd  Gd1  1  0.250000  0.312779  0.573586  1
  Gd  Gd2  1  0.750000  0.186896  0.071658  1
  Ho  Ho3  1  0.250000  0.811751  0.926636  1
  Ho  Ho4  1  0.250000  0.471826  0.210619  1
  Ho  Ho5  1  0.750000  0.028449  0.710447  1
  Ho  Ho6  1  0.250000  0.971000  0.289858  1
  Tm  Tm7  1  0.750000  0.529573  0.790139  1
  Al  Al8  1  0.750000  0.207760  0.397109  1
  Al  Al9  1  0.250000  0.792138  0.604473  1
  Al  Al10  1  0.750000  0.707709  0.100304  1
  Al  Al11  1  0.250000  0.292366  0.897708  1
