# generated using pymatgen
data_Tb3Ni9(AsP2)2
_symmetry_space_group_name_H-M   'P 1'
_cell_length_a   3.82419500
_cell_length_b   10.66168900
_cell_length_c   12.45988600
_cell_angle_alpha   90.00000000
_cell_angle_beta   90.00000000
_cell_angle_gamma   90.00000000
_symmetry_Int_Tables_number   1
_chemical_formula_structural   Tb3Ni9(AsP2)2
_chemical_formula_sum   'Tb6 Ni18 As4 P8'
_cell_volume   508.01917891
_cell_formula_units_Z   2
loop_
 _symmetry_equiv_pos_site_id
 _symmetry_equiv_pos_as_xyz
  1  'x, y, z'
loop_
 _atom_site_type_symbol
 _atom_site_label
 _atom_site_symmetry_multiplicity
 _atom_site_fract_x
 _atom_site_fract_y
 _atom_site_fract_z
 _atom_site_occupancy
  Tb  Tb0  1  0.751963  0.000000  0.483513  1
  Tb  Tb1  1  0.251963  0.500000  0.516487  1
  Tb  Tb2  1  0.251816  0.682680  0.798987  1
  Tb  Tb3  1  0.251816  0.317320  0.798987  1
  Tb  Tb4  1  0.751816  0.817320  0.201013  1
  Tb  Tb5  1  0.751816  0.182680  0.201013  1
  Ni  Ni6  1  0.751806  0.000000  0.014113  1
  Ni  Ni7  1  0.251806  0.500000  0.985887  1
  Ni  Ni8  1  0.252037  0.186319  0.582133  1
  Ni  Ni9  1  0.252037  0.813681  0.582133  1
  Ni  Ni10  1  0.752037  0.313681  0.417867  1
  Ni  Ni11  1  0.752037  0.686319  0.417867  1
  Ni  Ni12  1  0.251832  0.616865  0.281303  1
  Ni  Ni13  1  0.251832  0.383135  0.281303  1
  Ni  Ni14  1  0.751832  0.883135  0.718697  1
  Ni  Ni15  1  0.751832  0.116865  0.718697  1
  Ni  Ni16  1  0.251756  0.167160  0.003344  1
  Ni  Ni17  1  0.251756  0.832840  0.003344  1
  Ni  Ni18  1  0.751756  0.332840  0.996656  1
  Ni  Ni19  1  0.751756  0.667160  0.996656  1
  Ni  Ni20  1  0.251074  0.000000  0.844549  1
  Ni  Ni21  1  0.751074  0.500000  0.155451  1
  Ni  Ni22  1  0.252027  0.000000  0.293147  1
  Ni  Ni23  1  0.752027  0.500000  0.706853  1
  As  As24  1  0.251912  0.186775  0.387650  1
  As  As25  1  0.251912  0.813225  0.387650  1
  As  As26  1  0.751912  0.313225  0.612350  1
  As  As27  1  0.751912  0.686775  0.612350  1
  P  P28  1  0.251803  0.000000  0.119218  1
  P  P29  1  0.751803  0.500000  0.880782  1
  P  P30  1  0.251750  0.653642  0.103923  1
  P  P31  1  0.251750  0.346358  0.103923  1
  P  P32  1  0.751750  0.846358  0.896077  1
  P  P33  1  0.751750  0.153642  0.896077  1
  P  P34  1  0.251920  0.000000  0.663325  1
  P  P35  1  0.751920  0.500000  0.336675  1
