# generated using pymatgen
data_Y5Sn2BiCl
_symmetry_space_group_name_H-M   'P 1'
_cell_length_a   9.14545700
_cell_length_b   9.14545681
_cell_length_c   6.47444400
_cell_angle_alpha   90.00000000
_cell_angle_beta   90.00000000
_cell_angle_gamma   120.33698010
_symmetry_Int_Tables_number   1
_chemical_formula_structural   Y5Sn2BiCl
_chemical_formula_sum   'Y10 Sn4 Bi2 Cl2'
_cell_volume   467.36822480
_cell_formula_units_Z   2
loop_
 _symmetry_equiv_pos_site_id
 _symmetry_equiv_pos_as_xyz
  1  'x, y, z'
loop_
 _atom_site_type_symbol
 _atom_site_label
 _atom_site_symmetry_multiplicity
 _atom_site_fract_x
 _atom_site_fract_y
 _atom_site_fract_z
 _atom_site_occupancy
  Y  Y0  1  0.262113  0.995184  0.750000  1
  Y  Y1  1  0.737887  0.004816  0.250000  1
  Y  Y2  1  0.995184  0.262113  0.750000  1
  Y  Y3  1  0.004816  0.737887  0.250000  1
  Y  Y4  1  0.741847  0.741847  0.750000  1
  Y  Y5  1  0.258153  0.258153  0.250000  1
  Y  Y6  1  0.329747  0.670253  0.500000  1
  Y  Y7  1  0.670253  0.329747  0.500000  1
  Y  Y8  1  0.670253  0.329747  0.000000  1
  Y  Y9  1  0.329747  0.670253  0.000000  1
  Sn  Sn10  1  0.609770  0.998105  0.750000  1
  Sn  Sn11  1  0.390230  0.001895  0.250000  1
  Sn  Sn12  1  0.998105  0.609770  0.750000  1
  Sn  Sn13  1  0.001895  0.390230  0.250000  1
  Bi  Bi14  1  0.388277  0.388277  0.750000  1
  Bi  Bi15  1  0.611723  0.611723  0.250000  1
  Cl  Cl16  1  0.000000  0.000000  0.500000  1
  Cl  Cl17  1  0.000000  0.000000  0.000000  1
