# generated using pymatgen
data_Nd4ErIn3Br
_symmetry_space_group_name_H-M   'P 1'
_cell_length_a   9.52960000
_cell_length_b   9.52959990
_cell_length_c   6.77166100
_cell_angle_alpha   90.00000000
_cell_angle_beta   90.00000000
_cell_angle_gamma   120.00000727
_symmetry_Int_Tables_number   1
_chemical_formula_structural   Nd4ErIn3Br
_chemical_formula_sum   'Nd8 Er2 In6 Br2'
_cell_volume   532.56809775
_cell_formula_units_Z   2
loop_
 _symmetry_equiv_pos_site_id
 _symmetry_equiv_pos_as_xyz
  1  'x, y, z'
loop_
 _atom_site_type_symbol
 _atom_site_label
 _atom_site_symmetry_multiplicity
 _atom_site_fract_x
 _atom_site_fract_y
 _atom_site_fract_z
 _atom_site_occupancy
  Nd  Nd0  1  0.732861  0.732861  0.252362  1
  Nd  Nd1  1  0.000000  0.732861  0.747638  1
  Nd  Nd2  1  0.732861  0.000000  0.747638  1
  Nd  Nd3  1  0.267139  0.267139  0.747638  1
  Nd  Nd4  1  0.000000  0.267139  0.252362  1
  Nd  Nd5  1  0.267139  0.000000  0.252362  1
  Nd  Nd6  1  0.333333  0.666667  0.000000  1
  Nd  Nd7  1  0.666667  0.333333  0.000000  1
  Er  Er8  1  0.333333  0.666667  0.500000  1
  Er  Er9  1  0.666667  0.333333  0.500000  1
  In  In10  1  0.393269  0.000000  0.745929  1
  In  In11  1  0.000000  0.606731  0.254071  1
  In  In12  1  0.606731  0.000000  0.254071  1
  In  In13  1  0.000000  0.393269  0.745929  1
  In  In14  1  0.393269  0.393269  0.254071  1
  In  In15  1  0.606731  0.606731  0.745929  1
  Br  Br16  1  0.000000  0.000000  0.500000  1
  Br  Br17  1  0.000000  0.000000  0.000000  1
