# generated using pymatgen
data_Yb5Ho3(OsC2)4
_symmetry_space_group_name_H-M   'P 1'
_cell_length_a   5.11130600
_cell_length_b   6.41994272
_cell_length_c   10.09190953
_cell_angle_alpha   90.24642388
_cell_angle_beta   90.00000000
_cell_angle_gamma   90.00000000
_symmetry_Int_Tables_number   1
_chemical_formula_structural   Yb5Ho3(OsC2)4
_chemical_formula_sum   'Yb5 Ho3 Os4 C8'
_cell_volume   331.15580076
_cell_formula_units_Z   1
loop_
 _symmetry_equiv_pos_site_id
 _symmetry_equiv_pos_as_xyz
  1  'x, y, z'
loop_
 _atom_site_type_symbol
 _atom_site_label
 _atom_site_symmetry_multiplicity
 _atom_site_fract_x
 _atom_site_fract_y
 _atom_site_fract_z
 _atom_site_occupancy
  Yb  Yb0  1  0.250000  0.194601  0.947879  1
  Yb  Yb1  1  0.250000  0.531108  0.223350  1
  Yb  Yb2  1  0.750000  0.466750  0.778155  1
  Yb  Yb3  1  0.750000  0.968424  0.724779  1
  Yb  Yb4  1  0.250000  0.032010  0.275773  1
  Ho  Ho5  1  0.250000  0.685830  0.553217  1
  Ho  Ho6  1  0.750000  0.314882  0.442653  1
  Ho  Ho7  1  0.750000  0.813711  0.057819  1
  Os  Os8  1  0.250000  0.727329  0.855972  1
  Os  Os9  1  0.750000  0.273703  0.141678  1
  Os  Os10  1  0.750000  0.775457  0.360304  1
  Os  Os11  1  0.250000  0.226147  0.642112  1
  C  C12  1  0.250000  0.465943  0.754943  1
  C  C13  1  0.750000  0.538500  0.242033  1
  C  C14  1  0.750000  0.037644  0.259258  1
  C  C15  1  0.250000  0.961126  0.737014  1
  C  C16  1  0.250000  0.800987  0.036637  1
  C  C17  1  0.750000  0.185203  0.965664  1
  C  C18  1  0.750000  0.685088  0.538613  1
  C  C19  1  0.250000  0.315555  0.462147  1
