# generated using pymatgen
data_Er6Co17TcP12
_symmetry_space_group_name_H-M   'P 1'
_cell_length_a   3.68512400
_cell_length_b   10.49123000
_cell_length_c   12.17111700
_cell_angle_alpha   90.00000000
_cell_angle_beta   90.00000000
_cell_angle_gamma   90.00000000
_symmetry_Int_Tables_number   1
_chemical_formula_structural   Er6Co17TcP12
_chemical_formula_sum   'Er6 Co17 Tc1 P12'
_cell_volume   470.55343862
_cell_formula_units_Z   1
loop_
 _symmetry_equiv_pos_site_id
 _symmetry_equiv_pos_as_xyz
  1  'x, y, z'
loop_
 _atom_site_type_symbol
 _atom_site_label
 _atom_site_symmetry_multiplicity
 _atom_site_fract_x
 _atom_site_fract_y
 _atom_site_fract_z
 _atom_site_occupancy
  Er  Er0  1  0.750000  0.250000  0.475609  1
  Er  Er1  1  0.250000  0.750000  0.522469  1
  Er  Er2  1  0.250000  0.932246  0.793107  1
  Er  Er3  1  0.250000  0.567754  0.793107  1
  Er  Er4  1  0.750000  0.067310  0.205072  1
  Er  Er5  1  0.750000  0.432690  0.205072  1
  Co  Co6  1  0.750000  0.750000  0.160680  1
  Co  Co7  1  0.250000  0.250000  0.297014  1
  Co  Co8  1  0.750000  0.750000  0.703469  1
  Co  Co9  1  0.750000  0.250000  0.012563  1
  Co  Co10  1  0.250000  0.750000  0.985251  1
  Co  Co11  1  0.250000  0.418172  0.009229  1
  Co  Co12  1  0.250000  0.081828  0.009229  1
  Co  Co13  1  0.750000  0.583601  0.994179  1
  Co  Co14  1  0.750000  0.916399  0.994179  1
  Co  Co15  1  0.250000  0.453233  0.568938  1
  Co  Co16  1  0.250000  0.046767  0.568938  1
  Co  Co17  1  0.750000  0.546971  0.431146  1
  Co  Co18  1  0.750000  0.953029  0.431146  1
  Co  Co19  1  0.250000  0.871356  0.291344  1
  Co  Co20  1  0.250000  0.628644  0.291344  1
  Co  Co21  1  0.750000  0.128736  0.707758  1
  Co  Co22  1  0.750000  0.371264  0.707758  1
  Tc  Tc23  1  0.250000  0.250000  0.842889  1
  P  P24  1  0.250000  0.250000  0.119063  1
  P  P25  1  0.750000  0.750000  0.882151  1
  P  P26  1  0.250000  0.250000  0.649861  1
  P  P27  1  0.750000  0.750000  0.345208  1
  P  P28  1  0.250000  0.438165  0.383138  1
  P  P29  1  0.250000  0.061835  0.383138  1
  P  P30  1  0.750000  0.562257  0.616047  1
  P  P31  1  0.750000  0.937743  0.616047  1
  P  P32  1  0.250000  0.900564  0.108613  1
  P  P33  1  0.250000  0.599436  0.108613  1
  P  P34  1  0.750000  0.093855  0.893316  1
  P  P35  1  0.750000  0.406145  0.893316  1
