# generated using pymatgen
data_Cs2TaCuTe4
_symmetry_space_group_name_H-M   'P 1'
_cell_length_a   15.96414511
_cell_length_b   14.24450389
_cell_length_c   8.43413769
_cell_angle_alpha   85.41999062
_cell_angle_beta   62.80193514
_cell_angle_gamma   31.77807198
_symmetry_Int_Tables_number   1
_chemical_formula_structural   Cs2TaCuTe4
_chemical_formula_sum   'Cs4 Ta2 Cu2 Te8'
_cell_volume   675.65980631
_cell_formula_units_Z   2
loop_
 _symmetry_equiv_pos_site_id
 _symmetry_equiv_pos_as_xyz
  1  'x, y, z'
loop_
 _atom_site_type_symbol
 _atom_site_label
 _atom_site_symmetry_multiplicity
 _atom_site_fract_x
 _atom_site_fract_y
 _atom_site_fract_z
 _atom_site_occupancy
  Cs  Cs0  1  0.320750  0.320750  0.679250  1
  Cs  Cs1  1  0.679250  0.679250  0.320750  1
  Cs  Cs2  1  0.929250  0.929250  0.570750  1
  Cs  Cs3  1  0.570750  0.570750  0.929250  1
  Ta  Ta4  1  0.500000  0.500000  0.500000  1
  Ta  Ta5  1  0.750000  0.750000  0.750000  1
  Cu  Cu6  1  0.000000  0.000000  0.000000  1
  Cu  Cu7  1  0.250000  0.250000  0.250000  1
  Te  Te8  1  0.292112  0.598721  0.899594  1
  Te  Te9  1  0.209573  0.899594  0.598721  1
  Te  Te10  1  0.899594  0.209573  0.292112  1
  Te  Te11  1  0.598721  0.292112  0.209573  1
  Te  Te12  1  0.651279  0.957888  0.040427  1
  Te  Te13  1  0.350406  0.040427  0.957888  1
  Te  Te14  1  0.040427  0.350406  0.651279  1
  Te  Te15  1  0.957888  0.651279  0.350406  1
