# generated using pymatgen
data_EuHo(ZnRh)2
_symmetry_space_group_name_H-M   'P 1'
_cell_length_a   4.14473000
_cell_length_b   7.07132221
_cell_length_c   8.10274977
_cell_angle_alpha   89.82814265
_cell_angle_beta   90.00000000
_cell_angle_gamma   90.00000000
_symmetry_Int_Tables_number   1
_chemical_formula_structural   EuHo(ZnRh)2
_chemical_formula_sum   'Eu2 Ho2 Zn4 Rh4'
_cell_volume   237.48016674
_cell_formula_units_Z   2
loop_
 _symmetry_equiv_pos_site_id
 _symmetry_equiv_pos_as_xyz
  1  'x, y, z'
loop_
 _atom_site_type_symbol
 _atom_site_label
 _atom_site_symmetry_multiplicity
 _atom_site_fract_x
 _atom_site_fract_y
 _atom_site_fract_z
 _atom_site_occupancy
  Eu  Eu0  1  0.250000  0.532688  0.184246  1
  Eu  Eu1  1  0.750000  0.467312  0.815754  1
  Ho  Ho2  1  0.250000  0.033331  0.319111  1
  Ho  Ho3  1  0.750000  0.966669  0.680889  1
  Zn  Zn4  1  0.250000  0.138407  0.937934  1
  Zn  Zn5  1  0.750000  0.861593  0.062066  1
  Zn  Zn6  1  0.250000  0.644099  0.564478  1
  Zn  Zn7  1  0.750000  0.355901  0.435522  1
  Rh  Rh8  1  0.750000  0.745545  0.383899  1
  Rh  Rh9  1  0.250000  0.254455  0.616101  1
  Rh  Rh10  1  0.750000  0.221136  0.130536  1
  Rh  Rh11  1  0.250000  0.778864  0.869464  1
