# generated using pymatgen
data_Dy12Th4Mg3ZnRu4
_symmetry_space_group_name_H-M   'P 1'
_cell_length_a   9.72576431
_cell_length_b   9.72576474
_cell_length_c   9.72576412
_cell_angle_alpha   60.01496614
_cell_angle_beta   60.01496485
_cell_angle_gamma   60.01496755
_symmetry_Int_Tables_number   1
_chemical_formula_structural   Dy12Th4Mg3ZnRu4
_chemical_formula_sum   'Dy12 Th4 Mg3 Zn1 Ru4'
_cell_volume   650.73409471
_cell_formula_units_Z   1
loop_
 _symmetry_equiv_pos_site_id
 _symmetry_equiv_pos_as_xyz
  1  'x, y, z'
loop_
 _atom_site_type_symbol
 _atom_site_label
 _atom_site_symmetry_multiplicity
 _atom_site_fract_x
 _atom_site_fract_y
 _atom_site_fract_z
 _atom_site_occupancy
  Dy  Dy0  1  0.812135  0.187286  0.187286  1
  Dy  Dy1  1  0.187854  0.811600  0.811600  1
  Dy  Dy2  1  0.187286  0.812135  0.187286  1
  Dy  Dy3  1  0.811600  0.187854  0.811600  1
  Dy  Dy4  1  0.187286  0.187286  0.812135  1
  Dy  Dy5  1  0.811600  0.811600  0.187854  1
  Dy  Dy6  1  0.929338  0.564626  0.564626  1
  Dy  Dy7  1  0.562389  0.935809  0.935809  1
  Dy  Dy8  1  0.564626  0.929338  0.564626  1
  Dy  Dy9  1  0.935809  0.562389  0.935809  1
  Dy  Dy10  1  0.564626  0.564626  0.929338  1
  Dy  Dy11  1  0.935809  0.935809  0.562389  1
  Th  Th12  1  0.346115  0.346115  0.346115  1
  Th  Th13  1  0.348347  0.348347  0.957454  1
  Th  Th14  1  0.348347  0.957454  0.348347  1
  Th  Th15  1  0.957454  0.348347  0.348347  1
  Mg  Mg16  1  0.579665  0.579665  0.264566  1
  Mg  Mg17  1  0.579665  0.264566  0.579665  1
  Mg  Mg18  1  0.264566  0.579665  0.579665  1
  Zn  Zn19  1  0.583717  0.583717  0.583717  1
  Ru  Ru20  1  0.143161  0.143161  0.143161  1
  Ru  Ru21  1  0.144404  0.144404  0.569797  1
  Ru  Ru22  1  0.144404  0.569797  0.144404  1
  Ru  Ru23  1  0.569797  0.144404  0.144404  1
