# generated using pymatgen
data_Li3TbDy2Si2Ge
_symmetry_space_group_name_H-M   'P 1'
_cell_length_a   7.01923801
_cell_length_b   7.01923846
_cell_length_c   4.25309000
_cell_angle_alpha   90.00000000
_cell_angle_beta   90.00000000
_cell_angle_gamma   120.20973514
_symmetry_Int_Tables_number   1
_chemical_formula_structural   Li3TbDy2Si2Ge
_chemical_formula_sum   'Li3 Tb1 Dy2 Si2 Ge1'
_cell_volume   181.08956866
_cell_formula_units_Z   1
loop_
 _symmetry_equiv_pos_site_id
 _symmetry_equiv_pos_as_xyz
  1  'x, y, z'
loop_
 _atom_site_type_symbol
 _atom_site_label
 _atom_site_symmetry_multiplicity
 _atom_site_fract_x
 _atom_site_fract_y
 _atom_site_fract_z
 _atom_site_occupancy
  Li  Li0  1  0.234394  0.999925  0.500000  1
  Li  Li1  1  0.999925  0.234394  0.500000  1
  Li  Li2  1  0.765860  0.765860  0.500000  1
  Tb  Tb3  1  0.426534  0.426534  0.000000  1
  Dy  Dy4  1  0.573401  0.000008  0.000000  1
  Dy  Dy5  1  0.000008  0.573401  0.000000  1
  Si  Si6  1  0.332938  0.667348  0.500000  1
  Si  Si7  1  0.667348  0.332938  0.500000  1
  Ge  Ge8  1  0.999593  0.999593  0.000000  1
