# generated using pymatgen
data_Mn6Si5(Ni8P)2
_symmetry_space_group_name_H-M   'P 1'
_cell_length_a   7.84421100
_cell_length_b   7.80628054
_cell_length_c   7.83668400
_cell_angle_alpha   120.12892094
_cell_angle_beta   90.00000000
_cell_angle_gamma   120.16086819
_symmetry_Int_Tables_number   1
_chemical_formula_structural   Mn6Si5(Ni8P)2
_chemical_formula_sum   'Mn6 Si5 Ni16 P2'
_cell_volume   337.82926646
_cell_formula_units_Z   1
loop_
 _symmetry_equiv_pos_site_id
 _symmetry_equiv_pos_as_xyz
  1  'x, y, z'
loop_
 _atom_site_type_symbol
 _atom_site_label
 _atom_site_symmetry_multiplicity
 _atom_site_fract_x
 _atom_site_fract_y
 _atom_site_fract_z
 _atom_site_occupancy
  Mn  Mn0  1  0.811031  0.000000  0.192940  1
  Mn  Mn1  1  0.188969  0.000000  0.192940  1
  Mn  Mn2  1  0.191422  0.382844  0.191422  1
  Mn  Mn3  1  0.811030  0.000000  0.807059  1
  Mn  Mn4  1  0.188969  0.000000  0.807060  1
  Mn  Mn5  1  0.808578  0.617156  0.808578  1
  Si  Si6  1  0.000000  0.500000  0.000000  1
  Si  Si7  1  0.500000  0.500000  0.000000  1
  Si  Si8  1  0.000000  0.000000  0.500000  1
  Si  Si9  1  0.000000  0.500000  0.500000  1
  Si  Si10  1  0.500000  0.500000  0.500000  1
  Ni  Ni11  1  0.384458  0.768914  0.152144  1
  Ni  Ni12  1  0.495859  0.324904  0.162453  1
  Ni  Ni13  1  0.829046  0.324904  0.162453  1
  Ni  Ni14  1  0.833596  0.667192  0.165243  1
  Ni  Ni15  1  0.615543  0.231086  0.383229  1
  Ni  Ni16  1  0.150255  0.765466  0.382734  1
  Ni  Ni17  1  0.615213  0.765466  0.382734  1
  Ni  Ni18  1  0.166405  0.332808  0.498052  1
  Ni  Ni19  1  0.833596  0.667192  0.501948  1
  Ni  Ni20  1  0.849746  0.234534  0.617267  1
  Ni  Ni21  1  0.384788  0.234534  0.617267  1
  Ni  Ni22  1  0.384458  0.768914  0.616772  1
  Ni  Ni23  1  0.170955  0.675096  0.837548  1
  Ni  Ni24  1  0.504141  0.675096  0.837548  1
  Ni  Ni25  1  0.166405  0.332808  0.834758  1
  Ni  Ni26  1  0.615543  0.231086  0.847857  1
  P  P27  1  0.500000  0.000000  0.000000  1
  P  P28  1  0.500000  0.000000  0.500000  1
