# generated using pymatgen
data_Cs2Rb2ZrPaTe6
_symmetry_space_group_name_H-M   'P 1'
_cell_length_a   15.12567200
_cell_length_b   7.20826623
_cell_length_c   10.04591515
_cell_angle_alpha   71.20646793
_cell_angle_beta   90.00000000
_cell_angle_gamma   90.00000000
_symmetry_Int_Tables_number   1
_chemical_formula_structural   Cs2Rb2ZrPaTe6
_chemical_formula_sum   'Cs4 Rb4 Zr2 Pa2 Te12'
_cell_volume   1036.90934653
_cell_formula_units_Z   2
loop_
 _symmetry_equiv_pos_site_id
 _symmetry_equiv_pos_as_xyz
  1  'x, y, z'
loop_
 _atom_site_type_symbol
 _atom_site_label
 _atom_site_symmetry_multiplicity
 _atom_site_fract_x
 _atom_site_fract_y
 _atom_site_fract_z
 _atom_site_occupancy
  Cs  Cs0  1  0.952771  0.670063  0.662319  1
  Cs  Cs1  1  0.452771  0.829937  0.337681  1
  Cs  Cs2  1  0.047371  0.330570  0.338299  1
  Cs  Cs3  1  0.547371  0.169430  0.661701  1
  Rb  Rb4  1  0.867258  0.083572  0.902582  1
  Rb  Rb5  1  0.367258  0.416428  0.097418  1
  Rb  Rb6  1  0.132705  0.925379  0.098348  1
  Rb  Rb7  1  0.632705  0.574621  0.901652  1
  Zr  Zr8  1  0.250209  0.345752  0.706573  1
  Zr  Zr9  1  0.750209  0.154248  0.293427  1
  Pa  Pa10  1  0.749543  0.653576  0.293195  1
  Pa  Pa11  1  0.249543  0.846424  0.706805  1
  Te  Te12  1  0.909276  0.918430  0.274442  1
  Te  Te13  1  0.409276  0.581570  0.725558  1
  Te  Te14  1  0.090660  0.097689  0.725969  1
  Te  Te15  1  0.590660  0.402311  0.274031  1
  Te  Te16  1  0.815515  0.293360  0.521792  1
  Te  Te17  1  0.315515  0.206640  0.478208  1
  Te  Te18  1  0.184794  0.690988  0.478077  1
  Te  Te19  1  0.684794  0.809012  0.521923  1
  Te  Te20  1  0.841617  0.492196  0.082118  1
  Te  Te21  1  0.341617  0.007804  0.917882  1
  Te  Te22  1  0.158282  0.493428  0.917380  1
  Te  Te23  1  0.658282  0.006572  0.082620  1
