# generated using pymatgen
data_Eu4Si3Pd4
_symmetry_space_group_name_H-M   'P 1'
_cell_length_a   5.81264702
_cell_length_b   8.00619784
_cell_length_c   11.13167900
_cell_angle_alpha   108.38943671
_cell_angle_beta   105.13449332
_cell_angle_gamma   90.00000252
_symmetry_Int_Tables_number   1
_chemical_formula_structural   Eu4Si3Pd4
_chemical_formula_sum   'Eu8 Si6 Pd8'
_cell_volume   472.61074331
_cell_formula_units_Z   2
loop_
 _symmetry_equiv_pos_site_id
 _symmetry_equiv_pos_as_xyz
  1  'x, y, z'
loop_
 _atom_site_type_symbol
 _atom_site_label
 _atom_site_symmetry_multiplicity
 _atom_site_fract_x
 _atom_site_fract_y
 _atom_site_fract_z
 _atom_site_occupancy
  Eu  Eu0  1  0.199051  0.673185  0.134687  1
  Eu  Eu1  1  0.935634  0.173186  0.134687  1
  Eu  Eu2  1  0.794311  0.905491  0.338507  1
  Eu  Eu3  1  0.544197  0.405491  0.338507  1
  Eu  Eu4  1  0.455804  0.594509  0.661493  1
  Eu  Eu5  1  0.205689  0.094509  0.661493  1
  Eu  Eu6  1  0.064366  0.826814  0.865313  1
  Eu  Eu7  1  0.800948  0.326814  0.865313  1
  Si  Si8  1  0.376476  0.250000  0.000000  1
  Si  Si9  1  0.623525  0.750000  0.000000  1
  Si  Si10  1  0.045034  0.566485  0.347860  1
  Si  Si11  1  0.302826  0.066485  0.347860  1
  Si  Si12  1  0.697172  0.933515  0.652139  1
  Si  Si13  1  0.954966  0.433515  0.652140  1
  Pd  Pd14  1  0.694811  0.523972  0.124674  1
  Pd  Pd15  1  0.429862  0.023972  0.124674  1
  Pd  Pd16  1  0.360466  0.818453  0.443472  1
  Pd  Pd17  1  0.083006  0.318453  0.443472  1
  Pd  Pd18  1  0.916992  0.681547  0.556528  1
  Pd  Pd19  1  0.639534  0.181547  0.556528  1
  Pd  Pd20  1  0.570138  0.976028  0.875326  1
  Pd  Pd21  1  0.305188  0.476028  0.875326  1
