# generated using pymatgen
data_Pr3Er2P12Ru16Pt3
_symmetry_space_group_name_H-M   'P 1'
_cell_length_a   12.65640200
_cell_length_b   12.65640280
_cell_length_c   4.01861400
_cell_angle_alpha   90.00000000
_cell_angle_beta   90.00000000
_cell_angle_gamma   120.00000313
_symmetry_Int_Tables_number   1
_chemical_formula_structural   Pr3Er2P12Ru16Pt3
_chemical_formula_sum   'Pr3 Er2 P12 Ru16 Pt3'
_cell_volume   557.47764884
_cell_formula_units_Z   1
loop_
 _symmetry_equiv_pos_site_id
 _symmetry_equiv_pos_as_xyz
  1  'x, y, z'
loop_
 _atom_site_type_symbol
 _atom_site_label
 _atom_site_symmetry_multiplicity
 _atom_site_fract_x
 _atom_site_fract_y
 _atom_site_fract_z
 _atom_site_occupancy
  Pr  Pr0  1  0.182886  0.182886  0.500000  1
  Pr  Pr1  1  0.817114  0.000000  0.500000  1
  Pr  Pr2  1  0.000000  0.817114  0.500000  1
  Er  Er3  1  0.333333  0.666667  0.000000  1
  Er  Er4  1  0.666667  0.333333  0.000000  1
  P  P5  1  0.810612  0.810612  0.000000  1
  P  P6  1  0.189388  0.000000  0.000000  1
  P  P7  1  0.000000  0.189388  0.000000  1
  P  P8  1  0.182786  0.482102  0.500000  1
  P  P9  1  0.517898  0.700685  0.500000  1
  P  P10  1  0.299315  0.817214  0.500000  1
  P  P11  1  0.700685  0.517898  0.500000  1
  P  P12  1  0.817214  0.299315  0.500000  1
  P  P13  1  0.482102  0.182786  0.500000  1
  P  P14  1  0.367857  0.367857  0.000000  1
  P  P15  1  0.632143  0.000000  0.000000  1
  P  P16  1  0.000000  0.632143  0.000000  1
  Ru  Ru17  1  0.706975  0.706975  0.500000  1
  Ru  Ru18  1  0.293025  0.000000  0.500000  1
  Ru  Ru19  1  0.000000  0.293025  0.500000  1
  Ru  Ru20  1  0.186013  0.383286  0.000000  1
  Ru  Ru21  1  0.616714  0.802727  0.000000  1
  Ru  Ru22  1  0.197273  0.813987  0.000000  1
  Ru  Ru23  1  0.802727  0.616714  0.000000  1
  Ru  Ru24  1  0.813987  0.197273  0.000000  1
  Ru  Ru25  1  0.383286  0.186013  0.000000  1
  Ru  Ru26  1  0.370834  0.495842  0.500000  1
  Ru  Ru27  1  0.504158  0.874991  0.500000  1
  Ru  Ru28  1  0.125009  0.629166  0.500000  1
  Ru  Ru29  1  0.874991  0.504158  0.500000  1
  Ru  Ru30  1  0.629166  0.125009  0.500000  1
  Ru  Ru31  1  0.495842  0.370834  0.500000  1
  Ru  Ru32  1  0.000000  0.000000  0.000000  1
  Pt  Pt33  1  0.551259  0.551259  0.000000  1
  Pt  Pt34  1  0.448741  0.000000  0.000000  1
  Pt  Pt35  1  0.000000  0.448741  0.000000  1
