# generated using pymatgen
data_Eu6NpWO12
_symmetry_space_group_name_H-M   'P 1'
_cell_length_a   6.88655540
_cell_length_b   6.88655467
_cell_length_c   6.88655647
_cell_angle_alpha   92.70345429
_cell_angle_beta   92.70346134
_cell_angle_gamma   92.70346258
_symmetry_Int_Tables_number   1
_chemical_formula_structural   Eu6NpWO12
_chemical_formula_sum   'Eu6 Np1 W1 O12'
_cell_volume   325.46639476
_cell_formula_units_Z   1
loop_
 _symmetry_equiv_pos_site_id
 _symmetry_equiv_pos_as_xyz
  1  'x, y, z'
loop_
 _atom_site_type_symbol
 _atom_site_label
 _atom_site_symmetry_multiplicity
 _atom_site_fract_x
 _atom_site_fract_y
 _atom_site_fract_z
 _atom_site_occupancy
  Eu  Eu0  1  0.930027  0.436842  0.740028  1
  Eu  Eu1  1  0.740028  0.930027  0.436842  1
  Eu  Eu2  1  0.563158  0.259972  0.069973  1
  Eu  Eu3  1  0.436842  0.740028  0.930027  1
  Eu  Eu4  1  0.259972  0.069973  0.563158  1
  Eu  Eu5  1  0.069973  0.563158  0.259972  1
  Np  Np6  1  0.000000  0.000000  0.000000  1
  W  W7  1  0.500000  0.500000  0.500000  1
  O  O8  1  0.925385  0.297883  0.062935  1
  O  O9  1  0.937065  0.074615  0.702117  1
  O  O10  1  0.783836  0.581571  0.456436  1
  O  O11  1  0.702117  0.937065  0.074615  1
  O  O12  1  0.581571  0.456436  0.783836  1
  O  O13  1  0.543564  0.216164  0.418429  1
  O  O14  1  0.456436  0.783836  0.581571  1
  O  O15  1  0.418429  0.543564  0.216164  1
  O  O16  1  0.297883  0.062935  0.925385  1
  O  O17  1  0.216164  0.418429  0.543564  1
  O  O18  1  0.062935  0.925385  0.297883  1
  O  O19  1  0.074615  0.702117  0.937065  1
