# generated using pymatgen
data_Zr6Zn17InPt6
_symmetry_space_group_name_H-M   'P 1'
_cell_length_a   8.91751429
_cell_length_b   8.91751438
_cell_length_c   8.91751500
_cell_angle_alpha   60.00000141
_cell_angle_beta   60.00000108
_cell_angle_gamma   59.99999891
_symmetry_Int_Tables_number   1
_chemical_formula_structural   Zr6Zn17InPt6
_chemical_formula_sum   'Zr6 Zn17 In1 Pt6'
_cell_volume   501.43712844
_cell_formula_units_Z   1
loop_
 _symmetry_equiv_pos_site_id
 _symmetry_equiv_pos_as_xyz
  1  'x, y, z'
loop_
 _atom_site_type_symbol
 _atom_site_label
 _atom_site_symmetry_multiplicity
 _atom_site_fract_x
 _atom_site_fract_y
 _atom_site_fract_z
 _atom_site_occupancy
  Zr  Zr0  1  0.751913  0.248087  0.248087  1
  Zr  Zr1  1  0.248087  0.751913  0.751913  1
  Zr  Zr2  1  0.248087  0.751913  0.248087  1
  Zr  Zr3  1  0.751913  0.248087  0.751913  1
  Zr  Zr4  1  0.248087  0.248087  0.751913  1
  Zr  Zr5  1  0.751913  0.751913  0.248087  1
  Zn  Zn6  1  0.138759  0.138759  0.138759  1
  Zn  Zn7  1  0.861241  0.861241  0.861241  1
  Zn  Zn8  1  0.138759  0.138759  0.583724  1
  Zn  Zn9  1  0.138759  0.583724  0.138759  1
  Zn  Zn10  1  0.861241  0.861241  0.416276  1
  Zn  Zn11  1  0.861241  0.416276  0.861241  1
  Zn  Zn12  1  0.583724  0.138759  0.138759  1
  Zn  Zn13  1  0.416276  0.861241  0.861241  1
  Zn  Zn14  1  0.358313  0.358313  0.358313  1
  Zn  Zn15  1  0.641687  0.641687  0.641687  1
  Zn  Zn16  1  0.358313  0.358313  0.925064  1
  Zn  Zn17  1  0.358313  0.925064  0.358313  1
  Zn  Zn18  1  0.641687  0.641687  0.074936  1
  Zn  Zn19  1  0.641687  0.074936  0.641687  1
  Zn  Zn20  1  0.925064  0.358313  0.358313  1
  Zn  Zn21  1  0.074936  0.641687  0.641687  1
  Zn  Zn22  1  0.000000  0.000000  0.000000  1
  In  In23  1  0.500000  0.500000  0.500000  1
  Pt  Pt24  1  0.500000  0.000000  0.000000  1
  Pt  Pt25  1  0.000000  0.500000  0.500000  1
  Pt  Pt26  1  0.000000  0.500000  0.000000  1
  Pt  Pt27  1  0.500000  0.000000  0.500000  1
  Pt  Pt28  1  0.000000  0.000000  0.500000  1
  Pt  Pt29  1  0.500000  0.500000  0.000000  1
