# generated using pymatgen
data_Tb4TmLu3Pt4
_symmetry_space_group_name_H-M   'P 1'
_cell_length_a   4.75675600
_cell_length_b   7.11241493
_cell_length_c   8.69381793
_cell_angle_alpha   90.06750552
_cell_angle_beta   90.00000000
_cell_angle_gamma   90.00000000
_symmetry_Int_Tables_number   1
_chemical_formula_structural   Tb4TmLu3Pt4
_chemical_formula_sum   'Tb4 Tm1 Lu3 Pt4'
_cell_volume   294.12923880
_cell_formula_units_Z   1
loop_
 _symmetry_equiv_pos_site_id
 _symmetry_equiv_pos_as_xyz
  1  'x, y, z'
loop_
 _atom_site_type_symbol
 _atom_site_label
 _atom_site_symmetry_multiplicity
 _atom_site_fract_x
 _atom_site_fract_y
 _atom_site_fract_z
 _atom_site_occupancy
  Tb  Tb0  1  0.750000  0.507914  0.830478  1
  Tb  Tb1  1  0.250000  0.490458  0.170955  1
  Tb  Tb2  1  0.750000  0.009413  0.668868  1
  Tb  Tb3  1  0.250000  0.991375  0.329837  1
  Tm  Tm4  1  0.250000  0.857213  0.920039  1
  Lu  Lu5  1  0.750000  0.642087  0.420688  1
  Lu  Lu6  1  0.250000  0.358052  0.579402  1
  Lu  Lu7  1  0.750000  0.142587  0.079931  1
  Pt  Pt8  1  0.750000  0.246785  0.408012  1
  Pt  Pt9  1  0.250000  0.753553  0.589939  1
  Pt  Pt10  1  0.750000  0.745493  0.093423  1
  Pt  Pt11  1  0.250000  0.255069  0.908428  1
