# generated using pymatgen
data_Yb2BN2Cl
_symmetry_space_group_name_H-M   'P 1'
_cell_length_a   3.85592000
_cell_length_b   8.95012900
_cell_length_c   11.59501900
_cell_angle_alpha   90.00000000
_cell_angle_beta   90.00000000
_cell_angle_gamma   90.00000000
_symmetry_Int_Tables_number   1
_chemical_formula_structural   Yb2BN2Cl
_chemical_formula_sum   'Yb8 B4 N8 Cl4'
_cell_volume   400.15548520
_cell_formula_units_Z   4
loop_
 _symmetry_equiv_pos_site_id
 _symmetry_equiv_pos_as_xyz
  1  'x, y, z'
loop_
 _atom_site_type_symbol
 _atom_site_label
 _atom_site_symmetry_multiplicity
 _atom_site_fract_x
 _atom_site_fract_y
 _atom_site_fract_z
 _atom_site_occupancy
  Yb  Yb0  1  0.250000  0.889931  0.589187  1
  Yb  Yb1  1  0.250000  0.610069  0.089187  1
  Yb  Yb2  1  0.750000  0.389931  0.910813  1
  Yb  Yb3  1  0.750000  0.110069  0.410813  1
  Yb  Yb4  1  0.750000  0.952098  0.829728  1
  Yb  Yb5  1  0.250000  0.047902  0.170272  1
  Yb  Yb6  1  0.250000  0.452098  0.670272  1
  Yb  Yb7  1  0.750000  0.547902  0.329728  1
  B  B8  1  0.750000  0.318915  0.165613  1
  B  B9  1  0.250000  0.681085  0.834387  1
  B  B10  1  0.250000  0.818915  0.334387  1
  B  B11  1  0.750000  0.181085  0.665613  1
  N  N12  1  0.750000  0.317078  0.713222  1
  N  N13  1  0.250000  0.682922  0.286778  1
  N  N14  1  0.250000  0.817078  0.786778  1
  N  N15  1  0.750000  0.459961  0.123405  1
  N  N16  1  0.750000  0.040039  0.623405  1
  N  N17  1  0.250000  0.959961  0.376595  1
  N  N18  1  0.250000  0.540039  0.876595  1
  N  N19  1  0.750000  0.182922  0.213222  1
  Cl  Cl20  1  0.750000  0.846836  0.061148  1
  Cl  Cl21  1  0.250000  0.346836  0.438852  1
  Cl  Cl22  1  0.250000  0.153164  0.938852  1
  Cl  Cl23  1  0.750000  0.653164  0.561148  1
