# generated using pymatgen
data_Lu4Al18Os4PtRh
_symmetry_space_group_name_H-M   'P 1'
_cell_length_a   7.55935595
_cell_length_b   7.55935592
_cell_length_c   9.47351525
_cell_angle_alpha   90.01309711
_cell_angle_beta   90.01309179
_cell_angle_gamma   119.89611284
_symmetry_Int_Tables_number   1
_chemical_formula_structural   Lu4Al18Os4PtRh
_chemical_formula_sum   'Lu4 Al18 Os4 Pt1 Rh1'
_cell_volume   469.31563064
_cell_formula_units_Z   1
loop_
 _symmetry_equiv_pos_site_id
 _symmetry_equiv_pos_as_xyz
  1  'x, y, z'
loop_
 _atom_site_type_symbol
 _atom_site_label
 _atom_site_symmetry_multiplicity
 _atom_site_fract_x
 _atom_site_fract_y
 _atom_site_fract_z
 _atom_site_occupancy
  Lu  Lu0  1  0.997788  0.666575  0.250443  1
  Lu  Lu1  1  0.002212  0.333425  0.749557  1
  Lu  Lu2  1  0.666575  0.997788  0.250443  1
  Lu  Lu3  1  0.333425  0.002212  0.749557  1
  Al  Al4  1  0.127536  0.127536  0.252309  1
  Al  Al5  1  0.872464  0.872464  0.747691  1
  Al  Al6  1  0.002174  0.338014  0.072687  1
  Al  Al7  1  0.997826  0.661986  0.927313  1
  Al  Al8  1  0.997894  0.665062  0.572300  1
  Al  Al9  1  0.334938  0.002106  0.427700  1
  Al  Al10  1  0.002106  0.334938  0.427700  1
  Al  Al11  1  0.665062  0.997894  0.572300  1
  Al  Al12  1  0.661986  0.997826  0.927313  1
  Al  Al13  1  0.338014  0.002174  0.072687  1
  Al  Al14  1  0.336278  0.336278  0.552144  1
  Al  Al15  1  0.663722  0.663722  0.447856  1
  Al  Al16  1  0.661569  0.661569  0.052293  1
  Al  Al17  1  0.338431  0.338431  0.947707  1
  Al  Al18  1  0.336871  0.548576  0.249880  1
  Al  Al19  1  0.663129  0.451424  0.750120  1
  Al  Al20  1  0.548576  0.336871  0.249880  1
  Al  Al21  1  0.451424  0.663129  0.750120  1
  Os  Os22  1  0.672944  0.327056  0.000000  1
  Os  Os23  1  0.327056  0.672944  0.000000  1
  Os  Os24  1  0.326768  0.673232  0.500000  1
  Os  Os25  1  0.673232  0.326768  0.500000  1
  Pt  Pt26  1  0.000000  0.000000  0.000000  1
  Rh  Rh27  1  0.000000  0.000000  0.500000  1
