# generated using pymatgen
data_Sc5Te6
_symmetry_space_group_name_H-M   'P 1'
_cell_length_a   7.98404035
_cell_length_b   8.34988567
_cell_length_c   9.88777266
_cell_angle_alpha   90.22392908
_cell_angle_beta   104.80605748
_cell_angle_gamma   105.52846283
_symmetry_Int_Tables_number   1
_chemical_formula_structural   Sc5Te6
_chemical_formula_sum   'Sc10 Te12'
_cell_volume   612.17335427
_cell_formula_units_Z   2
loop_
 _symmetry_equiv_pos_site_id
 _symmetry_equiv_pos_as_xyz
  1  'x, y, z'
loop_
 _atom_site_type_symbol
 _atom_site_label
 _atom_site_symmetry_multiplicity
 _atom_site_fract_x
 _atom_site_fract_y
 _atom_site_fract_z
 _atom_site_occupancy
  Sc  Sc0  1  0.666306  0.430745  0.171007  1
  Sc  Sc1  1  0.990850  0.753129  0.493999  1
  Sc  Sc2  1  0.323818  0.095819  0.824326  1
  Sc  Sc3  1  0.676182  0.904181  0.175674  1
  Sc  Sc4  1  0.009150  0.246871  0.506001  1
  Sc  Sc5  1  0.333694  0.569255  0.828993  1
  Sc  Sc6  1  0.000000  0.500000  0.000000  1
  Sc  Sc7  1  0.336902  0.834052  0.332721  1
  Sc  Sc8  1  0.663098  0.165948  0.667279  1
  Sc  Sc9  1  0.000000  0.000000  0.000000  1
  Te  Te10  1  0.723171  0.679083  0.965199  1
  Te  Te11  1  0.067535  0.019448  0.306452  1
  Te  Te12  1  0.396448  0.352282  0.631737  1
  Te  Te13  1  0.603552  0.647718  0.368263  1
  Te  Te14  1  0.932465  0.980552  0.693548  1
  Te  Te15  1  0.276829  0.320917  0.034801  1
  Te  Te16  1  0.717747  0.179463  0.975365  1
  Te  Te17  1  0.056116  0.513190  0.307048  1
  Te  Te18  1  0.383385  0.845778  0.640270  1
  Te  Te19  1  0.616615  0.154222  0.359730  1
  Te  Te20  1  0.943884  0.486810  0.692952  1
  Te  Te21  1  0.282253  0.820537  0.024635  1
