# generated using pymatgen
data_HoEr(ZrPt)2
_symmetry_space_group_name_H-M   'P 1'
_cell_length_a   4.68602000
_cell_length_b   7.04927700
_cell_length_c   8.22859000
_cell_angle_alpha   90.00000000
_cell_angle_beta   90.00000000
_cell_angle_gamma   90.00000000
_symmetry_Int_Tables_number   1
_chemical_formula_structural   HoEr(ZrPt)2
_chemical_formula_sum   'Ho2 Er2 Zr4 Pt4'
_cell_volume   271.81544965
_cell_formula_units_Z   2
loop_
 _symmetry_equiv_pos_site_id
 _symmetry_equiv_pos_as_xyz
  1  'x, y, z'
loop_
 _atom_site_type_symbol
 _atom_site_label
 _atom_site_symmetry_multiplicity
 _atom_site_fract_x
 _atom_site_fract_y
 _atom_site_fract_z
 _atom_site_occupancy
  Ho  Ho0  1  0.250000  0.015252  0.321467  1
  Ho  Ho1  1  0.250000  0.515252  0.178533  1
  Er  Er2  1  0.750000  0.984884  0.678816  1
  Er  Er3  1  0.750000  0.484884  0.821184  1
  Zr  Zr4  1  0.250000  0.649149  0.580261  1
  Zr  Zr5  1  0.250000  0.149149  0.919739  1
  Zr  Zr6  1  0.750000  0.350554  0.419309  1
  Zr  Zr7  1  0.750000  0.850554  0.080691  1
  Pt  Pt8  1  0.250000  0.268982  0.594048  1
  Pt  Pt9  1  0.250000  0.768982  0.905952  1
  Pt  Pt10  1  0.750000  0.731179  0.407612  1
  Pt  Pt11  1  0.750000  0.231179  0.092388  1
