# generated using pymatgen
data_Tb4GeAsSe2
_symmetry_space_group_name_H-M   'P 1'
_cell_length_a   7.19359015
_cell_length_b   7.19358865
_cell_length_c   7.19358882
_cell_angle_alpha   132.18011046
_cell_angle_beta   132.18009871
_cell_angle_gamma   69.94471519
_symmetry_Int_Tables_number   1
_chemical_formula_structural   Tb4GeAsSe2
_chemical_formula_sum   'Tb4 Ge1 As1 Se2'
_cell_volume   200.42963145
_cell_formula_units_Z   1
loop_
 _symmetry_equiv_pos_site_id
 _symmetry_equiv_pos_as_xyz
  1  'x, y, z'
loop_
 _atom_site_type_symbol
 _atom_site_label
 _atom_site_symmetry_multiplicity
 _atom_site_fract_x
 _atom_site_fract_y
 _atom_site_fract_z
 _atom_site_occupancy
  Tb  Tb0  1  0.245672  0.245672  0.000000  1
  Tb  Tb1  1  0.754328  0.754328  0.000000  1
  Tb  Tb2  1  0.506760  0.006760  0.500000  1
  Tb  Tb3  1  0.993240  0.493240  0.500000  1
  Ge  Ge4  1  0.750000  0.250000  0.500000  1
  As  As5  1  0.000000  0.000000  0.000000  1
  Se  Se6  1  0.250000  0.750000  0.500000  1
  Se  Se7  1  0.500000  0.500000  0.000000  1
