# generated using pymatgen
data_Li3Mg(Nb2N3)4
_symmetry_space_group_name_H-M   'P 1'
_cell_length_a   5.26559000
_cell_length_b   5.26558975
_cell_length_c   10.38238600
_cell_angle_alpha   90.00000000
_cell_angle_beta   90.00000000
_cell_angle_gamma   119.99998898
_symmetry_Int_Tables_number   1
_chemical_formula_structural   Li3Mg(Nb2N3)4
_chemical_formula_sum   'Li3 Mg1 Nb8 N12'
_cell_volume   249.29978918
_cell_formula_units_Z   1
loop_
 _symmetry_equiv_pos_site_id
 _symmetry_equiv_pos_as_xyz
  1  'x, y, z'
loop_
 _atom_site_type_symbol
 _atom_site_label
 _atom_site_symmetry_multiplicity
 _atom_site_fract_x
 _atom_site_fract_y
 _atom_site_fract_z
 _atom_site_occupancy
  Li  Li0  1  0.333333  0.666667  0.000000  1
  Li  Li1  1  0.333333  0.666667  0.500000  1
  Li  Li2  1  0.666667  0.333333  0.500000  1
  Mg  Mg3  1  0.666667  0.333333  0.000000  1
  Nb  Nb4  1  0.001855  0.346111  0.251747  1
  Nb  Nb5  1  0.653889  0.998145  0.748253  1
  Nb  Nb6  1  0.344256  0.346111  0.748253  1
  Nb  Nb7  1  0.000000  0.000000  0.500000  1
  Nb  Nb8  1  0.000000  0.000000  0.000000  1
  Nb  Nb9  1  0.653889  0.655744  0.251747  1
  Nb  Nb10  1  0.344256  0.998145  0.251747  1
  Nb  Nb11  1  0.001855  0.655744  0.748253  1
  N  N12  1  0.675305  0.674684  0.623643  1
  N  N13  1  0.673933  0.671869  0.876919  1
  N  N14  1  0.328131  0.326067  0.123081  1
  N  N15  1  0.325316  0.324695  0.376357  1
  N  N16  1  0.328131  0.002064  0.876919  1
  N  N17  1  0.325316  0.000621  0.623643  1
  N  N18  1  0.999379  0.674684  0.376357  1
  N  N19  1  0.997936  0.671869  0.123081  1
  N  N20  1  0.673933  0.002064  0.123081  1
  N  N21  1  0.675305  0.000621  0.376357  1
  N  N22  1  0.997936  0.326067  0.876919  1
  N  N23  1  0.999379  0.324695  0.623643  1
