# generated using pymatgen
data_Ce12Mn3Al6IrOs2
_symmetry_space_group_name_H-M   'P 1'
_cell_length_a   7.81998765
_cell_length_b   7.80864076
_cell_length_c   9.65640917
_cell_angle_alpha   90.36772633
_cell_angle_beta   89.81639601
_cell_angle_gamma   119.95200377
_symmetry_Int_Tables_number   1
_chemical_formula_structural   Ce12Mn3Al6IrOs2
_chemical_formula_sum   'Ce12 Mn3 Al6 Ir1 Os2'
_cell_volume   510.89152389
_cell_formula_units_Z   1
loop_
 _symmetry_equiv_pos_site_id
 _symmetry_equiv_pos_as_xyz
  1  'x, y, z'
loop_
 _atom_site_type_symbol
 _atom_site_label
 _atom_site_symmetry_multiplicity
 _atom_site_fract_x
 _atom_site_fract_y
 _atom_site_fract_z
 _atom_site_occupancy
  Ce  Ce0  1  0.000000  0.559579  0.490628  1
  Ce  Ce1  1  0.558221  0.001192  0.490667  1
  Ce  Ce2  1  0.441779  0.442971  0.490667  1
  Ce  Ce3  1  0.000000  0.400464  0.010964  1
  Ce  Ce4  1  0.408872  0.002401  0.007882  1
  Ce  Ce5  1  0.591128  0.593529  0.007882  1
  Ce  Ce6  1  0.000000  0.740116  0.179066  1
  Ce  Ce7  1  0.745585  0.998148  0.181839  1
  Ce  Ce8  1  0.254415  0.252563  0.181839  1
  Ce  Ce9  1  0.000000  0.264586  0.674899  1
  Ce  Ce10  1  0.269360  0.004617  0.673069  1
  Ce  Ce11  1  0.730640  0.735257  0.673069  1
  Mn  Mn12  1  0.000000  0.353021  0.341832  1
  Mn  Mn13  1  0.352912  0.000214  0.341403  1
  Mn  Mn14  1  0.647088  0.647302  0.341403  1
  Al  Al15  1  0.666197  0.332596  0.264401  1
  Al  Al16  1  0.333803  0.666400  0.264401  1
  Al  Al17  1  0.331195  0.667113  0.775215  1
  Al  Al18  1  0.668805  0.335917  0.775215  1
  Al  Al19  1  0.000000  0.997783  0.425904  1
  Al  Al20  1  0.000000  0.000015  0.922395  1
  Ir  Ir21  1  0.000000  0.666808  0.838202  1
  Os  Os22  1  0.664090  0.000748  0.838200  1
  Os  Os23  1  0.335910  0.336658  0.838200  1
