# generated using pymatgen
data_TiBe8Mo3
_symmetry_space_group_name_H-M   'P 1'
_cell_length_a   4.47849000
_cell_length_b   4.47849127
_cell_length_c   7.30177700
_cell_angle_alpha   90.00000000
_cell_angle_beta   90.00000000
_cell_angle_gamma   120.00000539
_symmetry_Int_Tables_number   1
_chemical_formula_structural   TiBe8Mo3
_chemical_formula_sum   'Ti1 Be8 Mo3'
_cell_volume   126.83015236
_cell_formula_units_Z   1
loop_
 _symmetry_equiv_pos_site_id
 _symmetry_equiv_pos_as_xyz
  1  'x, y, z'
loop_
 _atom_site_type_symbol
 _atom_site_label
 _atom_site_symmetry_multiplicity
 _atom_site_fract_x
 _atom_site_fract_y
 _atom_site_fract_z
 _atom_site_occupancy
  Ti  Ti0  1  0.333333  0.666667  0.433562  1
  Be  Be1  1  0.000000  0.000000  0.499277  1
  Be  Be2  1  0.000000  0.000000  0.003656  1
  Be  Be3  1  0.828942  0.171058  0.249187  1
  Be  Be4  1  0.828942  0.657883  0.249187  1
  Be  Be5  1  0.342117  0.171058  0.249187  1
  Be  Be6  1  0.170293  0.829707  0.750771  1
  Be  Be7  1  0.170293  0.340589  0.750771  1
  Be  Be8  1  0.659411  0.829707  0.750771  1
  Mo  Mo9  1  0.666667  0.333333  0.566995  1
  Mo  Mo10  1  0.666667  0.333333  0.936683  1
  Mo  Mo11  1  0.333333  0.666667  0.059951  1
