# generated using pymatgen
data_YbDy6Sc(B6Os)4
_symmetry_space_group_name_H-M   'P 1'
_cell_length_a   3.63323900
_cell_length_b   9.11452527
_cell_length_c   11.50273184
_cell_angle_alpha   89.98152493
_cell_angle_beta   90.00000000
_cell_angle_gamma   90.00000000
_symmetry_Int_Tables_number   1
_chemical_formula_structural   YbDy6Sc(B6Os)4
_chemical_formula_sum   'Yb1 Dy6 Sc1 B24 Os4'
_cell_volume   380.91580564
_cell_formula_units_Z   1
loop_
 _symmetry_equiv_pos_site_id
 _symmetry_equiv_pos_as_xyz
  1  'x, y, z'
loop_
 _atom_site_type_symbol
 _atom_site_label
 _atom_site_symmetry_multiplicity
 _atom_site_fract_x
 _atom_site_fract_y
 _atom_site_fract_z
 _atom_site_occupancy
  Yb  Yb0  1  0.000000  0.323544  0.413909  1
  Dy  Dy1  1  0.000000  0.676122  0.586493  1
  Dy  Dy2  1  0.000000  0.820787  0.085303  1
  Dy  Dy3  1  0.000000  0.179636  0.913766  1
  Dy  Dy4  1  0.000000  0.944217  0.371888  1
  Dy  Dy5  1  0.000000  0.058188  0.628495  1
  Dy  Dy6  1  0.000000  0.443786  0.126543  1
  Sc  Sc7  1  0.000000  0.556244  0.871753  1
  B  B8  1  0.500000  0.553246  0.432734  1
  B  B9  1  0.500000  0.447170  0.568448  1
  B  B10  1  0.500000  0.052675  0.065883  1
  B  B11  1  0.500000  0.943646  0.932660  1
  B  B12  1  0.500000  0.747566  0.418940  1
  B  B13  1  0.500000  0.253995  0.582041  1
  B  B14  1  0.500000  0.247924  0.080047  1
  B  B15  1  0.500000  0.747217  0.919050  1
  B  B16  1  0.500000  0.790869  0.265703  1
  B  B17  1  0.500000  0.211711  0.735383  1
  B  B18  1  0.500000  0.290263  0.233285  1
  B  B19  1  0.500000  0.705989  0.767346  1
  B  B20  1  0.500000  0.631040  0.185412  1
  B  B21  1  0.500000  0.372652  0.816687  1
  B  B22  1  0.500000  0.131957  0.313669  1
  B  B23  1  0.500000  0.867195  0.686142  1
  B  B24  1  0.500000  0.983264  0.211612  1
  B  B25  1  0.500000  0.015506  0.787967  1
  B  B26  1  0.500000  0.482771  0.287512  1
  B  B27  1  0.500000  0.518984  0.715150  1
  B  B28  1  0.500000  0.603229  0.025220  1
  B  B29  1  0.500000  0.399881  0.968870  1
  B  B30  1  0.500000  0.106107  0.471213  1
  B  B31  1  0.500000  0.893417  0.529911  1
  Os  Os32  1  0.000000  0.638489  0.320147  1
  Os  Os33  1  0.000000  0.365449  0.682544  1
  Os  Os34  1  0.000000  0.136922  0.176606  1
  Os  Os35  1  0.000000  0.858341  0.821667  1
