# generated using pymatgen
data_Eu2TaZnO6
_symmetry_space_group_name_H-M   'P 1'
_cell_length_a   5.63087013
_cell_length_b   5.63086960
_cell_length_c   5.63086937
_cell_angle_alpha   61.05015549
_cell_angle_beta   61.05016109
_cell_angle_gamma   61.05015623
_symmetry_Int_Tables_number   1
_chemical_formula_structural   Eu2TaZnO6
_chemical_formula_sum   'Eu2 Ta1 Zn1 O6'
_cell_volume   129.22944934
_cell_formula_units_Z   1
loop_
 _symmetry_equiv_pos_site_id
 _symmetry_equiv_pos_as_xyz
  1  'x, y, z'
loop_
 _atom_site_type_symbol
 _atom_site_label
 _atom_site_symmetry_multiplicity
 _atom_site_fract_x
 _atom_site_fract_y
 _atom_site_fract_z
 _atom_site_occupancy
  Eu  Eu0  1  0.250661  0.250661  0.250661  1
  Eu  Eu1  1  0.749339  0.749339  0.749339  1
  Ta  Ta2  1  0.000000  0.000000  0.000000  1
  Zn  Zn3  1  0.500000  0.500000  0.500000  1
  O  O4  1  0.762613  0.326713  0.157493  1
  O  O5  1  0.673287  0.842509  0.237387  1
  O  O6  1  0.157491  0.762614  0.326715  1
  O  O7  1  0.842510  0.237387  0.673286  1
  O  O8  1  0.326714  0.157491  0.762614  1
  O  O9  1  0.237387  0.673288  0.842508  1
