# generated using pymatgen
data_RbCdPO4
_symmetry_space_group_name_H-M   'P 1'
_cell_length_a   5.65727100
_cell_length_b   9.30082343
_cell_length_c   9.30190982
_cell_angle_alpha   89.39523336
_cell_angle_beta   90.00094383
_cell_angle_gamma   90.00130740
_symmetry_Int_Tables_number   1
_chemical_formula_structural   RbCdPO4
_chemical_formula_sum   'Rb4 Cd4 P4 O16'
_cell_volume   489.41391644
_cell_formula_units_Z   4
loop_
 _symmetry_equiv_pos_site_id
 _symmetry_equiv_pos_as_xyz
  1  'x, y, z'
loop_
 _atom_site_type_symbol
 _atom_site_label
 _atom_site_symmetry_multiplicity
 _atom_site_fract_x
 _atom_site_fract_y
 _atom_site_fract_z
 _atom_site_occupancy
  Rb  Rb0  1  0.885803  0.989421  0.811753  1
  Rb  Rb1  1  0.385814  0.010583  0.188247  1
  Rb  Rb2  1  0.408116  0.511415  0.319532  1
  Rb  Rb3  1  0.908121  0.488593  0.680463  1
  Cd  Cd4  1  0.419020  0.669183  0.905749  1
  Cd  Cd5  1  0.362618  0.158399  0.575195  1
  Cd  Cd6  1  0.919028  0.330817  0.094252  1
  Cd  Cd7  1  0.862610  0.841601  0.424803  1
  P  P8  1  0.392644  0.796822  0.573751  1
  P  P9  1  0.892649  0.203179  0.426250  1
  P  P10  1  0.416222  0.301785  0.901174  1
  P  P11  1  0.916225  0.698211  0.098826  1
  O  O12  1  0.186818  0.730678  0.084197  1
  O  O13  1  0.686812  0.269318  0.915806  1
  O  O14  1  0.801028  0.817194  0.192769  1
  O  O15  1  0.301018  0.182804  0.807227  1
  O  O16  1  0.676272  0.278023  0.496275  1
  O  O17  1  0.176255  0.721977  0.503730  1
  O  O18  1  0.613755  0.698727  0.555869  1
  O  O19  1  0.113768  0.301274  0.444128  1
  O  O20  1  0.375813  0.450337  0.826315  1
  O  O21  1  0.875809  0.549660  0.173688  1
  O  O22  1  0.842843  0.170341  0.264945  1
  O  O23  1  0.342858  0.829663  0.735058  1
  O  O24  1  0.801605  0.703286  0.945915  1
  O  O25  1  0.301606  0.296707  0.054083  1
  O  O26  1  0.953136  0.058600  0.507965  1
  O  O27  1  0.453133  0.941401  0.492036  1
