# generated using pymatgen
data_Hf16Ni4AgMo3
_symmetry_space_group_name_H-M   'P 1'
_cell_length_a   8.72631502
_cell_length_b   8.72631506
_cell_length_c   8.72631601
_cell_angle_alpha   60.03644945
_cell_angle_beta   60.03644214
_cell_angle_gamma   60.03644707
_symmetry_Int_Tables_number   1
_chemical_formula_structural   Hf16Ni4AgMo3
_chemical_formula_sum   'Hf16 Ni4 Ag1 Mo3'
_cell_volume   470.25817369
_cell_formula_units_Z   1
loop_
 _symmetry_equiv_pos_site_id
 _symmetry_equiv_pos_as_xyz
  1  'x, y, z'
loop_
 _atom_site_type_symbol
 _atom_site_label
 _atom_site_symmetry_multiplicity
 _atom_site_fract_x
 _atom_site_fract_y
 _atom_site_fract_z
 _atom_site_occupancy
  Hf  Hf0  1  0.692292  0.101458  0.101458  1
  Hf  Hf1  1  0.101458  0.692292  0.101458  1
  Hf  Hf2  1  0.101458  0.101458  0.692292  1
  Hf  Hf3  1  0.103794  0.103794  0.103794  1
  Hf  Hf4  1  0.315917  0.315917  0.693422  1
  Hf  Hf5  1  0.684994  0.684994  0.315347  1
  Hf  Hf6  1  0.315917  0.693422  0.315917  1
  Hf  Hf7  1  0.684994  0.315347  0.684994  1
  Hf  Hf8  1  0.693422  0.315917  0.315917  1
  Hf  Hf9  1  0.315347  0.684994  0.684994  1
  Hf  Hf10  1  0.952698  0.952698  0.546157  1
  Hf  Hf11  1  0.554003  0.554003  0.942265  1
  Hf  Hf12  1  0.952698  0.546157  0.952698  1
  Hf  Hf13  1  0.554003  0.942265  0.554003  1
  Hf  Hf14  1  0.546157  0.952698  0.952698  1
  Hf  Hf15  1  0.942265  0.554003  0.554003  1
  Ni  Ni16  1  0.322693  0.890955  0.890955  1
  Ni  Ni17  1  0.890955  0.322693  0.890955  1
  Ni  Ni18  1  0.890955  0.890955  0.322693  1
  Ni  Ni19  1  0.891809  0.891809  0.891809  1
  Ag  Ag20  1  0.331649  0.331649  0.331649  1
  Mo  Mo21  1  0.995000  0.332759  0.332759  1
  Mo  Mo22  1  0.332759  0.995000  0.332759  1
  Mo  Mo23  1  0.332759  0.332759  0.995000  1
