# generated using pymatgen
data_DyTmInGa2
_symmetry_space_group_name_H-M   'P 1'
_cell_length_a   7.18711977
_cell_length_b   7.18711977
_cell_length_c   4.41717100
_cell_angle_alpha   90.00000000
_cell_angle_beta   90.00000000
_cell_angle_gamma   89.18726287
_symmetry_Int_Tables_number   1
_chemical_formula_structural   DyTmInGa2
_chemical_formula_sum   'Dy2 Tm2 In2 Ga4'
_cell_volume   228.14464636
_cell_formula_units_Z   2
loop_
 _symmetry_equiv_pos_site_id
 _symmetry_equiv_pos_as_xyz
  1  'x, y, z'
loop_
 _atom_site_type_symbol
 _atom_site_label
 _atom_site_symmetry_multiplicity
 _atom_site_fract_x
 _atom_site_fract_y
 _atom_site_fract_z
 _atom_site_occupancy
  Dy  Dy0  1  0.327105  0.827105  0.500000  1
  Dy  Dy1  1  0.672895  0.172895  0.500000  1
  Tm  Tm2  1  0.171391  0.328609  0.500000  1
  Tm  Tm3  1  0.828609  0.671391  0.500000  1
  In  In4  1  0.000000  0.000000  0.000000  1
  In  In5  1  0.500000  0.500000  0.000000  1
  Ga  Ga6  1  0.125449  0.625449  0.000000  1
  Ga  Ga7  1  0.874551  0.374551  0.000000  1
  Ga  Ga8  1  0.372555  0.127445  0.000000  1
  Ga  Ga9  1  0.627445  0.872555  0.000000  1
