# generated using pymatgen
data_Er3Sc3TaBi2
_symmetry_space_group_name_H-M   'P 1'
_cell_length_a   7.95117600
_cell_length_b   7.95117515
_cell_length_c   4.39373700
_cell_angle_alpha   90.00000000
_cell_angle_beta   90.00000000
_cell_angle_gamma   119.99999522
_symmetry_Int_Tables_number   1
_chemical_formula_structural   Er3Sc3TaBi2
_chemical_formula_sum   'Er3 Sc3 Ta1 Bi2'
_cell_volume   240.56220558
_cell_formula_units_Z   1
loop_
 _symmetry_equiv_pos_site_id
 _symmetry_equiv_pos_as_xyz
  1  'x, y, z'
loop_
 _atom_site_type_symbol
 _atom_site_label
 _atom_site_symmetry_multiplicity
 _atom_site_fract_x
 _atom_site_fract_y
 _atom_site_fract_z
 _atom_site_occupancy
  Er  Er0  1  0.000000  0.605481  0.500000  1
  Er  Er1  1  0.394519  0.394519  0.500000  1
  Er  Er2  1  0.605481  0.000000  0.500000  1
  Sc  Sc3  1  0.233283  0.000000  0.000000  1
  Sc  Sc4  1  0.766717  0.766717  0.000000  1
  Sc  Sc5  1  0.000000  0.233283  0.000000  1
  Ta  Ta6  1  0.000000  0.000000  0.500000  1
  Bi  Bi7  1  0.333333  0.666667  0.000000  1
  Bi  Bi8  1  0.666667  0.333333  0.000000  1
