# generated using pymatgen
data_SrNi5AsP2
_symmetry_space_group_name_H-M   'P 1'
_cell_length_a   6.23300032
_cell_length_b   6.23300084
_cell_length_c   11.67035800
_cell_angle_alpha   90.00000000
_cell_angle_beta   90.00000000
_cell_angle_gamma   145.66195011
_symmetry_Int_Tables_number   1
_chemical_formula_structural   SrNi5AsP2
_chemical_formula_sum   'Sr2 Ni10 As2 P4'
_cell_volume   255.74962497
_cell_formula_units_Z   2
loop_
 _symmetry_equiv_pos_site_id
 _symmetry_equiv_pos_as_xyz
  1  'x, y, z'
loop_
 _atom_site_type_symbol
 _atom_site_label
 _atom_site_symmetry_multiplicity
 _atom_site_fract_x
 _atom_site_fract_y
 _atom_site_fract_z
 _atom_site_occupancy
  Sr  Sr0  1  0.162306  0.837694  0.250000  1
  Sr  Sr1  1  0.837694  0.162306  0.750000  1
  Ni  Ni2  1  0.198297  0.801703  0.941501  1
  Ni  Ni3  1  0.801703  0.198297  0.441501  1
  Ni  Ni4  1  0.000000  0.000000  0.000000  1
  Ni  Ni5  1  0.000000  0.000000  0.500000  1
  Ni  Ni6  1  0.542685  0.457315  0.642093  1
  Ni  Ni7  1  0.457315  0.542685  0.357907  1
  Ni  Ni8  1  0.457315  0.542685  0.142093  1
  Ni  Ni9  1  0.198297  0.801703  0.558499  1
  Ni  Ni10  1  0.801703  0.198297  0.058499  1
  Ni  Ni11  1  0.542685  0.457315  0.857907  1
  As  As12  1  0.116432  0.883568  0.750000  1
  As  As13  1  0.883568  0.116432  0.250000  1
  P  P14  1  0.619475  0.380525  0.464521  1
  P  P15  1  0.619475  0.380525  0.035479  1
  P  P16  1  0.380525  0.619475  0.964521  1
  P  P17  1  0.380525  0.619475  0.535479  1
