# generated using pymatgen
data_La3Yb(GaPd)4
_symmetry_space_group_name_H-M   'P 1'
_cell_length_a   4.57461000
_cell_length_b   7.16911324
_cell_length_c   7.85760710
_cell_angle_alpha   88.51281015
_cell_angle_beta   90.00000000
_cell_angle_gamma   90.00000000
_symmetry_Int_Tables_number   1
_chemical_formula_structural   La3Yb(GaPd)4
_chemical_formula_sum   'La3 Yb1 Ga4 Pd4'
_cell_volume   257.61046940
_cell_formula_units_Z   1
loop_
 _symmetry_equiv_pos_site_id
 _symmetry_equiv_pos_as_xyz
  1  'x, y, z'
loop_
 _atom_site_type_symbol
 _atom_site_label
 _atom_site_symmetry_multiplicity
 _atom_site_fract_x
 _atom_site_fract_y
 _atom_site_fract_z
 _atom_site_occupancy
  La  La0  1  0.250000  0.969066  0.309984  1
  La  La1  1  0.250000  0.473007  0.182970  1
  La  La2  1  0.750000  0.030871  0.693488  1
  Yb  Yb3  1  0.750000  0.524906  0.804648  1
  Ga  Ga4  1  0.250000  0.345868  0.574366  1
  Ga  Ga5  1  0.250000  0.834105  0.927201  1
  Ga  Ga6  1  0.750000  0.657860  0.436152  1
  Ga  Ga7  1  0.750000  0.166413  0.068729  1
  Pd  Pd8  1  0.250000  0.219676  0.895553  1
  Pd  Pd9  1  0.250000  0.713041  0.613938  1
  Pd  Pd10  1  0.750000  0.781197  0.101402  1
  Pd  Pd11  1  0.750000  0.283989  0.391568  1
