# generated using pymatgen
data_Cr3CoH4
_symmetry_space_group_name_H-M   'P 1'
_cell_length_a   2.66695319
_cell_length_b   5.33821748
_cell_length_c   5.04200962
_cell_angle_alpha   58.00604421
_cell_angle_beta   74.63022192
_cell_angle_gamma   60.03066574
_symmetry_Int_Tables_number   1
_chemical_formula_structural   Cr3CoH4
_chemical_formula_sum   'Cr3 Co1 H4'
_cell_volume   52.73866421
_cell_formula_units_Z   1
loop_
 _symmetry_equiv_pos_site_id
 _symmetry_equiv_pos_as_xyz
  1  'x, y, z'
loop_
 _atom_site_type_symbol
 _atom_site_label
 _atom_site_symmetry_multiplicity
 _atom_site_fract_x
 _atom_site_fract_y
 _atom_site_fract_z
 _atom_site_occupancy
  Cr  Cr0  1  0.910619  0.514665  0.843893  1
  Cr  Cr1  1  0.908018  0.011306  0.850081  1
  Cr  Cr2  1  0.239022  0.933020  0.346486  1
  Co  Co3  1  0.243988  0.428654  0.347053  1
  H  H4  1  0.577487  0.220693  0.094876  1
  H  H5  1  0.575909  0.968315  0.597984  1
  H  H6  1  0.578186  0.475527  0.594654  1
  H  H7  1  0.571273  0.723109  0.099521  1
