# generated using pymatgen
data_Ba20Si8Bi3Pb
_symmetry_space_group_name_H-M   'P 1'
_cell_length_a   8.69579400
_cell_length_b   8.69579400
_cell_length_c   17.12403200
_cell_angle_alpha   90.00000000
_cell_angle_beta   90.00000000
_cell_angle_gamma   90.00000000
_symmetry_Int_Tables_number   1
_chemical_formula_structural   Ba20Si8Bi3Pb
_chemical_formula_sum   'Ba20 Si8 Bi3 Pb1'
_cell_volume   1294.86507300
_cell_formula_units_Z   1
loop_
 _symmetry_equiv_pos_site_id
 _symmetry_equiv_pos_as_xyz
  1  'x, y, z'
loop_
 _atom_site_type_symbol
 _atom_site_label
 _atom_site_symmetry_multiplicity
 _atom_site_fract_x
 _atom_site_fract_y
 _atom_site_fract_z
 _atom_site_occupancy
  Ba  Ba0  1  0.314425  0.667058  0.113110  1
  Ba  Ba1  1  0.167058  0.185575  0.113110  1
  Ba  Ba2  1  0.500000  0.000000  0.731853  1
  Ba  Ba3  1  0.332849  0.684250  0.386896  1
  Ba  Ba4  1  0.667815  0.684485  0.886799  1
  Ba  Ba5  1  0.184250  0.167151  0.386896  1
  Ba  Ba6  1  0.667151  0.315750  0.386896  1
  Ba  Ba7  1  0.166908  0.815638  0.613156  1
  Ba  Ba8  1  0.332185  0.315515  0.886799  1
  Ba  Ba9  1  0.184485  0.832185  0.886799  1
  Ba  Ba10  1  0.500000  0.000000  0.230963  1
  Ba  Ba11  1  0.833092  0.184362  0.613156  1
  Ba  Ba12  1  0.315638  0.333092  0.613156  1
  Ba  Ba13  1  0.815750  0.832849  0.386896  1
  Ba  Ba14  1  0.815515  0.167815  0.886799  1
  Ba  Ba15  1  0.832942  0.814425  0.113110  1
  Ba  Ba16  1  0.000000  0.500000  0.267161  1
  Ba  Ba17  1  0.000000  0.500000  0.769781  1
  Ba  Ba18  1  0.685575  0.332942  0.113110  1
  Ba  Ba19  1  0.684362  0.666908  0.613156  1
  Si  Si20  1  0.102125  0.101771  0.749143  1
  Si  Si21  1  0.398229  0.602125  0.749143  1
  Si  Si22  1  0.602056  0.602080  0.250831  1
  Si  Si23  1  0.102080  0.897944  0.250831  1
  Si  Si24  1  0.601771  0.397875  0.749143  1
  Si  Si25  1  0.897875  0.898229  0.749143  1
  Si  Si26  1  0.397944  0.397920  0.250831  1
  Si  Si27  1  0.897920  0.102056  0.250831  1
  Bi  Bi28  1  0.500000  0.000000  0.010137  1
  Bi  Bi29  1  0.500000  0.000000  0.510236  1
  Bi  Bi30  1  0.000000  0.500000  0.489659  1
  Pb  Pb31  1  0.000000  0.500000  0.990474  1
