# generated using pymatgen
data_La2Yb6SnPd24
_symmetry_space_group_name_H-M   'P 1'
_cell_length_a   8.42937573
_cell_length_b   8.42937573
_cell_length_c   8.42937573
_cell_angle_alpha   90.24218412
_cell_angle_beta   89.75781588
_cell_angle_gamma   89.75781588
_symmetry_Int_Tables_number   1
_chemical_formula_structural   La2Yb6SnPd24
_chemical_formula_sum   'La2 Yb6 Sn1 Pd24'
_cell_volume   598.92792896
_cell_formula_units_Z   1
loop_
 _symmetry_equiv_pos_site_id
 _symmetry_equiv_pos_as_xyz
  1  'x, y, z'
loop_
 _atom_site_type_symbol
 _atom_site_label
 _atom_site_symmetry_multiplicity
 _atom_site_fract_x
 _atom_site_fract_y
 _atom_site_fract_z
 _atom_site_occupancy
  La  La0  1  0.253436  0.746564  0.746564  1
  La  La1  1  0.746564  0.253436  0.253436  1
  Yb  Yb2  1  0.252464  0.250008  0.250008  1
  Yb  Yb3  1  0.747536  0.749992  0.749992  1
  Yb  Yb4  1  0.749992  0.747536  0.250008  1
  Yb  Yb5  1  0.749992  0.250008  0.747536  1
  Yb  Yb6  1  0.250008  0.252464  0.749992  1
  Yb  Yb7  1  0.250008  0.749992  0.252464  1
  Sn  Sn8  1  0.000000  0.000000  0.000000  1
  Pd  Pd9  1  0.267728  0.499373  0.005305  1
  Pd  Pd10  1  0.732272  0.500627  0.994695  1
  Pd  Pd11  1  0.005305  0.267728  0.500627  1
  Pd  Pd12  1  0.499373  0.267728  0.994695  1
  Pd  Pd13  1  0.994695  0.732272  0.499373  1
  Pd  Pd14  1  0.500627  0.732272  0.005305  1
  Pd  Pd15  1  0.499373  0.994695  0.267728  1
  Pd  Pd16  1  0.267728  0.005305  0.499373  1
  Pd  Pd17  1  0.500627  0.005305  0.732272  1
  Pd  Pd18  1  0.732272  0.994695  0.500627  1
  Pd  Pd19  1  0.005305  0.500627  0.267728  1
  Pd  Pd20  1  0.994695  0.499373  0.732272  1
  Pd  Pd21  1  0.255088  0.497414  0.497414  1
  Pd  Pd22  1  0.744912  0.502586  0.502586  1
  Pd  Pd23  1  0.497414  0.255088  0.502586  1
  Pd  Pd24  1  0.502586  0.744912  0.497414  1
  Pd  Pd25  1  0.497414  0.502586  0.255088  1
  Pd  Pd26  1  0.502586  0.497414  0.744912  1
  Pd  Pd27  1  0.315983  0.002619  0.002619  1
  Pd  Pd28  1  0.684017  0.997381  0.997381  1
  Pd  Pd29  1  0.002619  0.315983  0.997381  1
  Pd  Pd30  1  0.997381  0.684017  0.002619  1
  Pd  Pd31  1  0.002619  0.997381  0.315983  1
  Pd  Pd32  1  0.997381  0.002619  0.684017  1
