# generated using pymatgen
data_TcAg2AsF12
_symmetry_space_group_name_H-M   'P 1'
_cell_length_a   5.54652539
_cell_length_b   5.83986123
_cell_length_c   8.07675664
_cell_angle_alpha   96.33609081
_cell_angle_beta   89.54843991
_cell_angle_gamma   90.40309089
_symmetry_Int_Tables_number   1
_chemical_formula_structural   TcAg2AsF12
_chemical_formula_sum   'Tc1 Ag2 As1 F12'
_cell_volume   260.00261817
_cell_formula_units_Z   1
loop_
 _symmetry_equiv_pos_site_id
 _symmetry_equiv_pos_as_xyz
  1  'x, y, z'
loop_
 _atom_site_type_symbol
 _atom_site_label
 _atom_site_symmetry_multiplicity
 _atom_site_fract_x
 _atom_site_fract_y
 _atom_site_fract_z
 _atom_site_occupancy
  Tc  Tc0  1  0.000000  0.000000  0.500000  1
  Ag  Ag1  1  0.000000  0.000000  0.000000  1
  Ag  Ag2  1  0.500000  0.500000  0.500000  1
  As  As3  1  0.500000  0.500000  0.000000  1
  F  F4  1  0.882427  0.000554  0.724336  1
  F  F5  1  0.157524  0.290132  0.562409  1
  F  F6  1  0.244931  0.627690  0.914958  1
  F  F7  1  0.339389  0.483175  0.189848  1
  F  F8  1  0.390147  0.221281  0.923754  1
  F  F9  1  0.285755  0.842699  0.556902  1
  F  F10  1  0.714245  0.157301  0.443098  1
  F  F11  1  0.609853  0.778719  0.076246  1
  F  F12  1  0.660611  0.516825  0.810152  1
  F  F13  1  0.755069  0.372310  0.085042  1
  F  F14  1  0.842476  0.709868  0.437591  1
  F  F15  1  0.117573  0.999446  0.275664  1
