# generated using pymatgen
data_Pr4SiBr6
_symmetry_space_group_name_H-M   'P 1'
_cell_length_a   4.24743300
_cell_length_b   13.84624800
_cell_length_c   14.65301900
_cell_angle_alpha   90.00000000
_cell_angle_beta   90.00000000
_cell_angle_gamma   90.00000000
_symmetry_Int_Tables_number   1
_chemical_formula_structural   Pr4SiBr6
_chemical_formula_sum   'Pr8 Si2 Br12'
_cell_volume   861.75885692
_cell_formula_units_Z   2
loop_
 _symmetry_equiv_pos_site_id
 _symmetry_equiv_pos_as_xyz
  1  'x, y, z'
loop_
 _atom_site_type_symbol
 _atom_site_label
 _atom_site_symmetry_multiplicity
 _atom_site_fract_x
 _atom_site_fract_y
 _atom_site_fract_z
 _atom_site_occupancy
  Pr  Pr0  1  0.500000  0.119103  0.340382  1
  Pr  Pr1  1  0.500000  0.880897  0.659618  1
  Pr  Pr2  1  0.500000  0.619103  0.159618  1
  Pr  Pr3  1  0.500000  0.380897  0.840382  1
  Pr  Pr4  1  0.000000  0.120044  0.579717  1
  Pr  Pr5  1  0.000000  0.879956  0.420283  1
  Pr  Pr6  1  0.000000  0.620044  0.920283  1
  Pr  Pr7  1  0.000000  0.379956  0.079717  1
  Si  Si8  1  0.500000  0.000000  0.500000  1
  Si  Si9  1  0.500000  0.500000  0.000000  1
  Br  Br10  1  0.500000  0.243512  0.162093  1
  Br  Br11  1  0.500000  0.756488  0.837907  1
  Br  Br12  1  0.500000  0.743512  0.337907  1
  Br  Br13  1  0.500000  0.256488  0.662093  1
  Br  Br14  1  0.000000  0.253990  0.411193  1
  Br  Br15  1  0.000000  0.746010  0.588807  1
  Br  Br16  1  0.000000  0.753990  0.088807  1
  Br  Br17  1  0.000000  0.246010  0.911193  1
  Br  Br18  1  0.000000  0.001959  0.244544  1
  Br  Br19  1  0.000000  0.998041  0.755456  1
  Br  Br20  1  0.000000  0.501959  0.255456  1
  Br  Br21  1  0.000000  0.498041  0.744544  1
