# generated using pymatgen
data_Gd4Al17AgPt6
_symmetry_space_group_name_H-M   'P 1'
_cell_length_a   7.58402800
_cell_length_b   7.58402791
_cell_length_c   9.44159300
_cell_angle_alpha   90.00000000
_cell_angle_beta   90.00000000
_cell_angle_gamma   119.20565791
_symmetry_Int_Tables_number   1
_chemical_formula_structural   Gd4Al17AgPt6
_chemical_formula_sum   'Gd4 Al17 Ag1 Pt6'
_cell_volume   474.01996305
_cell_formula_units_Z   1
loop_
 _symmetry_equiv_pos_site_id
 _symmetry_equiv_pos_as_xyz
  1  'x, y, z'
loop_
 _atom_site_type_symbol
 _atom_site_label
 _atom_site_symmetry_multiplicity
 _atom_site_fract_x
 _atom_site_fract_y
 _atom_site_fract_z
 _atom_site_occupancy
  Gd  Gd0  1  0.994660  0.671818  0.250000  1
  Gd  Gd1  1  0.006844  0.327913  0.750000  1
  Gd  Gd2  1  0.671818  0.994660  0.250000  1
  Gd  Gd3  1  0.327913  0.006844  0.750000  1
  Al  Al4  1  0.859460  0.859460  0.750000  1
  Al  Al5  1  0.002122  0.331573  0.078778  1
  Al  Al6  1  0.999855  0.663312  0.921685  1
  Al  Al7  1  0.999855  0.663312  0.578315  1
  Al  Al8  1  0.331573  0.002122  0.421222  1
  Al  Al9  1  0.002122  0.331573  0.421222  1
  Al  Al10  1  0.663312  0.999855  0.578315  1
  Al  Al11  1  0.663312  0.999855  0.921685  1
  Al  Al12  1  0.331573  0.002122  0.078778  1
  Al  Al13  1  0.332288  0.332288  0.551745  1
  Al  Al14  1  0.668196  0.668196  0.443807  1
  Al  Al15  1  0.668196  0.668196  0.056193  1
  Al  Al16  1  0.332288  0.332288  0.948255  1
  Al  Al17  1  0.342262  0.549586  0.250000  1
  Al  Al18  1  0.656784  0.448785  0.750000  1
  Al  Al19  1  0.549586  0.342262  0.250000  1
  Al  Al20  1  0.448785  0.656784  0.750000  1
  Ag  Ag21  1  0.152102  0.152102  0.250000  1
  Pt  Pt22  1  0.673835  0.328569  0.999632  1
  Pt  Pt23  1  0.328569  0.673835  0.999632  1
  Pt  Pt24  1  0.328569  0.673835  0.500368  1
  Pt  Pt25  1  0.673835  0.328569  0.500368  1
  Pt  Pt26  1  0.995145  0.995145  0.986032  1
  Pt  Pt27  1  0.995145  0.995145  0.513968  1
