# generated using pymatgen
data_TbY5(Ir7Rh2)2
_symmetry_space_group_name_H-M   'P 1'
_cell_length_a   5.31494200
_cell_length_b   5.31494305
_cell_length_c   17.48691500
_cell_angle_alpha   90.00000000
_cell_angle_beta   90.00000000
_cell_angle_gamma   119.99999349
_symmetry_Int_Tables_number   1
_chemical_formula_structural   TbY5(Ir7Rh2)2
_chemical_formula_sum   'Tb1 Y5 Ir14 Rh4'
_cell_volume   427.80022034
_cell_formula_units_Z   1
loop_
 _symmetry_equiv_pos_site_id
 _symmetry_equiv_pos_as_xyz
  1  'x, y, z'
loop_
 _atom_site_type_symbol
 _atom_site_label
 _atom_site_symmetry_multiplicity
 _atom_site_fract_x
 _atom_site_fract_y
 _atom_site_fract_z
 _atom_site_occupancy
  Tb  Tb0  1  0.333333  0.666667  0.750000  1
  Y  Y1  1  0.333333  0.666667  0.958884  1
  Y  Y2  1  0.666667  0.333333  0.041426  1
  Y  Y3  1  0.666667  0.333333  0.458574  1
  Y  Y4  1  0.333333  0.666667  0.541116  1
  Y  Y5  1  0.666667  0.333333  0.250000  1
  Ir  Ir6  1  0.167490  0.832510  0.373873  1
  Ir  Ir7  1  0.167490  0.334980  0.373873  1
  Ir  Ir8  1  0.665020  0.832510  0.373873  1
  Ir  Ir9  1  0.832507  0.167493  0.625921  1
  Ir  Ir10  1  0.832507  0.665014  0.625921  1
  Ir  Ir11  1  0.334986  0.167493  0.625921  1
  Ir  Ir12  1  0.832507  0.167493  0.874079  1
  Ir  Ir13  1  0.832507  0.665014  0.874079  1
  Ir  Ir14  1  0.334986  0.167493  0.874079  1
  Ir  Ir15  1  0.167490  0.832510  0.126127  1
  Ir  Ir16  1  0.167490  0.334980  0.126127  1
  Ir  Ir17  1  0.665020  0.832510  0.126127  1
  Ir  Ir18  1  0.000000  0.000000  0.499871  1
  Ir  Ir19  1  0.000000  0.000000  0.000129  1
  Rh  Rh20  1  0.333333  0.666667  0.250000  1
  Rh  Rh21  1  0.666667  0.333333  0.750000  1
  Rh  Rh22  1  0.000000  0.000000  0.250000  1
  Rh  Rh23  1  0.000000  0.000000  0.750000  1
