# generated using pymatgen
data_TmLu3Tc2(B8Rh)2
_symmetry_space_group_name_H-M   'P 1'
_cell_length_a   3.54839500
_cell_length_b   5.92162424
_cell_length_c   11.47140832
_cell_angle_alpha   90.25136450
_cell_angle_beta   90.00000000
_cell_angle_gamma   90.00000000
_symmetry_Int_Tables_number   1
_chemical_formula_structural   TmLu3Tc2(B8Rh)2
_chemical_formula_sum   'Tm1 Lu3 Tc2 B16 Rh2'
_cell_volume   241.03791577
_cell_formula_units_Z   1
loop_
 _symmetry_equiv_pos_site_id
 _symmetry_equiv_pos_as_xyz
  1  'x, y, z'
loop_
 _atom_site_type_symbol
 _atom_site_label
 _atom_site_symmetry_multiplicity
 _atom_site_fract_x
 _atom_site_fract_y
 _atom_site_fract_z
 _atom_site_occupancy
  Tm  Tm0  1  0.500000  0.371025  0.149053  1
  Lu  Lu1  1  0.500000  0.628888  0.851016  1
  Lu  Lu2  1  0.500000  0.130168  0.648203  1
  Lu  Lu3  1  0.500000  0.869883  0.351824  1
  Tc  Tc4  1  0.500000  0.364330  0.410539  1
  Tc  Tc5  1  0.500000  0.635660  0.589817  1
  B  B6  1  0.000000  0.112879  0.048370  1
  B  B7  1  0.000000  0.886353  0.951251  1
  B  B8  1  0.000000  0.386604  0.547294  1
  B  B9  1  0.000000  0.613469  0.452763  1
  B  B10  1  0.000000  0.134037  0.469748  1
  B  B11  1  0.000000  0.865941  0.530254  1
  B  B12  1  0.000000  0.364537  0.969788  1
  B  B13  1  0.000000  0.635738  0.029753  1
  B  B14  1  0.000000  0.021441  0.194352  1
  B  B15  1  0.000000  0.978186  0.805675  1
  B  B16  1  0.000000  0.476790  0.693384  1
  B  B17  1  0.000000  0.523377  0.306943  1
  B  B18  1  0.000000  0.208445  0.314227  1
  B  B19  1  0.000000  0.791530  0.685983  1
  B  B20  1  0.000000  0.291711  0.813278  1
  B  B21  1  0.000000  0.708861  0.186769  1
  Rh  Rh22  1  0.500000  0.141440  0.904811  1
  Rh  Rh23  1  0.500000  0.858708  0.094904  1
