# generated using pymatgen
data_Nd19Y(IrPt2)4
_symmetry_space_group_name_H-M   'P 1'
_cell_length_a   11.42298400
_cell_length_b   11.42298400
_cell_length_c   6.51821100
_cell_angle_alpha   90.00000000
_cell_angle_beta   90.00000000
_cell_angle_gamma   90.00000000
_symmetry_Int_Tables_number   1
_chemical_formula_structural   Nd19Y(IrPt2)4
_chemical_formula_sum   'Nd19 Y1 Ir4 Pt8'
_cell_volume   850.52591690
_cell_formula_units_Z   1
loop_
 _symmetry_equiv_pos_site_id
 _symmetry_equiv_pos_as_xyz
  1  'x, y, z'
loop_
 _atom_site_type_symbol
 _atom_site_label
 _atom_site_symmetry_multiplicity
 _atom_site_fract_x
 _atom_site_fract_y
 _atom_site_fract_z
 _atom_site_occupancy
  Nd  Nd0  1  0.295368  0.089152  0.373370  1
  Nd  Nd1  1  0.295493  0.911206  0.873678  1
  Nd  Nd2  1  0.704507  0.088794  0.873678  1
  Nd  Nd3  1  0.704632  0.910848  0.373370  1
  Nd  Nd4  1  0.588560  0.794050  0.873700  1
  Nd  Nd5  1  0.588772  0.206144  0.375132  1
  Nd  Nd6  1  0.411228  0.793856  0.375132  1
  Nd  Nd7  1  0.411440  0.205950  0.873700  1
  Nd  Nd8  1  0.206144  0.411228  0.624868  1
  Nd  Nd9  1  0.205950  0.588560  0.126300  1
  Nd  Nd10  1  0.794050  0.411440  0.126300  1
  Nd  Nd11  1  0.793856  0.588772  0.624868  1
  Nd  Nd12  1  0.911206  0.704507  0.126322  1
  Nd  Nd13  1  0.910848  0.295368  0.626630  1
  Nd  Nd14  1  0.089152  0.704632  0.626630  1
  Nd  Nd15  1  0.088794  0.295493  0.126322  1
  Nd  Nd16  1  0.000000  0.000000  0.500000  1
  Nd  Nd17  1  0.000000  0.000000  0.000000  1
  Nd  Nd18  1  0.500000  0.500000  0.000000  1
  Y  Y19  1  0.500000  0.500000  0.500000  1
  Ir  Ir20  1  0.500000  0.000000  0.115331  1
  Ir  Ir21  1  0.500000  0.000000  0.615247  1
  Ir  Ir22  1  0.000000  0.500000  0.884669  1
  Ir  Ir23  1  0.000000  0.500000  0.384753  1
  Pt  Pt24  1  0.846107  0.154012  0.250004  1
  Pt  Pt25  1  0.845988  0.846107  0.749996  1
  Pt  Pt26  1  0.154012  0.153893  0.749996  1
  Pt  Pt27  1  0.153893  0.845988  0.250004  1
  Pt  Pt28  1  0.651567  0.349073  0.746211  1
  Pt  Pt29  1  0.650927  0.651567  0.253789  1
  Pt  Pt30  1  0.349073  0.348433  0.253789  1
  Pt  Pt31  1  0.348433  0.650927  0.746211  1
