# generated using pymatgen
data_Ca2Ac3Ru2
_symmetry_space_group_name_H-M   'P 1'
_cell_length_a   9.07654988
_cell_length_b   9.07654826
_cell_length_c   7.65700900
_cell_angle_alpha   83.47731443
_cell_angle_beta   83.47731560
_cell_angle_gamma   44.08889881
_symmetry_Int_Tables_number   1
_chemical_formula_structural   Ca2Ac3Ru2
_chemical_formula_sum   'Ca4 Ac6 Ru4'
_cell_volume   435.59445865
_cell_formula_units_Z   2
loop_
 _symmetry_equiv_pos_site_id
 _symmetry_equiv_pos_as_xyz
  1  'x, y, z'
loop_
 _atom_site_type_symbol
 _atom_site_label
 _atom_site_symmetry_multiplicity
 _atom_site_fract_x
 _atom_site_fract_y
 _atom_site_fract_z
 _atom_site_occupancy
  Ca  Ca0  1  0.369955  0.201555  0.821156  1
  Ca  Ca1  1  0.798445  0.630045  0.678844  1
  Ca  Ca2  1  0.630045  0.798445  0.178844  1
  Ca  Ca3  1  0.201555  0.369955  0.321156  1
  Ac  Ac4  1  0.009942  0.797437  0.914033  1
  Ac  Ac5  1  0.202563  0.990058  0.585967  1
  Ac  Ac6  1  0.990058  0.202563  0.085967  1
  Ac  Ac7  1  0.797437  0.009942  0.414033  1
  Ac  Ac8  1  0.573186  0.426814  0.750000  1
  Ac  Ac9  1  0.426814  0.573186  0.250000  1
  Ru  Ru10  1  0.163375  0.628986  0.579682  1
  Ru  Ru11  1  0.371014  0.836625  0.920318  1
  Ru  Ru12  1  0.836625  0.371014  0.420318  1
  Ru  Ru13  1  0.628986  0.163375  0.079682  1
