# generated using pymatgen
data_Ce3Dy6Tm(Al2Ru3)2
_symmetry_space_group_name_H-M   'P 1'
_cell_length_a   8.42297200
_cell_length_b   8.42002980
_cell_length_c   8.41511651
_cell_angle_alpha   110.06624242
_cell_angle_beta   110.02414941
_cell_angle_gamma   110.15283275
_symmetry_Int_Tables_number   1
_chemical_formula_structural   Ce3Dy6Tm(Al2Ru3)2
_chemical_formula_sum   'Ce3 Dy6 Tm1 Al4 Ru6'
_cell_volume   448.75429372
_cell_formula_units_Z   1
loop_
 _symmetry_equiv_pos_site_id
 _symmetry_equiv_pos_as_xyz
  1  'x, y, z'
loop_
 _atom_site_type_symbol
 _atom_site_label
 _atom_site_symmetry_multiplicity
 _atom_site_fract_x
 _atom_site_fract_y
 _atom_site_fract_z
 _atom_site_occupancy
  Ce  Ce0  1  0.253776  0.199002  0.944101  1
  Ce  Ce1  1  0.944283  0.252995  0.199138  1
  Ce  Ce2  1  0.199433  0.944356  0.253187  1
  Dy  Dy3  1  0.779930  0.780676  0.780355  1
  Dy  Dy4  1  0.313858  0.567257  0.750685  1
  Dy  Dy5  1  0.750829  0.313162  0.566998  1
  Dy  Dy6  1  0.566810  0.751555  0.314896  1
  Dy  Dy7  1  0.720661  0.505162  0.995018  1
  Dy  Dy8  1  0.996647  0.721473  0.506771  1
  Tm  Tm9  1  0.506633  0.995365  0.718835  1
  Al  Al10  1  0.410675  0.410950  0.411623  1
  Al  Al11  1  0.093632  0.499129  0.001808  1
  Al  Al12  1  0.001627  0.093953  0.499611  1
  Al  Al13  1  0.498823  0.001418  0.091711  1
  Ru  Ru14  1  0.898946  0.120608  0.754729  1
  Ru  Ru15  1  0.754826  0.901125  0.121064  1
  Ru  Ru16  1  0.120558  0.754659  0.900520  1
  Ru  Ru17  1  0.226104  0.598489  0.367069  1
  Ru  Ru18  1  0.365991  0.222899  0.597128  1
  Ru  Ru19  1  0.595957  0.365768  0.224755  1
