# generated using pymatgen
data_Er8Zr11Si16Rh
_symmetry_space_group_name_H-M   'P 1'
_cell_length_a   7.29330707
_cell_length_b   7.29330708
_cell_length_c   13.31233618
_cell_angle_alpha   90.18849256
_cell_angle_beta   89.81150705
_cell_angle_gamma   90.02140446
_symmetry_Int_Tables_number   1
_chemical_formula_structural   Er8Zr11Si16Rh
_chemical_formula_sum   'Er8 Zr11 Si16 Rh1'
_cell_volume   708.10644283
_cell_formula_units_Z   1
loop_
 _symmetry_equiv_pos_site_id
 _symmetry_equiv_pos_as_xyz
  1  'x, y, z'
loop_
 _atom_site_type_symbol
 _atom_site_label
 _atom_site_symmetry_multiplicity
 _atom_site_fract_x
 _atom_site_fract_y
 _atom_site_fract_z
 _atom_site_occupancy
  Er  Er0  1  0.345361  0.004632  0.464018  1
  Er  Er1  1  0.494944  0.847322  0.716715  1
  Er  Er2  1  0.501142  0.153777  0.209897  1
  Er  Er3  1  0.847322  0.494944  0.283285  1
  Er  Er4  1  0.153777  0.501142  0.790103  1
  Er  Er5  1  0.649768  0.998969  0.965999  1
  Er  Er6  1  0.004632  0.345361  0.535982  1
  Er  Er7  1  0.998969  0.649768  0.034001  1
  Zr  Zr8  1  0.177364  0.823248  0.247663  1
  Zr  Zr9  1  0.823248  0.177364  0.752337  1
  Zr  Zr10  1  0.675534  0.675534  0.500000  1
  Zr  Zr11  1  0.144163  0.002697  0.876567  1
  Zr  Zr12  1  0.496868  0.645463  0.121451  1
  Zr  Zr13  1  0.501834  0.356065  0.627610  1
  Zr  Zr14  1  0.645463  0.496868  0.878549  1
  Zr  Zr15  1  0.356065  0.501834  0.372390  1
  Zr  Zr16  1  0.855196  0.998070  0.373732  1
  Zr  Zr17  1  0.002697  0.144163  0.123433  1
  Zr  Zr18  1  0.998070  0.855196  0.626268  1
  Si  Si19  1  0.205872  0.143626  0.684784  1
  Si  Si20  1  0.361780  0.710178  0.931537  1
  Si  Si21  1  0.640563  0.292224  0.432477  1
  Si  Si22  1  0.710178  0.361780  0.068463  1
  Si  Si23  1  0.292224  0.640563  0.567523  1
  Si  Si24  1  0.793542  0.857549  0.181218  1
  Si  Si25  1  0.143626  0.205872  0.315216  1
  Si  Si26  1  0.857549  0.793542  0.818782  1
  Si  Si27  1  0.292958  0.946482  0.061623  1
  Si  Si28  1  0.551128  0.797726  0.312756  1
  Si  Si29  1  0.441357  0.207107  0.819154  1
  Si  Si30  1  0.797726  0.551128  0.687244  1
  Si  Si31  1  0.207107  0.441357  0.180846  1
  Si  Si32  1  0.701929  0.051668  0.564103  1
  Si  Si33  1  0.946482  0.292958  0.938377  1
  Si  Si34  1  0.051668  0.701929  0.435897  1
  Rh  Rh35  1  0.331893  0.331893  0.000000  1
