# generated using pymatgen
data_Th8Ni3Os3Ru2
_symmetry_space_group_name_H-M   'P 1'
_cell_length_a   4.18977600
_cell_length_b   5.89995155
_cell_length_c   14.58896724
_cell_angle_alpha   90.29126247
_cell_angle_beta   90.00000000
_cell_angle_gamma   90.00000000
_symmetry_Int_Tables_number   1
_chemical_formula_structural   Th8Ni3Os3Ru2
_chemical_formula_sum   'Th8 Ni3 Os3 Ru2'
_cell_volume   360.62695731
_cell_formula_units_Z   1
loop_
 _symmetry_equiv_pos_site_id
 _symmetry_equiv_pos_as_xyz
  1  'x, y, z'
loop_
 _atom_site_type_symbol
 _atom_site_label
 _atom_site_symmetry_multiplicity
 _atom_site_fract_x
 _atom_site_fract_y
 _atom_site_fract_z
 _atom_site_occupancy
  Th  Th0  1  0.250000  0.548443  0.284652  1
  Th  Th1  1  0.750000  0.454043  0.716121  1
  Th  Th2  1  0.250000  0.954066  0.784677  1
  Th  Th3  1  0.250000  0.758596  0.534824  1
  Th  Th4  1  0.250000  0.743009  0.033168  1
  Th  Th5  1  0.750000  0.257252  0.964555  1
  Th  Th6  1  0.750000  0.047396  0.214876  1
  Th  Th7  1  0.750000  0.249835  0.463698  1
  Ni  Ni8  1  0.750000  0.767039  0.899374  1
  Ni  Ni9  1  0.250000  0.235410  0.098677  1
  Ni  Ni10  1  0.250000  0.260165  0.602363  1
  Os  Os11  1  0.250000  0.059957  0.350314  1
  Os  Os12  1  0.750000  0.549940  0.141749  1
  Os  Os13  1  0.250000  0.446682  0.853143  1
  Ru  Ru14  1  0.750000  0.720404  0.406968  1
  Ru  Ru15  1  0.750000  0.947763  0.650843  1
