# generated using pymatgen
data_Dy4CdPbAu4
_symmetry_space_group_name_H-M   'P 1'
_cell_length_a   8.08927200
_cell_length_b   8.08927200
_cell_length_c   7.33357900
_cell_angle_alpha   90.00000000
_cell_angle_beta   90.00000000
_cell_angle_gamma   90.00000000
_symmetry_Int_Tables_number   1
_chemical_formula_structural   Dy4CdPbAu4
_chemical_formula_sum   'Dy8 Cd2 Pb2 Au8'
_cell_volume   479.88243312
_cell_formula_units_Z   2
loop_
 _symmetry_equiv_pos_site_id
 _symmetry_equiv_pos_as_xyz
  1  'x, y, z'
loop_
 _atom_site_type_symbol
 _atom_site_label
 _atom_site_symmetry_multiplicity
 _atom_site_fract_x
 _atom_site_fract_y
 _atom_site_fract_z
 _atom_site_occupancy
  Dy  Dy0  1  0.841366  0.158634  0.500000  1
  Dy  Dy1  1  0.158634  0.841366  0.500000  1
  Dy  Dy2  1  0.341366  0.341366  0.000000  1
  Dy  Dy3  1  0.658634  0.658634  0.000000  1
  Dy  Dy4  1  0.681184  0.681184  0.500000  1
  Dy  Dy5  1  0.318816  0.318816  0.500000  1
  Dy  Dy6  1  0.181184  0.818816  0.000000  1
  Dy  Dy7  1  0.818816  0.181184  0.000000  1
  Cd  Cd8  1  0.500000  0.000000  0.250000  1
  Cd  Cd9  1  0.000000  0.500000  0.750000  1
  Pb  Pb10  1  0.500000  0.000000  0.750000  1
  Pb  Pb11  1  0.000000  0.500000  0.250000  1
  Au  Au12  1  0.621599  0.366939  0.272731  1
  Au  Au13  1  0.378401  0.633061  0.272731  1
  Au  Au14  1  0.121599  0.133061  0.772731  1
  Au  Au15  1  0.878401  0.866939  0.772731  1
  Au  Au16  1  0.366939  0.621599  0.727269  1
  Au  Au17  1  0.633061  0.378401  0.727269  1
  Au  Au18  1  0.866939  0.878401  0.227269  1
  Au  Au19  1  0.133061  0.121599  0.227269  1
