# generated using pymatgen
data_FeAgSn(P2O7)2
_symmetry_space_group_name_H-M   'P 1'
_cell_length_a   4.93985264
_cell_length_b   7.16246809
_cell_length_c   8.11635790
_cell_angle_alpha   91.31500201
_cell_angle_beta   86.59665008
_cell_angle_gamma   74.57030817
_symmetry_Int_Tables_number   1
_chemical_formula_structural   FeAgSn(P2O7)2
_chemical_formula_sum   'Fe1 Ag1 Sn1 P4 O14'
_cell_volume   276.10668352
_cell_formula_units_Z   1
loop_
 _symmetry_equiv_pos_site_id
 _symmetry_equiv_pos_as_xyz
  1  'x, y, z'
loop_
 _atom_site_type_symbol
 _atom_site_label
 _atom_site_symmetry_multiplicity
 _atom_site_fract_x
 _atom_site_fract_y
 _atom_site_fract_z
 _atom_site_occupancy
  Fe  Fe0  1  0.500000  0.000000  0.500000  1
  Ag  Ag1  1  0.500000  0.000000  0.000000  1
  Sn  Sn2  1  0.000000  0.500000  0.000000  1
  P  P3  1  0.122847  0.771614  0.300353  1
  P  P4  1  0.877153  0.228386  0.699647  1
  P  P5  1  0.488214  0.622526  0.748425  1
  P  P6  1  0.511786  0.377474  0.251575  1
  O  O7  1  0.036459  0.749249  0.119809  1
  O  O8  1  0.963541  0.250751  0.880191  1
  O  O9  1  0.671209  0.102511  0.701568  1
  O  O10  1  0.328791  0.897489  0.298432  1
  O  O11  1  0.421307  0.793131  0.640201  1
  O  O12  1  0.578693  0.206869  0.359799  1
  O  O13  1  0.224484  0.556384  0.796136  1
  O  O14  1  0.775516  0.443616  0.203864  1
  O  O15  1  0.368115  0.332092  0.093525  1
  O  O16  1  0.631885  0.667908  0.906475  1
  O  O17  1  0.876369  0.829056  0.426218  1
  O  O18  1  0.123631  0.170944  0.573782  1
  O  O19  1  0.710793  0.446978  0.649352  1
  O  O20  1  0.289207  0.553022  0.350648  1
