# generated using pymatgen
data_Sc4Ga2B4Ir9Rh
_symmetry_space_group_name_H-M   'P 1'
_cell_length_a   9.40910800
_cell_length_b   9.42259200
_cell_length_c   3.07278600
_cell_angle_alpha   90.00000000
_cell_angle_beta   90.00000000
_cell_angle_gamma   90.00353542
_symmetry_Int_Tables_number   1
_chemical_formula_structural   Sc4Ga2B4Ir9Rh
_chemical_formula_sum   'Sc4 Ga2 B4 Ir9 Rh1'
_cell_volume   272.42763175
_cell_formula_units_Z   1
loop_
 _symmetry_equiv_pos_site_id
 _symmetry_equiv_pos_as_xyz
  1  'x, y, z'
loop_
 _atom_site_type_symbol
 _atom_site_label
 _atom_site_symmetry_multiplicity
 _atom_site_fract_x
 _atom_site_fract_y
 _atom_site_fract_z
 _atom_site_occupancy
  Sc  Sc0  1  0.675598  0.176519  0.000000  1
  Sc  Sc1  1  0.175710  0.323974  0.000000  1
  Sc  Sc2  1  0.823629  0.676391  0.000000  1
  Sc  Sc3  1  0.323918  0.824174  0.000000  1
  Ga  Ga4  1  0.997909  0.999213  0.000000  1
  Ga  Ga5  1  0.500210  0.500155  0.000000  1
  B  B6  1  0.375276  0.124500  0.000000  1
  B  B7  1  0.875687  0.375272  0.000000  1
  B  B8  1  0.124750  0.624778  0.000000  1
  B  B9  1  0.623876  0.874919  0.000000  1
  Ir  Ir10  1  0.501190  0.999920  0.500000  1
  Ir  Ir11  1  0.216559  0.069853  0.500000  1
  Ir  Ir12  1  0.929887  0.216898  0.500000  1
  Ir  Ir13  1  0.429949  0.282992  0.500000  1
  Ir  Ir14  1  0.716486  0.429783  0.500000  1
  Ir  Ir15  1  0.999636  0.500655  0.500000  1
  Ir  Ir16  1  0.283723  0.569672  0.500000  1
  Ir  Ir17  1  0.571428  0.717147  0.500000  1
  Ir  Ir18  1  0.070795  0.783492  0.500000  1
  Rh  Rh19  1  0.783786  0.929691  0.500000  1
