# generated using pymatgen
data_Lu4TcCl4
_symmetry_space_group_name_H-M   'P 1'
_cell_length_a   8.40636436
_cell_length_b   8.40636375
_cell_length_c   6.41895201
_cell_angle_alpha   89.59524534
_cell_angle_beta   89.59524103
_cell_angle_gamma   89.39635493
_symmetry_Int_Tables_number   1
_chemical_formula_structural   Lu4TcCl4
_chemical_formula_sum   'Lu8 Tc2 Cl8'
_cell_volume   453.56022822
_cell_formula_units_Z   2
loop_
 _symmetry_equiv_pos_site_id
 _symmetry_equiv_pos_as_xyz
  1  'x, y, z'
loop_
 _atom_site_type_symbol
 _atom_site_label
 _atom_site_symmetry_multiplicity
 _atom_site_fract_x
 _atom_site_fract_y
 _atom_site_fract_z
 _atom_site_occupancy
  Lu  Lu0  1  0.104180  0.742824  0.987462  1
  Lu  Lu1  1  0.257176  0.895820  0.512538  1
  Lu  Lu2  1  0.895820  0.257176  0.012538  1
  Lu  Lu3  1  0.742824  0.104180  0.487462  1
  Lu  Lu4  1  0.744272  0.897303  0.009633  1
  Lu  Lu5  1  0.102697  0.255728  0.490367  1
  Lu  Lu6  1  0.255728  0.102697  0.990367  1
  Lu  Lu7  1  0.897303  0.744272  0.509633  1
  Tc  Tc8  1  0.008702  0.991298  0.250000  1
  Tc  Tc9  1  0.991298  0.008702  0.750000  1
  Cl  Cl10  1  0.424395  0.818757  0.897756  1
  Cl  Cl11  1  0.181243  0.575605  0.602244  1
  Cl  Cl12  1  0.575605  0.181243  0.102244  1
  Cl  Cl13  1  0.818757  0.424395  0.397756  1
  Cl  Cl14  1  0.807661  0.578788  0.897288  1
  Cl  Cl15  1  0.421212  0.192339  0.602712  1
  Cl  Cl16  1  0.192339  0.421212  0.102712  1
  Cl  Cl17  1  0.578788  0.807661  0.397288  1
