# generated using pymatgen
data_Y3ErAl15(SiIr2)3
_symmetry_space_group_name_H-M   'P 1'
_cell_length_a   7.54276058
_cell_length_b   7.52449049
_cell_length_c   9.33281000
_cell_angle_alpha   89.99768861
_cell_angle_beta   89.91477421
_cell_angle_gamma   119.72503812
_symmetry_Int_Tables_number   1
_chemical_formula_structural   Y3ErAl15(SiIr2)3
_chemical_formula_sum   'Y3 Er1 Al15 Si3 Ir6'
_cell_volume   459.98796106
_cell_formula_units_Z   1
loop_
 _symmetry_equiv_pos_site_id
 _symmetry_equiv_pos_as_xyz
  1  'x, y, z'
loop_
 _atom_site_type_symbol
 _atom_site_label
 _atom_site_symmetry_multiplicity
 _atom_site_fract_x
 _atom_site_fract_y
 _atom_site_fract_z
 _atom_site_occupancy
  Y  Y0  1  0.005157  0.325275  0.753108  1
  Y  Y1  1  0.679504  0.000028  0.248040  1
  Y  Y2  1  0.325352  0.005750  0.749552  1
  Er  Er3  1  0.993647  0.669173  0.248366  1
  Al  Al4  1  0.997890  0.668356  0.922674  1
  Al  Al5  1  0.998966  0.663980  0.574644  1
  Al  Al6  1  0.335851  0.999857  0.424319  1
  Al  Al7  1  0.001773  0.336762  0.428609  1
  Al  Al8  1  0.663237  0.998889  0.575048  1
  Al  Al9  1  0.658974  0.993920  0.922617  1
  Al  Al10  1  0.335459  0.999919  0.076151  1
  Al  Al11  1  0.335946  0.335430  0.557220  1
  Al  Al12  1  0.665317  0.665590  0.442287  1
  Al  Al13  1  0.664696  0.665135  0.059063  1
  Al  Al14  1  0.338938  0.335473  0.942586  1
  Al  Al15  1  0.334286  0.546798  0.250359  1
  Al  Al16  1  0.665428  0.451252  0.750173  1
  Al  Al17  1  0.546698  0.336142  0.250327  1
  Al  Al18  1  0.450406  0.663015  0.749367  1
  Si  Si19  1  0.132540  0.127792  0.250901  1
  Si  Si20  1  0.870245  0.871740  0.749726  1
  Si  Si21  1  0.001361  0.338584  0.072967  1
  Ir  Ir22  1  0.679382  0.328865  0.001919  1
  Ir  Ir23  1  0.319962  0.663850  0.000383  1
  Ir  Ir24  1  0.327861  0.671162  0.499190  1
  Ir  Ir25  1  0.672213  0.328868  0.498981  1
  Ir  Ir26  1  0.999245  0.008068  0.002165  1
  Ir  Ir27  1  0.999668  0.000329  0.499257  1
