# generated using pymatgen
data_Y5As12Pd3Rh16
_symmetry_space_group_name_H-M   'P 1'
_cell_length_a   13.26181900
_cell_length_b   13.26181962
_cell_length_c   3.99178600
_cell_angle_alpha   90.00000000
_cell_angle_beta   90.00000000
_cell_angle_gamma   120.00000595
_symmetry_Int_Tables_number   1
_chemical_formula_structural   Y5As12Pd3Rh16
_chemical_formula_sum   'Y5 As12 Pd3 Rh16'
_cell_volume   608.00068572
_cell_formula_units_Z   1
loop_
 _symmetry_equiv_pos_site_id
 _symmetry_equiv_pos_as_xyz
  1  'x, y, z'
loop_
 _atom_site_type_symbol
 _atom_site_label
 _atom_site_symmetry_multiplicity
 _atom_site_fract_x
 _atom_site_fract_y
 _atom_site_fract_z
 _atom_site_occupancy
  Y  Y0  1  0.191169  0.191169  0.500000  1
  Y  Y1  1  0.808831  0.000000  0.500000  1
  Y  Y2  1  0.000000  0.808831  0.500000  1
  Y  Y3  1  0.333333  0.666667  0.000000  1
  Y  Y4  1  0.666667  0.333333  0.000000  1
  As  As5  1  0.822524  0.822524  0.000000  1
  As  As6  1  0.177476  0.000000  0.000000  1
  As  As7  1  0.000000  0.177476  0.000000  1
  As  As8  1  0.169395  0.483380  0.500000  1
  As  As9  1  0.516620  0.686015  0.500000  1
  As  As10  1  0.313985  0.830605  0.500000  1
  As  As11  1  0.686015  0.516620  0.500000  1
  As  As12  1  0.830605  0.313985  0.500000  1
  As  As13  1  0.483380  0.169395  0.500000  1
  As  As14  1  0.364821  0.364821  0.000000  1
  As  As15  1  0.635179  0.000000  0.000000  1
  As  As16  1  0.000000  0.635179  0.000000  1
  Pd  Pd17  1  0.551899  0.551899  0.000000  1
  Pd  Pd18  1  0.448101  0.000000  0.000000  1
  Pd  Pd19  1  0.000000  0.448101  0.000000  1
  Rh  Rh20  1  0.719675  0.719675  0.500000  1
  Rh  Rh21  1  0.280325  0.000000  0.500000  1
  Rh  Rh22  1  0.000000  0.280325  0.500000  1
  Rh  Rh23  1  0.178120  0.373370  0.000000  1
  Rh  Rh24  1  0.626630  0.804751  0.000000  1
  Rh  Rh25  1  0.195249  0.821880  0.000000  1
  Rh  Rh26  1  0.804751  0.626630  0.000000  1
  Rh  Rh27  1  0.821880  0.195249  0.000000  1
  Rh  Rh28  1  0.373370  0.178120  0.000000  1
  Rh  Rh29  1  0.357162  0.487250  0.500000  1
  Rh  Rh30  1  0.512750  0.869912  0.500000  1
  Rh  Rh31  1  0.130088  0.642838  0.500000  1
  Rh  Rh32  1  0.869912  0.512750  0.500000  1
  Rh  Rh33  1  0.642838  0.130088  0.500000  1
  Rh  Rh34  1  0.487250  0.357162  0.500000  1
  Rh  Rh35  1  0.000000  0.000000  0.000000  1
