# generated using pymatgen
data_Er3Tm5B24Os3W
_symmetry_space_group_name_H-M   'P 1'
_cell_length_a   3.61128600
_cell_length_b   9.12070560
_cell_length_c   11.50876501
_cell_angle_alpha   89.89873046
_cell_angle_beta   90.00000000
_cell_angle_gamma   90.00000000
_symmetry_Int_Tables_number   1
_chemical_formula_structural   Er3Tm5B24Os3W
_chemical_formula_sum   'Er3 Tm5 B24 Os3 W1'
_cell_volume   379.06908445
_cell_formula_units_Z   1
loop_
 _symmetry_equiv_pos_site_id
 _symmetry_equiv_pos_as_xyz
  1  'x, y, z'
loop_
 _atom_site_type_symbol
 _atom_site_label
 _atom_site_symmetry_multiplicity
 _atom_site_fract_x
 _atom_site_fract_y
 _atom_site_fract_z
 _atom_site_occupancy
  Er  Er0  1  0.000000  0.320607  0.413500  1
  Er  Er1  1  0.000000  0.678162  0.585739  1
  Er  Er2  1  0.000000  0.819990  0.086974  1
  Tm  Tm3  1  0.000000  0.177809  0.914529  1
  Tm  Tm4  1  0.000000  0.945989  0.373709  1
  Tm  Tm5  1  0.000000  0.057297  0.628070  1
  Tm  Tm6  1  0.000000  0.442792  0.125483  1
  Tm  Tm7  1  0.000000  0.556525  0.871953  1
  B  B8  1  0.500000  0.549745  0.436753  1
  B  B9  1  0.500000  0.446033  0.568392  1
  B  B10  1  0.500000  0.053753  0.066276  1
  B  B11  1  0.500000  0.946765  0.933366  1
  B  B12  1  0.500000  0.752377  0.422961  1
  B  B13  1  0.500000  0.251493  0.581023  1
  B  B14  1  0.500000  0.248571  0.079386  1
  B  B15  1  0.500000  0.751261  0.919263  1
  B  B16  1  0.500000  0.796044  0.264002  1
  B  B17  1  0.500000  0.208237  0.734448  1
  B  B18  1  0.500000  0.290708  0.232187  1
  B  B19  1  0.500000  0.709149  0.766013  1
  B  B20  1  0.500000  0.631841  0.181596  1
  B  B21  1  0.500000  0.368067  0.815313  1
  B  B22  1  0.500000  0.131508  0.314178  1
  B  B23  1  0.500000  0.869625  0.685461  1
  B  B24  1  0.500000  0.983318  0.212683  1
  B  B25  1  0.500000  0.018087  0.787996  1
  B  B26  1  0.500000  0.476274  0.286054  1
  B  B27  1  0.500000  0.517026  0.713442  1
  B  B28  1  0.500000  0.605756  0.027518  1
  B  B29  1  0.500000  0.392867  0.969511  1
  B  B30  1  0.500000  0.107181  0.471131  1
  B  B31  1  0.500000  0.896509  0.530704  1
  Os  Os32  1  0.000000  0.361279  0.680354  1
  Os  Os33  1  0.000000  0.137250  0.177388  1
  Os  Os34  1  0.000000  0.862700  0.821080  1
  W  W35  1  0.000000  0.637401  0.321562  1
