# generated using pymatgen
data_Hf16CuRh7N4
_symmetry_space_group_name_H-M   'P 1'
_cell_length_a   8.70989030
_cell_length_b   8.69364113
_cell_length_c   8.69364300
_cell_angle_alpha   59.99999669
_cell_angle_beta   60.06169107
_cell_angle_gamma   60.06168803
_symmetry_Int_Tables_number   1
_chemical_formula_structural   Hf16CuRh7N4
_chemical_formula_sum   'Hf16 Cu1 Rh7 N4'
_cell_volume   465.91373211
_cell_formula_units_Z   1
loop_
 _symmetry_equiv_pos_site_id
 _symmetry_equiv_pos_as_xyz
  1  'x, y, z'
loop_
 _atom_site_type_symbol
 _atom_site_label
 _atom_site_symmetry_multiplicity
 _atom_site_fract_x
 _atom_site_fract_y
 _atom_site_fract_z
 _atom_site_occupancy
  Hf  Hf0  1  0.128716  0.623761  0.623761  1
  Hf  Hf1  1  0.623879  0.127908  0.624107  1
  Hf  Hf2  1  0.623879  0.624107  0.127908  1
  Hf  Hf3  1  0.623879  0.624107  0.624107  1
  Hf  Hf4  1  0.817958  0.817475  0.182284  1
  Hf  Hf5  1  0.183381  0.182927  0.816846  1
  Hf  Hf6  1  0.817958  0.182284  0.817475  1
  Hf  Hf7  1  0.183381  0.816846  0.182927  1
  Hf  Hf8  1  0.183381  0.816846  0.816846  1
  Hf  Hf9  1  0.817958  0.182284  0.182284  1
  Hf  Hf10  1  0.433544  0.433441  0.066508  1
  Hf  Hf11  1  0.067372  0.066205  0.433212  1
  Hf  Hf12  1  0.433544  0.066508  0.433441  1
  Hf  Hf13  1  0.067372  0.433212  0.066205  1
  Hf  Hf14  1  0.067372  0.433212  0.433212  1
  Hf  Hf15  1  0.433544  0.066508  0.066508  1
  Cu  Cu16  1  0.772400  0.409200  0.409200  1
  Rh  Rh17  1  0.406610  0.776211  0.408589  1
  Rh  Rh18  1  0.406610  0.408589  0.776211  1
  Rh  Rh19  1  0.406610  0.408589  0.408589  1
  Rh  Rh20  1  0.483590  0.838803  0.838803  1
  Rh  Rh21  1  0.839058  0.481772  0.839585  1
  Rh  Rh22  1  0.839058  0.839585  0.481772  1
  Rh  Rh23  1  0.839058  0.839585  0.839585  1
  N  N24  1  0.625380  0.124873  0.124873  1
  N  N25  1  0.124835  0.626008  0.124579  1
  N  N26  1  0.124835  0.124579  0.626008  1
  N  N27  1  0.124835  0.124579  0.124579  1
