# generated using pymatgen
data_Hf2Zr2Cu3Si4Rh
_symmetry_space_group_name_H-M   'P 1'
_cell_length_a   3.86561700
_cell_length_b   6.54151438
_cell_length_c   7.43865907
_cell_angle_alpha   90.91256267
_cell_angle_beta   90.00000000
_cell_angle_gamma   90.00000000
_symmetry_Int_Tables_number   1
_chemical_formula_structural   Hf2Zr2Cu3Si4Rh
_chemical_formula_sum   'Hf2 Zr2 Cu3 Si4 Rh1'
_cell_volume   188.07743365
_cell_formula_units_Z   1
loop_
 _symmetry_equiv_pos_site_id
 _symmetry_equiv_pos_as_xyz
  1  'x, y, z'
loop_
 _atom_site_type_symbol
 _atom_site_label
 _atom_site_symmetry_multiplicity
 _atom_site_fract_x
 _atom_site_fract_y
 _atom_site_fract_z
 _atom_site_occupancy
  Hf  Hf0  1  0.750000  0.485357  0.817897  1
  Hf  Hf1  1  0.750000  0.977541  0.683880  1
  Zr  Zr2  1  0.250000  0.517766  0.184915  1
  Zr  Zr3  1  0.250000  0.024540  0.314359  1
  Cu  Cu4  1  0.750000  0.841163  0.066866  1
  Cu  Cu5  1  0.250000  0.157628  0.928040  1
  Cu  Cu6  1  0.750000  0.351172  0.440067  1
  Si  Si7  1  0.250000  0.775067  0.885860  1
  Si  Si8  1  0.750000  0.224092  0.110895  1
  Si  Si9  1  0.250000  0.268704  0.619752  1
  Si  Si10  1  0.750000  0.735246  0.382684  1
  Rh  Rh11  1  0.250000  0.641723  0.564785  1
