# generated using pymatgen
data_Eu4CuH12Pd
_symmetry_space_group_name_H-M   'P 1'
_cell_length_a   7.15030080
_cell_length_b   7.15030049
_cell_length_c   5.37326168
_cell_angle_alpha   89.96368967
_cell_angle_beta   89.96368576
_cell_angle_gamma   135.87109941
_symmetry_Int_Tables_number   1
_chemical_formula_structural   Eu4CuH12Pd
_chemical_formula_sum   'Eu4 Cu1 H12 Pd1'
_cell_volume   191.27875741
_cell_formula_units_Z   1
loop_
 _symmetry_equiv_pos_site_id
 _symmetry_equiv_pos_as_xyz
  1  'x, y, z'
loop_
 _atom_site_type_symbol
 _atom_site_label
 _atom_site_symmetry_multiplicity
 _atom_site_fract_x
 _atom_site_fract_y
 _atom_site_fract_z
 _atom_site_occupancy
  Eu  Eu0  1  0.354355  0.645645  0.000000  1
  Eu  Eu1  1  0.854344  0.145656  0.500000  1
  Eu  Eu2  1  0.645645  0.354355  0.000000  1
  Eu  Eu3  1  0.145656  0.854344  0.500000  1
  Cu  Cu4  1  0.500000  0.500000  0.500000  1
  H  H5  1  0.999566  0.500048  0.250054  1
  H  H6  1  0.499952  0.000434  0.749946  1
  H  H7  1  0.000434  0.499952  0.749946  1
  H  H8  1  0.500048  0.999566  0.250054  1
  H  H9  1  0.130296  0.869704  0.000000  1
  H  H10  1  0.624573  0.375427  0.500000  1
  H  H11  1  0.869704  0.130296  0.000000  1
  H  H12  1  0.375427  0.624573  0.500000  1
  H  H13  1  0.752002  0.752002  0.248764  1
  H  H14  1  0.247998  0.247998  0.751236  1
  H  H15  1  0.747091  0.747091  0.748997  1
  H  H16  1  0.252909  0.252909  0.251003  1
  Pd  Pd17  1  0.000000  0.000000  0.000000  1
