# generated using pymatgen
data_Tb4UP12Ru19
_symmetry_space_group_name_H-M   'P 1'
_cell_length_a   3.96316500
_cell_length_b   12.57566242
_cell_length_c   12.54633500
_cell_angle_alpha   119.92102739
_cell_angle_beta   90.00000000
_cell_angle_gamma   90.00000000
_symmetry_Int_Tables_number   1
_chemical_formula_structural   Tb4UP12Ru19
_chemical_formula_sum   'Tb4 U1 P12 Ru19'
_cell_volume   541.95794711
_cell_formula_units_Z   1
loop_
 _symmetry_equiv_pos_site_id
 _symmetry_equiv_pos_as_xyz
  1  'x, y, z'
loop_
 _atom_site_type_symbol
 _atom_site_label
 _atom_site_symmetry_multiplicity
 _atom_site_fract_x
 _atom_site_fract_y
 _atom_site_fract_z
 _atom_site_occupancy
  Tb  Tb0  1  0.500000  0.187603  0.999110  1
  Tb  Tb1  1  0.500000  0.812404  0.811511  1
  Tb  Tb2  1  0.000000  0.331417  0.664453  1
  Tb  Tb3  1  0.000000  0.668566  0.333018  1
  U  U4  1  0.500000  0.999993  0.178530  1
  P  P5  1  0.000000  0.000003  0.817604  1
  P  P6  1  0.000000  0.811553  0.994298  1
  P  P7  1  0.000000  0.188444  0.182751  1
  P  P8  1  0.500000  0.306835  0.478077  1
  P  P9  1  0.500000  0.171295  0.694255  1
  P  P10  1  0.500000  0.520972  0.829036  1
  P  P11  1  0.500000  0.828696  0.522958  1
  P  P12  1  0.500000  0.479022  0.308059  1
  P  P13  1  0.500000  0.693156  0.171229  1
  P  P14  1  0.000000  0.000002  0.374370  1
  P  P15  1  0.000000  0.374458  0.000836  1
  P  P16  1  0.000000  0.625541  0.626373  1
  Ru  Ru17  1  0.000000  0.000007  0.555462  1
  Ru  Ru18  1  0.000000  0.558446  0.004837  1
  Ru  Ru19  1  0.000000  0.441545  0.446388  1
  Ru  Ru20  1  0.500000  0.000001  0.718361  1
  Ru  Ru21  1  0.500000  0.718205  0.001573  1
  Ru  Ru22  1  0.500000  0.281784  0.283360  1
  Ru  Ru23  1  0.000000  0.184643  0.368422  1
  Ru  Ru24  1  0.000000  0.184685  0.807273  1
  Ru  Ru25  1  0.000000  0.620609  0.815538  1
  Ru  Ru26  1  0.000000  0.815315  0.622581  1
  Ru  Ru27  1  0.000000  0.379384  0.194923  1
  Ru  Ru28  1  0.000000  0.815345  0.183770  1
  Ru  Ru29  1  0.500000  0.125957  0.490586  1
  Ru  Ru30  1  0.500000  0.366759  0.876551  1
  Ru  Ru31  1  0.500000  0.507005  0.634830  1
  Ru  Ru32  1  0.500000  0.633246  0.509796  1
  Ru  Ru33  1  0.500000  0.492979  0.127798  1
  Ru  Ru34  1  0.500000  0.874028  0.364623  1
  Ru  Ru35  1  0.000000  0.999999  0.006859  1
