# generated using pymatgen
data_SbS27
_symmetry_space_group_name_H-M   'P 1'
_cell_length_a   15.11416129
_cell_length_b   15.11416181
_cell_length_c   15.11416079
_cell_angle_alpha   118.72688348
_cell_angle_beta   118.72688055
_cell_angle_gamma   118.72688331
_symmetry_Int_Tables_number   1
_chemical_formula_structural   SbS27
_chemical_formula_sum   'Sb1 S27'
_cell_volume   1006.06032650
_cell_formula_units_Z   1
loop_
 _symmetry_equiv_pos_site_id
 _symmetry_equiv_pos_as_xyz
  1  'x, y, z'
loop_
 _atom_site_type_symbol
 _atom_site_label
 _atom_site_symmetry_multiplicity
 _atom_site_fract_x
 _atom_site_fract_y
 _atom_site_fract_z
 _atom_site_occupancy
  Sb  Sb0  1  0.939605  0.939605  0.939605  1
  S  S1  1  0.801999  0.520169  0.520169  1
  S  S2  1  0.520169  0.520169  0.801999  1
  S  S3  1  0.520169  0.801999  0.520169  1
  S  S4  1  0.245312  0.374547  0.634443  1
  S  S5  1  0.352696  0.952174  0.352696  1
  S  S6  1  0.352696  0.352696  0.952174  1
  S  S7  1  0.952174  0.352696  0.352696  1
  S  S8  1  0.127636  0.739953  0.256645  1
  S  S9  1  0.256645  0.127636  0.739953  1
  S  S10  1  0.739953  0.256645  0.127636  1
  S  S11  1  0.739953  0.127636  0.256645  1
  S  S12  1  0.256645  0.739953  0.127636  1
  S  S13  1  0.127636  0.256645  0.739953  1
  S  S14  1  0.348184  0.879926  0.530386  1
  S  S15  1  0.530386  0.348184  0.879926  1
  S  S16  1  0.879926  0.530386  0.348184  1
  S  S17  1  0.879926  0.348184  0.530386  1
  S  S18  1  0.530386  0.879926  0.348184  1
  S  S19  1  0.348184  0.530386  0.879926  1
  S  S20  1  0.245312  0.634443  0.374547  1
  S  S21  1  0.374547  0.245312  0.634443  1
  S  S22  1  0.634443  0.374547  0.245312  1
  S  S23  1  0.634443  0.245312  0.374547  1
  S  S24  1  0.374547  0.634443  0.245312  1
  S  S25  1  0.836252  0.987735  0.987735  1
  S  S26  1  0.987735  0.987735  0.836252  1
  S  S27  1  0.987735  0.836252  0.987735  1
