# generated using pymatgen
data_Er3Tm13In4NiRh3
_symmetry_space_group_name_H-M   'P 1'
_cell_length_a   9.51096696
_cell_length_b   9.50899689
_cell_length_c   9.51023467
_cell_angle_alpha   59.95769017
_cell_angle_beta   60.00524509
_cell_angle_gamma   60.00506962
_symmetry_Int_Tables_number   1
_chemical_formula_structural   Er3Tm13In4NiRh3
_chemical_formula_sum   'Er3 Tm13 In4 Ni1 Rh3'
_cell_volume   608.03752353
_cell_formula_units_Z   1
loop_
 _symmetry_equiv_pos_site_id
 _symmetry_equiv_pos_as_xyz
  1  'x, y, z'
loop_
 _atom_site_type_symbol
 _atom_site_label
 _atom_site_symmetry_multiplicity
 _atom_site_fract_x
 _atom_site_fract_y
 _atom_site_fract_z
 _atom_site_occupancy
  Er  Er0  1  0.062582  0.063122  0.437783  1
  Er  Er1  1  0.436528  0.063351  0.437578  1
  Er  Er2  1  0.061831  0.438732  0.060464  1
  Tm  Tm3  1  0.046376  0.652393  0.647894  1
  Tm  Tm4  1  0.439272  0.438800  0.060379  1
  Tm  Tm5  1  0.652605  0.047246  0.647506  1
  Tm  Tm6  1  0.186690  0.811166  0.190675  1
  Tm  Tm7  1  0.188322  0.189037  0.811635  1
  Tm  Tm8  1  0.811368  0.811305  0.190717  1
  Tm  Tm9  1  0.439330  0.061595  0.059870  1
  Tm  Tm10  1  0.811232  0.187125  0.190177  1
  Tm  Tm11  1  0.062828  0.436497  0.437986  1
  Tm  Tm12  1  0.810847  0.189103  0.811737  1
  Tm  Tm13  1  0.188713  0.810868  0.811781  1
  Tm  Tm14  1  0.649514  0.648563  0.052227  1
  Tm  Tm15  1  0.653269  0.652381  0.647977  1
  In  In16  1  0.415374  0.415653  0.418058  1
  In  In17  1  0.750662  0.415675  0.418233  1
  In  In18  1  0.415932  0.749997  0.418121  1
  In  In19  1  0.417680  0.417312  0.747542  1
  Ni  Ni20  1  0.858138  0.858323  0.425405  1
  Rh  Rh21  1  0.856597  0.857110  0.858737  1
  Rh  Rh22  1  0.427625  0.856974  0.858778  1
  Rh  Rh23  1  0.856689  0.427674  0.858746  1
