# generated using pymatgen
data_Tb15Ho5(SnBi)8
_symmetry_space_group_name_H-M   'P 1'
_cell_length_a   8.18650481
_cell_length_b   8.22952028
_cell_length_c   15.68847983
_cell_angle_alpha   90.00032188
_cell_angle_beta   89.90996671
_cell_angle_gamma   90.02975786
_symmetry_Int_Tables_number   1
_chemical_formula_structural   Tb15Ho5(SnBi)8
_chemical_formula_sum   'Tb15 Ho5 Sn8 Bi8'
_cell_volume   1056.94724213
_cell_formula_units_Z   1
loop_
 _symmetry_equiv_pos_site_id
 _symmetry_equiv_pos_as_xyz
  1  'x, y, z'
loop_
 _atom_site_type_symbol
 _atom_site_label
 _atom_site_symmetry_multiplicity
 _atom_site_fract_x
 _atom_site_fract_y
 _atom_site_fract_z
 _atom_site_occupancy
  Tb  Tb0  1  0.889897  0.662269  0.623029  1
  Tb  Tb1  1  0.609874  0.162099  0.377150  1
  Tb  Tb2  1  0.110890  0.337857  0.122474  1
  Tb  Tb3  1  0.610338  0.162150  0.122921  1
  Tb  Tb4  1  0.109868  0.337890  0.377218  1
  Tb  Tb5  1  0.390272  0.837730  0.622958  1
  Tb  Tb6  1  0.889801  0.661947  0.877431  1
  Tb  Tb7  1  0.556791  0.328269  0.889304  1
  Tb  Tb8  1  0.057790  0.170962  0.611310  1
  Tb  Tb9  1  0.442326  0.671255  0.388946  1
  Tb  Tb10  1  0.942973  0.828427  0.110878  1
  Tb  Tb11  1  0.443679  0.671804  0.110451  1
  Tb  Tb12  1  0.942469  0.828789  0.388768  1
  Tb  Tb13  1  0.557632  0.329064  0.611462  1
  Tb  Tb14  1  0.056633  0.171204  0.889113  1
  Ho  Ho15  1  0.388710  0.838695  0.876271  1
  Ho  Ho16  1  0.221950  0.498471  0.750199  1
  Ho  Ho17  1  0.721482  0.001568  0.750268  1
  Ho  Ho18  1  0.778438  0.501557  0.250040  1
  Ho  Ho19  1  0.278302  0.998384  0.249679  1
  Sn  Sn20  1  0.586204  0.627432  0.750878  1
  Sn  Sn21  1  0.086535  0.873112  0.750309  1
  Sn  Sn22  1  0.413449  0.373002  0.249951  1
  Sn  Sn23  1  0.913506  0.127092  0.249579  1
  Sn  Sn24  1  0.360478  0.142889  0.750151  1
  Sn  Sn25  1  0.860699  0.356892  0.750148  1
  Sn  Sn26  1  0.639568  0.856408  0.249899  1
  Sn  Sn27  1  0.140040  0.643308  0.249792  1
  Bi  Bi28  1  0.268852  0.018025  0.044346  1
  Bi  Bi29  1  0.767872  0.482138  0.454855  1
  Bi  Bi30  1  0.732063  0.982178  0.545342  1
  Bi  Bi31  1  0.232245  0.520053  0.954616  1
  Bi  Bi32  1  0.729564  0.980284  0.954893  1
  Bi  Bi33  1  0.231859  0.517774  0.545453  1
  Bi  Bi34  1  0.268024  0.017919  0.454756  1
  Bi  Bi35  1  0.768928  0.481103  0.045160  1
