# generated using pymatgen
data_LiDyErCu(Ni3B)2
_symmetry_space_group_name_H-M   'P 1'
_cell_length_a   5.02521600
_cell_length_b   5.02510576
_cell_length_c   6.89603400
_cell_angle_alpha   90.00000000
_cell_angle_beta   90.00000000
_cell_angle_gamma   120.00071252
_symmetry_Int_Tables_number   1
_chemical_formula_structural   LiDyErCu(Ni3B)2
_chemical_formula_sum   'Li1 Dy1 Er1 Cu1 Ni6 B2'
_cell_volume   150.80885687
_cell_formula_units_Z   1
loop_
 _symmetry_equiv_pos_site_id
 _symmetry_equiv_pos_as_xyz
  1  'x, y, z'
loop_
 _atom_site_type_symbol
 _atom_site_label
 _atom_site_symmetry_multiplicity
 _atom_site_fract_x
 _atom_site_fract_y
 _atom_site_fract_z
 _atom_site_occupancy
  Li  Li0  1  0.833297  0.666593  0.000000  1
  Dy  Dy1  1  0.499985  0.999970  0.000000  1
  Er  Er2  1  0.499998  0.999995  0.500000  1
  Cu  Cu3  1  0.166681  0.333363  0.000000  1
  Ni  Ni4  1  0.000938  0.001875  0.703729  1
  Ni  Ni5  1  0.498220  0.499098  0.703731  1
  Ni  Ni6  1  0.000878  0.499098  0.703731  1
  Ni  Ni7  1  0.000938  0.001875  0.296271  1
  Ni  Ni8  1  0.498220  0.499098  0.296269  1
  Ni  Ni9  1  0.000878  0.499098  0.296269  1
  B  B10  1  0.833327  0.666654  0.500000  1
  B  B11  1  0.166642  0.333283  0.500000  1
