# generated using pymatgen
data_Sm6Co15Ni(MoP6)2
_symmetry_space_group_name_H-M   'P 1'
_cell_length_a   3.75905200
_cell_length_b   10.61711000
_cell_length_c   12.34934500
_cell_angle_alpha   90.00000000
_cell_angle_beta   90.00000000
_cell_angle_gamma   90.00000000
_symmetry_Int_Tables_number   1
_chemical_formula_structural   Sm6Co15Ni(MoP6)2
_chemical_formula_sum   'Sm6 Co15 Ni1 Mo2 P12'
_cell_volume   492.86567573
_cell_formula_units_Z   1
loop_
 _symmetry_equiv_pos_site_id
 _symmetry_equiv_pos_as_xyz
  1  'x, y, z'
loop_
 _atom_site_type_symbol
 _atom_site_label
 _atom_site_symmetry_multiplicity
 _atom_site_fract_x
 _atom_site_fract_y
 _atom_site_fract_z
 _atom_site_occupancy
  Sm  Sm0  1  0.000000  0.500000  0.520963  1
  Sm  Sm1  1  0.500000  0.000000  0.476734  1
  Sm  Sm2  1  0.500000  0.818543  0.205323  1
  Sm  Sm3  1  0.500000  0.181457  0.205323  1
  Sm  Sm4  1  0.000000  0.682980  0.795802  1
  Sm  Sm5  1  0.000000  0.317020  0.795802  1
  Co  Co6  1  0.000000  0.000000  0.297622  1
  Co  Co7  1  0.000000  0.500000  0.987167  1
  Co  Co8  1  0.500000  0.000000  0.013263  1
  Co  Co9  1  0.500000  0.332277  0.991201  1
  Co  Co10  1  0.500000  0.667723  0.991201  1
  Co  Co11  1  0.000000  0.167608  0.008895  1
  Co  Co12  1  0.000000  0.832392  0.008895  1
  Co  Co13  1  0.500000  0.296013  0.431234  1
  Co  Co14  1  0.500000  0.703987  0.431234  1
  Co  Co15  1  0.000000  0.203833  0.568692  1
  Co  Co16  1  0.000000  0.796167  0.568692  1
  Co  Co17  1  0.500000  0.879477  0.708079  1
  Co  Co18  1  0.500000  0.120523  0.708079  1
  Co  Co19  1  0.000000  0.620203  0.291794  1
  Co  Co20  1  0.000000  0.379797  0.291794  1
  Ni  Ni21  1  0.500000  0.500000  0.702409  1
  Mo  Mo22  1  0.500000  0.500000  0.154449  1
  Mo  Mo23  1  0.000000  0.000000  0.845072  1
  P  P24  1  0.500000  0.500000  0.884759  1
  P  P25  1  0.000000  0.000000  0.116624  1
  P  P26  1  0.500000  0.500000  0.345496  1
  P  P27  1  0.000000  0.000000  0.653756  1
  P  P28  1  0.500000  0.308004  0.614374  1
  P  P29  1  0.500000  0.691996  0.614374  1
  P  P30  1  0.000000  0.191211  0.384863  1
  P  P31  1  0.000000  0.808789  0.384863  1
  P  P32  1  0.500000  0.846111  0.894934  1
  P  P33  1  0.500000  0.153889  0.894934  1
  P  P34  1  0.000000  0.654485  0.105653  1
  P  P35  1  0.000000  0.345515  0.105653  1
