# generated using pymatgen
data_Rb2HfFeH8
_symmetry_space_group_name_H-M   'P 1'
_cell_length_a   7.67854047
_cell_length_b   7.67853957
_cell_length_c   4.56226691
_cell_angle_alpha   107.84595463
_cell_angle_beta   107.84595251
_cell_angle_gamma   48.09852382
_symmetry_Int_Tables_number   1
_chemical_formula_structural   Rb2HfFeH8
_chemical_formula_sum   'Rb2 Hf1 Fe1 H8'
_cell_volume   188.59815549
_cell_formula_units_Z   1
loop_
 _symmetry_equiv_pos_site_id
 _symmetry_equiv_pos_as_xyz
  1  'x, y, z'
loop_
 _atom_site_type_symbol
 _atom_site_label
 _atom_site_symmetry_multiplicity
 _atom_site_fract_x
 _atom_site_fract_y
 _atom_site_fract_z
 _atom_site_occupancy
  Rb  Rb0  1  0.170792  0.170792  0.053300  1
  Rb  Rb1  1  0.830800  0.830800  0.774510  1
  Hf  Hf2  1  0.538490  0.538490  0.409808  1
  Fe  Fe3  1  0.456554  0.456554  0.820997  1
  H  H4  1  0.641838  0.267392  0.056498  1
  H  H5  1  0.267392  0.641838  0.056498  1
  H  H6  1  0.579778  0.579778  0.938416  1
  H  H7  1  0.629124  0.259155  0.567658  1
  H  H8  1  0.259155  0.629124  0.567658  1
  H  H9  1  0.861400  0.426911  0.519320  1
  H  H10  1  0.426911  0.861400  0.519320  1
  H  H11  1  0.337764  0.337764  0.716023  1
