# generated using pymatgen
data_Tb12Nd8Si15As
_symmetry_space_group_name_H-M   'P 1'
_cell_length_a   7.77843160
_cell_length_b   7.81146099
_cell_length_c   14.45008986
_cell_angle_alpha   89.30295430
_cell_angle_beta   90.20830621
_cell_angle_gamma   90.17464094
_symmetry_Int_Tables_number   1
_chemical_formula_structural   Tb12Nd8Si15As
_chemical_formula_sum   'Tb12 Nd8 Si15 As1'
_cell_volume   877.92594494
_cell_formula_units_Z   1
loop_
 _symmetry_equiv_pos_site_id
 _symmetry_equiv_pos_as_xyz
  1  'x, y, z'
loop_
 _atom_site_type_symbol
 _atom_site_label
 _atom_site_symmetry_multiplicity
 _atom_site_fract_x
 _atom_site_fract_y
 _atom_site_fract_z
 _atom_site_occupancy
  Tb  Tb0  1  0.489663  0.360657  0.124017  1
  Tb  Tb1  1  0.989347  0.142782  0.628901  1
  Tb  Tb2  1  0.861343  0.010820  0.874934  1
  Tb  Tb3  1  0.139061  0.983451  0.377625  1
  Tb  Tb4  1  0.505768  0.643313  0.619592  1
  Tb  Tb5  1  0.361889  0.492561  0.876279  1
  Tb  Tb6  1  0.643074  0.503703  0.373945  1
  Tb  Tb7  1  0.008771  0.863087  0.125217  1
  Tb  Tb8  1  0.314154  0.323301  0.497944  1
  Tb  Tb9  1  0.185682  0.820451  0.753087  1
  Tb  Tb10  1  0.814982  0.178138  0.251042  1
  Tb  Tb11  1  0.684189  0.683082  0.998889  1
  Nd  Nd12  1  0.635964  0.989574  0.456987  1
  Nd  Nd13  1  0.363755  0.006685  0.956024  1
  Nd  Nd14  1  0.995749  0.639913  0.542851  1
  Nd  Nd15  1  0.490789  0.855641  0.209068  1
  Nd  Nd16  1  0.511687  0.148642  0.710330  1
  Nd  Nd17  1  0.862344  0.494861  0.793612  1
  Nd  Nd18  1  0.135332  0.501600  0.290644  1
  Nd  Nd19  1  0.007735  0.358742  0.043063  1
  Si  Si20  1  0.709898  0.065740  0.061096  1
  Si  Si21  1  0.933519  0.284922  0.440639  1
  Si  Si22  1  0.435030  0.202305  0.310937  1
  Si  Si23  1  0.565768  0.790801  0.808579  1
  Si  Si24  1  0.209826  0.441314  0.688586  1
  Si  Si25  1  0.788212  0.563853  0.187482  1
  Si  Si26  1  0.064650  0.710177  0.940021  1
  Si  Si27  1  0.796306  0.846081  0.688789  1
  Si  Si28  1  0.203864  0.151522  0.192718  1
  Si  Si29  1  0.844847  0.795752  0.309560  1
  Si  Si30  1  0.349071  0.687581  0.425426  1
  Si  Si31  1  0.654604  0.297602  0.940381  1
  Si  Si32  1  0.702109  0.346052  0.559910  1
  Si  Si33  1  0.295078  0.654552  0.059719  1
  Si  Si34  1  0.154339  0.206425  0.812461  1
  As  As35  1  0.291602  0.954316  0.569646  1
