# generated using pymatgen
data_TbDy3Tm4(B6Ru)4
_symmetry_space_group_name_H-M   'P 1'
_cell_length_a   3.63874500
_cell_length_b   9.10419400
_cell_length_c   11.48653800
_cell_angle_alpha   90.00182535
_cell_angle_beta   90.00000000
_cell_angle_gamma   90.00000000
_symmetry_Int_Tables_number   1
_chemical_formula_structural   TbDy3Tm4(B6Ru)4
_chemical_formula_sum   'Tb1 Dy3 Tm4 B24 Ru4'
_cell_volume   380.52419748
_cell_formula_units_Z   1
loop_
 _symmetry_equiv_pos_site_id
 _symmetry_equiv_pos_as_xyz
  1  'x, y, z'
loop_
 _atom_site_type_symbol
 _atom_site_label
 _atom_site_symmetry_multiplicity
 _atom_site_fract_x
 _atom_site_fract_y
 _atom_site_fract_z
 _atom_site_occupancy
  Tb  Tb0  1  0.000000  0.322188  0.414126  1
  Dy  Dy1  1  0.000000  0.677931  0.585850  1
  Dy  Dy2  1  0.000000  0.822102  0.085822  1
  Dy  Dy3  1  0.000000  0.177901  0.914172  1
  Tm  Tm4  1  0.000000  0.943802  0.372340  1
  Tm  Tm5  1  0.000000  0.056059  0.627699  1
  Tm  Tm6  1  0.000000  0.443897  0.127597  1
  Tm  Tm7  1  0.000000  0.556130  0.872372  1
  B  B8  1  0.500000  0.554648  0.432823  1
  B  B9  1  0.500000  0.445622  0.567324  1
  B  B10  1  0.500000  0.054432  0.067127  1
  B  B11  1  0.500000  0.945550  0.932857  1
  B  B12  1  0.500000  0.749180  0.419450  1
  B  B13  1  0.500000  0.250797  0.580776  1
  B  B14  1  0.500000  0.249134  0.080531  1
  B  B15  1  0.500000  0.750865  0.919440  1
  B  B16  1  0.500000  0.791646  0.265958  1
  B  B17  1  0.500000  0.208360  0.734076  1
  B  B18  1  0.500000  0.291527  0.233854  1
  B  B19  1  0.500000  0.708378  0.765971  1
  B  B20  1  0.500000  0.631230  0.184496  1
  B  B21  1  0.500000  0.368801  0.815492  1
  B  B22  1  0.500000  0.131036  0.315358  1
  B  B23  1  0.500000  0.868777  0.684534  1
  B  B24  1  0.500000  0.983184  0.213241  1
  B  B25  1  0.500000  0.016761  0.786741  1
  B  B26  1  0.500000  0.483445  0.286619  1
  B  B27  1  0.500000  0.516793  0.713304  1
  B  B28  1  0.500000  0.605494  0.028969  1
  B  B29  1  0.500000  0.394512  0.971019  1
  B  B30  1  0.500000  0.105166  0.471110  1
  B  B31  1  0.500000  0.894525  0.528969  1
  Ru  Ru32  1  0.000000  0.638603  0.320391  1
  Ru  Ru33  1  0.000000  0.361601  0.679685  1
  Ru  Ru34  1  0.000000  0.138328  0.179441  1
  Ru  Ru35  1  0.000000  0.861596  0.820468  1
