# generated using pymatgen
data_CaYb2Ga8Ag3
_symmetry_space_group_name_H-M   'P 1'
_cell_length_a   4.41339617
_cell_length_b   8.30157086
_cell_length_c   8.30157022
_cell_angle_alpha   71.71390009
_cell_angle_beta   74.58450119
_cell_angle_gamma   74.58450645
_symmetry_Int_Tables_number   1
_chemical_formula_structural   CaYb2Ga8Ag3
_chemical_formula_sum   'Ca1 Yb2 Ga8 Ag3'
_cell_volume   272.82050479
_cell_formula_units_Z   1
loop_
 _symmetry_equiv_pos_site_id
 _symmetry_equiv_pos_as_xyz
  1  'x, y, z'
loop_
 _atom_site_type_symbol
 _atom_site_label
 _atom_site_symmetry_multiplicity
 _atom_site_fract_x
 _atom_site_fract_y
 _atom_site_fract_z
 _atom_site_occupancy
  Ca  Ca0  1  0.500000  0.500000  0.500000  1
  Yb  Yb1  1  0.200725  0.799275  0.799275  1
  Yb  Yb2  1  0.799275  0.200725  0.200725  1
  Ga  Ga3  1  0.357433  0.364349  0.920785  1
  Ga  Ga4  1  0.642567  0.635651  0.079215  1
  Ga  Ga5  1  0.357433  0.920785  0.364349  1
  Ga  Ga6  1  0.642567  0.079215  0.635651  1
  Ga  Ga7  1  0.162214  0.469237  0.206335  1
  Ga  Ga8  1  0.837786  0.530763  0.793665  1
  Ga  Ga9  1  0.162214  0.206335  0.469237  1
  Ga  Ga10  1  0.837786  0.793665  0.530763  1
  Ag  Ag11  1  0.500000  0.000000  0.000000  1
  Ag  Ag12  1  0.000000  0.806323  0.193677  1
  Ag  Ag13  1  0.000000  0.193677  0.806323  1
