# generated using pymatgen
data_DyHo15In4IrPt3
_symmetry_space_group_name_H-M   'P 1'
_cell_length_a   9.65678210
_cell_length_b   9.65968345
_cell_length_c   9.66436964
_cell_angle_alpha   60.13900850
_cell_angle_beta   60.12412253
_cell_angle_gamma   60.07312345
_symmetry_Int_Tables_number   1
_chemical_formula_structural   DyHo15In4IrPt3
_chemical_formula_sum   'Dy1 Ho15 In4 Ir1 Pt3'
_cell_volume   639.07968741
_cell_formula_units_Z   1
loop_
 _symmetry_equiv_pos_site_id
 _symmetry_equiv_pos_as_xyz
  1  'x, y, z'
loop_
 _atom_site_type_symbol
 _atom_site_label
 _atom_site_symmetry_multiplicity
 _atom_site_fract_x
 _atom_site_fract_y
 _atom_site_fract_z
 _atom_site_occupancy
  Dy  Dy0  1  0.436990  0.436766  0.063877  1
  Ho  Ho1  1  0.647888  0.647925  0.056526  1
  Ho  Ho2  1  0.187114  0.809038  0.193520  1
  Ho  Ho3  1  0.061240  0.438330  0.061412  1
  Ho  Ho4  1  0.190518  0.809675  0.808629  1
  Ho  Ho5  1  0.063056  0.439241  0.435584  1
  Ho  Ho6  1  0.809119  0.187184  0.193636  1
  Ho  Ho7  1  0.652370  0.652351  0.648037  1
  Ho  Ho8  1  0.809935  0.190544  0.808284  1
  Ho  Ho9  1  0.191283  0.191250  0.807187  1
  Ho  Ho10  1  0.050875  0.651108  0.646774  1
  Ho  Ho11  1  0.438715  0.061028  0.061001  1
  Ho  Ho12  1  0.061122  0.061340  0.436428  1
  Ho  Ho13  1  0.650818  0.051711  0.646530  1
  Ho  Ho14  1  0.810318  0.809866  0.192471  1
  Ho  Ho15  1  0.439838  0.062685  0.435887  1
  In  In16  1  0.416232  0.416484  0.416854  1
  In  In17  1  0.416785  0.416796  0.749300  1
  In  In18  1  0.416659  0.749356  0.417244  1
  In  In19  1  0.749465  0.416577  0.417156  1
  Ir  Ir20  1  0.858248  0.858829  0.426484  1
  Pt  Pt21  1  0.427450  0.857993  0.859379  1
  Pt  Pt22  1  0.856221  0.856592  0.858211  1
  Pt  Pt23  1  0.857742  0.427329  0.859587  1
