# generated using pymatgen
data_CsDy(SbAu)2
_symmetry_space_group_name_H-M   'P 1'
_cell_length_a   4.63521500
_cell_length_b   4.63521493
_cell_length_c   20.16797000
_cell_angle_alpha   90.00000000
_cell_angle_beta   90.00000000
_cell_angle_gamma   120.00002188
_symmetry_Int_Tables_number   1
_chemical_formula_structural   CsDy(SbAu)2
_chemical_formula_sum   'Cs2 Dy2 Sb4 Au4'
_cell_volume   375.26018039
_cell_formula_units_Z   2
loop_
 _symmetry_equiv_pos_site_id
 _symmetry_equiv_pos_as_xyz
  1  'x, y, z'
loop_
 _atom_site_type_symbol
 _atom_site_label
 _atom_site_symmetry_multiplicity
 _atom_site_fract_x
 _atom_site_fract_y
 _atom_site_fract_z
 _atom_site_occupancy
  Cs  Cs0  1  0.000000  0.000000  0.499909  1
  Cs  Cs1  1  0.000000  0.000000  0.000091  1
  Dy  Dy2  1  0.000000  0.000000  0.250000  1
  Dy  Dy3  1  0.000000  0.000000  0.750000  1
  Sb  Sb4  1  0.333333  0.666667  0.358399  1
  Sb  Sb5  1  0.666667  0.333333  0.641514  1
  Sb  Sb6  1  0.666667  0.333333  0.858486  1
  Sb  Sb7  1  0.333333  0.666667  0.141601  1
  Au  Au8  1  0.666667  0.333333  0.329062  1
  Au  Au9  1  0.333333  0.666667  0.670985  1
  Au  Au10  1  0.333333  0.666667  0.829015  1
  Au  Au11  1  0.666667  0.333333  0.170938  1
