# generated using pymatgen
data_La2Co5B2
_symmetry_space_group_name_H-M   'P 1'
_cell_length_a   5.20348201
_cell_length_b   5.20348232
_cell_length_c   20.10597000
_cell_angle_alpha   90.00000000
_cell_angle_beta   90.00000000
_cell_angle_gamma   120.00806660
_symmetry_Int_Tables_number   1
_chemical_formula_structural   La2Co5B2
_chemical_formula_sum   'La8 Co20 B8'
_cell_volume   471.42053340
_cell_formula_units_Z   4
loop_
 _symmetry_equiv_pos_site_id
 _symmetry_equiv_pos_as_xyz
  1  'x, y, z'
loop_
 _atom_site_type_symbol
 _atom_site_label
 _atom_site_symmetry_multiplicity
 _atom_site_fract_x
 _atom_site_fract_y
 _atom_site_fract_z
 _atom_site_occupancy
  La  La0  1  0.666610  0.333390  0.520715  1
  La  La1  1  0.333390  0.666610  0.479285  1
  La  La2  1  0.333390  0.666610  0.020715  1
  La  La3  1  0.666610  0.333390  0.979285  1
  La  La4  1  0.666662  0.333338  0.673758  1
  La  La5  1  0.333338  0.666662  0.326242  1
  La  La6  1  0.333338  0.666662  0.173758  1
  La  La7  1  0.666662  0.333338  0.826242  1
  Co  Co8  1  0.000000  0.000000  0.500000  1
  Co  Co9  1  0.000000  0.000000  0.000000  1
  Co  Co10  1  0.167808  0.335715  0.750000  1
  Co  Co11  1  0.167845  0.832155  0.750000  1
  Co  Co12  1  0.664285  0.832192  0.750000  1
  Co  Co13  1  0.832192  0.664285  0.250000  1
  Co  Co14  1  0.832155  0.167845  0.250000  1
  Co  Co15  1  0.335715  0.167808  0.250000  1
  Co  Co16  1  0.160474  0.321041  0.609527  1
  Co  Co17  1  0.160354  0.839646  0.609484  1
  Co  Co18  1  0.678959  0.839526  0.609527  1
  Co  Co19  1  0.839526  0.678959  0.390473  1
  Co  Co20  1  0.839646  0.160354  0.390516  1
  Co  Co21  1  0.321041  0.160474  0.390473  1
  Co  Co22  1  0.839526  0.678959  0.109527  1
  Co  Co23  1  0.839646  0.160354  0.109484  1
  Co  Co24  1  0.321041  0.160474  0.109527  1
  Co  Co25  1  0.160474  0.321041  0.890473  1
  Co  Co26  1  0.160354  0.839646  0.890516  1
  Co  Co27  1  0.678959  0.839526  0.890473  1
  B  B28  1  0.999906  0.000094  0.679114  1
  B  B29  1  0.000094  0.999906  0.320886  1
  B  B30  1  0.000094  0.999906  0.179114  1
  B  B31  1  0.999906  0.000094  0.820886  1
  B  B32  1  0.666588  0.333412  0.325105  1
  B  B33  1  0.333412  0.666588  0.674895  1
  B  B34  1  0.333412  0.666588  0.825105  1
  B  B35  1  0.666588  0.333412  0.174895  1
