# generated using pymatgen
data_Dy5Tm3(Si3Pt)4
_symmetry_space_group_name_H-M   'P 1'
_cell_length_a   8.12679610
_cell_length_b   8.13411765
_cell_length_c   8.10555200
_cell_angle_alpha   90.00000000
_cell_angle_beta   90.00000000
_cell_angle_gamma   120.02979461
_symmetry_Int_Tables_number   1
_chemical_formula_structural   Dy5Tm3(Si3Pt)4
_chemical_formula_sum   'Dy5 Tm3 Si12 Pt4'
_cell_volume   463.88739792
_cell_formula_units_Z   1
loop_
 _symmetry_equiv_pos_site_id
 _symmetry_equiv_pos_as_xyz
  1  'x, y, z'
loop_
 _atom_site_type_symbol
 _atom_site_label
 _atom_site_symmetry_multiplicity
 _atom_site_fract_x
 _atom_site_fract_y
 _atom_site_fract_z
 _atom_site_occupancy
  Dy  Dy0  1  0.498338  0.501624  0.250000  1
  Dy  Dy1  1  0.501614  0.003224  0.750000  1
  Dy  Dy2  1  0.498338  0.996713  0.250000  1
  Dy  Dy3  1  0.501614  0.498390  0.750000  1
  Dy  Dy4  1  0.996763  0.498381  0.750000  1
  Tm  Tm5  1  0.000008  0.000004  0.250000  1
  Tm  Tm6  1  0.999987  0.999994  0.750000  1
  Tm  Tm7  1  0.003295  0.501647  0.250000  1
  Si  Si8  1  0.164959  0.330202  0.999128  1
  Si  Si9  1  0.669894  0.834947  0.998895  1
  Si  Si10  1  0.164959  0.330202  0.500872  1
  Si  Si11  1  0.330105  0.165053  0.001110  1
  Si  Si12  1  0.164959  0.834756  0.999128  1
  Si  Si13  1  0.669894  0.834947  0.501105  1
  Si  Si14  1  0.835040  0.669811  0.001323  1
  Si  Si15  1  0.330105  0.165053  0.498890  1
  Si  Si16  1  0.164959  0.834756  0.500872  1
  Si  Si17  1  0.835040  0.669811  0.498677  1
  Si  Si18  1  0.835040  0.165229  0.001323  1
  Si  Si19  1  0.835040  0.165229  0.498677  1
  Pt  Pt20  1  0.332720  0.666360  0.997352  1
  Pt  Pt21  1  0.332720  0.666360  0.502648  1
  Pt  Pt22  1  0.667307  0.333653  0.003974  1
  Pt  Pt23  1  0.667307  0.333653  0.496026  1
