# generated using pymatgen
data_La7NdTe12
_symmetry_space_group_name_H-M   'P 1'
_cell_length_a   4.54055500
_cell_length_b   12.11578006
_cell_length_c   12.49780312
_cell_angle_alpha   89.93323229
_cell_angle_beta   90.00000000
_cell_angle_gamma   90.00000000
_symmetry_Int_Tables_number   1
_chemical_formula_structural   La7NdTe12
_chemical_formula_sum   'La7 Nd1 Te12'
_cell_volume   687.53324913
_cell_formula_units_Z   1
loop_
 _symmetry_equiv_pos_site_id
 _symmetry_equiv_pos_as_xyz
  1  'x, y, z'
loop_
 _atom_site_type_symbol
 _atom_site_label
 _atom_site_symmetry_multiplicity
 _atom_site_fract_x
 _atom_site_fract_y
 _atom_site_fract_z
 _atom_site_occupancy
  La  La0  1  0.250000  0.498201  0.696307  1
  La  La1  1  0.750000  0.500563  0.304329  1
  La  La2  1  0.750000  0.999654  0.804783  1
  La  La3  1  0.250000  0.002193  0.194467  1
  La  La4  1  0.250000  0.187247  0.514294  1
  La  La5  1  0.750000  0.812896  0.485832  1
  La  La6  1  0.750000  0.686969  0.985879  1
  Nd  Nd7  1  0.250000  0.313291  0.014904  1
  Te  Te8  1  0.250000  0.876589  0.955360  1
  Te  Te9  1  0.750000  0.126883  0.043381  1
  Te  Te10  1  0.750000  0.376052  0.544689  1
  Te  Te11  1  0.250000  0.623723  0.455183  1
  Te  Te12  1  0.250000  0.199695  0.775017  1
  Te  Te13  1  0.750000  0.800402  0.226278  1
  Te  Te14  1  0.750000  0.698959  0.726699  1
  Te  Te15  1  0.250000  0.300361  0.271703  1
  Te  Te16  1  0.250000  0.556307  0.119025  1
  Te  Te17  1  0.750000  0.439823  0.881825  1
  Te  Te18  1  0.750000  0.058792  0.379636  1
  Te  Te19  1  0.250000  0.941400  0.620410  1
