# generated using pymatgen
data_Ti3GaReS8
_symmetry_space_group_name_H-M   'P 1'
_cell_length_a   7.07131458
_cell_length_b   7.07131574
_cell_length_c   6.92990600
_cell_angle_alpha   59.32265234
_cell_angle_beta   59.32265620
_cell_angle_gamma   60.00000171
_symmetry_Int_Tables_number   1
_chemical_formula_structural   Ti3GaReS8
_chemical_formula_sum   'Ti3 Ga1 Re1 S8'
_cell_volume   242.48768385
_cell_formula_units_Z   1
loop_
 _symmetry_equiv_pos_site_id
 _symmetry_equiv_pos_as_xyz
  1  'x, y, z'
loop_
 _atom_site_type_symbol
 _atom_site_label
 _atom_site_symmetry_multiplicity
 _atom_site_fract_x
 _atom_site_fract_y
 _atom_site_fract_z
 _atom_site_occupancy
  Ti  Ti0  1  0.616867  0.173371  0.592897  1
  Ti  Ti1  1  0.173371  0.616867  0.592897  1
  Ti  Ti2  1  0.616867  0.616867  0.592897  1
  Ga  Ga3  1  0.006172  0.006172  0.981483  1
  Re  Re4  1  0.598501  0.598501  0.204498  1
  S  S5  1  0.375825  0.375825  0.872525  1
  S  S6  1  0.364911  0.891055  0.379122  1
  S  S7  1  0.891055  0.364911  0.379122  1
  S  S8  1  0.364911  0.364911  0.379122  1
  S  S9  1  0.869680  0.869680  0.390957  1
  S  S10  1  0.856103  0.409633  0.878160  1
  S  S11  1  0.409633  0.856103  0.878160  1
  S  S12  1  0.856103  0.856103  0.878160  1
