# generated using pymatgen
data_Zr6Sc8Al8Ir4Rh3
_symmetry_space_group_name_H-M   'P 1'
_cell_length_a   9.10420641
_cell_length_b   9.10420620
_cell_length_c   9.10420575
_cell_angle_alpha   59.81519229
_cell_angle_beta   59.81519531
_cell_angle_gamma   59.81519507
_symmetry_Int_Tables_number   1
_chemical_formula_structural   Zr6Sc8Al8Ir4Rh3
_chemical_formula_sum   'Zr6 Sc8 Al8 Ir4 Rh3'
_cell_volume   531.35603033
_cell_formula_units_Z   1
loop_
 _symmetry_equiv_pos_site_id
 _symmetry_equiv_pos_as_xyz
  1  'x, y, z'
loop_
 _atom_site_type_symbol
 _atom_site_label
 _atom_site_symmetry_multiplicity
 _atom_site_fract_x
 _atom_site_fract_y
 _atom_site_fract_z
 _atom_site_occupancy
  Zr  Zr0  1  0.678315  0.678315  0.321085  1
  Zr  Zr1  1  0.321685  0.678915  0.321685  1
  Zr  Zr2  1  0.678915  0.321685  0.321685  1
  Zr  Zr3  1  0.321685  0.321685  0.678915  1
  Zr  Zr4  1  0.678315  0.321085  0.678315  1
  Zr  Zr5  1  0.321085  0.678315  0.678315  1
  Sc  Sc6  1  0.877860  0.877860  0.367223  1
  Sc  Sc7  1  0.877860  0.367223  0.877860  1
  Sc  Sc8  1  0.367223  0.877860  0.877860  1
  Sc  Sc9  1  0.877454  0.877454  0.877454  1
  Sc  Sc10  1  0.122140  0.122140  0.632777  1
  Sc  Sc11  1  0.122140  0.632777  0.122140  1
  Sc  Sc12  1  0.632777  0.122140  0.122140  1
  Sc  Sc13  1  0.122546  0.122546  0.122546  1
  Al  Al14  1  0.661776  0.661776  0.015110  1
  Al  Al15  1  0.661776  0.015110  0.661776  1
  Al  Al16  1  0.015110  0.661776  0.661776  1
  Al  Al17  1  0.661521  0.661521  0.661521  1
  Al  Al18  1  0.338224  0.338224  0.984890  1
  Al  Al19  1  0.338224  0.984890  0.338224  1
  Al  Al20  1  0.984890  0.338224  0.338224  1
  Al  Al21  1  0.338479  0.338479  0.338479  1
  Ir  Ir22  1  0.000000  0.000000  0.000000  1
  Ir  Ir23  1  0.000000  0.000000  0.500000  1
  Ir  Ir24  1  0.000000  0.500000  0.000000  1
  Ir  Ir25  1  0.500000  0.000000  0.000000  1
  Rh  Rh26  1  0.500000  0.000000  0.500000  1
  Rh  Rh27  1  0.000000  0.500000  0.500000  1
  Rh  Rh28  1  0.500000  0.500000  0.000000  1
