# generated using pymatgen
data_Yb5(PtPb2)2
_symmetry_space_group_name_H-M   'P 1'
_cell_length_a   3.63377500
_cell_length_b   8.42670500
_cell_length_c   18.76897700
_cell_angle_alpha   90.00000000
_cell_angle_beta   90.00000000
_cell_angle_gamma   90.00000000
_symmetry_Int_Tables_number   1
_chemical_formula_structural   Yb5(PtPb2)2
_chemical_formula_sum   'Yb10 Pt4 Pb8'
_cell_volume   574.72015175
_cell_formula_units_Z   2
loop_
 _symmetry_equiv_pos_site_id
 _symmetry_equiv_pos_as_xyz
  1  'x, y, z'
loop_
 _atom_site_type_symbol
 _atom_site_label
 _atom_site_symmetry_multiplicity
 _atom_site_fract_x
 _atom_site_fract_y
 _atom_site_fract_z
 _atom_site_occupancy
  Yb  Yb0  1  0.000000  0.120568  0.408873  1
  Yb  Yb1  1  0.000000  0.879432  0.591127  1
  Yb  Yb2  1  0.000000  0.379432  0.908873  1
  Yb  Yb3  1  0.000000  0.620568  0.091127  1
  Yb  Yb4  1  0.000000  0.240369  0.222238  1
  Yb  Yb5  1  0.000000  0.759631  0.777762  1
  Yb  Yb6  1  0.000000  0.259631  0.722238  1
  Yb  Yb7  1  0.000000  0.740369  0.277762  1
  Yb  Yb8  1  0.000000  0.000000  0.000000  1
  Yb  Yb9  1  0.000000  0.500000  0.500000  1
  Pt  Pt10  1  0.500000  0.011911  0.301782  1
  Pt  Pt11  1  0.500000  0.988089  0.698218  1
  Pt  Pt12  1  0.500000  0.488089  0.801782  1
  Pt  Pt13  1  0.500000  0.511911  0.198218  1
  Pb  Pb14  1  0.500000  0.427287  0.349383  1
  Pb  Pb15  1  0.500000  0.572713  0.650617  1
  Pb  Pb16  1  0.500000  0.072713  0.849383  1
  Pb  Pb17  1  0.500000  0.927287  0.150617  1
  Pb  Pb18  1  0.500000  0.297852  0.070165  1
  Pb  Pb19  1  0.500000  0.702148  0.929835  1
  Pb  Pb20  1  0.500000  0.202148  0.570165  1
  Pb  Pb21  1  0.500000  0.797852  0.429835  1
