# generated using pymatgen
data_Lu3TlRuAu
_symmetry_space_group_name_H-M   'P 1'
_cell_length_a   3.50523500
_cell_length_b   3.50523500
_cell_length_c   10.51514000
_cell_angle_alpha   90.00000000
_cell_angle_beta   90.00000000
_cell_angle_gamma   90.00000000
_symmetry_Int_Tables_number   1
_chemical_formula_structural   Lu3TlRuAu
_chemical_formula_sum   'Lu3 Tl1 Ru1 Au1'
_cell_volume   129.19608048
_cell_formula_units_Z   1
loop_
 _symmetry_equiv_pos_site_id
 _symmetry_equiv_pos_as_xyz
  1  'x, y, z'
loop_
 _atom_site_type_symbol
 _atom_site_label
 _atom_site_symmetry_multiplicity
 _atom_site_fract_x
 _atom_site_fract_y
 _atom_site_fract_z
 _atom_site_occupancy
  Lu  Lu0  1  0.499999  0.499999  0.986829  1
  Lu  Lu1  1  0.499999  0.499999  0.317300  1
  Lu  Lu2  1  0.499999  0.499999  0.694310  1
  Tl  Tl3  1  0.000000  0.000000  0.506108  1
  Ru  Ru4  1  0.000000  0.000000  0.835699  1
  Au  Au5  1  0.000000  0.000000  0.159751  1
