# generated using pymatgen
data_Cs12VTc3S16
_symmetry_space_group_name_H-M   'P 1'
_cell_length_a   9.95226221
_cell_length_b   9.99018659
_cell_length_c   11.80013400
_cell_angle_alpha   90.00000000
_cell_angle_beta   90.00000000
_cell_angle_gamma   89.94704271
_symmetry_Int_Tables_number   1
_chemical_formula_structural   Cs12VTc3S16
_chemical_formula_sum   'Cs12 V1 Tc3 S16'
_cell_volume   1173.22730824
_cell_formula_units_Z   1
loop_
 _symmetry_equiv_pos_site_id
 _symmetry_equiv_pos_as_xyz
  1  'x, y, z'
loop_
 _atom_site_type_symbol
 _atom_site_label
 _atom_site_symmetry_multiplicity
 _atom_site_fract_x
 _atom_site_fract_y
 _atom_site_fract_z
 _atom_site_occupancy
  Cs  Cs0  1  0.547337  0.210973  0.043587  1
  Cs  Cs1  1  0.043943  0.292122  0.456685  1
  Cs  Cs2  1  0.455025  0.790192  0.541747  1
  Cs  Cs3  1  0.953474  0.707897  0.958962  1
  Cs  Cs4  1  0.455025  0.790192  0.958253  1
  Cs  Cs5  1  0.953474  0.707897  0.541038  1
  Cs  Cs6  1  0.547337  0.210973  0.456413  1
  Cs  Cs7  1  0.043943  0.292122  0.043315  1
  Cs  Cs8  1  0.648484  0.412909  0.750000  1
  Cs  Cs9  1  0.148525  0.086891  0.750000  1
  Cs  Cs10  1  0.353099  0.585758  0.250000  1
  Cs  Cs11  1  0.850475  0.912979  0.250000  1
  V  V12  1  0.777545  0.482877  0.250000  1
  Tc  Tc13  1  0.723240  0.983216  0.750000  1
  Tc  Tc14  1  0.223432  0.516708  0.750000  1
  Tc  Tc15  1  0.276483  0.016346  0.250000  1
  S  S16  1  0.830032  0.046891  0.593616  1
  S  S17  1  0.330099  0.452976  0.906446  1
  S  S18  1  0.169772  0.952718  0.093672  1
  S  S19  1  0.672455  0.546136  0.401608  1
  S  S20  1  0.169772  0.952718  0.406328  1
  S  S21  1  0.672455  0.546136  0.098392  1
  S  S22  1  0.830032  0.046891  0.906384  1
  S  S23  1  0.330099  0.452976  0.593554  1
  S  S24  1  0.515664  0.067943  0.750000  1
  S  S25  1  0.015828  0.432125  0.750000  1
  S  S26  1  0.484465  0.932269  0.250000  1
  S  S27  1  0.979683  0.565496  0.250000  1
  S  S28  1  0.709230  0.760508  0.750000  1
  S  S29  1  0.208916  0.739341  0.750000  1
  S  S30  1  0.290532  0.239105  0.250000  1
  S  S31  1  0.790123  0.265718  0.250000  1
