# generated using pymatgen
data_Er2Tm(GaIr2)3
_symmetry_space_group_name_H-M   'P 1'
_cell_length_a   5.56275000
_cell_length_b   5.56265006
_cell_length_c   15.78752100
_cell_angle_alpha   90.00000000
_cell_angle_beta   90.00000000
_cell_angle_gamma   119.99911955
_symmetry_Int_Tables_number   1
_chemical_formula_structural   Er2Tm(GaIr2)3
_chemical_formula_sum   'Er4 Tm2 Ga6 Ir12'
_cell_volume   423.07728415
_cell_formula_units_Z   2
loop_
 _symmetry_equiv_pos_site_id
 _symmetry_equiv_pos_as_xyz
  1  'x, y, z'
loop_
 _atom_site_type_symbol
 _atom_site_label
 _atom_site_symmetry_multiplicity
 _atom_site_fract_x
 _atom_site_fract_y
 _atom_site_fract_z
 _atom_site_occupancy
  Er  Er0  1  0.333318  0.666688  0.539911  1
  Er  Er1  1  0.666682  0.333312  0.460089  1
  Er  Er2  1  0.666682  0.333312  0.039911  1
  Er  Er3  1  0.333318  0.666688  0.960089  1
  Tm  Tm4  1  0.333328  0.666623  0.750000  1
  Tm  Tm5  1  0.666672  0.333377  0.250000  1
  Ga  Ga6  1  0.999987  0.000722  0.250000  1
  Ga  Ga7  1  0.000013  0.999278  0.750000  1
  Ga  Ga8  1  0.333390  0.666681  0.250000  1
  Ga  Ga9  1  0.666610  0.333319  0.750000  1
  Ga  Ga10  1  0.000000  0.000000  0.000000  1
  Ga  Ga11  1  0.000000  0.000000  0.500000  1
  Ir  Ir12  1  0.169763  0.339522  0.125106  1
  Ir  Ir13  1  0.830237  0.660478  0.874894  1
  Ir  Ir14  1  0.660534  0.830257  0.125130  1
  Ir  Ir15  1  0.830237  0.660478  0.625106  1
  Ir  Ir16  1  0.339466  0.169743  0.874870  1
  Ir  Ir17  1  0.169763  0.339522  0.374894  1
  Ir  Ir18  1  0.169708  0.830274  0.125142  1
  Ir  Ir19  1  0.339466  0.169743  0.625130  1
  Ir  Ir20  1  0.830292  0.169726  0.874858  1
  Ir  Ir21  1  0.660534  0.830257  0.374870  1
  Ir  Ir22  1  0.830292  0.169726  0.625142  1
  Ir  Ir23  1  0.169708  0.830274  0.374858  1
