# generated using pymatgen
data_VTc3MoAs4
_symmetry_space_group_name_H-M   'P 1'
_cell_length_a   6.94575256
_cell_length_b   6.94575280
_cell_length_c   6.96069299
_cell_angle_alpha   93.57340763
_cell_angle_beta   92.68990387
_cell_angle_gamma   152.93709445
_symmetry_Int_Tables_number   1
_chemical_formula_structural   VTc3MoAs4
_chemical_formula_sum   'V1 Tc3 Mo1 As4'
_cell_volume   148.55459002
_cell_formula_units_Z   1
loop_
 _symmetry_equiv_pos_site_id
 _symmetry_equiv_pos_as_xyz
  1  'x, y, z'
loop_
 _atom_site_type_symbol
 _atom_site_label
 _atom_site_symmetry_multiplicity
 _atom_site_fract_x
 _atom_site_fract_y
 _atom_site_fract_z
 _atom_site_occupancy
  V  V0  1  0.001223  0.002791  0.004014  1
  Tc  Tc1  1  0.388659  0.298689  0.687348  1
  Tc  Tc2  1  0.298574  0.611839  0.910413  1
  Tc  Tc3  1  0.700330  0.385196  0.085526  1
  Mo  Mo4  1  0.612417  0.698423  0.310841  1
  As  As5  1  0.282638  0.061980  0.344619  1
  As  As6  1  0.063018  0.716932  0.779951  1
  As  As7  1  0.936869  0.285932  0.222800  1
  As  As8  1  0.716272  0.938217  0.654489  1
