# generated using pymatgen
data_Ca6InPbN4
_symmetry_space_group_name_H-M   'P 1'
_cell_length_a   3.60847200
_cell_length_b   11.76582712
_cell_length_c   11.31022913
_cell_angle_alpha   92.00422334
_cell_angle_beta   90.00000000
_cell_angle_gamma   90.00000000
_symmetry_Int_Tables_number   1
_chemical_formula_structural   Ca6InPbN4
_chemical_formula_sum   'Ca12 In2 Pb2 N8'
_cell_volume   479.90076880
_cell_formula_units_Z   2
loop_
 _symmetry_equiv_pos_site_id
 _symmetry_equiv_pos_as_xyz
  1  'x, y, z'
loop_
 _atom_site_type_symbol
 _atom_site_label
 _atom_site_symmetry_multiplicity
 _atom_site_fract_x
 _atom_site_fract_y
 _atom_site_fract_z
 _atom_site_occupancy
  Ca  Ca0  1  0.500074  0.170437  0.261205  1
  Ca  Ca1  1  0.500074  0.829563  0.738795  1
  Ca  Ca2  1  0.499354  0.500000  0.000000  1
  Ca  Ca3  1  0.500479  0.000000  0.500000  1
  Ca  Ca4  1  0.998382  0.925530  0.252546  1
  Ca  Ca5  1  0.998382  0.074470  0.747454  1
  Ca  Ca6  1  0.002365  0.429885  0.246116  1
  Ca  Ca7  1  0.002365  0.570115  0.753884  1
  Ca  Ca8  1  0.002592  0.755159  0.476809  1
  Ca  Ca9  1  0.002592  0.244841  0.523191  1
  Ca  Ca10  1  0.997224  0.254685  0.020002  1
  Ca  Ca11  1  0.997224  0.745315  0.979998  1
  In  In12  1  0.500543  0.670260  0.244019  1
  In  In13  1  0.500543  0.329740  0.755981  1
  Pb  Pb14  1  0.523055  0.500000  0.500000  1
  Pb  Pb15  1  0.473160  0.000000  0.000000  1
  N  N16  1  0.000420  0.611242  0.141748  1
  N  N17  1  0.000420  0.388758  0.858252  1
  N  N18  1  0.000400  0.100653  0.371728  1
  N  N19  1  0.000400  0.899347  0.628272  1
  N  N20  1  0.500075  0.825903  0.351524  1
  N  N21  1  0.500075  0.174097  0.648476  1
  N  N22  1  0.499902  0.339295  0.136762  1
  N  N23  1  0.499902  0.660705  0.863238  1
