# generated using pymatgen
data_Sc4Tc24Sn
_symmetry_space_group_name_H-M   'P 1'
_cell_length_a   8.39438952
_cell_length_b   8.39438852
_cell_length_c   8.39438804
_cell_angle_alpha   109.46591288
_cell_angle_beta   109.46591616
_cell_angle_gamma   109.46592081
_symmetry_Int_Tables_number   1
_chemical_formula_structural   Sc4Tc24Sn
_chemical_formula_sum   'Sc4 Tc24 Sn1'
_cell_volume   455.43939049
_cell_formula_units_Z   1
loop_
 _symmetry_equiv_pos_site_id
 _symmetry_equiv_pos_as_xyz
  1  'x, y, z'
loop_
 _atom_site_type_symbol
 _atom_site_label
 _atom_site_symmetry_multiplicity
 _atom_site_fract_x
 _atom_site_fract_y
 _atom_site_fract_z
 _atom_site_occupancy
  Sc  Sc0  1  0.999505  0.627534  0.999505  1
  Sc  Sc1  1  0.627534  0.999505  0.999505  1
  Sc  Sc2  1  0.999505  0.999505  0.627534  1
  Sc  Sc3  1  0.997372  0.997372  0.997372  1
  Tc  Tc4  1  0.002821  0.393725  0.676155  1
  Tc  Tc5  1  0.279721  0.607037  0.607037  1
  Tc  Tc6  1  0.723288  0.325388  0.325388  1
  Tc  Tc7  1  0.325388  0.723288  0.325388  1
  Tc  Tc8  1  0.676155  0.002821  0.393725  1
  Tc  Tc9  1  0.002821  0.676155  0.393725  1
  Tc  Tc10  1  0.607037  0.607037  0.279721  1
  Tc  Tc11  1  0.806777  0.806777  0.180047  1
  Tc  Tc12  1  0.376266  0.192451  0.000622  1
  Tc  Tc13  1  0.192451  0.376266  0.000622  1
  Tc  Tc14  1  0.624311  0.818010  0.624311  1
  Tc  Tc15  1  0.376266  0.000622  0.192451  1
  Tc  Tc16  1  0.000622  0.376266  0.192451  1
  Tc  Tc17  1  0.818010  0.624311  0.624311  1
  Tc  Tc18  1  0.180047  0.806777  0.806777  1
  Tc  Tc19  1  0.806777  0.180047  0.806777  1
  Tc  Tc20  1  0.192451  0.000622  0.376266  1
  Tc  Tc21  1  0.000622  0.192451  0.376266  1
  Tc  Tc22  1  0.624311  0.624311  0.818010  1
  Tc  Tc23  1  0.393725  0.002821  0.676155  1
  Tc  Tc24  1  0.607037  0.279721  0.607037  1
  Tc  Tc25  1  0.676155  0.393725  0.002821  1
  Tc  Tc26  1  0.393725  0.676155  0.002821  1
  Tc  Tc27  1  0.325388  0.325388  0.723288  1
  Sn  Sn28  1  0.363913  0.363913  0.363913  1
