# generated using pymatgen
data_Tm2Al9OsRh2
_symmetry_space_group_name_H-M   'P 1'
_cell_length_a   7.49493707
_cell_length_b   7.49493693
_cell_length_c   9.46791400
_cell_angle_alpha   90.00000000
_cell_angle_beta   90.00000000
_cell_angle_gamma   118.35761269
_symmetry_Int_Tables_number   1
_chemical_formula_structural   Tm2Al9OsRh2
_chemical_formula_sum   'Tm4 Al18 Os2 Rh4'
_cell_volume   468.02930634
_cell_formula_units_Z   2
loop_
 _symmetry_equiv_pos_site_id
 _symmetry_equiv_pos_as_xyz
  1  'x, y, z'
loop_
 _atom_site_type_symbol
 _atom_site_label
 _atom_site_symmetry_multiplicity
 _atom_site_fract_x
 _atom_site_fract_y
 _atom_site_fract_z
 _atom_site_occupancy
  Tm  Tm0  1  0.992765  0.681775  0.250000  1
  Tm  Tm1  1  0.007235  0.318225  0.750000  1
  Tm  Tm2  1  0.681775  0.992765  0.250000  1
  Tm  Tm3  1  0.318225  0.007235  0.750000  1
  Al  Al4  1  0.135251  0.135251  0.250000  1
  Al  Al5  1  0.864749  0.864749  0.750000  1
  Al  Al6  1  0.003235  0.338975  0.075068  1
  Al  Al7  1  0.996765  0.661025  0.924932  1
  Al  Al8  1  0.996765  0.661025  0.575068  1
  Al  Al9  1  0.338975  0.003235  0.424932  1
  Al  Al10  1  0.003235  0.338975  0.424932  1
  Al  Al11  1  0.661025  0.996765  0.575068  1
  Al  Al12  1  0.661025  0.996765  0.924932  1
  Al  Al13  1  0.338975  0.003235  0.075068  1
  Al  Al14  1  0.332014  0.332014  0.548088  1
  Al  Al15  1  0.667986  0.667986  0.451912  1
  Al  Al16  1  0.667986  0.667986  0.048088  1
  Al  Al17  1  0.332014  0.332014  0.951912  1
  Al  Al18  1  0.341271  0.555555  0.250000  1
  Al  Al19  1  0.658729  0.444445  0.750000  1
  Al  Al20  1  0.555555  0.341271  0.250000  1
  Al  Al21  1  0.444445  0.658729  0.750000  1
  Os  Os22  1  0.000000  0.000000  0.000000  1
  Os  Os23  1  0.000000  0.000000  0.500000  1
  Rh  Rh24  1  0.672211  0.327789  0.000000  1
  Rh  Rh25  1  0.327789  0.672211  0.000000  1
  Rh  Rh26  1  0.327789  0.672211  0.500000  1
  Rh  Rh27  1  0.672211  0.327789  0.500000  1
