# generated using pymatgen
data_Hf4TiZnSb2
_symmetry_space_group_name_H-M   'P 1'
_cell_length_a   5.42304463
_cell_length_b   8.17641911
_cell_length_c   8.17641924
_cell_angle_alpha   83.68603613
_cell_angle_beta   70.63243423
_cell_angle_gamma   70.63243520
_symmetry_Int_Tables_number   1
_chemical_formula_structural   Hf4TiZnSb2
_chemical_formula_sum   'Hf8 Ti2 Zn2 Sb4'
_cell_volume   322.67916436
_cell_formula_units_Z   2
loop_
 _symmetry_equiv_pos_site_id
 _symmetry_equiv_pos_as_xyz
  1  'x, y, z'
loop_
 _atom_site_type_symbol
 _atom_site_label
 _atom_site_symmetry_multiplicity
 _atom_site_fract_x
 _atom_site_fract_y
 _atom_site_fract_z
 _atom_site_occupancy
  Hf  Hf0  1  0.078293  0.136323  0.707091  1
  Hf  Hf1  1  0.921707  0.863677  0.292909  1
  Hf  Hf2  1  0.785384  0.292909  0.136323  1
  Hf  Hf3  1  0.421707  0.292909  0.863677  1
  Hf  Hf4  1  0.214616  0.707091  0.863677  1
  Hf  Hf5  1  0.578293  0.707091  0.136323  1
  Hf  Hf6  1  0.714616  0.863677  0.707091  1
  Hf  Hf7  1  0.285384  0.136323  0.292909  1
  Ti  Ti8  1  0.250000  0.500000  0.500000  1
  Ti  Ti9  1  0.750000  0.500000  0.500000  1
  Zn  Zn10  1  0.250000  0.000000  0.000000  1
  Zn  Zn11  1  0.750000  0.000000  0.000000  1
  Sb  Sb12  1  0.158145  0.500000  0.183710  1
  Sb  Sb13  1  0.841855  0.500000  0.816290  1
  Sb  Sb14  1  0.341855  0.816290  0.500000  1
  Sb  Sb15  1  0.658145  0.183710  0.500000  1
