# generated using pymatgen
data_Sm2DyHo5(Si3Rh)4
_symmetry_space_group_name_H-M   'P 1'
_cell_length_a   8.16940101
_cell_length_b   8.16940034
_cell_length_c   7.94933100
_cell_angle_alpha   90.00000000
_cell_angle_beta   90.00000000
_cell_angle_gamma   120.00592239
_symmetry_Int_Tables_number   1
_chemical_formula_structural   Sm2DyHo5(Si3Rh)4
_chemical_formula_sum   'Sm2 Dy1 Ho5 Si12 Rh4'
_cell_volume   459.42612275
_cell_formula_units_Z   1
loop_
 _symmetry_equiv_pos_site_id
 _symmetry_equiv_pos_as_xyz
  1  'x, y, z'
loop_
 _atom_site_type_symbol
 _atom_site_label
 _atom_site_symmetry_multiplicity
 _atom_site_fract_x
 _atom_site_fract_y
 _atom_site_fract_z
 _atom_site_occupancy
  Sm  Sm0  1  0.999969  0.000031  0.250000  1
  Sm  Sm1  1  0.000037  0.999963  0.750000  1
  Dy  Dy2  1  0.508798  0.491202  0.250000  1
  Ho  Ho3  1  0.508728  0.017326  0.250000  1
  Ho  Ho4  1  0.982674  0.491272  0.250000  1
  Ho  Ho5  1  0.491273  0.508727  0.750000  1
  Ho  Ho6  1  0.491266  0.982566  0.750000  1
  Ho  Ho7  1  0.017434  0.508734  0.750000  1
  Si  Si8  1  0.167778  0.832222  0.500631  1
  Si  Si9  1  0.167700  0.335559  0.500704  1
  Si  Si10  1  0.664441  0.832300  0.500704  1
  Si  Si11  1  0.832182  0.167818  0.499441  1
  Si  Si12  1  0.832367  0.664470  0.499698  1
  Si  Si13  1  0.335530  0.167633  0.499698  1
  Si  Si14  1  0.832182  0.167818  0.000559  1
  Si  Si15  1  0.832367  0.664470  0.000302  1
  Si  Si16  1  0.335530  0.167633  0.000302  1
  Si  Si17  1  0.167778  0.832222  0.999369  1
  Si  Si18  1  0.167700  0.335559  0.999296  1
  Si  Si19  1  0.664441  0.832300  0.999296  1
  Rh  Rh20  1  0.333159  0.666841  0.466043  1
  Rh  Rh21  1  0.666754  0.333246  0.534651  1
  Rh  Rh22  1  0.666754  0.333246  0.965349  1
  Rh  Rh23  1  0.333159  0.666841  0.033957  1
