# generated using pymatgen
data_BaHoZn3GaO7
_symmetry_space_group_name_H-M   'P 1'
_cell_length_a   6.41003300
_cell_length_b   6.41005287
_cell_length_c   10.41522100
_cell_angle_alpha   89.99993090
_cell_angle_beta   90.00000000
_cell_angle_gamma   119.99999329
_symmetry_Int_Tables_number   1
_chemical_formula_structural   BaHoZn3GaO7
_chemical_formula_sum   'Ba2 Ho2 Zn6 Ga2 O14'
_cell_volume   370.61332310
_cell_formula_units_Z   2
loop_
 _symmetry_equiv_pos_site_id
 _symmetry_equiv_pos_as_xyz
  1  'x, y, z'
loop_
 _atom_site_type_symbol
 _atom_site_label
 _atom_site_symmetry_multiplicity
 _atom_site_fract_x
 _atom_site_fract_y
 _atom_site_fract_z
 _atom_site_occupancy
  Ba  Ba0  1  0.666673  0.333345  0.468981  1
  Ba  Ba1  1  0.333326  0.666654  0.968978  1
  Ho  Ho2  1  0.333332  0.666669  0.318412  1
  Ho  Ho3  1  0.666667  0.333330  0.818415  1
  Zn  Zn4  1  0.342421  0.171287  0.134493  1
  Zn  Zn5  1  0.828713  0.171134  0.134493  1
  Zn  Zn6  1  0.828863  0.657580  0.134494  1
  Zn  Zn7  1  0.657577  0.828711  0.634493  1
  Zn  Zn8  1  0.171139  0.342424  0.634493  1
  Zn  Zn9  1  0.171288  0.828865  0.634493  1
  Ga  Ga10  1  0.999999  0.000001  0.384141  1
  Ga  Ga11  1  0.000000  0.000000  0.884138  1
  O  O12  1  0.492039  0.984258  0.186218  1
  O  O13  1  0.492215  0.507958  0.186217  1
  O  O14  1  0.015740  0.507783  0.186219  1
  O  O15  1  0.000000  0.000000  0.202554  1
  O  O16  1  0.680471  0.839521  0.440927  1
  O  O17  1  0.160468  0.840941  0.440927  1
  O  O18  1  0.159054  0.319527  0.440927  1
  O  O19  1  0.507961  0.015741  0.686220  1
  O  O20  1  0.507788  0.492037  0.686214  1
  O  O21  1  0.984260  0.492217  0.686222  1
  O  O22  1  0.000000  0.000001  0.702551  1
  O  O23  1  0.319528  0.160480  0.940926  1
  O  O24  1  0.839535  0.159059  0.940927  1
  O  O25  1  0.840944  0.680477  0.940927  1
