# generated using pymatgen
data_Hf4Re5W3
_symmetry_space_group_name_H-M   'P 1'
_cell_length_a   5.33274000
_cell_length_b   5.31848649
_cell_length_c   8.71282400
_cell_angle_alpha   90.00000000
_cell_angle_beta   90.00000000
_cell_angle_gamma   120.08868068
_symmetry_Int_Tables_number   1
_chemical_formula_structural   Hf4Re5W3
_chemical_formula_sum   'Hf4 Re5 W3'
_cell_volume   213.81553772
_cell_formula_units_Z   1
loop_
 _symmetry_equiv_pos_site_id
 _symmetry_equiv_pos_as_xyz
  1  'x, y, z'
loop_
 _atom_site_type_symbol
 _atom_site_label
 _atom_site_symmetry_multiplicity
 _atom_site_fract_x
 _atom_site_fract_y
 _atom_site_fract_z
 _atom_site_occupancy
  Hf  Hf0  1  0.333437  0.666875  0.060908  1
  Hf  Hf1  1  0.666865  0.333728  0.560028  1
  Hf  Hf2  1  0.666865  0.333728  0.939972  1
  Hf  Hf3  1  0.333437  0.666875  0.439092  1
  Re  Re4  1  0.000749  0.001498  0.001452  1
  Re  Re5  1  0.000749  0.001498  0.498548  1
  Re  Re6  1  0.341978  0.169077  0.250000  1
  Re  Re7  1  0.827098  0.169077  0.250000  1
  Re  Re8  1  0.170682  0.341364  0.750000  1
  W  W9  1  0.829500  0.659001  0.250000  1
  W  W10  1  0.168527  0.828639  0.750000  1
  W  W11  1  0.660113  0.828639  0.750000  1
