# generated using pymatgen
data_Zr6GaSi2Ge
_symmetry_space_group_name_H-M   'P 1'
_cell_length_a   7.22213903
_cell_length_b   7.22213840
_cell_length_c   3.70514300
_cell_angle_alpha   90.00000000
_cell_angle_beta   90.00000000
_cell_angle_gamma   90.08111065
_symmetry_Int_Tables_number   1
_chemical_formula_structural   Zr6GaSi2Ge
_chemical_formula_sum   'Zr6 Ga1 Si2 Ge1'
_cell_volume   193.25742575
_cell_formula_units_Z   1
loop_
 _symmetry_equiv_pos_site_id
 _symmetry_equiv_pos_as_xyz
  1  'x, y, z'
loop_
 _atom_site_type_symbol
 _atom_site_label
 _atom_site_symmetry_multiplicity
 _atom_site_fract_x
 _atom_site_fract_y
 _atom_site_fract_z
 _atom_site_occupancy
  Zr  Zr0  1  0.669201  0.169201  0.500000  1
  Zr  Zr1  1  0.329305  0.829305  0.500000  1
  Zr  Zr2  1  0.180851  0.321615  0.500000  1
  Zr  Zr3  1  0.821615  0.680851  0.500000  1
  Zr  Zr4  1  0.000322  0.998816  0.000000  1
  Zr  Zr5  1  0.498816  0.500322  0.000000  1
  Ga  Ga6  1  0.873995  0.373995  0.000000  1
  Si  Si7  1  0.622681  0.878224  0.000000  1
  Si  Si8  1  0.378224  0.122681  0.000000  1
  Ge  Ge9  1  0.124992  0.624992  0.000000  1
