# generated using pymatgen
data_Tb17Dy3Sn16
_symmetry_space_group_name_H-M   'P 1'
_cell_length_a   8.06230503
_cell_length_b   8.21300203
_cell_length_c   15.53050900
_cell_angle_alpha   90.00000000
_cell_angle_beta   90.00000000
_cell_angle_gamma   89.98958645
_symmetry_Int_Tables_number   1
_chemical_formula_structural   Tb17Dy3Sn16
_chemical_formula_sum   'Tb17 Dy3 Sn16'
_cell_volume   1028.36393701
_cell_formula_units_Z   1
loop_
 _symmetry_equiv_pos_site_id
 _symmetry_equiv_pos_as_xyz
  1  'x, y, z'
loop_
 _atom_site_type_symbol
 _atom_site_label
 _atom_site_symmetry_multiplicity
 _atom_site_fract_x
 _atom_site_fract_y
 _atom_site_fract_z
 _atom_site_occupancy
  Tb  Tb0  1  0.367716  0.835641  0.878486  1
  Tb  Tb1  1  0.867722  0.664369  0.621483  1
  Tb  Tb2  1  0.632382  0.164427  0.378522  1
  Tb  Tb3  1  0.132228  0.335691  0.121477  1
  Tb  Tb4  1  0.632382  0.164427  0.121478  1
  Tb  Tb5  1  0.132228  0.335691  0.378523  1
  Tb  Tb6  1  0.367716  0.835641  0.621514  1
  Tb  Tb7  1  0.867722  0.664369  0.878517  1
  Tb  Tb8  1  0.520176  0.319618  0.902125  1
  Tb  Tb9  1  0.020197  0.180375  0.597892  1
  Tb  Tb10  1  0.479857  0.680332  0.402131  1
  Tb  Tb11  1  0.979770  0.819579  0.097863  1
  Tb  Tb12  1  0.479857  0.680332  0.097869  1
  Tb  Tb13  1  0.979770  0.819579  0.402137  1
  Tb  Tb14  1  0.520176  0.319618  0.597875  1
  Tb  Tb15  1  0.020197  0.180375  0.902108  1
  Tb  Tb16  1  0.301732  0.002147  0.250000  1
  Dy  Dy17  1  0.198367  0.502154  0.750000  1
  Dy  Dy18  1  0.698368  0.997831  0.750000  1
  Dy  Dy19  1  0.801597  0.497811  0.250000  1
  Sn  Sn20  1  0.291927  0.033949  0.042090  1
  Sn  Sn21  1  0.791936  0.466061  0.457768  1
  Sn  Sn22  1  0.708063  0.966082  0.542252  1
  Sn  Sn23  1  0.208072  0.533939  0.957749  1
  Sn  Sn24  1  0.708063  0.966082  0.957748  1
  Sn  Sn25  1  0.208072  0.533939  0.542251  1
  Sn  Sn26  1  0.291927  0.033949  0.457910  1
  Sn  Sn27  1  0.791936  0.466061  0.042232  1
  Sn  Sn28  1  0.565311  0.618769  0.750000  1
  Sn  Sn29  1  0.065266  0.881214  0.750000  1
  Sn  Sn30  1  0.434756  0.381388  0.250000  1
  Sn  Sn31  1  0.934341  0.118944  0.250000  1
  Sn  Sn32  1  0.327877  0.145747  0.750000  1
  Sn  Sn33  1  0.827822  0.354323  0.750000  1
  Sn  Sn34  1  0.672352  0.854199  0.250000  1
  Sn  Sn35  1  0.172123  0.645349  0.250000  1
