# generated using pymatgen
data_Ho2Lu6Sc12Si15Bi
_symmetry_space_group_name_H-M   'P 1'
_cell_length_a   7.11781639
_cell_length_b   7.35614412
_cell_length_c   13.97246086
_cell_angle_alpha   90.09426743
_cell_angle_beta   88.59530745
_cell_angle_gamma   90.07855709
_symmetry_Int_Tables_number   1
_chemical_formula_structural   Ho2Lu6Sc12Si15Bi
_chemical_formula_sum   'Ho2 Lu6 Sc12 Si15 Bi1'
_cell_volume   731.37213124
_cell_formula_units_Z   1
loop_
 _symmetry_equiv_pos_site_id
 _symmetry_equiv_pos_as_xyz
  1  'x, y, z'
loop_
 _atom_site_type_symbol
 _atom_site_label
 _atom_site_symmetry_multiplicity
 _atom_site_fract_x
 _atom_site_fract_y
 _atom_site_fract_z
 _atom_site_occupancy
  Ho  Ho0  1  0.511661  0.316557  0.397675  1
  Ho  Ho1  1  0.512085  0.686898  0.600952  1
  Lu  Lu2  1  0.012426  0.177393  0.096234  1
  Lu  Lu3  1  0.987845  0.823873  0.904610  1
  Lu  Lu4  1  0.488940  0.676635  0.904020  1
  Lu  Lu5  1  0.993656  0.832224  0.598422  1
  Lu  Lu6  1  0.511504  0.323409  0.097470  1
  Lu  Lu7  1  0.998264  0.169712  0.398720  1
  Sc  Sc8  1  0.165362  0.501828  0.756321  1
  Sc  Sc9  1  0.834006  0.497961  0.251219  1
  Sc  Sc10  1  0.333656  0.002672  0.250106  1
  Sc  Sc11  1  0.668171  0.997926  0.751456  1
  Sc  Sc12  1  0.350105  0.155364  0.631764  1
  Sc  Sc13  1  0.657665  0.827833  0.372492  1
  Sc  Sc14  1  0.153493  0.683572  0.368908  1
  Sc  Sc15  1  0.667071  0.822388  0.123377  1
  Sc  Sc16  1  0.827315  0.325981  0.625919  1
  Sc  Sc17  1  0.330947  0.175784  0.875980  1
  Sc  Sc18  1  0.831920  0.323353  0.876023  1
  Sc  Sc19  1  0.167972  0.676842  0.124507  1
  Si  Si20  1  0.037729  0.116304  0.751510  1
  Si  Si21  1  0.960084  0.887924  0.245576  1
  Si  Si22  1  0.460346  0.614685  0.247084  1
  Si  Si23  1  0.536646  0.386304  0.753410  1
  Si  Si24  1  0.288755  0.865597  0.754044  1
  Si  Si25  1  0.711272  0.128671  0.245433  1
  Si  Si26  1  0.208349  0.370285  0.248039  1
  Si  Si27  1  0.794792  0.631400  0.752708  1
  Si  Si28  1  0.812767  0.541260  0.456792  1
  Si  Si29  1  0.324314  0.963734  0.459896  1
  Si  Si30  1  0.841482  0.533128  0.039904  1
  Si  Si31  1  0.677067  0.038394  0.538458  1
  Si  Si32  1  0.157687  0.466278  0.961520  1
  Si  Si33  1  0.657384  0.033761  0.960358  1
  Si  Si34  1  0.341194  0.966926  0.040201  1
  Bi  Bi35  1  0.186067  0.457142  0.538891  1
