# generated using pymatgen
data_NdLu2(NiRh2)3
_symmetry_space_group_name_H-M   'P 1'
_cell_length_a   5.28559555
_cell_length_b   5.28559576
_cell_length_c   8.71261000
_cell_angle_alpha   72.34225365
_cell_angle_beta   72.34225293
_cell_angle_gamma   59.99999478
_symmetry_Int_Tables_number   1
_chemical_formula_structural   NdLu2(NiRh2)3
_chemical_formula_sum   'Nd1 Lu2 Ni3 Rh6'
_cell_volume   197.44493064
_cell_formula_units_Z   1
loop_
 _symmetry_equiv_pos_site_id
 _symmetry_equiv_pos_as_xyz
  1  'x, y, z'
loop_
 _atom_site_type_symbol
 _atom_site_label
 _atom_site_symmetry_multiplicity
 _atom_site_fract_x
 _atom_site_fract_y
 _atom_site_fract_z
 _atom_site_occupancy
  Nd  Nd0  1  0.000000  0.000000  0.000000  1
  Lu  Lu1  1  0.141121  0.141121  0.576639  1
  Lu  Lu2  1  0.858879  0.858879  0.423361  1
  Ni  Ni3  1  0.332968  0.332968  0.001095  1
  Ni  Ni4  1  0.667032  0.667032  0.998905  1
  Ni  Ni5  1  0.500000  0.500000  0.500000  1
  Rh  Rh6  1  0.082002  0.584385  0.749228  1
  Rh  Rh7  1  0.584385  0.584385  0.749228  1
  Rh  Rh8  1  0.584385  0.082002  0.749228  1
  Rh  Rh9  1  0.917998  0.415615  0.250772  1
  Rh  Rh10  1  0.415615  0.415615  0.250772  1
  Rh  Rh11  1  0.415615  0.917998  0.250772  1
