# generated using pymatgen
data_Ta6V4Si6C
_symmetry_space_group_name_H-M   'P 1'
_cell_length_a   7.43363100
_cell_length_b   7.43363187
_cell_length_c   4.98263500
_cell_angle_alpha   90.00000000
_cell_angle_beta   90.00000000
_cell_angle_gamma   120.00000059
_symmetry_Int_Tables_number   1
_chemical_formula_structural   Ta6V4Si6C
_chemical_formula_sum   'Ta6 V4 Si6 C1'
_cell_volume   238.44693947
_cell_formula_units_Z   1
loop_
 _symmetry_equiv_pos_site_id
 _symmetry_equiv_pos_as_xyz
  1  'x, y, z'
loop_
 _atom_site_type_symbol
 _atom_site_label
 _atom_site_symmetry_multiplicity
 _atom_site_fract_x
 _atom_site_fract_y
 _atom_site_fract_z
 _atom_site_occupancy
  Ta  Ta0  1  0.000000  0.758051  0.249035  1
  Ta  Ta1  1  0.241949  0.241949  0.249035  1
  Ta  Ta2  1  0.758051  0.000000  0.249035  1
  Ta  Ta3  1  0.000000  0.241949  0.750965  1
  Ta  Ta4  1  0.758051  0.758051  0.750965  1
  Ta  Ta5  1  0.241949  0.000000  0.750965  1
  V  V6  1  0.333333  0.666667  0.500000  1
  V  V7  1  0.666667  0.333333  0.500000  1
  V  V8  1  0.666667  0.333333  0.000000  1
  V  V9  1  0.333333  0.666667  0.000000  1
  Si  Si10  1  0.000000  0.406444  0.246534  1
  Si  Si11  1  0.593556  0.593556  0.246534  1
  Si  Si12  1  0.406444  0.000000  0.246534  1
  Si  Si13  1  0.000000  0.593556  0.753466  1
  Si  Si14  1  0.406444  0.406444  0.753466  1
  Si  Si15  1  0.593556  0.000000  0.753466  1
  C  C16  1  0.000000  0.000000  0.500000  1
