# generated using pymatgen
data_UBr3Cl
_symmetry_space_group_name_H-M   'P 1'
_cell_length_a   7.09936893
_cell_length_b   7.09936978
_cell_length_c   7.68088809
_cell_angle_alpha   87.54226188
_cell_angle_beta   87.54226046
_cell_angle_gamma   74.80427479
_symmetry_Int_Tables_number   1
_chemical_formula_structural   UBr3Cl
_chemical_formula_sum   'U2 Br6 Cl2'
_cell_volume   373.04465992
_cell_formula_units_Z   2
loop_
 _symmetry_equiv_pos_site_id
 _symmetry_equiv_pos_as_xyz
  1  'x, y, z'
loop_
 _atom_site_type_symbol
 _atom_site_label
 _atom_site_symmetry_multiplicity
 _atom_site_fract_x
 _atom_site_fract_y
 _atom_site_fract_z
 _atom_site_occupancy
  U  U0  1  0.802517  0.804459  0.442334  1
  U  U1  1  0.195541  0.197483  0.557666  1
  Br  Br2  1  0.958895  0.939253  0.732121  1
  Br  Br3  1  0.060747  0.041105  0.267879  1
  Br  Br4  1  0.324961  0.320108  0.840474  1
  Br  Br5  1  0.679892  0.675039  0.159526  1
  Br  Br6  1  0.549523  0.180231  0.341831  1
  Br  Br7  1  0.819769  0.450477  0.658169  1
  Cl  Cl8  1  0.153702  0.545547  0.370204  1
  Cl  Cl9  1  0.454453  0.846298  0.629796  1
