# generated using pymatgen
data_Sr3GaGeIr2
_symmetry_space_group_name_H-M   'P 1'
_cell_length_a   6.12859100
_cell_length_b   8.16014600
_cell_length_c   13.95285800
_cell_angle_alpha   90.00000000
_cell_angle_beta   90.00000000
_cell_angle_gamma   90.00000000
_symmetry_Int_Tables_number   1
_chemical_formula_structural   Sr3GaGeIr2
_chemical_formula_sum   'Sr12 Ga4 Ge4 Ir8'
_cell_volume   697.78518196
_cell_formula_units_Z   4
loop_
 _symmetry_equiv_pos_site_id
 _symmetry_equiv_pos_as_xyz
  1  'x, y, z'
loop_
 _atom_site_type_symbol
 _atom_site_label
 _atom_site_symmetry_multiplicity
 _atom_site_fract_x
 _atom_site_fract_y
 _atom_site_fract_z
 _atom_site_occupancy
  Sr  Sr0  1  0.636572  0.238670  0.250000  1
  Sr  Sr1  1  0.363428  0.761330  0.750000  1
  Sr  Sr2  1  0.363428  0.738670  0.250000  1
  Sr  Sr3  1  0.636572  0.261330  0.750000  1
  Sr  Sr4  1  0.141348  0.396975  0.099201  1
  Sr  Sr5  1  0.858652  0.603025  0.900799  1
  Sr  Sr6  1  0.858652  0.603025  0.599201  1
  Sr  Sr7  1  0.858652  0.896975  0.400799  1
  Sr  Sr8  1  0.141348  0.396975  0.400799  1
  Sr  Sr9  1  0.141348  0.103025  0.599201  1
  Sr  Sr10  1  0.141348  0.103025  0.900799  1
  Sr  Sr11  1  0.858652  0.896975  0.099201  1
  Ga  Ga12  1  0.586323  0.250000  0.000000  1
  Ga  Ga13  1  0.413677  0.750000  0.000000  1
  Ga  Ga14  1  0.413677  0.750000  0.500000  1
  Ga  Ga15  1  0.586323  0.250000  0.500000  1
  Ge  Ge16  1  0.169459  0.089413  0.250000  1
  Ge  Ge17  1  0.830541  0.910587  0.750000  1
  Ge  Ge18  1  0.830541  0.589413  0.250000  1
  Ge  Ge19  1  0.169459  0.410587  0.750000  1
  Ir  Ir20  1  0.365178  0.025322  0.094090  1
  Ir  Ir21  1  0.634822  0.974678  0.905910  1
  Ir  Ir22  1  0.634822  0.974678  0.594090  1
  Ir  Ir23  1  0.634822  0.525322  0.405910  1
  Ir  Ir24  1  0.365178  0.025322  0.405910  1
  Ir  Ir25  1  0.365178  0.474678  0.594090  1
  Ir  Ir26  1  0.365178  0.474678  0.905910  1
  Ir  Ir27  1  0.634822  0.525322  0.094090  1
