# generated using pymatgen
data_YTa5B4Os9Ru
_symmetry_space_group_name_H-M   'P 1'
_cell_length_a   9.58133105
_cell_length_b   9.58133115
_cell_length_c   3.06189600
_cell_angle_alpha   90.00000000
_cell_angle_beta   90.00000000
_cell_angle_gamma   90.45464404
_symmetry_Int_Tables_number   1
_chemical_formula_structural   YTa5B4Os9Ru
_chemical_formula_sum   'Y1 Ta5 B4 Os9 Ru1'
_cell_volume   281.07903842
_cell_formula_units_Z   1
loop_
 _symmetry_equiv_pos_site_id
 _symmetry_equiv_pos_as_xyz
  1  'x, y, z'
loop_
 _atom_site_type_symbol
 _atom_site_label
 _atom_site_symmetry_multiplicity
 _atom_site_fract_x
 _atom_site_fract_y
 _atom_site_fract_z
 _atom_site_occupancy
  Y  Y0  1  0.824790  0.675210  0.000000  1
  Ta  Ta1  1  0.179027  0.320973  0.000000  1
  Ta  Ta2  1  0.324187  0.822562  0.000000  1
  Ta  Ta3  1  0.677438  0.175813  0.000000  1
  Ta  Ta4  1  0.500976  0.500804  0.000000  1
  Ta  Ta5  1  0.999196  0.999024  0.000000  1
  B  B6  1  0.620009  0.879991  0.000000  1
  B  B7  1  0.377914  0.122086  0.000000  1
  B  B8  1  0.121672  0.619940  0.000000  1
  B  B9  1  0.880060  0.378328  0.000000  1
  Os  Os10  1  0.556881  0.725166  0.500000  1
  Os  Os11  1  0.426221  0.283363  0.500000  1
  Os  Os12  1  0.083069  0.782655  0.500000  1
  Os  Os13  1  0.931592  0.217316  0.500000  1
  Os  Os14  1  0.282684  0.568408  0.500000  1
  Os  Os15  1  0.717345  0.416931  0.500000  1
  Os  Os16  1  0.216637  0.073779  0.500000  1
  Os  Os17  1  0.774834  0.943119  0.500000  1
  Os  Os18  1  0.495826  0.004174  0.500000  1
  Ru  Ru19  1  0.009643  0.490357  0.500000  1
