# generated using pymatgen
data_Ho3Er17(Ir2Ru)4
_symmetry_space_group_name_H-M   'P 1'
_cell_length_a   10.73766101
_cell_length_b   10.73747200
_cell_length_c   6.38114700
_cell_angle_alpha   90.00127245
_cell_angle_beta   90.00382277
_cell_angle_gamma   90.00246522
_symmetry_Int_Tables_number   1
_chemical_formula_structural   Ho3Er17(Ir2Ru)4
_chemical_formula_sum   'Ho3 Er17 Ir8 Ru4'
_cell_volume   735.71647554
_cell_formula_units_Z   1
loop_
 _symmetry_equiv_pos_site_id
 _symmetry_equiv_pos_as_xyz
  1  'x, y, z'
loop_
 _atom_site_type_symbol
 _atom_site_label
 _atom_site_symmetry_multiplicity
 _atom_site_fract_x
 _atom_site_fract_y
 _atom_site_fract_z
 _atom_site_occupancy
  Ho  Ho0  1  0.293422  0.086535  0.377162  1
  Ho  Ho1  1  0.293405  0.913463  0.877154  1
  Ho  Ho2  1  0.706598  0.086486  0.877167  1
  Er  Er3  1  0.706474  0.913501  0.377284  1
  Er  Er4  1  0.586499  0.793433  0.877277  1
  Er  Er5  1  0.586493  0.206520  0.377292  1
  Er  Er6  1  0.413630  0.793444  0.377273  1
  Er  Er7  1  0.413545  0.206596  0.877302  1
  Er  Er8  1  0.206434  0.413575  0.622751  1
  Er  Er9  1  0.206435  0.586420  0.122732  1
  Er  Er10  1  0.793567  0.413569  0.122729  1
  Er  Er11  1  0.793561  0.586452  0.622725  1
  Er  Er12  1  0.913549  0.706440  0.122719  1
  Er  Er13  1  0.913581  0.293597  0.622664  1
  Er  Er14  1  0.086396  0.706405  0.622677  1
  Er  Er15  1  0.086409  0.293597  0.122689  1
  Er  Er16  1  0.999931  0.999974  0.500021  1
  Er  Er17  1  0.000019  0.000031  0.000001  1
  Er  Er18  1  0.499961  0.499959  0.000015  1
  Er  Er19  1  0.500005  0.499983  0.500004  1
  Ir  Ir20  1  0.847436  0.152691  0.250226  1
  Ir  Ir21  1  0.847404  0.847264  0.749952  1
  Ir  Ir22  1  0.152528  0.152784  0.750176  1
  Ir  Ir23  1  0.152526  0.847226  0.250178  1
  Ir  Ir24  1  0.652604  0.347486  0.749937  1
  Ir  Ir25  1  0.652631  0.652645  0.250010  1
  Ir  Ir26  1  0.347394  0.347474  0.249940  1
  Ir  Ir27  1  0.347399  0.652515  0.749947  1
  Ru  Ru28  1  0.500072  0.999973  0.122046  1
  Ru  Ru29  1  0.500086  0.999964  0.621846  1
  Ru  Ru30  1  0.999997  0.499994  0.878050  1
  Ru  Ru31  1  0.000008  0.500003  0.378055  1
