# generated using pymatgen
data_Dy7Co3Sn23Os3
_symmetry_space_group_name_H-M   'P 1'
_cell_length_a   9.75061147
_cell_length_b   9.77485520
_cell_length_c   10.06245592
_cell_angle_alpha   90.10135013
_cell_angle_beta   89.74276469
_cell_angle_gamma   119.97405956
_symmetry_Int_Tables_number   1
_chemical_formula_structural   Dy7Co3Sn23Os3
_chemical_formula_sum   'Dy7 Co3 Sn23 Os3'
_cell_volume   830.77960641
_cell_formula_units_Z   1
loop_
 _symmetry_equiv_pos_site_id
 _symmetry_equiv_pos_as_xyz
  1  'x, y, z'
loop_
 _atom_site_type_symbol
 _atom_site_label
 _atom_site_symmetry_multiplicity
 _atom_site_fract_x
 _atom_site_fract_y
 _atom_site_fract_z
 _atom_site_occupancy
  Dy  Dy0  1  0.994133  0.989070  0.007136  1
  Dy  Dy1  1  0.482868  0.520028  0.306019  1
  Dy  Dy2  1  0.518171  0.480476  0.693286  1
  Dy  Dy3  1  0.483966  0.963804  0.304873  1
  Dy  Dy4  1  0.516472  0.038460  0.694662  1
  Dy  Dy5  1  0.036527  0.517669  0.303020  1
  Dy  Dy6  1  0.962220  0.483016  0.695005  1
  Co  Co7  1  0.170977  0.340436  0.801072  1
  Co  Co8  1  0.339053  0.169808  0.197305  1
  Co  Co9  1  0.661581  0.831288  0.801098  1
  Sn  Sn10  1  0.349279  0.002609  0.003691  1
  Sn  Sn11  1  0.650762  0.997166  0.995511  1
  Sn  Sn12  1  0.003809  0.347423  0.994654  1
  Sn  Sn13  1  0.001225  0.647774  0.999359  1
  Sn  Sn14  1  0.647138  0.651535  0.995829  1
  Sn  Sn15  1  0.344366  0.344505  0.999364  1
  Sn  Sn16  1  0.334574  0.665662  0.818604  1
  Sn  Sn17  1  0.663604  0.331483  0.178977  1
  Sn  Sn18  1  0.000129  0.000631  0.501615  1
  Sn  Sn19  1  0.781441  0.219562  0.459810  1
  Sn  Sn20  1  0.219623  0.780801  0.539288  1
  Sn  Sn21  1  0.781132  0.561520  0.458805  1
  Sn  Sn22  1  0.216903  0.434851  0.546769  1
  Sn  Sn23  1  0.435934  0.218071  0.452725  1
  Sn  Sn24  1  0.563689  0.782523  0.547638  1
  Sn  Sn25  1  0.334593  0.667123  0.119567  1
  Sn  Sn26  1  0.666262  0.334028  0.878516  1
  Sn  Sn27  1  0.123486  0.888452  0.274301  1
  Sn  Sn28  1  0.884565  0.117435  0.730037  1
  Sn  Sn29  1  0.124915  0.237223  0.272656  1
  Sn  Sn30  1  0.875984  0.764546  0.726870  1
  Sn  Sn31  1  0.761769  0.880864  0.280432  1
  Sn  Sn32  1  0.236025  0.125308  0.725512  1
  Os  Os33  1  0.832427  0.168493  0.198981  1
  Os  Os34  1  0.169257  0.833250  0.798701  1
  Os  Os35  1  0.831138  0.663107  0.198313  1
