# generated using pymatgen
data_SmEuFe3Co9P7
_symmetry_space_group_name_H-M   'P 1'
_cell_length_a   9.03324500
_cell_length_b   9.03324519
_cell_length_c   3.63624300
_cell_angle_alpha   90.00000000
_cell_angle_beta   90.00000000
_cell_angle_gamma   120.00001030
_symmetry_Int_Tables_number   1
_chemical_formula_structural   SmEuFe3Co9P7
_chemical_formula_sum   'Sm1 Eu1 Fe3 Co9 P7'
_cell_volume   256.96328320
_cell_formula_units_Z   1
loop_
 _symmetry_equiv_pos_site_id
 _symmetry_equiv_pos_as_xyz
  1  'x, y, z'
loop_
 _atom_site_type_symbol
 _atom_site_label
 _atom_site_symmetry_multiplicity
 _atom_site_fract_x
 _atom_site_fract_y
 _atom_site_fract_z
 _atom_site_occupancy
  Sm  Sm0  1  0.666667  0.333333  0.500000  1
  Eu  Eu1  1  0.333333  0.666667  0.000000  1
  Fe  Fe2  1  0.216156  0.122553  0.500000  1
  Fe  Fe3  1  0.877447  0.093603  0.500000  1
  Fe  Fe4  1  0.906397  0.783844  0.500000  1
  Co  Co5  1  0.430306  0.371054  0.000000  1
  Co  Co6  1  0.628946  0.059254  0.000000  1
  Co  Co7  1  0.940746  0.569694  0.000000  1
  Co  Co8  1  0.154294  0.881793  0.000000  1
  Co  Co9  1  0.118207  0.272501  0.000000  1
  Co  Co10  1  0.727499  0.845706  0.000000  1
  Co  Co11  1  0.384414  0.953445  0.500000  1
  Co  Co12  1  0.046555  0.430968  0.500000  1
  Co  Co13  1  0.569032  0.615586  0.500000  1
  P  P14  1  0.405969  0.109120  0.000000  1
  P  P15  1  0.890880  0.296849  0.000000  1
  P  P16  1  0.703151  0.594031  0.000000  1
  P  P17  1  0.109117  0.709761  0.500000  1
  P  P18  1  0.290239  0.399355  0.500000  1
  P  P19  1  0.600645  0.890883  0.500000  1
  P  P20  1  0.000000  0.000000  0.000000  1
