# generated using pymatgen
data_Er3Tm5In3Ru
_symmetry_space_group_name_H-M   'P 1'
_cell_length_a   10.28398500
_cell_length_b   10.28398502
_cell_length_c   7.00191400
_cell_angle_alpha   90.00000000
_cell_angle_beta   90.00000000
_cell_angle_gamma   120.00000314
_symmetry_Int_Tables_number   1
_chemical_formula_structural   Er3Tm5In3Ru
_chemical_formula_sum   'Er6 Tm10 In6 Ru2'
_cell_volume   641.31332000
_cell_formula_units_Z   2
loop_
 _symmetry_equiv_pos_site_id
 _symmetry_equiv_pos_as_xyz
  1  'x, y, z'
loop_
 _atom_site_type_symbol
 _atom_site_label
 _atom_site_symmetry_multiplicity
 _atom_site_fract_x
 _atom_site_fract_y
 _atom_site_fract_z
 _atom_site_occupancy
  Er  Er0  1  0.532827  0.065654  0.515846  1
  Er  Er1  1  0.934346  0.467173  0.515846  1
  Er  Er2  1  0.532827  0.467173  0.515846  1
  Er  Er3  1  0.467173  0.934346  0.015846  1
  Er  Er4  1  0.065654  0.532827  0.015846  1
  Er  Er5  1  0.467173  0.532827  0.015846  1
  Tm  Tm6  1  0.177304  0.354607  0.719929  1
  Tm  Tm7  1  0.645393  0.822696  0.719929  1
  Tm  Tm8  1  0.177304  0.822696  0.719929  1
  Tm  Tm9  1  0.822696  0.645393  0.219929  1
  Tm  Tm10  1  0.354607  0.177304  0.219929  1
  Tm  Tm11  1  0.822696  0.177304  0.219929  1
  Tm  Tm12  1  0.666667  0.333333  0.895240  1
  Tm  Tm13  1  0.333333  0.666667  0.395240  1
  Tm  Tm14  1  0.000000  0.000000  0.500430  1
  Tm  Tm15  1  0.000000  0.000000  0.000430  1
  In  In16  1  0.837182  0.674363  0.761916  1
  In  In17  1  0.325637  0.162818  0.761916  1
  In  In18  1  0.837182  0.162818  0.761916  1
  In  In19  1  0.162818  0.325637  0.261916  1
  In  In20  1  0.674363  0.837182  0.261916  1
  In  In21  1  0.162818  0.837182  0.261916  1
  Ru  Ru22  1  0.666667  0.333333  0.290257  1
  Ru  Ru23  1  0.333333  0.666667  0.790257  1
