# generated using pymatgen
data_Pr8Sc11Si16Tc
_symmetry_space_group_name_H-M   'P 1'
_cell_length_a   7.17602846
_cell_length_b   7.55080960
_cell_length_c   14.12549200
_cell_angle_alpha   90.00000000
_cell_angle_beta   90.00000000
_cell_angle_gamma   90.11222891
_symmetry_Int_Tables_number   1
_chemical_formula_structural   Pr8Sc11Si16Tc
_chemical_formula_sum   'Pr8 Sc11 Si16 Tc1'
_cell_volume   765.38583811
_cell_formula_units_Z   1
loop_
 _symmetry_equiv_pos_site_id
 _symmetry_equiv_pos_as_xyz
  1  'x, y, z'
loop_
 _atom_site_type_symbol
 _atom_site_label
 _atom_site_symmetry_multiplicity
 _atom_site_fract_x
 _atom_site_fract_y
 _atom_site_fract_z
 _atom_site_occupancy
  Pr  Pr0  1  0.011689  0.172696  0.403615  1
  Pr  Pr1  1  0.512481  0.327000  0.404812  1
  Pr  Pr2  1  0.492842  0.677180  0.899165  1
  Pr  Pr3  1  0.492842  0.677180  0.600835  1
  Pr  Pr4  1  0.985703  0.830509  0.601157  1
  Pr  Pr5  1  0.985703  0.830509  0.898843  1
  Pr  Pr6  1  0.512481  0.327000  0.095188  1
  Pr  Pr7  1  0.011689  0.172696  0.096385  1
  Sc  Sc8  1  0.329341  0.169778  0.627747  1
  Sc  Sc9  1  0.672479  0.825207  0.376440  1
  Sc  Sc10  1  0.172309  0.675721  0.375187  1
  Sc  Sc11  1  0.825913  0.321133  0.873003  1
  Sc  Sc12  1  0.825913  0.321133  0.626997  1
  Sc  Sc13  1  0.841941  0.500688  0.250000  1
  Sc  Sc14  1  0.342162  0.999072  0.250000  1
  Sc  Sc15  1  0.329341  0.169778  0.872253  1
  Sc  Sc16  1  0.172309  0.675721  0.124813  1
  Sc  Sc17  1  0.672479  0.825207  0.123560  1
  Sc  Sc18  1  0.158088  0.496014  0.750000  1
  Si  Si19  1  0.297384  0.884156  0.750000  1
  Si  Si20  1  0.470256  0.624673  0.250000  1
  Si  Si21  1  0.023071  0.118957  0.750000  1
  Si  Si22  1  0.531891  0.366864  0.750000  1
  Si  Si23  1  0.151846  0.464821  0.540746  1
  Si  Si24  1  0.968203  0.874124  0.250000  1
  Si  Si25  1  0.710901  0.117733  0.250000  1
  Si  Si26  1  0.851481  0.537078  0.037279  1
  Si  Si27  1  0.349010  0.963014  0.037481  1
  Si  Si28  1  0.151846  0.464821  0.959254  1
  Si  Si29  1  0.649299  0.036959  0.548716  1
  Si  Si30  1  0.349010  0.963014  0.462519  1
  Si  Si31  1  0.851481  0.537078  0.462721  1
  Si  Si32  1  0.791060  0.612013  0.750000  1
  Si  Si33  1  0.212761  0.382005  0.250000  1
  Si  Si34  1  0.649299  0.036959  0.951284  1
  Tc  Tc35  1  0.643498  0.021510  0.750000  1
