# generated using pymatgen
data_Sr12NiSn12Au11
_symmetry_space_group_name_H-M   'P 1'
_cell_length_a   4.87422900
_cell_length_b   8.37505229
_cell_length_c   23.89601118
_cell_angle_alpha   89.82984830
_cell_angle_beta   90.00000000
_cell_angle_gamma   90.00000000
_symmetry_Int_Tables_number   1
_chemical_formula_structural   Sr12NiSn12Au11
_chemical_formula_sum   'Sr12 Ni1 Sn12 Au11'
_cell_volume   975.47682091
_cell_formula_units_Z   1
loop_
 _symmetry_equiv_pos_site_id
 _symmetry_equiv_pos_as_xyz
  1  'x, y, z'
loop_
 _atom_site_type_symbol
 _atom_site_label
 _atom_site_symmetry_multiplicity
 _atom_site_fract_x
 _atom_site_fract_y
 _atom_site_fract_z
 _atom_site_occupancy
  Sr  Sr0  1  0.750000  0.209591  0.497544  1
  Sr  Sr1  1  0.250000  0.793352  0.165872  1
  Sr  Sr2  1  0.250000  0.788671  0.505489  1
  Sr  Sr3  1  0.250000  0.794364  0.833283  1
  Sr  Sr4  1  0.250000  0.706125  0.334175  1
  Sr  Sr5  1  0.750000  0.205200  0.833795  1
  Sr  Sr6  1  0.750000  0.287725  0.997589  1
  Sr  Sr7  1  0.750000  0.293642  0.666368  1
  Sr  Sr8  1  0.750000  0.293616  0.334284  1
  Sr  Sr9  1  0.250000  0.710624  0.663228  1
  Sr  Sr10  1  0.250000  0.711976  0.002277  1
  Sr  Sr11  1  0.750000  0.206835  0.166202  1
  Ni  Ni12  1  0.250000  0.085557  0.593386  1
  Sn  Sn13  1  0.250000  0.393813  0.568241  1
  Sn  Sn14  1  0.250000  0.082504  0.397861  1
  Sn  Sn15  1  0.250000  0.086847  0.064969  1
  Sn  Sn16  1  0.250000  0.416415  0.897466  1
  Sn  Sn17  1  0.750000  0.583711  0.102092  1
  Sn  Sn18  1  0.250000  0.418648  0.768994  1
  Sn  Sn19  1  0.750000  0.581880  0.230766  1
  Sn  Sn20  1  0.750000  0.586550  0.436010  1
  Sn  Sn21  1  0.750000  0.913073  0.935384  1
  Sn  Sn22  1  0.250000  0.081957  0.269474  1
  Sn  Sn23  1  0.750000  0.935974  0.601075  1
  Sn  Sn24  1  0.750000  0.918325  0.730011  1
  Au  Au25  1  0.250000  0.087179  0.738019  1
  Au  Au26  1  0.750000  0.586499  0.906392  1
  Au  Au27  1  0.750000  0.911961  0.406234  1
  Au  Au28  1  0.750000  0.583699  0.567082  1
  Au  Au29  1  0.750000  0.587910  0.760088  1
  Au  Au30  1  0.250000  0.415582  0.432923  1
  Au  Au31  1  0.250000  0.413608  0.239623  1
  Au  Au32  1  0.750000  0.915285  0.066872  1
  Au  Au33  1  0.250000  0.413328  0.093361  1
  Au  Au34  1  0.250000  0.084471  0.932888  1
  Au  Au35  1  0.750000  0.913501  0.260683  1
