# generated using pymatgen
data_TbTh2P4Pd7
_symmetry_space_group_name_H-M   'P 1'
_cell_length_a   8.07893854
_cell_length_b   8.07893938
_cell_length_c   9.55550868
_cell_angle_alpha   55.41174040
_cell_angle_beta   55.41173804
_cell_angle_gamma   29.28020023
_symmetry_Int_Tables_number   1
_chemical_formula_structural   TbTh2P4Pd7
_chemical_formula_sum   'Tb1 Th2 P4 Pd7'
_cell_volume   247.00962928
_cell_formula_units_Z   1
loop_
 _symmetry_equiv_pos_site_id
 _symmetry_equiv_pos_as_xyz
  1  'x, y, z'
loop_
 _atom_site_type_symbol
 _atom_site_label
 _atom_site_symmetry_multiplicity
 _atom_site_fract_x
 _atom_site_fract_y
 _atom_site_fract_z
 _atom_site_occupancy
  Tb  Tb0  1  0.318306  0.318306  0.679273  1
  Th  Th1  1  0.679424  0.679424  0.325735  1
  Th  Th2  1  0.001694  0.001694  0.996966  1
  P  P3  1  0.343464  0.343464  0.250503  1
  P  P4  1  0.660992  0.660992  0.745465  1
  P  P5  1  0.891885  0.891885  0.819351  1
  P  P6  1  0.105708  0.105708  0.176641  1
  Pd  Pd7  1  0.308350  0.308350  0.024888  1
  Pd  Pd8  1  0.692015  0.692015  0.974248  1
  Pd  Pd9  1  0.509885  0.509885  0.713109  1
  Pd  Pd10  1  0.833010  0.833010  0.426691  1
  Pd  Pd11  1  0.490099  0.490099  0.287407  1
  Pd  Pd12  1  0.166938  0.166938  0.576718  1
  Pd  Pd13  1  0.998229  0.998229  0.503004  1
