# generated using pymatgen
data_Gd3Bi(As4O9)2
_symmetry_space_group_name_H-M   'P 1'
_cell_length_a   6.79843513
_cell_length_b   7.54574632
_cell_length_c   9.90294700
_cell_angle_alpha   94.63157028
_cell_angle_beta   104.07416857
_cell_angle_gamma   104.71632243
_symmetry_Int_Tables_number   1
_chemical_formula_structural   Gd3Bi(As4O9)2
_chemical_formula_sum   'Gd3 Bi1 As8 O18'
_cell_volume   471.06748887
_cell_formula_units_Z   1
loop_
 _symmetry_equiv_pos_site_id
 _symmetry_equiv_pos_as_xyz
  1  'x, y, z'
loop_
 _atom_site_type_symbol
 _atom_site_label
 _atom_site_symmetry_multiplicity
 _atom_site_fract_x
 _atom_site_fract_y
 _atom_site_fract_z
 _atom_site_occupancy
  Gd  Gd0  1  0.755802  0.060221  0.380611  1
  Gd  Gd1  1  0.719072  0.531833  0.407123  1
  Gd  Gd2  1  0.278983  0.459607  0.588711  1
  Bi  Bi3  1  0.240812  0.928113  0.620236  1
  As  As4  1  0.680181  0.777455  0.073240  1
  As  As5  1  0.322123  0.230799  0.932485  1
  As  As6  1  0.172505  0.754515  0.917031  1
  As  As7  1  0.828766  0.250814  0.085724  1
  As  As8  1  0.748274  0.910520  0.707923  1
  As  As9  1  0.253590  0.084966  0.287350  1
  As  As10  1  0.813030  0.349351  0.702384  1
  As  As11  1  0.190408  0.650061  0.295731  1
  O  O12  1  0.723713  0.750704  0.252144  1
  O  O13  1  0.274771  0.262569  0.755692  1
  O  O14  1  0.320790  0.982792  0.884119  1
  O  O15  1  0.682930  0.023654  0.125160  1
  O  O16  1  0.610539  0.328792  0.986482  1
  O  O17  1  0.392237  0.675784  0.014278  1
  O  O18  1  0.128557  0.656818  0.739655  1
  O  O19  1  0.870973  0.353804  0.259554  1
  O  O20  1  0.830642  0.862034  0.552016  1
  O  O21  1  0.151943  0.132886  0.434386  1
  O  O22  1  0.489078  0.764134  0.671556  1
  O  O23  1  0.512856  0.230508  0.331240  1
  O  O24  1  0.371557  0.534941  0.374892  1
  O  O25  1  0.627861  0.460328  0.621632  1
  O  O26  1  0.090760  0.665512  0.451354  1
  O  O27  1  0.911170  0.329490  0.547975  1
  O  O28  1  0.371680  0.897675  0.354197  1
  O  O29  1  0.634397  0.099318  0.645118  1
