# generated using pymatgen
data_Ta6Ga6W4C
_symmetry_space_group_name_H-M   'P 1'
_cell_length_a   7.67041400
_cell_length_b   7.67041230
_cell_length_c   5.20090900
_cell_angle_alpha   90.00000000
_cell_angle_beta   90.00000000
_cell_angle_gamma   119.99999869
_symmetry_Int_Tables_number   1
_chemical_formula_structural   Ta6Ga6W4C
_chemical_formula_sum   'Ta6 Ga6 W4 C1'
_cell_volume   265.00093511
_cell_formula_units_Z   1
loop_
 _symmetry_equiv_pos_site_id
 _symmetry_equiv_pos_as_xyz
  1  'x, y, z'
loop_
 _atom_site_type_symbol
 _atom_site_label
 _atom_site_symmetry_multiplicity
 _atom_site_fract_x
 _atom_site_fract_y
 _atom_site_fract_z
 _atom_site_occupancy
  Ta  Ta0  1  0.000000  0.765069  0.250368  1
  Ta  Ta1  1  0.234931  0.234931  0.250368  1
  Ta  Ta2  1  0.765069  0.000000  0.250368  1
  Ta  Ta3  1  0.000000  0.234931  0.749632  1
  Ta  Ta4  1  0.765069  0.765069  0.749632  1
  Ta  Ta5  1  0.234931  0.000000  0.749632  1
  Ga  Ga6  1  0.000000  0.403516  0.246015  1
  Ga  Ga7  1  0.596484  0.596484  0.246015  1
  Ga  Ga8  1  0.403516  0.000000  0.246015  1
  Ga  Ga9  1  0.000000  0.596484  0.753985  1
  Ga  Ga10  1  0.403516  0.403516  0.753985  1
  Ga  Ga11  1  0.596484  0.000000  0.753985  1
  W  W12  1  0.333333  0.666667  0.500000  1
  W  W13  1  0.666667  0.333333  0.500000  1
  W  W14  1  0.666667  0.333333  0.000000  1
  W  W15  1  0.333333  0.666667  0.000000  1
  C  C16  1  0.000000  0.000000  0.500000  1
