# generated using pymatgen
data_Ti17Cr3Si15P
_symmetry_space_group_name_H-M   'P 1'
_cell_length_a   6.59380492
_cell_length_b   6.59375424
_cell_length_c   12.08427429
_cell_angle_alpha   90.18147115
_cell_angle_beta   90.29662206
_cell_angle_gamma   90.04462390
_symmetry_Int_Tables_number   1
_chemical_formula_structural   Ti17Cr3Si15P
_chemical_formula_sum   'Ti17 Cr3 Si15 P1'
_cell_volume   525.38937975
_cell_formula_units_Z   1
loop_
 _symmetry_equiv_pos_site_id
 _symmetry_equiv_pos_as_xyz
  1  'x, y, z'
loop_
 _atom_site_type_symbol
 _atom_site_label
 _atom_site_symmetry_multiplicity
 _atom_site_fract_x
 _atom_site_fract_y
 _atom_site_fract_z
 _atom_site_occupancy
  Ti  Ti0  1  0.502062  0.347951  0.128461  1
  Ti  Ti1  1  0.495163  0.651618  0.629575  1
  Ti  Ti2  1  0.009205  0.843567  0.120064  1
  Ti  Ti3  1  0.153635  0.002322  0.379203  1
  Ti  Ti4  1  0.852891  0.000279  0.877248  1
  Ti  Ti5  1  0.011054  0.344747  0.220102  1
  Ti  Ti6  1  0.155629  0.506955  0.471951  1
  Ti  Ti7  1  0.845428  0.491964  0.966264  1
  Ti  Ti8  1  0.504165  0.159411  0.530272  1
  Ti  Ti9  1  0.499210  0.841095  0.031428  1
  Ti  Ti10  1  0.991483  0.652725  0.720702  1
  Ti  Ti11  1  0.339462  0.005160  0.778493  1
  Ti  Ti12  1  0.663017  0.997803  0.281924  1
  Ti  Ti13  1  0.172348  0.166266  0.995666  1
  Ti  Ti14  1  0.335082  0.668657  0.250100  1
  Ti  Ti15  1  0.666360  0.329927  0.749566  1
  Ti  Ti16  1  0.828959  0.836505  0.500432  1
  Cr  Cr17  1  0.982572  0.160482  0.624805  1
  Cr  Cr18  1  0.337868  0.476331  0.868326  1
  Cr  Cr19  1  0.658135  0.512605  0.373879  1
  Si  Si20  1  0.205531  0.538635  0.060283  1
  Si  Si21  1  0.795095  0.459194  0.562430  1
  Si  Si22  1  0.544023  0.199237  0.936134  1
  Si  Si23  1  0.456472  0.798390  0.437577  1
  Si  Si24  1  0.957768  0.700434  0.314649  1
  Si  Si25  1  0.304332  0.045784  0.187467  1
  Si  Si26  1  0.699172  0.955192  0.687394  1
  Si  Si27  1  0.283245  0.357076  0.670087  1
  Si  Si28  1  0.146121  0.781571  0.918980  1
  Si  Si29  1  0.860817  0.216813  0.422843  1
  Si  Si30  1  0.797914  0.137601  0.077216  1
  Si  Si31  1  0.198244  0.875360  0.579666  1
  Si  Si32  1  0.710730  0.638803  0.175579  1
  Si  Si33  1  0.373539  0.301122  0.330122  1
  Si  Si34  1  0.622255  0.702259  0.829893  1
  P  P35  1  0.041013  0.296155  0.811214  1
