# generated using pymatgen
data_EuEr6PtI12
_symmetry_space_group_name_H-M   'P 1'
_cell_length_a   9.78512810
_cell_length_b   9.78512944
_cell_length_c   9.78512975
_cell_angle_alpha   106.65180709
_cell_angle_beta   106.65180783
_cell_angle_gamma   106.65180686
_symmetry_Int_Tables_number   1
_chemical_formula_structural   EuEr6PtI12
_chemical_formula_sum   'Eu1 Er6 Pt1 I12'
_cell_volume   787.56458978
_cell_formula_units_Z   1
loop_
 _symmetry_equiv_pos_site_id
 _symmetry_equiv_pos_as_xyz
  1  'x, y, z'
loop_
 _atom_site_type_symbol
 _atom_site_label
 _atom_site_symmetry_multiplicity
 _atom_site_fract_x
 _atom_site_fract_y
 _atom_site_fract_z
 _atom_site_occupancy
  Eu  Eu0  1  0.000000  0.000000  0.000000  1
  Er  Er1  1  0.403735  0.474932  0.202317  1
  Er  Er2  1  0.202317  0.403735  0.474932  1
  Er  Er3  1  0.474932  0.202317  0.403735  1
  Er  Er4  1  0.596265  0.525068  0.797683  1
  Er  Er5  1  0.797683  0.596265  0.525068  1
  Er  Er6  1  0.525068  0.797683  0.596265  1
  Pt  Pt7  1  0.500000  0.500000  0.500000  1
  I  I8  1  0.045768  0.360140  0.124988  1
  I  I9  1  0.124988  0.045768  0.360140  1
  I  I10  1  0.360140  0.124988  0.045768  1
  I  I11  1  0.954232  0.639860  0.875012  1
  I  I12  1  0.875012  0.954232  0.639860  1
  I  I13  1  0.639860  0.875012  0.954232  1
  I  I14  1  0.721839  0.573510  0.177039  1
  I  I15  1  0.177039  0.721839  0.573510  1
  I  I16  1  0.573510  0.177039  0.721839  1
  I  I17  1  0.278161  0.426490  0.822961  1
  I  I18  1  0.822961  0.278161  0.426490  1
  I  I19  1  0.426490  0.822961  0.278161  1
