# generated using pymatgen
data_PrNd7(RuO6)4
_symmetry_space_group_name_H-M   'P 1'
_cell_length_a   10.17946644
_cell_length_b   10.18522753
_cell_length_c   5.61741800
_cell_angle_alpha   74.88532016
_cell_angle_beta   74.94215228
_cell_angle_gamma   69.29947827
_symmetry_Int_Tables_number   1
_chemical_formula_structural   PrNd7(RuO6)4
_chemical_formula_sum   'Pr1 Nd7 Ru4 O24'
_cell_volume   516.82759105
_cell_formula_units_Z   1
loop_
 _symmetry_equiv_pos_site_id
 _symmetry_equiv_pos_as_xyz
  1  'x, y, z'
loop_
 _atom_site_type_symbol
 _atom_site_label
 _atom_site_symmetry_multiplicity
 _atom_site_fract_x
 _atom_site_fract_y
 _atom_site_fract_z
 _atom_site_occupancy
  Pr  Pr0  1  0.932834  0.711717  0.375225  1
  Nd  Nd1  1  0.632542  0.367257  0.750087  1
  Nd  Nd2  1  0.367707  0.632598  0.249785  1
  Nd  Nd3  1  0.108173  0.892311  0.750018  1
  Nd  Nd4  1  0.891770  0.108337  0.250135  1
  Nd  Nd5  1  0.712235  0.933493  0.873923  1
  Nd  Nd6  1  0.287512  0.067258  0.126170  1
  Nd  Nd7  1  0.067412  0.287059  0.626279  1
  Ru  Ru8  1  0.501034  0.797971  0.549360  1
  Ru  Ru9  1  0.498604  0.202149  0.450733  1
  Ru  Ru10  1  0.202492  0.498429  0.950131  1
  Ru  Ru11  1  0.797628  0.500925  0.049800  1
  O  O12  1  0.689091  0.162739  0.588380  1
  O  O13  1  0.310648  0.837479  0.411256  1
  O  O14  1  0.837330  0.310656  0.911657  1
  O  O15  1  0.163611  0.688924  0.086719  1
  O  O16  1  0.385569  0.828752  0.850696  1
  O  O17  1  0.614170  0.171440  0.149339  1
  O  O18  1  0.171382  0.614220  0.648753  1
  O  O19  1  0.828511  0.385667  0.351505  1
  O  O20  1  0.673801  0.784432  0.630873  1
  O  O21  1  0.325492  0.215812  0.370280  1
  O  O22  1  0.216063  0.325372  0.869871  1
  O  O23  1  0.783189  0.674658  0.128249  1
  O  O24  1  0.472651  0.071293  0.736908  1
  O  O25  1  0.527211  0.928828  0.263276  1
  O  O26  1  0.929320  0.526122  0.765077  1
  O  O27  1  0.072052  0.471647  0.236365  1
  O  O28  1  0.540777  0.614678  0.518752  1
  O  O29  1  0.459212  0.385363  0.481331  1
  O  O30  1  0.385656  0.458957  0.981336  1
  O  O31  1  0.614392  0.540554  0.018457  1
  O  O32  1  0.888860  0.925180  0.070215  1
  O  O33  1  0.111112  0.076244  0.928686  1
  O  O34  1  0.076382  0.111093  0.428400  1
  O  O35  1  0.923574  0.890384  0.571975  1
