# generated using pymatgen
data_Lu12Tc3Pt
_symmetry_space_group_name_H-M   'P 1'
_cell_length_a   7.28360071
_cell_length_b   8.92658500
_cell_length_c   6.16977841
_cell_angle_alpha   89.99963105
_cell_angle_beta   90.01834942
_cell_angle_gamma   90.00030509
_symmetry_Int_Tables_number   1
_chemical_formula_structural   Lu12Tc3Pt
_chemical_formula_sum   'Lu12 Tc3 Pt1'
_cell_volume   401.14466296
_cell_formula_units_Z   1
loop_
 _symmetry_equiv_pos_site_id
 _symmetry_equiv_pos_as_xyz
  1  'x, y, z'
loop_
 _atom_site_type_symbol
 _atom_site_label
 _atom_site_symmetry_multiplicity
 _atom_site_fract_x
 _atom_site_fract_y
 _atom_site_fract_z
 _atom_site_occupancy
  Lu  Lu0  1  0.671342  0.058361  0.337589  1
  Lu  Lu1  1  0.181766  0.442305  0.166974  1
  Lu  Lu2  1  0.323210  0.562512  0.665441  1
  Lu  Lu3  1  0.823944  0.933889  0.829361  1
  Lu  Lu4  1  0.323215  0.937502  0.665454  1
  Lu  Lu5  1  0.823938  0.566099  0.829362  1
  Lu  Lu6  1  0.671345  0.441636  0.337596  1
  Lu  Lu7  1  0.181779  0.057694  0.166980  1
  Lu  Lu8  1  0.535116  0.250011  0.875313  1
  Lu  Lu9  1  0.041142  0.250002  0.624989  1
  Lu  Lu10  1  0.463428  0.749991  0.120224  1
  Lu  Lu11  1  0.959362  0.749995  0.375034  1
  Tc  Tc12  1  0.384067  0.250009  0.462856  1
  Tc  Tc13  1  0.114231  0.749991  0.965198  1
  Tc  Tc14  1  0.614794  0.749999  0.534902  1
  Pt  Pt15  1  0.887321  0.250004  0.042728  1
