# generated using pymatgen
data_Y16Al4RuPt3
_symmetry_space_group_name_H-M   'P 1'
_cell_length_a   9.61987119
_cell_length_b   9.61987180
_cell_length_c   9.61987259
_cell_angle_alpha   59.88979487
_cell_angle_beta   59.88979289
_cell_angle_gamma   59.88979460
_symmetry_Int_Tables_number   1
_chemical_formula_structural   Y16Al4RuPt3
_chemical_formula_sum   'Y16 Al4 Ru1 Pt3'
_cell_volume   627.92186612
_cell_formula_units_Z   1
loop_
 _symmetry_equiv_pos_site_id
 _symmetry_equiv_pos_as_xyz
  1  'x, y, z'
loop_
 _atom_site_type_symbol
 _atom_site_label
 _atom_site_symmetry_multiplicity
 _atom_site_fract_x
 _atom_site_fract_y
 _atom_site_fract_z
 _atom_site_occupancy
  Y  Y0  1  0.805876  0.194151  0.805876  1
  Y  Y1  1  0.935444  0.563371  0.563371  1
  Y  Y2  1  0.563371  0.935444  0.563371  1
  Y  Y3  1  0.811559  0.192061  0.192061  1
  Y  Y4  1  0.192061  0.811559  0.192061  1
  Y  Y5  1  0.351781  0.940639  0.351781  1
  Y  Y6  1  0.937536  0.937536  0.560417  1
  Y  Y7  1  0.560417  0.937536  0.937536  1
  Y  Y8  1  0.194151  0.805876  0.805876  1
  Y  Y9  1  0.351781  0.351781  0.940639  1
  Y  Y10  1  0.563371  0.563371  0.935444  1
  Y  Y11  1  0.354415  0.354415  0.354415  1
  Y  Y12  1  0.192061  0.192061  0.811559  1
  Y  Y13  1  0.805876  0.805876  0.194151  1
  Y  Y14  1  0.937536  0.560417  0.937536  1
  Y  Y15  1  0.940639  0.351781  0.351781  1
  Al  Al16  1  0.579113  0.579113  0.579113  1
  Al  Al17  1  0.577942  0.266661  0.577942  1
  Al  Al18  1  0.577942  0.577942  0.266661  1
  Al  Al19  1  0.266661  0.577942  0.577942  1
  Ru  Ru20  1  0.142319  0.142319  0.142319  1
  Pt  Pt21  1  0.143438  0.143438  0.571279  1
  Pt  Pt22  1  0.571279  0.143438  0.143438  1
  Pt  Pt23  1  0.143438  0.571279  0.143438  1
