# generated using pymatgen
data_Pa3Al12GaCo2
_symmetry_space_group_name_H-M   'P 1'
_cell_length_a   9.39787100
_cell_length_b   9.39786949
_cell_length_c   4.06810400
_cell_angle_alpha   90.00000000
_cell_angle_beta   90.00000000
_cell_angle_gamma   120.00000882
_symmetry_Int_Tables_number   1
_chemical_formula_structural   Pa3Al12GaCo2
_chemical_formula_sum   'Pa3 Al12 Ga1 Co2'
_cell_volume   311.15839974
_cell_formula_units_Z   1
loop_
 _symmetry_equiv_pos_site_id
 _symmetry_equiv_pos_as_xyz
  1  'x, y, z'
loop_
 _atom_site_type_symbol
 _atom_site_label
 _atom_site_symmetry_multiplicity
 _atom_site_fract_x
 _atom_site_fract_y
 _atom_site_fract_z
 _atom_site_occupancy
  Pa  Pa0  1  0.010481  0.414490  0.000000  1
  Pa  Pa1  1  0.585510  0.595991  0.000000  1
  Pa  Pa2  1  0.404009  0.989519  0.000000  1
  Al  Al3  1  0.003772  0.749425  0.000000  1
  Al  Al4  1  0.250575  0.254346  0.000000  1
  Al  Al5  1  0.745654  0.996228  0.000000  1
  Al  Al6  1  0.001784  0.166599  0.500000  1
  Al  Al7  1  0.833401  0.835184  0.500000  1
  Al  Al8  1  0.164816  0.998216  0.500000  1
  Al  Al9  1  0.295198  0.481790  0.500000  1
  Al  Al10  1  0.186593  0.704802  0.500000  1
  Al  Al11  1  0.518210  0.813407  0.500000  1
  Al  Al12  1  0.828438  0.534017  0.500000  1
  Al  Al13  1  0.705578  0.171562  0.500000  1
  Al  Al14  1  0.465983  0.294422  0.500000  1
  Ga  Ga15  1  0.666667  0.333333  0.000000  1
  Co  Co16  1  0.333333  0.666667  0.000000  1
  Co  Co17  1  0.000000  0.000000  0.000000  1
