# generated using pymatgen
data_Ba(AlI4)2
_symmetry_space_group_name_H-M   'P 1'
_cell_length_a   8.26428000
_cell_length_b   9.02137435
_cell_length_c   15.03295669
_cell_angle_alpha   84.96270491
_cell_angle_beta   90.00000000
_cell_angle_gamma   90.00000000
_symmetry_Int_Tables_number   1
_chemical_formula_structural   Ba(AlI4)2
_chemical_formula_sum   'Ba2 Al4 I16'
_cell_volume   1116.45580185
_cell_formula_units_Z   2
loop_
 _symmetry_equiv_pos_site_id
 _symmetry_equiv_pos_as_xyz
  1  'x, y, z'
loop_
 _atom_site_type_symbol
 _atom_site_label
 _atom_site_symmetry_multiplicity
 _atom_site_fract_x
 _atom_site_fract_y
 _atom_site_fract_z
 _atom_site_occupancy
  Ba  Ba0  1  0.150345  0.500000  0.250000  1
  Ba  Ba1  1  0.849655  0.500000  0.750000  1
  Al  Al2  1  0.261472  0.676924  0.578791  1
  Al  Al3  1  0.738528  0.676924  0.078791  1
  Al  Al4  1  0.738528  0.323076  0.421209  1
  Al  Al5  1  0.261472  0.323076  0.921209  1
  I  I6  1  0.525393  0.748893  0.655049  1
  I  I7  1  0.304056  0.748378  0.411123  1
  I  I8  1  0.814030  0.402686  0.111607  1
  I  I9  1  0.185970  0.597314  0.888393  1
  I  I10  1  0.474607  0.251107  0.344951  1
  I  I11  1  0.304056  0.251622  0.088877  1
  I  I12  1  0.695944  0.251622  0.588877  1
  I  I13  1  0.474607  0.748893  0.155049  1
  I  I14  1  0.185970  0.402686  0.611607  1
  I  I15  1  0.525393  0.251107  0.844951  1
  I  I16  1  0.814030  0.597314  0.388393  1
  I  I17  1  0.970990  0.832580  0.136746  1
  I  I18  1  0.695944  0.748378  0.911123  1
  I  I19  1  0.029010  0.167420  0.863254  1
  I  I20  1  0.970990  0.167420  0.363254  1
  I  I21  1  0.029010  0.832580  0.636746  1
