# generated using pymatgen
data_Tm4Zn2B4IrRh9
_symmetry_space_group_name_H-M   'P 1'
_cell_length_a   9.48932499
_cell_length_b   9.48932499
_cell_length_c   3.16268200
_cell_angle_alpha   90.00000000
_cell_angle_beta   90.00000000
_cell_angle_gamma   89.80321203
_symmetry_Int_Tables_number   1
_chemical_formula_structural   Tm4Zn2B4IrRh9
_chemical_formula_sum   'Tm4 Zn2 B4 Ir1 Rh9'
_cell_volume   284.78925972
_cell_formula_units_Z   1
loop_
 _symmetry_equiv_pos_site_id
 _symmetry_equiv_pos_as_xyz
  1  'x, y, z'
loop_
 _atom_site_type_symbol
 _atom_site_label
 _atom_site_symmetry_multiplicity
 _atom_site_fract_x
 _atom_site_fract_y
 _atom_site_fract_z
 _atom_site_occupancy
  Tm  Tm0  1  0.322360  0.822360  0.000000  1
  Tm  Tm1  1  0.677640  0.177640  0.000000  1
  Tm  Tm2  1  0.175600  0.324400  0.000000  1
  Tm  Tm3  1  0.824400  0.675600  0.000000  1
  Zn  Zn4  1  0.500000  0.500000  0.000000  1
  Zn  Zn5  1  0.000000  0.000000  0.000000  1
  B  B6  1  0.122849  0.622849  0.000000  1
  B  B7  1  0.877151  0.377151  0.000000  1
  B  B8  1  0.376881  0.123119  0.000000  1
  B  B9  1  0.623119  0.876881  0.000000  1
  Ir  Ir10  1  0.500000  0.000000  0.500000  1
  Rh  Rh11  1  0.570156  0.719045  0.500000  1
  Rh  Rh12  1  0.429844  0.280955  0.500000  1
  Rh  Rh13  1  0.930903  0.219855  0.500000  1
  Rh  Rh14  1  0.069097  0.780145  0.500000  1
  Rh  Rh15  1  0.780955  0.929844  0.500000  1
  Rh  Rh16  1  0.219045  0.070156  0.500000  1
  Rh  Rh17  1  0.280145  0.569097  0.500000  1
  Rh  Rh18  1  0.719855  0.430903  0.500000  1
  Rh  Rh19  1  0.000000  0.500000  0.500000  1
