# generated using pymatgen
data_Tb8Tm4ZnCo4Sb
_symmetry_space_group_name_H-M   'P 1'
_cell_length_a   8.30004216
_cell_length_b   8.30004256
_cell_length_c   8.30004204
_cell_angle_alpha   112.06770348
_cell_angle_beta   108.65668933
_cell_angle_gamma   107.72213615
_symmetry_Int_Tables_number   1
_chemical_formula_structural   Tb8Tm4ZnCo4Sb
_chemical_formula_sum   'Tb8 Tm4 Zn1 Co4 Sb1'
_cell_volume   439.45936733
_cell_formula_units_Z   1
loop_
 _symmetry_equiv_pos_site_id
 _symmetry_equiv_pos_as_xyz
  1  'x, y, z'
loop_
 _atom_site_type_symbol
 _atom_site_label
 _atom_site_symmetry_multiplicity
 _atom_site_fract_x
 _atom_site_fract_y
 _atom_site_fract_z
 _atom_site_occupancy
  Tb  Tb0  1  0.429573  0.227923  0.201650  1
  Tb  Tb1  1  0.570427  0.772077  0.798350  1
  Tb  Tb2  1  0.026273  0.227923  0.798350  1
  Tb  Tb3  1  0.973727  0.772077  0.201650  1
  Tb  Tb4  1  0.180358  0.282519  0.462877  1
  Tb  Tb5  1  0.819642  0.717481  0.537123  1
  Tb  Tb6  1  0.180358  0.717481  0.897838  1
  Tb  Tb7  1  0.819642  0.282519  0.102162  1
  Tm  Tm8  1  0.324594  0.639852  0.315256  1
  Tm  Tm9  1  0.675406  0.360148  0.684744  1
  Tm  Tm10  1  0.324594  0.009338  0.684744  1
  Tm  Tm11  1  0.675406  0.990662  0.315256  1
  Zn  Zn12  1  0.000000  0.000000  0.000000  1
  Co  Co13  1  0.348813  0.000000  0.348813  1
  Co  Co14  1  0.651187  0.000000  0.651187  1
  Co  Co15  1  0.115174  0.615174  0.500000  1
  Co  Co16  1  0.884826  0.384826  0.500000  1
  Sb  Sb17  1  0.500000  0.500000  0.000000  1
