# generated using pymatgen
data_CeHgPt4
_symmetry_space_group_name_H-M   'P 1'
_cell_length_a   5.43417337
_cell_length_b   5.43417494
_cell_length_c   5.43417500
_cell_angle_alpha   59.99999064
_cell_angle_beta   60.00001723
_cell_angle_gamma   59.99998747
_symmetry_Int_Tables_number   1
_chemical_formula_structural   CeHgPt4
_chemical_formula_sum   'Ce1 Hg1 Pt4'
_cell_volume   113.47121680
_cell_formula_units_Z   1
loop_
 _symmetry_equiv_pos_site_id
 _symmetry_equiv_pos_as_xyz
  1  'x, y, z'
loop_
 _atom_site_type_symbol
 _atom_site_label
 _atom_site_symmetry_multiplicity
 _atom_site_fract_x
 _atom_site_fract_y
 _atom_site_fract_z
 _atom_site_occupancy
  Ce  Ce0  1  0.250001  0.250001  0.250001  1
  Hg  Hg1  1  0.000000  0.000000  0.000000  1
  Pt  Pt2  1  0.625457  0.625457  0.123630  1
  Pt  Pt3  1  0.625457  0.123630  0.625457  1
  Pt  Pt4  1  0.625457  0.625457  0.625457  1
  Pt  Pt5  1  0.123630  0.625457  0.625457  1
