# generated using pymatgen
data_Dy4Al17Co6Si
_symmetry_space_group_name_H-M   'P 1'
_cell_length_a   7.35568216
_cell_length_b   7.35568241
_cell_length_c   9.22426400
_cell_angle_alpha   90.00000000
_cell_angle_beta   90.00000000
_cell_angle_gamma   119.27301026
_symmetry_Int_Tables_number   1
_chemical_formula_structural   Dy4Al17Co6Si
_chemical_formula_sum   'Dy4 Al17 Co6 Si1'
_cell_volume   435.35483712
_cell_formula_units_Z   1
loop_
 _symmetry_equiv_pos_site_id
 _symmetry_equiv_pos_as_xyz
  1  'x, y, z'
loop_
 _atom_site_type_symbol
 _atom_site_label
 _atom_site_symmetry_multiplicity
 _atom_site_fract_x
 _atom_site_fract_y
 _atom_site_fract_z
 _atom_site_occupancy
  Dy  Dy0  1  0.992768  0.677313  0.250000  1
  Dy  Dy1  1  0.005947  0.328355  0.750000  1
  Dy  Dy2  1  0.677313  0.992768  0.250000  1
  Dy  Dy3  1  0.328355  0.005947  0.750000  1
  Al  Al4  1  0.876232  0.876232  0.750000  1
  Al  Al5  1  0.331610  0.331610  0.545660  1
  Al  Al6  1  0.665530  0.665530  0.041328  1
  Al  Al7  1  0.331610  0.331610  0.954340  1
  Al  Al8  1  0.665530  0.665530  0.458672  1
  Al  Al9  1  0.336267  0.554078  0.250000  1
  Al  Al10  1  0.661289  0.446025  0.750000  1
  Al  Al11  1  0.554078  0.336267  0.250000  1
  Al  Al12  1  0.446025  0.661289  0.750000  1
  Al  Al13  1  0.998901  0.336969  0.073537  1
  Al  Al14  1  0.002048  0.665143  0.571257  1
  Al  Al15  1  0.336969  0.998901  0.426463  1
  Al  Al16  1  0.665143  0.002048  0.928743  1
  Al  Al17  1  0.002048  0.665143  0.928743  1
  Al  Al18  1  0.998901  0.336969  0.426463  1
  Al  Al19  1  0.665143  0.002048  0.571257  1
  Al  Al20  1  0.336969  0.998901  0.073537  1
  Co  Co21  1  0.000882  0.000882  0.008435  1
  Co  Co22  1  0.000882  0.000882  0.491565  1
  Co  Co23  1  0.669563  0.327755  0.000761  1
  Co  Co24  1  0.327755  0.669563  0.499239  1
  Co  Co25  1  0.327755  0.669563  0.000761  1
  Co  Co26  1  0.669563  0.327755  0.499239  1
  Si  Si27  1  0.124922  0.124922  0.250000  1
