# generated using pymatgen
data_LiCuPdO4
_symmetry_space_group_name_H-M   'P 1'
_cell_length_a   6.13605217
_cell_length_b   6.13605208
_cell_length_c   6.13605263
_cell_angle_alpha   124.47662937
_cell_angle_beta   120.86011184
_cell_angle_gamma   85.46812756
_symmetry_Int_Tables_number   1
_chemical_formula_structural   LiCuPdO4
_chemical_formula_sum   'Li2 Cu2 Pd2 O8'
_cell_volume   156.02529069
_cell_formula_units_Z   2
loop_
 _symmetry_equiv_pos_site_id
 _symmetry_equiv_pos_as_xyz
  1  'x, y, z'
loop_
 _atom_site_type_symbol
 _atom_site_label
 _atom_site_symmetry_multiplicity
 _atom_site_fract_x
 _atom_site_fract_y
 _atom_site_fract_z
 _atom_site_occupancy
  Li  Li0  1  0.899315  0.149315  0.750000  1
  Li  Li1  1  0.100686  0.850686  0.250000  1
  Cu  Cu2  1  0.500000  0.000000  0.000000  1
  Cu  Cu3  1  0.500000  0.500000  0.500000  1
  Pd  Pd4  1  0.000000  0.500000  0.500000  1
  Pd  Pd5  1  0.500000  0.500000  0.000000  1
  O  O6  1  0.735985  0.276507  0.459478  1
  O  O7  1  0.763210  0.280607  0.017397  1
  O  O8  1  0.763210  0.745813  0.482603  1
  O  O9  1  0.317029  0.276507  0.040522  1
  O  O10  1  0.682971  0.723493  0.959478  1
  O  O11  1  0.236790  0.719393  0.982603  1
  O  O12  1  0.236790  0.254187  0.517397  1
  O  O13  1  0.264015  0.723493  0.540522  1
