# generated using pymatgen
data_HoU(PS3)4
_symmetry_space_group_name_H-M   'P 1'
_cell_length_a   6.98305800
_cell_length_b   6.98305800
_cell_length_c   9.72679700
_cell_angle_alpha   90.00000000
_cell_angle_beta   90.00000000
_cell_angle_gamma   90.00000000
_symmetry_Int_Tables_number   1
_chemical_formula_structural   HoU(PS3)4
_chemical_formula_sum   'Ho1 U1 P4 S12'
_cell_volume   474.30876537
_cell_formula_units_Z   1
loop_
 _symmetry_equiv_pos_site_id
 _symmetry_equiv_pos_as_xyz
  1  'x, y, z'
loop_
 _atom_site_type_symbol
 _atom_site_label
 _atom_site_symmetry_multiplicity
 _atom_site_fract_x
 _atom_site_fract_y
 _atom_site_fract_z
 _atom_site_occupancy
  Ho  Ho0  1  0.000000  0.000000  0.750000  1
  U  U1  1  0.000000  0.000000  0.250000  1
  P  P2  1  0.058221  0.345752  0.501710  1
  P  P3  1  0.941779  0.654248  0.501710  1
  P  P4  1  0.345752  0.941779  0.998290  1
  P  P5  1  0.654248  0.058221  0.998290  1
  S  S6  1  0.211909  0.316637  0.673404  1
  S  S7  1  0.688266  0.206042  0.178119  1
  S  S8  1  0.169288  0.176057  0.006992  1
  S  S9  1  0.823943  0.169288  0.493008  1
  S  S10  1  0.176057  0.830712  0.493008  1
  S  S11  1  0.830712  0.823943  0.006992  1
  S  S12  1  0.206042  0.311734  0.321881  1
  S  S13  1  0.683363  0.211909  0.826596  1
  S  S14  1  0.316637  0.788091  0.826596  1
  S  S15  1  0.793958  0.688266  0.321881  1
  S  S16  1  0.788091  0.683363  0.673404  1
  S  S17  1  0.311734  0.793958  0.178119  1
