# generated using pymatgen
data_Tb2Nd18Si15Pt
_symmetry_space_group_name_H-M   'P 1'
_cell_length_a   7.67563700
_cell_length_b   8.00039413
_cell_length_c   15.13592500
_cell_angle_alpha   90.00000000
_cell_angle_beta   90.00000000
_cell_angle_gamma   89.88144646
_symmetry_Int_Tables_number   1
_chemical_formula_structural   Tb2Nd18Si15Pt
_chemical_formula_sum   'Tb2 Nd18 Si15 Pt1'
_cell_volume   929.46672673
_cell_formula_units_Z   1
loop_
 _symmetry_equiv_pos_site_id
 _symmetry_equiv_pos_as_xyz
  1  'x, y, z'
loop_
 _atom_site_type_symbol
 _atom_site_label
 _atom_site_symmetry_multiplicity
 _atom_site_fract_x
 _atom_site_fract_y
 _atom_site_fract_z
 _atom_site_occupancy
  Tb  Tb0  1  0.851893  0.484098  0.250000  1
  Tb  Tb1  1  0.362678  0.020029  0.250000  1
  Nd  Nd2  1  0.139064  0.516229  0.750000  1
  Nd  Nd3  1  0.811727  0.320854  0.621195  1
  Nd  Nd4  1  0.462099  0.689784  0.900570  1
  Nd  Nd5  1  0.962987  0.812923  0.902090  1
  Nd  Nd6  1  0.193771  0.676727  0.125087  1
  Nd  Nd7  1  0.687195  0.818822  0.123637  1
  Nd  Nd8  1  0.311855  0.181817  0.878189  1
  Nd  Nd9  1  0.193771  0.676727  0.374913  1
  Nd  Nd10  1  0.035541  0.184016  0.098891  1
  Nd  Nd11  1  0.311855  0.181817  0.621811  1
  Nd  Nd12  1  0.532275  0.317920  0.402289  1
  Nd  Nd13  1  0.811727  0.320854  0.878805  1
  Nd  Nd14  1  0.962987  0.812923  0.597910  1
  Nd  Nd15  1  0.462099  0.689784  0.599430  1
  Nd  Nd16  1  0.035541  0.184016  0.401109  1
  Nd  Nd17  1  0.687195  0.818822  0.376363  1
  Nd  Nd18  1  0.637920  0.987128  0.750000  1
  Nd  Nd19  1  0.532275  0.317920  0.097711  1
  Si  Si20  1  0.239641  0.366697  0.250000  1
  Si  Si21  1  0.865325  0.525035  0.456830  1
  Si  Si22  1  0.518604  0.402635  0.750000  1
  Si  Si23  1  0.636054  0.027321  0.960642  1
  Si  Si24  1  0.015988  0.100062  0.750000  1
  Si  Si25  1  0.752007  0.621161  0.750000  1
  Si  Si26  1  0.750498  0.122001  0.250000  1
  Si  Si27  1  0.360859  0.976100  0.457391  1
  Si  Si28  1  0.987944  0.903728  0.250000  1
  Si  Si29  1  0.360859  0.976100  0.042609  1
  Si  Si30  1  0.636054  0.027321  0.539358  1
  Si  Si31  1  0.140414  0.473267  0.961837  1
  Si  Si32  1  0.140414  0.473267  0.538163  1
  Si  Si33  1  0.865325  0.525035  0.043170  1
  Si  Si34  1  0.249916  0.879625  0.750000  1
  Pt  Pt35  1  0.493637  0.587435  0.250000  1
