# generated using pymatgen
data_HfZr2ScMn8
_symmetry_space_group_name_H-M   'P 1'
_cell_length_a   4.89271400
_cell_length_b   4.89271397
_cell_length_c   8.23275200
_cell_angle_alpha   90.00000000
_cell_angle_beta   90.00000000
_cell_angle_gamma   120.00001376
_symmetry_Int_Tables_number   1
_chemical_formula_structural   HfZr2ScMn8
_chemical_formula_sum   'Hf1 Zr2 Sc1 Mn8'
_cell_volume   170.67710263
_cell_formula_units_Z   1
loop_
 _symmetry_equiv_pos_site_id
 _symmetry_equiv_pos_as_xyz
  1  'x, y, z'
loop_
 _atom_site_type_symbol
 _atom_site_label
 _atom_site_symmetry_multiplicity
 _atom_site_fract_x
 _atom_site_fract_y
 _atom_site_fract_z
 _atom_site_occupancy
  Hf  Hf0  1  0.666667  0.333333  0.564309  1
  Zr  Zr1  1  0.666667  0.333333  0.938340  1
  Zr  Zr2  1  0.333333  0.666667  0.433104  1
  Sc  Sc3  1  0.333333  0.666667  0.062901  1
  Mn  Mn4  1  0.000000  0.000000  0.500662  1
  Mn  Mn5  1  0.000000  0.000000  0.001129  1
  Mn  Mn6  1  0.170058  0.340115  0.749410  1
  Mn  Mn7  1  0.830012  0.169988  0.250442  1
  Mn  Mn8  1  0.830012  0.660023  0.250442  1
  Mn  Mn9  1  0.170058  0.829942  0.749410  1
  Mn  Mn10  1  0.659885  0.829942  0.749410  1
  Mn  Mn11  1  0.339977  0.169988  0.250442  1
