# generated using pymatgen
data_Tb3YGa4(IrPt)2
_symmetry_space_group_name_H-M   'P 1'
_cell_length_a   4.43099000
_cell_length_b   6.87149316
_cell_length_c   7.72036518
_cell_angle_alpha   89.97508225
_cell_angle_beta   90.00000000
_cell_angle_gamma   90.00000000
_symmetry_Int_Tables_number   1
_chemical_formula_structural   Tb3YGa4(IrPt)2
_chemical_formula_sum   'Tb3 Y1 Ga4 Ir2 Pt2'
_cell_volume   235.06593168
_cell_formula_units_Z   1
loop_
 _symmetry_equiv_pos_site_id
 _symmetry_equiv_pos_as_xyz
  1  'x, y, z'
loop_
 _atom_site_type_symbol
 _atom_site_label
 _atom_site_symmetry_multiplicity
 _atom_site_fract_x
 _atom_site_fract_y
 _atom_site_fract_z
 _atom_site_occupancy
  Tb  Tb0  1  0.250000  0.985881  0.303482  1
  Tb  Tb1  1  0.750000  0.021231  0.690324  1
  Tb  Tb2  1  0.750000  0.521038  0.809966  1
  Y  Y3  1  0.250000  0.485761  0.196855  1
  Ga  Ga4  1  0.250000  0.331772  0.569895  1
  Ga  Ga5  1  0.250000  0.831448  0.930055  1
  Ga  Ga6  1  0.750000  0.662648  0.423859  1
  Ga  Ga7  1  0.750000  0.163282  0.076049  1
  Ir  Ir8  1  0.750000  0.774642  0.101946  1
  Ir  Ir9  1  0.750000  0.273723  0.397976  1
  Pt  Pt10  1  0.250000  0.224207  0.896995  1
  Pt  Pt11  1  0.250000  0.724366  0.602599  1
