# generated using pymatgen
data_Tb8Y4InCo4Pd
_symmetry_space_group_name_H-M   'P 1'
_cell_length_a   8.36602020
_cell_length_b   8.36602606
_cell_length_c   8.36602842
_cell_angle_alpha   107.10725491
_cell_angle_beta   110.38388145
_cell_angle_gamma   110.94879802
_symmetry_Int_Tables_number   1
_chemical_formula_structural   Tb8Y4InCo4Pd
_chemical_formula_sum   'Tb8 Y4 In1 Co4 Pd1'
_cell_volume   450.16475312
_cell_formula_units_Z   1
loop_
 _symmetry_equiv_pos_site_id
 _symmetry_equiv_pos_as_xyz
  1  'x, y, z'
loop_
 _atom_site_type_symbol
 _atom_site_label
 _atom_site_symmetry_multiplicity
 _atom_site_fract_x
 _atom_site_fract_y
 _atom_site_fract_z
 _atom_site_occupancy
  Tb  Tb0  1  0.699060  0.286463  0.985523  1
  Tb  Tb1  1  0.300940  0.713537  0.014477  1
  Tb  Tb2  1  0.699060  0.713537  0.412597  1
  Tb  Tb3  1  0.300940  0.286463  0.587403  1
  Tb  Tb4  1  0.804513  0.118964  0.314450  1
  Tb  Tb5  1  0.804513  0.490064  0.685550  1
  Tb  Tb6  1  0.195487  0.881036  0.685550  1
  Tb  Tb7  1  0.195487  0.509936  0.314450  1
  Y  Y8  1  0.606697  0.794207  0.812490  1
  Y  Y9  1  0.981720  0.794208  0.187511  1
  Y  Y10  1  0.018280  0.205792  0.812489  1
  Y  Y11  1  0.393303  0.205793  0.187510  1
  In  In12  1  0.500000  0.000000  0.500000  1
  Co  Co13  1  0.880728  0.500000  0.380728  1
  Co  Co14  1  0.119272  0.500000  0.619272  1
  Co  Co15  1  0.000000  0.111569  0.111569  1
  Co  Co16  1  0.000000  0.888431  0.888431  1
  Pd  Pd17  1  0.500000  0.500000  0.000000  1
