# generated using pymatgen
data_Dy20OsRh11
_symmetry_space_group_name_H-M   'P 1'
_cell_length_a   10.89084900
_cell_length_b   10.89084900
_cell_length_c   6.39062500
_cell_angle_alpha   90.00000000
_cell_angle_beta   90.00000000
_cell_angle_gamma   90.00000000
_symmetry_Int_Tables_number   1
_chemical_formula_structural   Dy20OsRh11
_chemical_formula_sum   'Dy20 Os1 Rh11'
_cell_volume   757.99581412
_cell_formula_units_Z   1
loop_
 _symmetry_equiv_pos_site_id
 _symmetry_equiv_pos_as_xyz
  1  'x, y, z'
loop_
 _atom_site_type_symbol
 _atom_site_label
 _atom_site_symmetry_multiplicity
 _atom_site_fract_x
 _atom_site_fract_y
 _atom_site_fract_z
 _atom_site_occupancy
  Dy  Dy0  1  0.292549  0.087641  0.375571  1
  Dy  Dy1  1  0.293105  0.912512  0.881336  1
  Dy  Dy2  1  0.706895  0.087488  0.881336  1
  Dy  Dy3  1  0.707451  0.912359  0.375571  1
  Dy  Dy4  1  0.587488  0.793105  0.881336  1
  Dy  Dy5  1  0.587641  0.207451  0.375571  1
  Dy  Dy6  1  0.412359  0.792549  0.375571  1
  Dy  Dy7  1  0.412512  0.206895  0.881336  1
  Dy  Dy8  1  0.209427  0.411125  0.621259  1
  Dy  Dy9  1  0.209310  0.588496  0.120863  1
  Dy  Dy10  1  0.790690  0.411504  0.120863  1
  Dy  Dy11  1  0.790573  0.588875  0.621259  1
  Dy  Dy12  1  0.911504  0.709310  0.120863  1
  Dy  Dy13  1  0.911125  0.290573  0.621259  1
  Dy  Dy14  1  0.088875  0.709427  0.621259  1
  Dy  Dy15  1  0.088496  0.290690  0.120863  1
  Dy  Dy16  1  0.000000  0.000000  0.499443  1
  Dy  Dy17  1  0.000000  0.000000  0.999232  1
  Dy  Dy18  1  0.500000  0.500000  0.999232  1
  Dy  Dy19  1  0.500000  0.500000  0.499443  1
  Os  Os20  1  0.500000  0.000000  0.126446  1
  Rh  Rh21  1  0.847650  0.154404  0.250581  1
  Rh  Rh22  1  0.847639  0.846006  0.750120  1
  Rh  Rh23  1  0.152361  0.153994  0.750120  1
  Rh  Rh24  1  0.152350  0.845596  0.250581  1
  Rh  Rh25  1  0.653994  0.347639  0.750120  1
  Rh  Rh26  1  0.654404  0.652350  0.250581  1
  Rh  Rh27  1  0.345596  0.347650  0.250581  1
  Rh  Rh28  1  0.346006  0.652361  0.750120  1
  Rh  Rh29  1  0.500000  0.000000  0.624391  1
  Rh  Rh30  1  0.000000  0.500000  0.876326  1
  Rh  Rh31  1  0.000000  0.500000  0.376564  1
