# generated using pymatgen
data_Pu6HfNbSb10
_symmetry_space_group_name_H-M   'P 1'
_cell_length_a   9.24819500
_cell_length_b   9.24819455
_cell_length_c   6.19348100
_cell_angle_alpha   90.00000000
_cell_angle_beta   90.00000000
_cell_angle_gamma   120.00000519
_symmetry_Int_Tables_number   1
_chemical_formula_structural   Pu6HfNbSb10
_chemical_formula_sum   'Pu6 Hf1 Nb1 Sb10'
_cell_volume   458.75346144
_cell_formula_units_Z   1
loop_
 _symmetry_equiv_pos_site_id
 _symmetry_equiv_pos_as_xyz
  1  'x, y, z'
loop_
 _atom_site_type_symbol
 _atom_site_label
 _atom_site_symmetry_multiplicity
 _atom_site_fract_x
 _atom_site_fract_y
 _atom_site_fract_z
 _atom_site_occupancy
  Pu  Pu0  1  0.615663  0.000000  0.250713  1
  Pu  Pu1  1  0.384337  0.000000  0.749287  1
  Pu  Pu2  1  0.000000  0.615663  0.250713  1
  Pu  Pu3  1  0.000000  0.384337  0.749287  1
  Pu  Pu4  1  0.384337  0.384337  0.250713  1
  Pu  Pu5  1  0.615663  0.615663  0.749287  1
  Hf  Hf6  1  0.000000  0.000000  0.500000  1
  Nb  Nb7  1  0.000000  0.000000  0.000000  1
  Sb  Sb8  1  0.265841  0.000000  0.245414  1
  Sb  Sb9  1  0.734159  0.000000  0.754586  1
  Sb  Sb10  1  0.000000  0.265841  0.245414  1
  Sb  Sb11  1  0.000000  0.734159  0.754586  1
  Sb  Sb12  1  0.734159  0.734159  0.245414  1
  Sb  Sb13  1  0.265841  0.265841  0.754586  1
  Sb  Sb14  1  0.333333  0.666667  0.000000  1
  Sb  Sb15  1  0.666667  0.333333  0.000000  1
  Sb  Sb16  1  0.666667  0.333333  0.500000  1
  Sb  Sb17  1  0.333333  0.666667  0.500000  1
