# generated using pymatgen
data_Ho7FeO12
_symmetry_space_group_name_H-M   'P 1'
_cell_length_a   6.60785669
_cell_length_b   6.60785666
_cell_length_c   6.60785699
_cell_angle_alpha   93.31646576
_cell_angle_beta   93.31647556
_cell_angle_gamma   93.31646359
_symmetry_Int_Tables_number   1
_chemical_formula_structural   Ho7FeO12
_chemical_formula_sum   'Ho7 Fe1 O12'
_cell_volume   287.01572336
_cell_formula_units_Z   1
loop_
 _symmetry_equiv_pos_site_id
 _symmetry_equiv_pos_as_xyz
  1  'x, y, z'
loop_
 _atom_site_type_symbol
 _atom_site_label
 _atom_site_symmetry_multiplicity
 _atom_site_fract_x
 _atom_site_fract_y
 _atom_site_fract_z
 _atom_site_occupancy
  Ho  Ho0  1  0.739253  0.924197  0.435832  1
  Ho  Ho1  1  0.924197  0.435832  0.739253  1
  Ho  Ho2  1  0.435832  0.739253  0.924197  1
  Ho  Ho3  1  0.260747  0.075803  0.564168  1
  Ho  Ho4  1  0.075803  0.564168  0.260747  1
  Ho  Ho5  1  0.564168  0.260747  0.075803  1
  Ho  Ho6  1  0.000000  0.000000  0.000000  1
  Fe  Fe7  1  0.500000  0.500000  0.500000  1
  O  O8  1  0.589331  0.462551  0.801340  1
  O  O9  1  0.462551  0.801340  0.589331  1
  O  O10  1  0.801340  0.589331  0.462551  1
  O  O11  1  0.410669  0.537449  0.198660  1
  O  O12  1  0.537449  0.198660  0.410669  1
  O  O13  1  0.198660  0.410669  0.537449  1
  O  O14  1  0.068283  0.906968  0.318876  1
  O  O15  1  0.906968  0.318876  0.068283  1
  O  O16  1  0.681124  0.931717  0.093032  1
  O  O17  1  0.093032  0.681124  0.931717  1
  O  O18  1  0.931717  0.093032  0.681124  1
  O  O19  1  0.318876  0.068283  0.906968  1
