# generated using pymatgen
data_Th6Mg6Cd17P
_symmetry_space_group_name_H-M   'P 1'
_cell_length_a   9.98078093
_cell_length_b   10.04587441
_cell_length_c   10.04587347
_cell_angle_alpha   60.17535222
_cell_angle_beta   60.21411215
_cell_angle_gamma   60.21411011
_symmetry_Int_Tables_number   1
_chemical_formula_structural   Th6Mg6Cd17P
_chemical_formula_sum   'Th6 Mg6 Cd17 P1'
_cell_volume   715.48224556
_cell_formula_units_Z   1
loop_
 _symmetry_equiv_pos_site_id
 _symmetry_equiv_pos_as_xyz
  1  'x, y, z'
loop_
 _atom_site_type_symbol
 _atom_site_label
 _atom_site_symmetry_multiplicity
 _atom_site_fract_x
 _atom_site_fract_y
 _atom_site_fract_z
 _atom_site_occupancy
  Th  Th0  1  0.797118  0.796774  0.203226  1
  Th  Th1  1  0.202882  0.796774  0.203226  1
  Th  Th2  1  0.798642  0.201358  0.201358  1
  Th  Th3  1  0.202882  0.203226  0.796774  1
  Th  Th4  1  0.797118  0.203226  0.796774  1
  Th  Th5  1  0.201358  0.798642  0.798642  1
  Mg  Mg6  1  0.000000  0.000000  0.500000  1
  Mg  Mg7  1  0.500000  0.000000  0.500000  1
  Mg  Mg8  1  0.000000  0.500000  0.500000  1
  Mg  Mg9  1  0.500000  0.500000  0.000000  1
  Mg  Mg10  1  0.000000  0.500000  0.000000  1
  Mg  Mg11  1  0.500000  0.500000  0.500000  1
  Cd  Cd12  1  0.834419  0.832760  0.498401  1
  Cd  Cd13  1  0.834419  0.498401  0.832760  1
  Cd  Cd14  1  0.498965  0.832557  0.832557  1
  Cd  Cd15  1  0.835922  0.832557  0.832557  1
  Cd  Cd16  1  0.165581  0.167240  0.501599  1
  Cd  Cd17  1  0.165581  0.501599  0.167240  1
  Cd  Cd18  1  0.501035  0.167443  0.167443  1
  Cd  Cd19  1  0.164078  0.167443  0.167443  1
  Cd  Cd20  1  0.622921  0.616642  0.137517  1
  Cd  Cd21  1  0.622921  0.137517  0.616642  1
  Cd  Cd22  1  0.137508  0.620179  0.620179  1
  Cd  Cd23  1  0.622134  0.620179  0.620179  1
  Cd  Cd24  1  0.377079  0.383358  0.862483  1
  Cd  Cd25  1  0.377079  0.862483  0.383358  1
  Cd  Cd26  1  0.862492  0.379821  0.379821  1
  Cd  Cd27  1  0.377866  0.379821  0.379821  1
  Cd  Cd28  1  0.500000  0.000000  0.000000  1
  P  P29  1  0.000000  0.000000  0.000000  1
