# generated using pymatgen
data_Ca3Co(BrO3)8
_symmetry_space_group_name_H-M   'P 1'
_cell_length_a   5.74687547
_cell_length_b   11.19907484
_cell_length_c   11.27669680
_cell_angle_alpha   119.37034335
_cell_angle_beta   90.16288766
_cell_angle_gamma   90.25614323
_symmetry_Int_Tables_number   1
_chemical_formula_structural   Ca3Co(BrO3)8
_chemical_formula_sum   'Ca3 Co1 Br8 O24'
_cell_volume   632.46367407
_cell_formula_units_Z   1
loop_
 _symmetry_equiv_pos_site_id
 _symmetry_equiv_pos_as_xyz
  1  'x, y, z'
loop_
 _atom_site_type_symbol
 _atom_site_label
 _atom_site_symmetry_multiplicity
 _atom_site_fract_x
 _atom_site_fract_y
 _atom_site_fract_z
 _atom_site_occupancy
  Ca  Ca0  1  0.640246  0.238623  0.492878  1
  Ca  Ca1  1  0.141888  0.265504  0.007465  1
  Ca  Ca2  1  0.634775  0.733825  0.994491  1
  Co  Co3  1  0.150827  0.761305  0.508716  1
  Br  Br4  1  0.263971  0.430525  0.357870  1
  Br  Br5  1  0.781976  0.592917  0.647581  1
  Br  Br6  1  0.261540  0.912187  0.837264  1
  Br  Br7  1  0.763845  0.083027  0.146982  1
  Br  Br8  1  0.791858  0.066688  0.675721  1
  Br  Br9  1  0.270069  0.904881  0.319065  1
  Br  Br10  1  0.277497  0.413958  0.805470  1
  Br  Br11  1  0.789466  0.593221  0.207877  1
  O  O12  1  0.418218  0.877252  0.942326  1
  O  O13  1  0.918125  0.108817  0.035575  1
  O  O14  1  0.365131  0.802934  0.679127  1
  O  O15  1  0.869652  0.196879  0.301647  1
  O  O16  1  0.373912  0.322411  0.202970  1
  O  O17  1  0.882423  0.700115  0.805917  1
  O  O18  1  0.913075  0.203296  0.810411  1
  O  O19  1  0.408249  0.776279  0.186916  1
  O  O20  1  0.946146  0.928417  0.653844  1
  O  O21  1  0.411176  0.047310  0.343992  1
  O  O22  1  0.366529  0.067288  0.872451  1
  O  O23  1  0.861867  0.931281  0.123682  1
  O  O24  1  0.407274  0.277711  0.677754  1
  O  O25  1  0.936667  0.724446  0.337249  1
  O  O26  1  0.352000  0.405467  0.945840  1
  O  O27  1  0.858384  0.608343  0.070378  1
  O  O28  1  0.424229  0.551602  0.821931  1
  O  O29  1  0.920514  0.447291  0.179007  1
  O  O30  1  0.356862  0.587146  0.386318  1
  O  O31  1  0.875840  0.437555  0.617418  1
  O  O32  1  0.426178  0.401007  0.464881  1
  O  O33  1  0.944357  0.622019  0.538905  1
  O  O34  1  0.860019  0.090488  0.543448  1
  O  O35  1  0.344816  0.887989  0.456629  1
