# generated using pymatgen
data_Ho8Zr11Si16Os
_symmetry_space_group_name_H-M   'P 1'
_cell_length_a   7.04405283
_cell_length_b   7.25821931
_cell_length_c   13.85409900
_cell_angle_alpha   90.00000000
_cell_angle_beta   90.00000000
_cell_angle_gamma   89.92091268
_symmetry_Int_Tables_number   1
_chemical_formula_structural   Ho8Zr11Si16Os
_chemical_formula_sum   'Ho8 Zr11 Si16 Os1'
_cell_volume   708.32172708
_cell_formula_units_Z   1
loop_
 _symmetry_equiv_pos_site_id
 _symmetry_equiv_pos_as_xyz
  1  'x, y, z'
loop_
 _atom_site_type_symbol
 _atom_site_label
 _atom_site_symmetry_multiplicity
 _atom_site_fract_x
 _atom_site_fract_y
 _atom_site_fract_z
 _atom_site_occupancy
  Ho  Ho0  1  0.013113  0.177112  0.094615  1
  Ho  Ho1  1  0.988400  0.823519  0.900768  1
  Ho  Ho2  1  0.487093  0.674726  0.901869  1
  Ho  Ho3  1  0.988400  0.823519  0.599232  1
  Ho  Ho4  1  0.515021  0.323274  0.095876  1
  Ho  Ho5  1  0.013113  0.177112  0.405385  1
  Ho  Ho6  1  0.515021  0.323274  0.404124  1
  Ho  Ho7  1  0.487093  0.674726  0.598131  1
  Zr  Zr8  1  0.845546  0.501237  0.250000  1
  Zr  Zr9  1  0.343765  0.997851  0.250000  1
  Zr  Zr10  1  0.654889  0.002484  0.750000  1
  Zr  Zr11  1  0.325389  0.176076  0.625884  1
  Zr  Zr12  1  0.670952  0.823223  0.375982  1
  Zr  Zr13  1  0.172008  0.676366  0.377537  1
  Zr  Zr14  1  0.670952  0.823223  0.124018  1
  Zr  Zr15  1  0.828426  0.327019  0.627174  1
  Zr  Zr16  1  0.325389  0.176076  0.874116  1
  Zr  Zr17  1  0.828426  0.327019  0.872826  1
  Zr  Zr18  1  0.172008  0.676366  0.122463  1
  Si  Si19  1  0.033306  0.115635  0.750000  1
  Si  Si20  1  0.967498  0.880425  0.250000  1
  Si  Si21  1  0.467732  0.615328  0.250000  1
  Si  Si22  1  0.519070  0.389115  0.750000  1
  Si  Si23  1  0.283019  0.861694  0.750000  1
  Si  Si24  1  0.720533  0.128397  0.250000  1
  Si  Si25  1  0.218517  0.370602  0.250000  1
  Si  Si26  1  0.793711  0.628131  0.750000  1
  Si  Si27  1  0.154929  0.469554  0.547207  1
  Si  Si28  1  0.842407  0.533950  0.462306  1
  Si  Si29  1  0.344758  0.969944  0.459757  1
  Si  Si30  1  0.842407  0.533950  0.037694  1
  Si  Si31  1  0.657684  0.032627  0.541631  1
  Si  Si32  1  0.154929  0.469554  0.952793  1
  Si  Si33  1  0.657684  0.032627  0.958369  1
  Si  Si34  1  0.344758  0.969944  0.040243  1
  Os  Os35  1  0.152054  0.494322  0.750000  1
