# generated using pymatgen
data_Ba4Ir6O19
_symmetry_space_group_name_H-M   'P 1'
_cell_length_a   8.28364996
_cell_length_b   8.28359431
_cell_length_c   8.28340601
_cell_angle_alpha   109.47302520
_cell_angle_beta   109.47469437
_cell_angle_gamma   109.46515667
_symmetry_Int_Tables_number   1
_chemical_formula_structural   Ba4Ir6O19
_chemical_formula_sum   'Ba4 Ir6 O19'
_cell_volume   437.55416930
_cell_formula_units_Z   1
loop_
 _symmetry_equiv_pos_site_id
 _symmetry_equiv_pos_as_xyz
  1  'x, y, z'
loop_
 _atom_site_type_symbol
 _atom_site_label
 _atom_site_symmetry_multiplicity
 _atom_site_fract_x
 _atom_site_fract_y
 _atom_site_fract_z
 _atom_site_occupancy
  Ba  Ba0  1  0.999797  0.308195  0.000042  1
  Ba  Ba1  1  0.000159  0.999988  0.308297  1
  Ba  Ba2  1  0.691796  0.691720  0.691763  1
  Ba  Ba3  1  0.308282  0.000157  0.999955  1
  Ir  Ir4  1  0.499977  0.340417  0.840406  1
  Ir  Ir5  1  0.499988  0.659632  0.159624  1
  Ir  Ir6  1  0.340395  0.840370  0.500017  1
  Ir  Ir7  1  0.659672  0.159645  0.500031  1
  Ir  Ir8  1  0.840410  0.499991  0.340418  1
  Ir  Ir9  1  0.159609  0.500001  0.659621  1
  O  O10  1  0.696530  0.339052  0.050762  1
  O  O11  1  0.660859  0.357361  0.711641  1
  O  O12  1  0.288450  0.645836  0.949269  1
  O  O13  1  0.642688  0.303511  0.354288  1
  O  O14  1  0.357282  0.711564  0.660847  1
  O  O15  1  0.949286  0.288449  0.645730  1
  O  O16  1  0.050727  0.696409  0.339077  1
  O  O17  1  0.000029  0.635998  0.636001  1
  O  O18  1  0.635971  0.636029  0.999997  1
  O  O19  1  0.711584  0.660824  0.357349  1
  O  O20  1  0.339067  0.050758  0.696451  1
  O  O21  1  0.636033  0.000011  0.636057  1
  O  O22  1  0.000039  0.364016  0.364037  1
  O  O23  1  0.645762  0.949220  0.288421  1
  O  O24  1  0.354273  0.642651  0.303481  1
  O  O25  1  0.303404  0.354193  0.642493  1
  O  O26  1  0.363962  0.999980  0.363939  1
  O  O27  1  0.363964  0.364023  0.999986  1
  O  O28  1  0.000005  0.999998  0.000003  1
