# generated using pymatgen
data_TbHo2Sc2Sn3
_symmetry_space_group_name_H-M   'P 1'
_cell_length_a   8.79462833
_cell_length_b   8.78137353
_cell_length_c   6.27391100
_cell_angle_alpha   90.00000000
_cell_angle_beta   90.00000000
_cell_angle_gamma   119.95014903
_symmetry_Int_Tables_number   1
_chemical_formula_structural   TbHo2Sc2Sn3
_chemical_formula_sum   'Tb2 Ho4 Sc4 Sn6'
_cell_volume   419.82361834
_cell_formula_units_Z   2
loop_
 _symmetry_equiv_pos_site_id
 _symmetry_equiv_pos_as_xyz
  1  'x, y, z'
loop_
 _atom_site_type_symbol
 _atom_site_label
 _atom_site_symmetry_multiplicity
 _atom_site_fract_x
 _atom_site_fract_y
 _atom_site_fract_z
 _atom_site_occupancy
  Tb  Tb0  1  0.000000  0.761165  0.750000  1
  Tb  Tb1  1  0.000000  0.238835  0.250000  1
  Ho  Ho2  1  0.760693  0.760743  0.250000  1
  Ho  Ho3  1  0.760693  0.999950  0.750000  1
  Ho  Ho4  1  0.239307  0.239257  0.750000  1
  Ho  Ho5  1  0.239307  0.000050  0.250000  1
  Sc  Sc6  1  0.333346  0.666674  0.500000  1
  Sc  Sc7  1  0.666654  0.333326  0.000000  1
  Sc  Sc8  1  0.666654  0.333326  0.500000  1
  Sc  Sc9  1  0.333346  0.666674  0.000000  1
  Sn  Sn10  1  0.400320  0.000273  0.750000  1
  Sn  Sn11  1  0.400320  0.400048  0.250000  1
  Sn  Sn12  1  0.000000  0.600470  0.250000  1
  Sn  Sn13  1  0.000000  0.399530  0.750000  1
  Sn  Sn14  1  0.599680  0.599952  0.750000  1
  Sn  Sn15  1  0.599680  0.999727  0.250000  1
