# generated using pymatgen
data_Er2Tm14MgIn3Rh4
_symmetry_space_group_name_H-M   'P 1'
_cell_length_a   9.54404913
_cell_length_b   9.53589377
_cell_length_c   9.54296341
_cell_angle_alpha   60.05239893
_cell_angle_beta   60.04291519
_cell_angle_gamma   60.02480528
_symmetry_Int_Tables_number   1
_chemical_formula_structural   Er2Tm14MgIn3Rh4
_chemical_formula_sum   'Er2 Tm14 Mg1 In3 Rh4'
_cell_volume   614.69015104
_cell_formula_units_Z   1
loop_
 _symmetry_equiv_pos_site_id
 _symmetry_equiv_pos_as_xyz
  1  'x, y, z'
loop_
 _atom_site_type_symbol
 _atom_site_label
 _atom_site_symmetry_multiplicity
 _atom_site_fract_x
 _atom_site_fract_y
 _atom_site_fract_z
 _atom_site_occupancy
  Er  Er0  1  0.061358  0.061496  0.437740  1
  Er  Er1  1  0.435048  0.065763  0.434614  1
  Tm  Tm2  1  0.061341  0.438434  0.061016  1
  Tm  Tm3  1  0.047277  0.650144  0.650185  1
  Tm  Tm4  1  0.435263  0.435897  0.064019  1
  Tm  Tm5  1  0.650382  0.046616  0.649888  1
  Tm  Tm6  1  0.187863  0.812029  0.187532  1
  Tm  Tm7  1  0.187758  0.187959  0.812090  1
  Tm  Tm8  1  0.809558  0.809337  0.191178  1
  Tm  Tm9  1  0.438691  0.060905  0.060358  1
  Tm  Tm10  1  0.812390  0.187786  0.187289  1
  Tm  Tm11  1  0.063555  0.436746  0.435680  1
  Tm  Tm12  1  0.809431  0.191219  0.809697  1
  Tm  Tm13  1  0.191154  0.809365  0.809856  1
  Tm  Tm14  1  0.649951  0.649330  0.047752  1
  Tm  Tm15  1  0.651703  0.652411  0.652156  1
  Mg  Mg16  1  0.422272  0.422499  0.423072  1
  In  In17  1  0.748368  0.417333  0.417699  1
  In  In18  1  0.418074  0.748155  0.417752  1
  In  In19  1  0.417443  0.417195  0.748828  1
  Rh  Rh20  1  0.859248  0.857668  0.425790  1
  Rh  Rh21  1  0.856998  0.856971  0.858056  1
  Rh  Rh22  1  0.426195  0.858114  0.859513  1
  Rh  Rh23  1  0.858679  0.426631  0.858241  1
