# generated using pymatgen
data_TmCr(PIr)2
_symmetry_space_group_name_H-M   'P 1'
_cell_length_a   3.86602700
_cell_length_b   11.09570700
_cell_length_c   12.80464300
_cell_angle_alpha   90.00000000
_cell_angle_beta   90.00000000
_cell_angle_gamma   90.00000000
_symmetry_Int_Tables_number   1
_chemical_formula_structural   TmCr(PIr)2
_chemical_formula_sum   'Tm6 Cr6 P12 Ir12'
_cell_volume   549.27184396
_cell_formula_units_Z   6
loop_
 _symmetry_equiv_pos_site_id
 _symmetry_equiv_pos_as_xyz
  1  'x, y, z'
loop_
 _atom_site_type_symbol
 _atom_site_label
 _atom_site_symmetry_multiplicity
 _atom_site_fract_x
 _atom_site_fract_y
 _atom_site_fract_z
 _atom_site_occupancy
  Tm  Tm0  1  0.000000  0.500000  0.518432  1
  Tm  Tm1  1  0.500000  0.000000  0.480686  1
  Tm  Tm2  1  0.500000  0.816589  0.202607  1
  Tm  Tm3  1  0.500000  0.183411  0.202607  1
  Tm  Tm4  1  0.000000  0.678092  0.795148  1
  Tm  Tm5  1  0.000000  0.321908  0.795148  1
  Cr  Cr6  1  0.500000  0.500000  0.162352  1
  Cr  Cr7  1  0.000000  0.000000  0.839863  1
  Cr  Cr8  1  0.000000  0.500000  0.987706  1
  Cr  Cr9  1  0.500000  0.000000  0.010529  1
  Cr  Cr10  1  0.500000  0.339213  0.995982  1
  Cr  Cr11  1  0.500000  0.660787  0.995982  1
  P  P12  1  0.500000  0.500000  0.879744  1
  P  P13  1  0.000000  0.000000  0.117336  1
  P  P14  1  0.500000  0.500000  0.347886  1
  P  P15  1  0.000000  0.000000  0.653826  1
  P  P16  1  0.500000  0.313046  0.619063  1
  P  P17  1  0.500000  0.686954  0.619063  1
  P  P18  1  0.000000  0.184470  0.380274  1
  P  P19  1  0.000000  0.815530  0.380274  1
  P  P20  1  0.500000  0.841904  0.893138  1
  P  P21  1  0.500000  0.158096  0.893138  1
  P  P22  1  0.000000  0.648101  0.108375  1
  P  P23  1  0.000000  0.351899  0.108375  1
  Ir  Ir24  1  0.500000  0.500000  0.696217  1
  Ir  Ir25  1  0.000000  0.000000  0.297859  1
  Ir  Ir26  1  0.000000  0.170882  0.006700  1
  Ir  Ir27  1  0.000000  0.829118  0.006700  1
  Ir  Ir28  1  0.500000  0.293171  0.430620  1
  Ir  Ir29  1  0.500000  0.706829  0.430620  1
  Ir  Ir30  1  0.000000  0.203004  0.569127  1
  Ir  Ir31  1  0.000000  0.796996  0.569127  1
  Ir  Ir32  1  0.500000  0.873078  0.714712  1
  Ir  Ir33  1  0.500000  0.126922  0.714712  1
  Ir  Ir34  1  0.000000  0.626717  0.288037  1
  Ir  Ir35  1  0.000000  0.373283  0.288037  1
