# generated using pymatgen
data_Er3TmGa12Ir
_symmetry_space_group_name_H-M   'P 1'
_cell_length_a   7.42722744
_cell_length_b   7.42358272
_cell_length_c   7.42358311
_cell_angle_alpha   109.46127106
_cell_angle_beta   109.48117349
_cell_angle_gamma   109.48116244
_symmetry_Int_Tables_number   1
_chemical_formula_structural   Er3TmGa12Ir
_chemical_formula_sum   'Er3 Tm1 Ga12 Ir1'
_cell_volume   315.04938180
_cell_formula_units_Z   1
loop_
 _symmetry_equiv_pos_site_id
 _symmetry_equiv_pos_as_xyz
  1  'x, y, z'
loop_
 _atom_site_type_symbol
 _atom_site_label
 _atom_site_symmetry_multiplicity
 _atom_site_fract_x
 _atom_site_fract_y
 _atom_site_fract_z
 _atom_site_occupancy
  Er  Er0  1  0.000000  0.000000  0.500000  1
  Er  Er1  1  0.000000  0.500000  0.000000  1
  Er  Er2  1  0.500000  0.500000  0.500000  1
  Tm  Tm3  1  0.500000  0.000000  0.000000  1
  Ga  Ga4  1  0.749976  0.249976  0.499952  1
  Ga  Ga5  1  0.749976  0.499952  0.249976  1
  Ga  Ga6  1  0.500000  0.249976  0.750024  1
  Ga  Ga7  1  0.250024  0.500048  0.750024  1
  Ga  Ga8  1  0.250024  0.750024  0.500048  1
  Ga  Ga9  1  0.500000  0.750024  0.249976  1
  Ga  Ga10  1  0.707015  0.707048  0.000000  1
  Ga  Ga11  1  0.292985  0.000000  0.292952  1
  Ga  Ga12  1  0.999966  0.292952  0.292952  1
  Ga  Ga13  1  0.292985  0.292952  0.000000  1
  Ga  Ga14  1  0.707015  0.000000  0.707048  1
  Ga  Ga15  1  0.000034  0.707048  0.707048  1
  Ir  Ir16  1  0.000000  0.000000  0.000000  1
