# generated using pymatgen
data_Y8Th4TcOs3
_symmetry_space_group_name_H-M   'P 1'
_cell_length_a   6.40091380
_cell_length_b   7.33754506
_cell_length_c   9.54615400
_cell_angle_alpha   90.00000000
_cell_angle_beta   90.00000000
_cell_angle_gamma   89.92228968
_symmetry_Int_Tables_number   1
_chemical_formula_structural   Y8Th4TcOs3
_chemical_formula_sum   'Y8 Th4 Tc1 Os3'
_cell_volume   448.35373999
_cell_formula_units_Z   1
loop_
 _symmetry_equiv_pos_site_id
 _symmetry_equiv_pos_as_xyz
  1  'x, y, z'
loop_
 _atom_site_type_symbol
 _atom_site_label
 _atom_site_symmetry_multiplicity
 _atom_site_fract_x
 _atom_site_fract_y
 _atom_site_fract_z
 _atom_site_occupancy
  Y  Y0  1  0.333325  0.672527  0.065805  1
  Y  Y1  1  0.170133  0.174888  0.433321  1
  Y  Y2  1  0.667598  0.326749  0.565731  1
  Y  Y3  1  0.834406  0.826371  0.932395  1
  Y  Y4  1  0.667598  0.326749  0.934269  1
  Y  Y5  1  0.834406  0.826371  0.567605  1
  Y  Y6  1  0.333325  0.672527  0.434195  1
  Y  Y7  1  0.170133  0.174888  0.066679  1
  Th  Th8  1  0.853408  0.550517  0.250000  1
  Th  Th9  1  0.649707  0.045575  0.250000  1
  Th  Th10  1  0.151515  0.453191  0.750000  1
  Th  Th11  1  0.349820  0.953492  0.750000  1
  Tc  Tc12  1  0.014081  0.867434  0.250000  1
  Os  Os13  1  0.469986  0.372756  0.250000  1
  Os  Os14  1  0.967135  0.128626  0.750000  1
  Os  Os15  1  0.533427  0.627339  0.750000  1
