# generated using pymatgen
data_ErTm9(InBi)3
_symmetry_space_group_name_H-M   'P 1'
_cell_length_a   6.48455600
_cell_length_b   8.93655566
_cell_length_c   8.94434388
_cell_angle_alpha   119.97119279
_cell_angle_beta   90.00057412
_cell_angle_gamma   89.99885569
_symmetry_Int_Tables_number   1
_chemical_formula_structural   ErTm9(InBi)3
_chemical_formula_sum   'Er1 Tm9 In3 Bi3'
_cell_volume   449.00949351
_cell_formula_units_Z   1
loop_
 _symmetry_equiv_pos_site_id
 _symmetry_equiv_pos_as_xyz
  1  'x, y, z'
loop_
 _atom_site_type_symbol
 _atom_site_label
 _atom_site_symmetry_multiplicity
 _atom_site_fract_x
 _atom_site_fract_y
 _atom_site_fract_z
 _atom_site_occupancy
  Er  Er0  1  0.749981  0.235925  0.000000  1
  Tm  Tm1  1  0.492253  0.333345  0.666652  1
  Tm  Tm2  1  0.492253  0.666693  0.333348  1
  Tm  Tm3  1  0.007751  0.666702  0.333349  1
  Tm  Tm4  1  0.007751  0.333354  0.666651  1
  Tm  Tm5  1  0.750001  0.763831  0.763991  1
  Tm  Tm6  1  0.750001  0.999840  0.236009  1
  Tm  Tm7  1  0.250008  0.762488  0.000000  1
  Tm  Tm8  1  0.249997  0.237783  0.237777  1
  Tm  Tm9  1  0.249997  0.000006  0.762223  1
  In  In10  1  0.249994  0.393495  0.000000  1
  In  In11  1  0.250006  0.606466  0.606432  1
  In  In12  1  0.250006  0.000033  0.393568  1
  Bi  Bi13  1  0.749999  0.603796  0.000000  1
  Bi  Bi14  1  0.750000  0.396421  0.396598  1
  Bi  Bi15  1  0.750000  0.999824  0.603402  1
