# generated using pymatgen
data_Ho2LuMg3Pb2Au
_symmetry_space_group_name_H-M   'P 1'
_cell_length_a   7.52785164
_cell_length_b   7.52785144
_cell_length_c   4.48663900
_cell_angle_alpha   90.00000000
_cell_angle_beta   90.00000000
_cell_angle_gamma   119.94867073
_symmetry_Int_Tables_number   1
_chemical_formula_structural   Ho2LuMg3Pb2Au
_chemical_formula_sum   'Ho2 Lu1 Mg3 Pb2 Au1'
_cell_volume   220.30190216
_cell_formula_units_Z   1
loop_
 _symmetry_equiv_pos_site_id
 _symmetry_equiv_pos_as_xyz
  1  'x, y, z'
loop_
 _atom_site_type_symbol
 _atom_site_label
 _atom_site_symmetry_multiplicity
 _atom_site_fract_x
 _atom_site_fract_y
 _atom_site_fract_z
 _atom_site_occupancy
  Ho  Ho0  1  0.595360  0.000010  0.000000  1
  Ho  Ho1  1  0.000010  0.595360  0.000000  1
  Lu  Lu2  1  0.404279  0.404279  0.000000  1
  Mg  Mg3  1  0.233092  0.001572  0.500000  1
  Mg  Mg4  1  0.001572  0.233092  0.500000  1
  Mg  Mg5  1  0.764993  0.764993  0.500000  1
  Pb  Pb6  1  0.333615  0.666434  0.500000  1
  Pb  Pb7  1  0.666434  0.333615  0.500000  1
  Au  Au8  1  0.000643  0.000643  0.000000  1
