# generated using pymatgen
data_Pr2HoEr(Sn5Rh3)2
_symmetry_space_group_name_H-M   'P 1'
_cell_length_a   13.51671147
_cell_length_b   13.51671168
_cell_length_c   7.27217632
_cell_angle_alpha   90.00013837
_cell_angle_beta   89.99986079
_cell_angle_gamma   160.89118905
_symmetry_Int_Tables_number   1
_chemical_formula_structural   Pr2HoEr(Sn5Rh3)2
_chemical_formula_sum   'Pr2 Ho1 Er1 Sn10 Rh6'
_cell_volume   434.94702411
_cell_formula_units_Z   1
loop_
 _symmetry_equiv_pos_site_id
 _symmetry_equiv_pos_as_xyz
  1  'x, y, z'
loop_
 _atom_site_type_symbol
 _atom_site_label
 _atom_site_symmetry_multiplicity
 _atom_site_fract_x
 _atom_site_fract_y
 _atom_site_fract_z
 _atom_site_occupancy
  Pr  Pr0  1  0.171913  0.828087  0.745063  1
  Pr  Pr1  1  0.828030  0.171970  0.245121  1
  Ho  Ho2  1  0.523725  0.476275  0.262480  1
  Er  Er3  1  0.476116  0.523884  0.762183  1
  Sn  Sn4  1  0.881139  0.118861  0.769233  1
  Sn  Sn5  1  0.118922  0.881078  0.269472  1
  Sn  Sn6  1  0.704554  0.295446  0.448068  1
  Sn  Sn7  1  0.295567  0.704433  0.948055  1
  Sn  Sn8  1  0.594792  0.405208  0.887849  1
  Sn  Sn9  1  0.405098  0.594902  0.387685  1
  Sn  Sn10  1  0.953246  0.046754  0.101438  1
  Sn  Sn11  1  0.046637  0.953363  0.601882  1
  Sn  Sn12  1  0.290487  0.709513  0.525001  1
  Sn  Sn13  1  0.709546  0.290454  0.024819  1
  Rh  Rh14  1  0.049999  0.950001  0.983154  1
  Rh  Rh15  1  0.949914  0.050086  0.483622  1
  Rh  Rh16  1  0.777729  0.222271  0.736127  1
  Rh  Rh17  1  0.222375  0.777625  0.235948  1
  Rh  Rh18  1  0.395638  0.604362  0.013109  1
  Rh  Rh19  1  0.604576  0.395424  0.513692  1
