# generated using pymatgen
data_Lu20GaBi10Sb
_symmetry_space_group_name_H-M   'P 1'
_cell_length_a   8.04329018
_cell_length_b   9.33195700
_cell_length_c   11.73238700
_cell_angle_alpha   90.00000000
_cell_angle_beta   89.90447482
_cell_angle_gamma   90.00000000
_symmetry_Int_Tables_number   1
_chemical_formula_structural   Lu20GaBi10Sb
_chemical_formula_sum   'Lu20 Ga1 Bi10 Sb1'
_cell_volume   880.62749819
_cell_formula_units_Z   1
loop_
 _symmetry_equiv_pos_site_id
 _symmetry_equiv_pos_as_xyz
  1  'x, y, z'
loop_
 _atom_site_type_symbol
 _atom_site_label
 _atom_site_symmetry_multiplicity
 _atom_site_fract_x
 _atom_site_fract_y
 _atom_site_fract_z
 _atom_site_occupancy
  Lu  Lu0  1  0.183597  0.573399  0.445449  1
  Lu  Lu1  1  0.691621  0.935962  0.060064  1
  Lu  Lu2  1  0.809256  0.051673  0.559014  1
  Lu  Lu3  1  0.310582  0.430669  0.943142  1
  Lu  Lu4  1  0.809256  0.448327  0.559014  1
  Lu  Lu5  1  0.310582  0.069331  0.943142  1
  Lu  Lu6  1  0.183597  0.926601  0.445449  1
  Lu  Lu7  1  0.691621  0.564038  0.060064  1
  Lu  Lu8  1  0.023879  0.750000  0.990154  1
  Lu  Lu9  1  0.536620  0.750000  0.509200  1
  Lu  Lu10  1  0.973818  0.250000  0.011157  1
  Lu  Lu11  1  0.479946  0.250000  0.490576  1
  Lu  Lu12  1  0.173332  0.750000  0.709369  1
  Lu  Lu13  1  0.696137  0.750000  0.777358  1
  Lu  Lu14  1  0.809406  0.250000  0.280362  1
  Lu  Lu15  1  0.314468  0.250000  0.213384  1
  Lu  Lu16  1  0.853540  0.750000  0.293168  1
  Lu  Lu17  1  0.350049  0.750000  0.215796  1
  Lu  Lu18  1  0.152374  0.250000  0.717534  1
  Lu  Lu19  1  0.647282  0.250000  0.784634  1
  Ga  Ga20  1  0.904654  0.750000  0.539565  1
  Bi  Bi21  1  0.937862  0.495460  0.824992  1
  Bi  Bi22  1  0.436527  0.000965  0.676190  1
  Bi  Bi23  1  0.062927  0.996300  0.176435  1
  Bi  Bi24  1  0.560538  0.502298  0.323129  1
  Bi  Bi25  1  0.062927  0.503700  0.176435  1
  Bi  Bi26  1  0.560538  0.997702  0.323129  1
  Bi  Bi27  1  0.937862  0.004540  0.824992  1
  Bi  Bi28  1  0.436527  0.499035  0.676190  1
  Bi  Bi29  1  0.404849  0.750000  0.952482  1
  Bi  Bi30  1  0.095345  0.250000  0.456690  1
  Sb  Sb31  1  0.598478  0.250000  0.041746  1
