# generated using pymatgen
data_CsCaAlF6
_symmetry_space_group_name_H-M   'P 1'
_cell_length_a   7.37573800
_cell_length_b   7.90906200
_cell_length_c   10.51629900
_cell_angle_alpha   90.00000000
_cell_angle_beta   90.00000000
_cell_angle_gamma   90.00000000
_symmetry_Int_Tables_number   1
_chemical_formula_structural   CsCaAlF6
_chemical_formula_sum   'Cs4 Ca4 Al4 F24'
_cell_volume   613.47008087
_cell_formula_units_Z   4
loop_
 _symmetry_equiv_pos_site_id
 _symmetry_equiv_pos_as_xyz
  1  'x, y, z'
loop_
 _atom_site_type_symbol
 _atom_site_label
 _atom_site_symmetry_multiplicity
 _atom_site_fract_x
 _atom_site_fract_y
 _atom_site_fract_z
 _atom_site_occupancy
  Cs  Cs0  1  0.250000  0.995721  0.639573  1
  Cs  Cs1  1  0.750000  0.004279  0.360427  1
  Cs  Cs2  1  0.250000  0.495721  0.860427  1
  Cs  Cs3  1  0.750000  0.504279  0.139573  1
  Ca  Ca4  1  0.250000  0.755472  0.251902  1
  Ca  Ca5  1  0.750000  0.244528  0.748098  1
  Ca  Ca6  1  0.250000  0.255472  0.248098  1
  Ca  Ca7  1  0.750000  0.744528  0.751902  1
  Al  Al8  1  0.000000  0.500000  0.500000  1
  Al  Al9  1  0.500000  0.500000  0.500000  1
  Al  Al10  1  0.500000  0.000000  0.000000  1
  Al  Al11  1  0.000000  0.000000  0.000000  1
  F  F12  1  0.979631  0.331185  0.616756  1
  F  F13  1  0.479631  0.668815  0.383244  1
  F  F14  1  0.520369  0.831185  0.883244  1
  F  F15  1  0.020369  0.168815  0.116756  1
  F  F16  1  0.020369  0.668815  0.383244  1
  F  F17  1  0.520369  0.331185  0.616756  1
  F  F18  1  0.479631  0.168815  0.116756  1
  F  F19  1  0.979631  0.831185  0.883244  1
  F  F20  1  0.986449  0.156033  0.873070  1
  F  F21  1  0.486449  0.843967  0.126930  1
  F  F22  1  0.513551  0.656033  0.626930  1
  F  F23  1  0.013551  0.343967  0.373070  1
  F  F24  1  0.750000  0.992995  0.649415  1
  F  F25  1  0.250000  0.007005  0.350585  1
  F  F26  1  0.750000  0.492995  0.850585  1
  F  F27  1  0.250000  0.507005  0.149415  1
  F  F28  1  0.750000  0.006122  0.018864  1
  F  F29  1  0.250000  0.993878  0.981136  1
  F  F30  1  0.750000  0.506122  0.481136  1
  F  F31  1  0.250000  0.493878  0.518864  1
  F  F32  1  0.986449  0.656033  0.626930  1
  F  F33  1  0.486449  0.343967  0.373070  1
  F  F34  1  0.513551  0.156033  0.873070  1
  F  F35  1  0.013551  0.843967  0.126930  1
