# generated using pymatgen
data_K2Te13
_symmetry_space_group_name_H-M   'P 1'
_cell_length_a   7.21045200
_cell_length_b   13.75834200
_cell_length_c   22.86490100
_cell_angle_alpha   90.00000000
_cell_angle_beta   90.00000000
_cell_angle_gamma   90.00000000
_symmetry_Int_Tables_number   1
_chemical_formula_structural   K2Te13
_chemical_formula_sum   'K8 Te52'
_cell_volume   2268.28654268
_cell_formula_units_Z   4
loop_
 _symmetry_equiv_pos_site_id
 _symmetry_equiv_pos_as_xyz
  1  'x, y, z'
loop_
 _atom_site_type_symbol
 _atom_site_label
 _atom_site_symmetry_multiplicity
 _atom_site_fract_x
 _atom_site_fract_y
 _atom_site_fract_z
 _atom_site_occupancy
  K  K0  1  0.876876  0.250000  0.500000  1
  K  K1  1  0.123124  0.750000  0.000000  1
  K  K2  1  0.123124  0.750000  0.500000  1
  K  K3  1  0.876876  0.250000  0.000000  1
  K  K4  1  0.630551  0.518617  0.250000  1
  K  K5  1  0.630551  0.981383  0.750000  1
  K  K6  1  0.369449  0.018617  0.250000  1
  K  K7  1  0.369449  0.481383  0.750000  1
  Te  Te8  1  0.286545  0.102603  0.453971  1
  Te  Te9  1  0.286545  0.397397  0.546029  1
  Te  Te10  1  0.713455  0.602603  0.046029  1
  Te  Te11  1  0.713455  0.897397  0.953971  1
  Te  Te12  1  0.713455  0.897397  0.546029  1
  Te  Te13  1  0.713455  0.602603  0.453971  1
  Te  Te14  1  0.286545  0.397397  0.953971  1
  Te  Te15  1  0.286545  0.102603  0.046029  1
  Te  Te16  1  0.067878  0.959414  0.397987  1
  Te  Te17  1  0.067878  0.540586  0.602013  1
  Te  Te18  1  0.932122  0.459414  0.102013  1
  Te  Te19  1  0.932122  0.040586  0.897987  1
  Te  Te20  1  0.932122  0.040586  0.602013  1
  Te  Te21  1  0.932122  0.459414  0.397987  1
  Te  Te22  1  0.067878  0.540586  0.897987  1
  Te  Te23  1  0.067878  0.959414  0.102013  1
  Te  Te24  1  0.695607  0.028639  0.431389  1
  Te  Te25  1  0.695607  0.471361  0.568611  1
  Te  Te26  1  0.304393  0.528639  0.068611  1
  Te  Te27  1  0.304393  0.971361  0.931389  1
  Te  Te28  1  0.304393  0.971361  0.568611  1
  Te  Te29  1  0.304393  0.528639  0.431389  1
  Te  Te30  1  0.695607  0.471361  0.931389  1
  Te  Te31  1  0.695607  0.028639  0.068611  1
  Te  Te32  1  0.730321  0.164803  0.331953  1
  Te  Te33  1  0.730321  0.335197  0.668047  1
  Te  Te34  1  0.269679  0.664803  0.168047  1
  Te  Te35  1  0.269679  0.835197  0.831953  1
  Te  Te36  1  0.269679  0.835197  0.668047  1
  Te  Te37  1  0.269679  0.664803  0.331953  1
  Te  Te38  1  0.730321  0.335197  0.831953  1
  Te  Te39  1  0.730321  0.164803  0.168047  1
  Te  Te40  1  0.538720  0.328478  0.373514  1
  Te  Te41  1  0.538720  0.171522  0.626486  1
  Te  Te42  1  0.461280  0.828478  0.126486  1
  Te  Te43  1  0.461280  0.671522  0.873514  1
  Te  Te44  1  0.461280  0.671522  0.626486  1
  Te  Te45  1  0.461280  0.828478  0.373514  1
  Te  Te46  1  0.538720  0.171522  0.873514  1
  Te  Te47  1  0.538720  0.328478  0.126486  1
  Te  Te48  1  0.174143  0.259624  0.345598  1
  Te  Te49  1  0.174143  0.240376  0.654402  1
  Te  Te50  1  0.825857  0.759624  0.154402  1
  Te  Te51  1  0.825857  0.740376  0.845598  1
  Te  Te52  1  0.825857  0.740376  0.654402  1
  Te  Te53  1  0.825857  0.759624  0.345598  1
  Te  Te54  1  0.174143  0.240376  0.845598  1
  Te  Te55  1  0.174143  0.259624  0.154402  1
  Te  Te56  1  0.092075  0.384568  0.250000  1
  Te  Te57  1  0.092075  0.115432  0.750000  1
  Te  Te58  1  0.907925  0.884568  0.250000  1
  Te  Te59  1  0.907925  0.615432  0.750000  1
