# generated using pymatgen
data_ThAl10TcPd
_symmetry_space_group_name_H-M   'P 1'
_cell_length_a   6.93609222
_cell_length_b   6.94459348
_cell_length_c   9.27611400
_cell_angle_alpha   90.00000000
_cell_angle_beta   90.00000000
_cell_angle_gamma   97.40616939
_symmetry_Int_Tables_number   1
_chemical_formula_structural   ThAl10TcPd
_chemical_formula_sum   'Th2 Al20 Tc2 Pd2'
_cell_volume   443.08737140
_cell_formula_units_Z   2
loop_
 _symmetry_equiv_pos_site_id
 _symmetry_equiv_pos_as_xyz
  1  'x, y, z'
loop_
 _atom_site_type_symbol
 _atom_site_label
 _atom_site_symmetry_multiplicity
 _atom_site_fract_x
 _atom_site_fract_y
 _atom_site_fract_z
 _atom_site_occupancy
  Th  Th0  1  0.862872  0.116343  0.750000  1
  Th  Th1  1  0.137128  0.883657  0.250000  1
  Al  Al2  1  0.512067  0.776188  0.750000  1
  Al  Al3  1  0.487933  0.223812  0.250000  1
  Al  Al4  1  0.600423  0.862236  0.250000  1
  Al  Al5  1  0.775747  0.779803  0.998060  1
  Al  Al6  1  0.157985  0.844592  0.603981  1
  Al  Al7  1  0.224253  0.220197  0.001940  1
  Al  Al8  1  0.145324  0.406152  0.250000  1
  Al  Al9  1  0.614546  0.373836  0.950063  1
  Al  Al10  1  0.842015  0.155408  0.103981  1
  Al  Al11  1  0.385454  0.626164  0.450063  1
  Al  Al12  1  0.157985  0.844592  0.896019  1
  Al  Al13  1  0.226467  0.478426  0.750000  1
  Al  Al14  1  0.385454  0.626164  0.049937  1
  Al  Al15  1  0.842015  0.155408  0.396019  1
  Al  Al16  1  0.614546  0.373836  0.549937  1
  Al  Al17  1  0.399577  0.137764  0.750000  1
  Al  Al18  1  0.773533  0.521574  0.250000  1
  Al  Al19  1  0.775747  0.779803  0.501940  1
  Al  Al20  1  0.224253  0.220197  0.498060  1
  Al  Al21  1  0.854676  0.593848  0.750000  1
  Tc  Tc22  1  0.500000  0.000000  0.000000  1
  Tc  Tc23  1  0.500000  0.000000  0.500000  1
  Pd  Pd24  1  0.000000  0.500000  0.500000  1
  Pd  Pd25  1  0.000000  0.500000  0.000000  1
