# generated using pymatgen
data_Li2Dy5Tm2(P4Ir5)3
_symmetry_space_group_name_H-M   'P 1'
_cell_length_a   12.74096174
_cell_length_b   12.91640876
_cell_length_c   3.97602100
_cell_angle_alpha   90.00000000
_cell_angle_beta   90.00000000
_cell_angle_gamma   118.60547496
_symmetry_Int_Tables_number   1
_chemical_formula_structural   Li2Dy5Tm2(P4Ir5)3
_chemical_formula_sum   'Li2 Dy5 Tm2 P12 Ir15'
_cell_volume   574.45515000
_cell_formula_units_Z   1
loop_
 _symmetry_equiv_pos_site_id
 _symmetry_equiv_pos_as_xyz
  1  'x, y, z'
loop_
 _atom_site_type_symbol
 _atom_site_label
 _atom_site_symmetry_multiplicity
 _atom_site_fract_x
 _atom_site_fract_y
 _atom_site_fract_z
 _atom_site_occupancy
  Li  Li0  1  0.523432  0.885197  0.000000  1
  Li  Li1  1  0.451943  0.010099  0.500000  1
  Dy  Dy2  1  0.326926  0.658844  0.500000  1
  Dy  Dy3  1  0.663643  0.334298  0.500000  1
  Dy  Dy4  1  0.000605  0.816478  0.000000  1
  Dy  Dy5  1  0.190598  0.187166  0.000000  1
  Dy  Dy6  1  0.813401  0.999949  0.000000  1
  Tm  Tm7  1  0.996157  0.444180  0.500000  1
  Tm  Tm8  1  0.552350  0.556908  0.500000  1
  P  P9  1  0.006947  0.658100  0.500000  1
  P  P10  1  0.354127  0.343161  0.500000  1
  P  P11  1  0.644681  0.008498  0.500000  1
  P  P12  1  0.521202  0.694256  0.000000  1
  P  P13  1  0.303173  0.817316  0.000000  1
  P  P14  1  0.167144  0.480049  0.000000  1
  P  P15  1  0.485887  0.166347  0.000000  1
  P  P16  1  0.684459  0.517346  0.000000  1
  P  P17  1  0.825480  0.306224  0.000000  1
  P  P18  1  0.002882  0.175868  0.500000  1
  P  P19  1  0.822921  0.825155  0.500000  1
  P  P20  1  0.182515  0.999843  0.500000  1
  Ir  Ir21  1  0.115042  0.642312  0.000000  1
  Ir  Ir22  1  0.359895  0.503296  0.000000  1
  Ir  Ir23  1  0.478513  0.352196  0.000000  1
  Ir  Ir24  1  0.852911  0.493778  0.000000  1
  Ir  Ir25  1  0.644122  0.123617  0.000000  1
  Ir  Ir26  1  0.001375  0.272926  0.000000  1
  Ir  Ir27  1  0.724835  0.729320  0.000000  1
  Ir  Ir28  1  0.280689  0.997377  0.000000  1
  Ir  Ir29  1  0.614955  0.810838  0.500000  1
  Ir  Ir30  1  0.206429  0.824388  0.500000  1
  Ir  Ir31  1  0.182659  0.367193  0.500000  1
  Ir  Ir32  1  0.378465  0.171353  0.500000  1
  Ir  Ir33  1  0.814460  0.633882  0.500000  1
  Ir  Ir34  1  0.821708  0.193089  0.500000  1
  Ir  Ir35  1  0.003466  0.999154  0.500000  1
