# generated using pymatgen
data_CsPa2Se5
_symmetry_space_group_name_H-M   'P 1'
_cell_length_a   9.86156853
_cell_length_b   9.86156944
_cell_length_c   9.86157904
_cell_angle_alpha   132.95327388
_cell_angle_beta   132.95327735
_cell_angle_gamma   68.72745748
_symmetry_Int_Tables_number   1
_chemical_formula_structural   CsPa2Se5
_chemical_formula_sum   'Cs2 Pa4 Se10'
_cell_volume   504.44489575
_cell_formula_units_Z   2
loop_
 _symmetry_equiv_pos_site_id
 _symmetry_equiv_pos_as_xyz
  1  'x, y, z'
loop_
 _atom_site_type_symbol
 _atom_site_label
 _atom_site_symmetry_multiplicity
 _atom_site_fract_x
 _atom_site_fract_y
 _atom_site_fract_z
 _atom_site_occupancy
  Cs  Cs0  1  0.750020  0.749980  0.000000  1
  Cs  Cs1  1  0.250020  0.249980  0.000000  1
  Pa  Pa2  1  0.841620  0.658380  0.500000  1
  Pa  Pa3  1  0.658523  0.158629  0.817154  1
  Pa  Pa4  1  0.341371  0.841477  0.182846  1
  Pa  Pa5  1  0.158535  0.341465  0.500000  1
  Se  Se6  1  0.033957  0.533963  0.789142  1
  Se  Se7  1  0.744815  0.244821  0.210858  1
  Se  Se8  1  0.534020  0.744664  0.500000  1
  Se  Se9  1  0.244731  0.034058  0.500000  1
  Se  Se10  1  0.966037  0.466043  0.210858  1
  Se  Se11  1  0.255179  0.755185  0.789142  1
  Se  Se12  1  0.465942  0.255269  0.500000  1
  Se  Se13  1  0.755336  0.965980  0.500000  1
  Se  Se14  1  0.999853  0.999958  0.999811  1
  Se  Se15  1  0.500042  0.500147  0.000189  1
