# generated using pymatgen
data_Ho6Lu10MgCo4Ag2Hg
_symmetry_space_group_name_H-M   'P 1'
_cell_length_a   9.30393643
_cell_length_b   9.30271717
_cell_length_c   9.30271600
_cell_angle_alpha   59.99999704
_cell_angle_beta   60.00433197
_cell_angle_gamma   60.00432587
_symmetry_Int_Tables_number   1
_chemical_formula_structural   Ho6Lu10MgCo4Ag2Hg
_chemical_formula_sum   'Ho6 Lu10 Mg1 Co4 Ag2 Hg1'
_cell_volume   569.37673823
_cell_formula_units_Z   1
loop_
 _symmetry_equiv_pos_site_id
 _symmetry_equiv_pos_as_xyz
  1  'x, y, z'
loop_
 _atom_site_type_symbol
 _atom_site_label
 _atom_site_symmetry_multiplicity
 _atom_site_fract_x
 _atom_site_fract_y
 _atom_site_fract_z
 _atom_site_occupancy
  Ho  Ho0  1  0.938471  0.561908  0.561908  1
  Ho  Ho1  1  0.561290  0.939142  0.939142  1
  Ho  Ho2  1  0.560848  0.940527  0.562132  1
  Ho  Ho3  1  0.937868  0.560723  0.940950  1
  Ho  Ho4  1  0.560848  0.562132  0.940527  1
  Ho  Ho5  1  0.937868  0.940950  0.560723  1
  Lu  Lu6  1  0.344824  0.344274  0.344274  1
  Lu  Lu7  1  0.346390  0.345404  0.963210  1
  Lu  Lu8  1  0.346390  0.963210  0.345404  1
  Lu  Lu9  1  0.951894  0.350052  0.350052  1
  Lu  Lu10  1  0.810173  0.188370  0.188370  1
  Lu  Lu11  1  0.185192  0.814295  0.814295  1
  Lu  Lu12  1  0.184585  0.814659  0.185809  1
  Lu  Lu13  1  0.810911  0.188991  0.812219  1
  Lu  Lu14  1  0.184585  0.185809  0.814659  1
  Lu  Lu15  1  0.810911  0.812219  0.188991  1
  Mg  Mg16  1  0.286604  0.569635  0.569635  1
  Co  Co17  1  0.136780  0.143476  0.143476  1
  Co  Co18  1  0.138041  0.142122  0.576115  1
  Co  Co19  1  0.138041  0.576115  0.142122  1
  Co  Co20  1  0.576641  0.140185  0.140185  1
  Ag  Ag21  1  0.583577  0.581807  0.250708  1
  Ag  Ag22  1  0.583577  0.250708  0.581807  1
  Hg  Hg23  1  0.583693  0.583292  0.583292  1
