# generated using pymatgen
data_Zr3Al3Co2Au
_symmetry_space_group_name_H-M   'P 1'
_cell_length_a   7.10150200
_cell_length_b   7.10150275
_cell_length_c   3.46186300
_cell_angle_alpha   90.00000000
_cell_angle_beta   90.00000000
_cell_angle_gamma   119.99999652
_symmetry_Int_Tables_number   1
_chemical_formula_structural   Zr3Al3Co2Au
_chemical_formula_sum   'Zr3 Al3 Co2 Au1'
_cell_volume   151.19624209
_cell_formula_units_Z   1
loop_
 _symmetry_equiv_pos_site_id
 _symmetry_equiv_pos_as_xyz
  1  'x, y, z'
loop_
 _atom_site_type_symbol
 _atom_site_label
 _atom_site_symmetry_multiplicity
 _atom_site_fract_x
 _atom_site_fract_y
 _atom_site_fract_z
 _atom_site_occupancy
  Zr  Zr0  1  0.383422  0.413339  0.500000  1
  Zr  Zr1  1  0.586661  0.970083  0.500000  1
  Zr  Zr2  1  0.029917  0.616578  0.500000  1
  Al  Al3  1  0.755305  0.749711  0.000000  1
  Al  Al4  1  0.250289  0.005594  0.000000  1
  Al  Al5  1  0.994406  0.244695  0.000000  1
  Co  Co6  1  0.333333  0.666667  0.000000  1
  Co  Co7  1  0.000000  0.000000  0.500000  1
  Au  Au8  1  0.666667  0.333333  0.000000  1
