# generated using pymatgen
data_Li6Pu2ScN6
_symmetry_space_group_name_H-M   'P 1'
_cell_length_a   5.88230500
_cell_length_b   5.88230699
_cell_length_c   5.44629300
_cell_angle_alpha   90.00000000
_cell_angle_beta   90.00000000
_cell_angle_gamma   120.00000565
_symmetry_Int_Tables_number   1
_chemical_formula_structural   Li6Pu2ScN6
_chemical_formula_sum   'Li6 Pu2 Sc1 N6'
_cell_volume   163.20251019
_cell_formula_units_Z   1
loop_
 _symmetry_equiv_pos_site_id
 _symmetry_equiv_pos_as_xyz
  1  'x, y, z'
loop_
 _atom_site_type_symbol
 _atom_site_label
 _atom_site_symmetry_multiplicity
 _atom_site_fract_x
 _atom_site_fract_y
 _atom_site_fract_z
 _atom_site_occupancy
  Li  Li0  1  0.993859  0.667460  0.614543  1
  Li  Li1  1  0.332540  0.326399  0.614543  1
  Li  Li2  1  0.673601  0.006141  0.614543  1
  Li  Li3  1  0.006141  0.332540  0.385457  1
  Li  Li4  1  0.667460  0.673601  0.385457  1
  Li  Li5  1  0.326399  0.993859  0.385457  1
  Pu  Pu6  1  0.333333  0.666667  0.997386  1
  Pu  Pu7  1  0.666667  0.333333  0.002614  1
  Sc  Sc8  1  0.000000  0.000000  0.000000  1
  N  N9  1  0.000136  0.663990  0.222157  1
  N  N10  1  0.336010  0.336146  0.222157  1
  N  N11  1  0.663854  0.999864  0.222157  1
  N  N12  1  0.999864  0.336010  0.777843  1
  N  N13  1  0.663990  0.663854  0.777843  1
  N  N14  1  0.336146  0.000136  0.777843  1
