# generated using pymatgen
data_Sm5DyU4O20
_symmetry_space_group_name_H-M   'P 1'
_cell_length_a   6.72110966
_cell_length_b   7.61695591
_cell_length_c   8.52872176
_cell_angle_alpha   101.20958512
_cell_angle_beta   97.72285673
_cell_angle_gamma   107.21189824
_symmetry_Int_Tables_number   1
_chemical_formula_structural   Sm5DyU4O20
_chemical_formula_sum   'Sm5 Dy1 U4 O20'
_cell_volume   400.44043772
_cell_formula_units_Z   1
loop_
 _symmetry_equiv_pos_site_id
 _symmetry_equiv_pos_as_xyz
  1  'x, y, z'
loop_
 _atom_site_type_symbol
 _atom_site_label
 _atom_site_symmetry_multiplicity
 _atom_site_fract_x
 _atom_site_fract_y
 _atom_site_fract_z
 _atom_site_occupancy
  Sm  Sm0  1  0.613418  0.704161  0.699226  1
  Sm  Sm1  1  0.386582  0.295839  0.300774  1
  Sm  Sm2  1  0.198110  0.897330  0.892163  1
  Sm  Sm3  1  0.000000  0.500000  0.500000  1
  Sm  Sm4  1  0.801890  0.102670  0.107837  1
  Dy  Dy5  1  0.000000  0.000000  0.500000  1
  U  U6  1  0.401803  0.804194  0.302154  1
  U  U7  1  0.198793  0.400293  0.899920  1
  U  U8  1  0.801207  0.599707  0.100080  1
  U  U9  1  0.598197  0.195806  0.697846  1
  O  O10  1  0.439541  0.532819  0.135464  1
  O  O11  1  0.556153  0.990634  0.838991  1
  O  O12  1  0.270490  0.148107  0.743729  1
  O  O13  1  0.359606  0.596751  0.439955  1
  O  O14  1  0.054891  0.731916  0.329881  1
  O  O15  1  0.443847  0.009366  0.161009  1
  O  O16  1  0.150055  0.186791  0.030623  1
  O  O17  1  0.560459  0.467181  0.864536  1
  O  O18  1  0.854432  0.339081  0.949598  1
  O  O19  1  0.255345  0.603812  0.761321  1
  O  O20  1  0.954363  0.776534  0.648814  1
  O  O21  1  0.354054  0.060304  0.454994  1
  O  O22  1  0.645946  0.939696  0.545006  1
  O  O23  1  0.045637  0.223466  0.351186  1
  O  O24  1  0.744655  0.396188  0.238679  1
  O  O25  1  0.145568  0.660919  0.050402  1
  O  O26  1  0.849945  0.813209  0.969377  1
  O  O27  1  0.945109  0.268084  0.670119  1
  O  O28  1  0.640394  0.403249  0.560045  1
  O  O29  1  0.729510  0.851893  0.256271  1
