# generated using pymatgen
data_TbEr4Tm11(Ga3Co)2
_symmetry_space_group_name_H-M   'P 1'
_cell_length_a   9.87955700
_cell_length_b   9.87955646
_cell_length_c   6.88510900
_cell_angle_alpha   90.00000000
_cell_angle_beta   90.00000000
_cell_angle_gamma   119.99999848
_symmetry_Int_Tables_number   1
_chemical_formula_structural   TbEr4Tm11(Ga3Co)2
_chemical_formula_sum   'Tb1 Er4 Tm11 Ga6 Co2'
_cell_volume   581.99114509
_cell_formula_units_Z   1
loop_
 _symmetry_equiv_pos_site_id
 _symmetry_equiv_pos_as_xyz
  1  'x, y, z'
loop_
 _atom_site_type_symbol
 _atom_site_label
 _atom_site_symmetry_multiplicity
 _atom_site_fract_x
 _atom_site_fract_y
 _atom_site_fract_z
 _atom_site_occupancy
  Tb  Tb0  1  0.000000  0.000000  0.269207  1
  Er  Er1  1  0.463783  0.927567  0.291750  1
  Er  Er2  1  0.072433  0.536217  0.291750  1
  Er  Er3  1  0.463783  0.536217  0.291750  1
  Er  Er4  1  0.000000  0.000000  0.768074  1
  Tm  Tm5  1  0.826252  0.652504  0.489963  1
  Tm  Tm6  1  0.347496  0.173748  0.489963  1
  Tm  Tm7  1  0.826252  0.173748  0.489963  1
  Tm  Tm8  1  0.173693  0.347385  0.986785  1
  Tm  Tm9  1  0.652615  0.826307  0.986785  1
  Tm  Tm10  1  0.173693  0.826307  0.986785  1
  Tm  Tm11  1  0.666667  0.333333  0.171781  1
  Tm  Tm12  1  0.333333  0.666667  0.672467  1
  Tm  Tm13  1  0.536934  0.073867  0.792787  1
  Tm  Tm14  1  0.926133  0.463066  0.792787  1
  Tm  Tm15  1  0.536934  0.463066  0.792787  1
  Ga  Ga16  1  0.835981  0.671964  0.040754  1
  Ga  Ga17  1  0.328036  0.164019  0.040754  1
  Ga  Ga18  1  0.835981  0.164019  0.040754  1
  Ga  Ga19  1  0.163610  0.327220  0.542609  1
  Ga  Ga20  1  0.672780  0.836390  0.542609  1
  Ga  Ga21  1  0.163610  0.836390  0.542609  1
  Co  Co22  1  0.666667  0.333333  0.555380  1
  Co  Co23  1  0.333333  0.666667  0.055220  1
