# generated using pymatgen
data_Sr3Tb4Nd(Si3Pd)4
_symmetry_space_group_name_H-M   'P 1'
_cell_length_a   8.29747900
_cell_length_b   8.29747910
_cell_length_c   8.46253900
_cell_angle_alpha   90.00000000
_cell_angle_beta   90.00000000
_cell_angle_gamma   119.99999563
_symmetry_Int_Tables_number   1
_chemical_formula_structural   Sr3Tb4Nd(Si3Pd)4
_chemical_formula_sum   'Sr3 Tb4 Nd1 Si12 Pd4'
_cell_volume   504.57259960
_cell_formula_units_Z   1
loop_
 _symmetry_equiv_pos_site_id
 _symmetry_equiv_pos_as_xyz
  1  'x, y, z'
loop_
 _atom_site_type_symbol
 _atom_site_label
 _atom_site_symmetry_multiplicity
 _atom_site_fract_x
 _atom_site_fract_y
 _atom_site_fract_z
 _atom_site_occupancy
  Sr  Sr0  1  0.500368  0.499632  0.250000  1
  Sr  Sr1  1  0.999265  0.499632  0.250000  1
  Sr  Sr2  1  0.500368  0.000735  0.250000  1
  Tb  Tb3  1  0.499712  0.500288  0.750000  1
  Tb  Tb4  1  0.000577  0.500288  0.750000  1
  Tb  Tb5  1  0.499712  0.999423  0.750000  1
  Tb  Tb6  1  0.000000  0.000000  0.750000  1
  Nd  Nd7  1  0.000000  0.000000  0.250000  1
  Si  Si8  1  0.835863  0.164137  0.984648  1
  Si  Si9  1  0.164084  0.835916  0.985040  1
  Si  Si10  1  0.328274  0.164137  0.984648  1
  Si  Si11  1  0.164084  0.835916  0.514960  1
  Si  Si12  1  0.671833  0.835916  0.985040  1
  Si  Si13  1  0.835863  0.164137  0.515352  1
  Si  Si14  1  0.835863  0.671726  0.984648  1
  Si  Si15  1  0.671833  0.835916  0.514960  1
  Si  Si16  1  0.164084  0.328167  0.985040  1
  Si  Si17  1  0.328274  0.164137  0.515352  1
  Si  Si18  1  0.164084  0.328167  0.514960  1
  Si  Si19  1  0.835863  0.671726  0.515352  1
  Pd  Pd20  1  0.666667  0.333333  0.974298  1
  Pd  Pd21  1  0.333333  0.666667  0.976787  1
  Pd  Pd22  1  0.333333  0.666667  0.523213  1
  Pd  Pd23  1  0.666667  0.333333  0.525702  1
