# generated using pymatgen
data_Ce3Er(CdNi2)2
_symmetry_space_group_name_H-M   'P 1'
_cell_length_a   7.45640236
_cell_length_b   7.45640236
_cell_length_c   3.59767800
_cell_angle_alpha   90.00000000
_cell_angle_beta   90.00000000
_cell_angle_gamma   88.51943154
_symmetry_Int_Tables_number   1
_chemical_formula_structural   Ce3Er(CdNi2)2
_chemical_formula_sum   'Ce3 Er1 Cd2 Ni4'
_cell_volume   199.95669322
_cell_formula_units_Z   1
loop_
 _symmetry_equiv_pos_site_id
 _symmetry_equiv_pos_as_xyz
  1  'x, y, z'
loop_
 _atom_site_type_symbol
 _atom_site_label
 _atom_site_symmetry_multiplicity
 _atom_site_fract_x
 _atom_site_fract_y
 _atom_site_fract_z
 _atom_site_occupancy
  Ce  Ce0  1  0.171343  0.326993  0.000000  1
  Ce  Ce1  1  0.826993  0.671344  0.000000  1
  Ce  Ce2  1  0.330224  0.830224  0.000000  1
  Er  Er3  1  0.671480  0.171479  0.000000  1
  Cd  Cd4  1  0.994700  0.002426  0.500001  1
  Cd  Cd5  1  0.502426  0.494700  0.500001  1
  Ni  Ni6  1  0.371820  0.122777  0.500001  1
  Ni  Ni7  1  0.881921  0.381922  0.500001  1
  Ni  Ni8  1  0.126315  0.626314  0.500001  1
  Ni  Ni9  1  0.622776  0.871819  0.500001  1
