# generated using pymatgen
data_Tm5GaNiBi
_symmetry_space_group_name_H-M   'P 1'
_cell_length_a   8.48518577
_cell_length_b   8.48518535
_cell_length_c   8.65467556
_cell_angle_alpha   125.19864008
_cell_angle_beta   125.19863979
_cell_angle_gamma   79.87168554
_symmetry_Int_Tables_number   1
_chemical_formula_structural   Tm5GaNiBi
_chemical_formula_sum   'Tm10 Ga2 Ni2 Bi2'
_cell_volume   404.51505416
_cell_formula_units_Z   2
loop_
 _symmetry_equiv_pos_site_id
 _symmetry_equiv_pos_as_xyz
  1  'x, y, z'
loop_
 _atom_site_type_symbol
 _atom_site_label
 _atom_site_symmetry_multiplicity
 _atom_site_fract_x
 _atom_site_fract_y
 _atom_site_fract_z
 _atom_site_occupancy
  Tm  Tm0  1  0.000000  0.000000  0.000000  1
  Tm  Tm1  1  0.500000  0.500000  0.000000  1
  Tm  Tm2  1  0.779353  0.279353  0.789427  1
  Tm  Tm3  1  0.220647  0.720647  0.210573  1
  Tm  Tm4  1  0.489927  0.989927  0.210573  1
  Tm  Tm5  1  0.305538  0.460670  0.500000  1
  Tm  Tm6  1  0.039330  0.194462  0.500000  1
  Tm  Tm7  1  0.510073  0.010073  0.789427  1
  Tm  Tm8  1  0.694462  0.539330  0.500000  1
  Tm  Tm9  1  0.960670  0.805538  0.500000  1
  Ga  Ga10  1  0.138419  0.638419  0.776839  1
  Ga  Ga11  1  0.861581  0.361581  0.223161  1
  Ni  Ni12  1  0.628901  0.871099  0.500000  1
  Ni  Ni13  1  0.371099  0.128901  0.500000  1
  Bi  Bi14  1  0.250000  0.250000  0.000000  1
  Bi  Bi15  1  0.750000  0.750000  0.000000  1
