# generated using pymatgen
data_Dy3Tm3Al24Ir5Os3
_symmetry_space_group_name_H-M   'P 1'
_cell_length_a   8.81977245
_cell_length_b   8.82206415
_cell_length_c   9.49397473
_cell_angle_alpha   89.78377348
_cell_angle_beta   90.22606780
_cell_angle_gamma   120.08585347
_symmetry_Int_Tables_number   1
_chemical_formula_structural   Dy3Tm3Al24Ir5Os3
_chemical_formula_sum   'Dy3 Tm3 Al24 Ir5 Os3'
_cell_volume   639.18358450
_cell_formula_units_Z   1
loop_
 _symmetry_equiv_pos_site_id
 _symmetry_equiv_pos_as_xyz
  1  'x, y, z'
loop_
 _atom_site_type_symbol
 _atom_site_label
 _atom_site_symmetry_multiplicity
 _atom_site_fract_x
 _atom_site_fract_y
 _atom_site_fract_z
 _atom_site_occupancy
  Dy  Dy0  1  0.386918  0.195812  0.748416  1
  Dy  Dy1  1  0.193490  0.806660  0.249962  1
  Dy  Dy2  1  0.806754  0.193368  0.750042  1
  Tm  Tm3  1  0.196864  0.388588  0.251805  1
  Tm  Tm4  1  0.803351  0.611594  0.748189  1
  Tm  Tm5  1  0.611402  0.803235  0.251798  1
  Al  Al6  1  0.333603  0.666516  0.028464  1
  Al  Al7  1  0.666946  0.333747  0.971822  1
  Al  Al8  1  0.666383  0.334339  0.525829  1
  Al  Al9  1  0.334165  0.666005  0.473860  1
  Al  Al10  1  0.164356  0.327573  0.574988  1
  Al  Al11  1  0.835399  0.672564  0.424756  1
  Al  Al12  1  0.672497  0.835422  0.575131  1
  Al  Al13  1  0.836409  0.673149  0.074770  1
  Al  Al14  1  0.327481  0.164519  0.424385  1
  Al  Al15  1  0.163430  0.326971  0.925473  1
  Al  Al16  1  0.162948  0.836696  0.575967  1
  Al  Al17  1  0.326878  0.163562  0.075106  1
  Al  Al18  1  0.836856  0.162992  0.423767  1
  Al  Al19  1  0.673087  0.836421  0.925317  1
  Al  Al20  1  0.836830  0.163059  0.076289  1
  Al  Al21  1  0.162963  0.836631  0.923958  1
  Al  Al22  1  0.562821  0.123923  0.249652  1
  Al  Al23  1  0.437337  0.875646  0.750366  1
  Al  Al24  1  0.876006  0.437138  0.249608  1
  Al  Al25  1  0.123871  0.562813  0.750392  1
  Al  Al26  1  0.562388  0.437561  0.250486  1
  Al  Al27  1  0.437799  0.563075  0.749475  1
  Al  Al28  1  0.000358  0.999639  0.250012  1
  Al  Al29  1  0.998937  0.000011  0.749968  1
  Ir  Ir30  1  0.500216  0.999637  0.000379  1
  Ir  Ir31  1  0.000347  0.500145  0.000045  1
  Ir  Ir32  1  0.500214  0.999721  0.499674  1
  Ir  Ir33  1  0.500237  0.500533  0.000355  1
  Ir  Ir34  1  0.000334  0.500143  0.499956  1
  Os  Os35  1  0.500184  0.500590  0.499560  1
  Os  Os36  1  0.999970  0.999989  0.000106  1
  Os  Os37  1  0.999972  0.000011  0.499876  1
