# generated using pymatgen
data_Hf6Zn6IrRh11
_symmetry_space_group_name_H-M   'P 1'
_cell_length_a   4.45708800
_cell_length_b   6.27925400
_cell_length_c   13.30938300
_cell_angle_alpha   89.99938411
_cell_angle_beta   90.00057124
_cell_angle_gamma   90.00015925
_symmetry_Int_Tables_number   1
_chemical_formula_structural   Hf6Zn6IrRh11
_chemical_formula_sum   'Hf6 Zn6 Ir1 Rh11'
_cell_volume   372.49219954
_cell_formula_units_Z   1
loop_
 _symmetry_equiv_pos_site_id
 _symmetry_equiv_pos_as_xyz
  1  'x, y, z'
loop_
 _atom_site_type_symbol
 _atom_site_label
 _atom_site_symmetry_multiplicity
 _atom_site_fract_x
 _atom_site_fract_y
 _atom_site_fract_z
 _atom_site_occupancy
  Hf  Hf0  1  0.000000  0.500917  0.999870  1
  Hf  Hf1  1  0.499849  0.999655  0.167780  1
  Hf  Hf2  1  0.999828  0.499885  0.332935  1
  Hf  Hf3  1  0.500001  0.999934  0.499874  1
  Hf  Hf4  1  0.000154  0.499884  0.667197  1
  Hf  Hf5  1  0.500179  0.999663  0.832327  1
  Zn  Zn6  1  0.999990  0.999595  0.000062  1
  Zn  Zn7  1  0.499846  0.500180  0.166516  1
  Zn  Zn8  1  0.999845  0.000129  0.333704  1
  Zn  Zn9  1  0.500002  0.499863  0.500054  1
  Zn  Zn10  1  0.000155  0.000127  0.666236  1
  Zn  Zn11  1  0.500162  0.500186  0.833429  1
  Ir  Ir12  1  0.499983  0.250457  0.000033  1
  Rh  Rh13  1  0.500005  0.751442  0.000034  1
  Rh  Rh14  1  0.999823  0.248515  0.166621  1
  Rh  Rh15  1  0.999841  0.751595  0.167251  1
  Rh  Rh16  1  0.499835  0.251593  0.333434  1
  Rh  Rh17  1  0.499801  0.747495  0.333809  1
  Rh  Rh18  1  0.000051  0.249649  0.500048  1
  Rh  Rh19  1  0.999949  0.750043  0.500050  1
  Rh  Rh20  1  0.500186  0.251361  0.666530  1
  Rh  Rh21  1  0.500140  0.747715  0.666147  1
  Rh  Rh22  1  0.000174  0.248275  0.833342  1
  Rh  Rh23  1  0.000200  0.751851  0.832716  1
