# generated using pymatgen
data_Eu3Ga2SiRh6
_symmetry_space_group_name_H-M   'P 1'
_cell_length_a   5.78846300
_cell_length_b   5.78846461
_cell_length_c   15.72563700
_cell_angle_alpha   90.00000000
_cell_angle_beta   90.00000000
_cell_angle_gamma   120.00000794
_symmetry_Int_Tables_number   1
_chemical_formula_structural   Eu3Ga2SiRh6
_chemical_formula_sum   'Eu6 Ga4 Si2 Rh12'
_cell_volume   456.31577994
_cell_formula_units_Z   2
loop_
 _symmetry_equiv_pos_site_id
 _symmetry_equiv_pos_as_xyz
  1  'x, y, z'
loop_
 _atom_site_type_symbol
 _atom_site_label
 _atom_site_symmetry_multiplicity
 _atom_site_fract_x
 _atom_site_fract_y
 _atom_site_fract_z
 _atom_site_occupancy
  Eu  Eu0  1  0.333364  0.666738  0.540307  1
  Eu  Eu1  1  0.666636  0.333262  0.459693  1
  Eu  Eu2  1  0.666636  0.333262  0.040307  1
  Eu  Eu3  1  0.333364  0.666738  0.959693  1
  Eu  Eu4  1  0.333267  0.666603  0.750000  1
  Eu  Eu5  1  0.666733  0.333397  0.250000  1
  Ga  Ga6  1  0.000359  0.000365  0.250000  1
  Ga  Ga7  1  0.999641  0.999635  0.750000  1
  Ga  Ga8  1  0.000000  0.000000  0.000000  1
  Ga  Ga9  1  0.000000  0.000000  0.500000  1
  Si  Si10  1  0.333399  0.666598  0.250000  1
  Si  Si11  1  0.666601  0.333402  0.750000  1
  Rh  Rh12  1  0.169665  0.339568  0.132813  1
  Rh  Rh13  1  0.830335  0.660432  0.867187  1
  Rh  Rh14  1  0.660508  0.830184  0.132838  1
  Rh  Rh15  1  0.830335  0.660432  0.632813  1
  Rh  Rh16  1  0.339492  0.169816  0.867162  1
  Rh  Rh17  1  0.169665  0.339568  0.367187  1
  Rh  Rh18  1  0.169827  0.830338  0.132747  1
  Rh  Rh19  1  0.339492  0.169816  0.632838  1
  Rh  Rh20  1  0.830173  0.169662  0.867253  1
  Rh  Rh21  1  0.660508  0.830184  0.367162  1
  Rh  Rh22  1  0.830173  0.169662  0.632747  1
  Rh  Rh23  1  0.169827  0.830338  0.367253  1
