# generated using pymatgen
data_LaPr(Sn2Rh3)2
_symmetry_space_group_name_H-M   'P 1'
_cell_length_a   5.99381837
_cell_length_b   7.16672038
_cell_length_c   7.16672091
_cell_angle_alpha   68.43754191
_cell_angle_beta   65.29732833
_cell_angle_gamma   65.29734634
_symmetry_Int_Tables_number   1
_chemical_formula_structural   LaPr(Sn2Rh3)2
_chemical_formula_sum   'La1 Pr1 Sn4 Rh6'
_cell_volume   247.05300179
_cell_formula_units_Z   1
loop_
 _symmetry_equiv_pos_site_id
 _symmetry_equiv_pos_as_xyz
  1  'x, y, z'
loop_
 _atom_site_type_symbol
 _atom_site_label
 _atom_site_symmetry_multiplicity
 _atom_site_fract_x
 _atom_site_fract_y
 _atom_site_fract_z
 _atom_site_occupancy
  La  La0  1  0.442360  0.249678  0.249678  1
  Pr  Pr1  1  0.560750  0.750407  0.750407  1
  Sn  Sn2  1  0.211657  0.584407  0.584407  1
  Sn  Sn3  1  0.787255  0.417158  0.417158  1
  Sn  Sn4  1  0.121858  0.082929  0.082929  1
  Sn  Sn5  1  0.880261  0.915419  0.915419  1
  Rh  Rh6  1  0.499960  0.220465  0.778037  1
  Rh  Rh7  1  0.998118  0.721972  0.279721  1
  Rh  Rh8  1  0.499960  0.778037  0.220465  1
  Rh  Rh9  1  0.998118  0.279721  0.721972  1
  Rh  Rh10  1  0.999853  0.499103  0.000704  1
  Rh  Rh11  1  0.999853  0.000704  0.499103  1
