# generated using pymatgen
data_Pr11Y(Si7Br3)2
_symmetry_space_group_name_H-M   'P 1'
_cell_length_a   4.08984400
_cell_length_b   11.81642700
_cell_length_c   16.61220900
_cell_angle_alpha   90.00000000
_cell_angle_beta   90.00000000
_cell_angle_gamma   90.00000000
_symmetry_Int_Tables_number   1
_chemical_formula_structural   Pr11Y(Si7Br3)2
_chemical_formula_sum   'Pr11 Y1 Si14 Br6'
_cell_volume   802.82392345
_cell_formula_units_Z   1
loop_
 _symmetry_equiv_pos_site_id
 _symmetry_equiv_pos_as_xyz
  1  'x, y, z'
loop_
 _atom_site_type_symbol
 _atom_site_label
 _atom_site_symmetry_multiplicity
 _atom_site_fract_x
 _atom_site_fract_y
 _atom_site_fract_z
 _atom_site_occupancy
  Pr  Pr0  1  0.500000  0.342679  0.500000  1
  Pr  Pr1  1  0.000000  0.658522  0.000000  1
  Pr  Pr2  1  0.500000  0.359245  0.755798  1
  Pr  Pr3  1  0.000000  0.641393  0.742687  1
  Pr  Pr4  1  0.500000  0.359245  0.244202  1
  Pr  Pr5  1  0.000000  0.641393  0.257313  1
  Pr  Pr6  1  0.500000  0.065291  0.880254  1
  Pr  Pr7  1  0.000000  0.933541  0.619388  1
  Pr  Pr8  1  0.500000  0.065291  0.119746  1
  Pr  Pr9  1  0.000000  0.933541  0.380612  1
  Pr  Pr10  1  0.500000  0.356092  0.000000  1
  Y  Y11  1  0.000000  0.644602  0.500000  1
  Si  Si12  1  0.000000  0.151350  0.000000  1
  Si  Si13  1  0.500000  0.845725  0.500000  1
  Si  Si14  1  0.500000  0.567564  0.876133  1
  Si  Si15  1  0.000000  0.434997  0.622269  1
  Si  Si16  1  0.500000  0.567564  0.123867  1
  Si  Si17  1  0.000000  0.434997  0.377731  1
  Si  Si18  1  0.000000  0.253390  0.873902  1
  Si  Si19  1  0.500000  0.744582  0.624120  1
  Si  Si20  1  0.000000  0.253390  0.126098  1
  Si  Si21  1  0.500000  0.744582  0.375880  1
  Si  Si22  1  0.000000  0.458069  0.876705  1
  Si  Si23  1  0.500000  0.542981  0.620487  1
  Si  Si24  1  0.500000  0.542981  0.379513  1
  Si  Si25  1  0.000000  0.458069  0.123295  1
  Br  Br26  1  0.500000  0.108936  0.692625  1
  Br  Br27  1  0.000000  0.890578  0.806926  1
  Br  Br28  1  0.000000  0.138913  0.500000  1
  Br  Br29  1  0.500000  0.860983  0.000000  1
  Br  Br30  1  0.500000  0.108936  0.307375  1
  Br  Br31  1  0.000000  0.890578  0.193074  1
