# generated using pymatgen
data_Ba4LuScCo2O9
_symmetry_space_group_name_H-M   'P 1'
_cell_length_a   9.04467027
_cell_length_b   9.01489653
_cell_length_c   6.04765297
_cell_angle_alpha   70.91370281
_cell_angle_beta   70.16964343
_cell_angle_gamma   39.12914159
_symmetry_Int_Tables_number   1
_chemical_formula_structural   Ba4LuScCo2O9
_chemical_formula_sum   'Ba4 Lu1 Sc1 Co2 O9'
_cell_volume   291.03433363
_cell_formula_units_Z   1
loop_
 _symmetry_equiv_pos_site_id
 _symmetry_equiv_pos_as_xyz
  1  'x, y, z'
loop_
 _atom_site_type_symbol
 _atom_site_label
 _atom_site_symmetry_multiplicity
 _atom_site_fract_x
 _atom_site_fract_y
 _atom_site_fract_z
 _atom_site_occupancy
  Ba  Ba0  1  0.881267  0.381899  0.118115  1
  Ba  Ba1  1  0.381281  0.881885  0.618101  1
  Ba  Ba2  1  0.618719  0.118115  0.381899  1
  Ba  Ba3  1  0.118733  0.618101  0.881885  1
  Lu  Lu4  1  0.000000  0.500000  0.500000  1
  Sc  Sc5  1  0.500000  0.000000  0.000000  1
  Co  Co6  1  0.723183  0.274077  0.725923  1
  Co  Co7  1  0.276817  0.725923  0.274077  1
  O  O8  1  0.894609  0.322030  0.677970  1
  O  O9  1  0.323683  0.896452  0.103548  1
  O  O10  1  0.676317  0.103548  0.896452  1
  O  O11  1  0.105391  0.677970  0.322030  1
  O  O12  1  0.732324  0.741508  0.258492  1
  O  O13  1  0.267676  0.258492  0.741508  1
  O  O14  1  0.255155  0.244845  0.244845  1
  O  O15  1  0.744845  0.755155  0.755155  1
  O  O16  1  0.500000  0.500000  0.500000  1
