# generated using pymatgen
data_Ca7Y5Ga12(SnO6)8
_symmetry_space_group_name_H-M   'P 1'
_cell_length_a   11.02217290
_cell_length_b   11.04018898
_cell_length_c   11.04020412
_cell_angle_alpha   109.52136334
_cell_angle_beta   109.48989493
_cell_angle_gamma   109.47454362
_symmetry_Int_Tables_number   1
_chemical_formula_structural   Ca7Y5Ga12(SnO6)8
_chemical_formula_sum   'Ca7 Y5 Ga12 Sn8 O48'
_cell_volume   1033.26477727
_cell_formula_units_Z   1
loop_
 _symmetry_equiv_pos_site_id
 _symmetry_equiv_pos_as_xyz
  1  'x, y, z'
loop_
 _atom_site_type_symbol
 _atom_site_label
 _atom_site_symmetry_multiplicity
 _atom_site_fract_x
 _atom_site_fract_y
 _atom_site_fract_z
 _atom_site_occupancy
  Ca  Ca0  1  0.250001  0.874791  0.624792  1
  Ca  Ca1  1  0.876037  0.751541  0.623533  1
  Ca  Ca2  1  0.623965  0.247502  0.875504  1
  Ca  Ca3  1  0.375017  0.124563  0.249760  1
  Ca  Ca4  1  0.623826  0.876258  0.748524  1
  Ca  Ca5  1  0.124986  0.374741  0.749549  1
  Ca  Ca6  1  0.876174  0.624704  0.252427  1
  Y  Y7  1  0.250002  0.373600  0.123598  1
  Y  Y8  1  0.749992  0.625228  0.875231  1
  Y  Y9  1  0.750002  0.126358  0.376362  1
  Y  Y10  1  0.126323  0.250283  0.376919  1
  Y  Y11  1  0.373681  0.750589  0.123962  1
  Ga  Ga12  1  0.249979  0.626492  0.376472  1
  Ga  Ga13  1  0.750023  0.374441  0.624466  1
  Ga  Ga14  1  0.749980  0.875581  0.125603  1
  Ga  Ga15  1  0.377162  0.250715  0.625835  1
  Ga  Ga16  1  0.625807  0.750428  0.376585  1
  Ga  Ga17  1  0.250019  0.123506  0.873481  1
  Ga  Ga18  1  0.122850  0.748616  0.873586  1
  Ga  Ga19  1  0.874186  0.250830  0.124604  1
  Ga  Ga20  1  0.624695  0.374233  0.249174  1
  Ga  Ga21  1  0.375968  0.625234  0.751367  1
  Ga  Ga22  1  0.875322  0.124540  0.749540  1
  Ga  Ga23  1  0.124019  0.875327  0.249259  1
  Sn  Sn24  1  0.999229  0.999052  0.998545  1
  Sn  Sn25  1  0.498709  0.999531  0.501533  1
  Sn  Sn26  1  0.001292  0.502825  0.500823  1
  Sn  Sn27  1  0.499800  0.000327  0.997944  1
  Sn  Sn28  1  0.500771  0.499320  0.999826  1
  Sn  Sn29  1  0.501204  0.501873  0.500236  1
  Sn  Sn30  1  0.000196  0.998144  0.500526  1
  Sn  Sn31  1  0.998811  0.499054  0.000678  1
  O  O32  1  0.470690  0.377528  0.289139  1
  O  O33  1  0.528071  0.621200  0.709867  1
  O  O34  1  0.588658  0.181241  0.211079  1
  O  O35  1  0.911342  0.122428  0.592588  1
  O  O36  1  0.289076  0.469742  0.370674  1
  O  O37  1  0.316916  0.910274  0.287918  1
  O  O38  1  0.417502  0.817215  0.795088  1
  O  O39  1  0.082488  0.877574  0.399705  1
  O  O40  1  0.703980  0.523496  0.627830  1
  O  O41  1  0.682878  0.085009  0.705173  1
  O  O42  1  0.029249  0.318420  0.906801  1
  O  O43  1  0.210900  0.581605  0.180686  1
  O  O44  1  0.121963  0.029605  0.210407  1
  O  O45  1  0.971988  0.681839  0.093171  1
  O  O46  1  0.796030  0.423837  0.819471  1
  O  O47  1  0.878314  0.977007  0.795769  1
  O  O48  1  0.598683  0.918448  0.129701  1
  O  O49  1  0.183099  0.471018  0.593372  1
  O  O50  1  0.402053  0.084082  0.878643  1
  O  O51  1  0.817108  0.522283  0.402114  1
  O  O52  1  0.901307  0.031009  0.319753  1
  O  O53  1  0.378048  0.588446  0.907616  1
  O  O54  1  0.097952  0.976600  0.682040  1
  O  O55  1  0.621686  0.417452  0.098732  1
  O  O56  1  0.372053  0.295789  0.474156  1
  O  O57  1  0.580843  0.901099  0.370284  1
  O  O58  1  0.621336  0.705331  0.523465  1
  O  O59  1  0.417038  0.099889  0.622322  1
  O  O60  1  0.127928  0.602133  0.923737  1
  O  O61  1  0.030325  0.210359  0.129648  1
  O  O62  1  0.878673  0.402080  0.083997  1
  O  O63  1  0.971926  0.790066  0.878986  1
  O  O64  1  0.319515  0.896926  0.025418  1
  O  O65  1  0.919151  0.289441  0.320256  1
  O  O66  1  0.683580  0.097065  0.977327  1
  O  O67  1  0.082973  0.705277  0.682852  1
  O  O68  1  0.180470  0.205910  0.577417  1
  O  O69  1  0.469723  0.599358  0.180069  1
  O  O70  1  0.816435  0.793753  0.413479  1
  O  O71  1  0.528024  0.407018  0.818093  1
  O  O72  1  0.294440  0.320080  0.922580  1
  O  O73  1  0.704776  0.681058  0.077034  1
  O  O74  1  0.205563  0.128155  0.025668  1
  O  O75  1  0.795221  0.872241  0.976241  1
  O  O76  1  0.897949  0.371615  0.577116  1
  O  O77  1  0.097544  0.621141  0.415012  1
  O  O78  1  0.602062  0.179181  0.473680  1
  O  O79  1  0.402444  0.817451  0.523580  1
