# generated using pymatgen
data_Tm3SiPd5
_symmetry_space_group_name_H-M   'P 1'
_cell_length_a   8.16213605
_cell_length_b   8.16213696
_cell_length_c   8.16213638
_cell_angle_alpha   127.88231456
_cell_angle_beta   125.67631852
_cell_angle_gamma   78.62397392
_symmetry_Int_Tables_number   1
_chemical_formula_structural   Tm3SiPd5
_chemical_formula_sum   'Tm6 Si2 Pd10'
_cell_volume   337.48128056
_cell_formula_units_Z   2
loop_
 _symmetry_equiv_pos_site_id
 _symmetry_equiv_pos_as_xyz
  1  'x, y, z'
loop_
 _atom_site_type_symbol
 _atom_site_label
 _atom_site_symmetry_multiplicity
 _atom_site_fract_x
 _atom_site_fract_y
 _atom_site_fract_z
 _atom_site_occupancy
  Tm  Tm0  1  0.227454  0.450387  0.777067  1
  Tm  Tm1  1  0.772546  0.549613  0.222933  1
  Tm  Tm2  1  0.826680  0.049613  0.777067  1
  Tm  Tm3  1  0.173320  0.950387  0.222933  1
  Tm  Tm4  1  0.387422  0.250000  0.137422  1
  Tm  Tm5  1  0.612578  0.750000  0.862578  1
  Si  Si6  1  0.777965  0.250000  0.527965  1
  Si  Si7  1  0.222035  0.750000  0.472035  1
  Pd  Pd8  1  0.167398  0.397942  0.354432  1
  Pd  Pd9  1  0.832602  0.187034  0.230544  1
  Pd  Pd10  1  0.456490  0.102058  0.769456  1
  Pd  Pd11  1  0.543510  0.312966  0.645568  1
  Pd  Pd12  1  0.000000  0.500000  0.000000  1
  Pd  Pd13  1  0.000000  0.000000  0.500000  1
  Pd  Pd14  1  0.456490  0.687034  0.354432  1
  Pd  Pd15  1  0.543510  0.897942  0.230544  1
  Pd  Pd16  1  0.167398  0.812966  0.769456  1
  Pd  Pd17  1  0.832602  0.602058  0.645568  1
