# generated using pymatgen
data_Li4AcAs2
_symmetry_space_group_name_H-M   'P 1'
_cell_length_a   8.54912285
_cell_length_b   8.54912311
_cell_length_c   8.54912269
_cell_angle_alpha   29.73827593
_cell_angle_beta   29.73827282
_cell_angle_gamma   29.73828420
_symmetry_Int_Tables_number   1
_chemical_formula_structural   Li4AcAs2
_chemical_formula_sum   'Li4 Ac1 As2'
_cell_volume   136.13039791
_cell_formula_units_Z   1
loop_
 _symmetry_equiv_pos_site_id
 _symmetry_equiv_pos_as_xyz
  1  'x, y, z'
loop_
 _atom_site_type_symbol
 _atom_site_label
 _atom_site_symmetry_multiplicity
 _atom_site_fract_x
 _atom_site_fract_y
 _atom_site_fract_z
 _atom_site_occupancy
  Li  Li0  1  0.432004  0.432004  0.432004  1
  Li  Li1  1  0.140322  0.140322  0.140322  1
  Li  Li2  1  0.567996  0.567996  0.567996  1
  Li  Li3  1  0.859678  0.859678  0.859678  1
  Ac  Ac4  1  0.000000  0.000000  0.000000  1
  As  As5  1  0.752332  0.752332  0.752332  1
  As  As6  1  0.247668  0.247668  0.247668  1
