# generated using pymatgen
data_Ta2VRu5
_symmetry_space_group_name_H-M   'P 1'
_cell_length_a   4.21352700
_cell_length_b   5.38544800
_cell_length_c   10.47927800
_cell_angle_alpha   90.00000000
_cell_angle_beta   90.00000000
_cell_angle_gamma   90.00000000
_symmetry_Int_Tables_number   1
_chemical_formula_structural   Ta2VRu5
_chemical_formula_sum   'Ta4 V2 Ru10'
_cell_volume   237.79295279
_cell_formula_units_Z   2
loop_
 _symmetry_equiv_pos_site_id
 _symmetry_equiv_pos_as_xyz
  1  'x, y, z'
loop_
 _atom_site_type_symbol
 _atom_site_label
 _atom_site_symmetry_multiplicity
 _atom_site_fract_x
 _atom_site_fract_y
 _atom_site_fract_z
 _atom_site_occupancy
  Ta  Ta0  1  0.500000  0.840679  0.358653  1
  Ta  Ta1  1  0.500000  0.159321  0.641347  1
  Ta  Ta2  1  0.500000  0.340679  0.141347  1
  Ta  Ta3  1  0.500000  0.659321  0.858653  1
  V  V4  1  0.000000  0.500000  0.500000  1
  V  V5  1  0.000000  0.000000  0.000000  1
  Ru  Ru6  1  0.000000  0.500000  0.000000  1
  Ru  Ru7  1  0.000000  0.000000  0.500000  1
  Ru  Ru8  1  0.000000  0.606077  0.265883  1
  Ru  Ru9  1  0.000000  0.393923  0.734117  1
  Ru  Ru10  1  0.000000  0.106077  0.234117  1
  Ru  Ru11  1  0.000000  0.893923  0.765883  1
  Ru  Ru12  1  0.500000  0.824989  0.105147  1
  Ru  Ru13  1  0.500000  0.175011  0.894853  1
  Ru  Ru14  1  0.500000  0.324989  0.394853  1
  Ru  Ru15  1  0.500000  0.675011  0.605147  1
