# generated using pymatgen
data_LiSc3As2
_symmetry_space_group_name_H-M   'P 1'
_cell_length_a   3.89072098
_cell_length_b   5.56759233
_cell_length_c   7.82612019
_cell_angle_alpha   110.80800706
_cell_angle_beta   75.61230671
_cell_angle_gamma   134.34887896
_symmetry_Int_Tables_number   1
_chemical_formula_structural   LiSc3As2
_chemical_formula_sum   'Li1 Sc3 As2'
_cell_volume   113.32254894
_cell_formula_units_Z   1
loop_
 _symmetry_equiv_pos_site_id
 _symmetry_equiv_pos_as_xyz
  1  'x, y, z'
loop_
 _atom_site_type_symbol
 _atom_site_label
 _atom_site_symmetry_multiplicity
 _atom_site_fract_x
 _atom_site_fract_y
 _atom_site_fract_z
 _atom_site_occupancy
  Li  Li0  1  0.009293  0.622912  0.178788  1
  Sc  Sc1  1  0.507738  0.801157  0.535920  1
  Sc  Sc2  1  0.008701  0.125019  0.183206  1
  Sc  Sc3  1  0.507455  0.447748  0.829510  1
  As  As4  1  0.507767  0.988950  0.912190  1
  As  As5  1  0.508291  0.260270  0.453647  1
