# generated using pymatgen
data_Er2Mn14(BeC)3
_symmetry_space_group_name_H-M   'P 1'
_cell_length_a   6.33077253
_cell_length_b   6.33077257
_cell_length_c   6.33077236
_cell_angle_alpha   82.76473404
_cell_angle_beta   82.76473099
_cell_angle_gamma   82.76472660
_symmetry_Int_Tables_number   1
_chemical_formula_structural   Er2Mn14(BeC)3
_chemical_formula_sum   'Er2 Mn14 Be3 C3'
_cell_volume   248.13734242
_cell_formula_units_Z   1
loop_
 _symmetry_equiv_pos_site_id
 _symmetry_equiv_pos_as_xyz
  1  'x, y, z'
loop_
 _atom_site_type_symbol
 _atom_site_label
 _atom_site_symmetry_multiplicity
 _atom_site_fract_x
 _atom_site_fract_y
 _atom_site_fract_z
 _atom_site_occupancy
  Er  Er0  1  0.652763  0.652763  0.652763  1
  Er  Er1  1  0.347237  0.347237  0.347237  1
  Mn  Mn2  1  0.726737  0.273263  0.000000  1
  Mn  Mn3  1  0.000000  0.726737  0.273263  1
  Mn  Mn4  1  0.273263  0.000000  0.726737  1
  Mn  Mn5  1  0.000000  0.273263  0.726737  1
  Mn  Mn6  1  0.726737  0.000000  0.273263  1
  Mn  Mn7  1  0.273263  0.726737  0.000000  1
  Mn  Mn8  1  0.342564  0.342564  0.857623  1
  Mn  Mn9  1  0.857623  0.342564  0.342564  1
  Mn  Mn10  1  0.342564  0.857623  0.342564  1
  Mn  Mn11  1  0.657436  0.657436  0.142377  1
  Mn  Mn12  1  0.142377  0.657436  0.657436  1
  Mn  Mn13  1  0.657436  0.142377  0.657436  1
  Mn  Mn14  1  0.902537  0.902537  0.902537  1
  Mn  Mn15  1  0.097463  0.097463  0.097463  1
  Be  Be16  1  0.000000  0.000000  0.500000  1
  Be  Be17  1  0.500000  0.000000  0.000000  1
  Be  Be18  1  0.000000  0.500000  0.000000  1
  C  C19  1  0.500000  0.500000  0.000000  1
  C  C20  1  0.000000  0.500000  0.500000  1
  C  C21  1  0.500000  0.000000  0.500000  1
