# generated using pymatgen
data_Tb11Y9(Cd3Tc)2
_symmetry_space_group_name_H-M   'P 1'
_cell_length_a   9.60902355
_cell_length_b   9.61128751
_cell_length_c   9.99289864
_cell_angle_alpha   89.99999861
_cell_angle_beta   90.03537185
_cell_angle_gamma   120.00779935
_symmetry_Int_Tables_number   1
_chemical_formula_structural   Tb11Y9(Cd3Tc)2
_chemical_formula_sum   'Tb11 Y9 Cd6 Tc2'
_cell_volume   799.18751834
_cell_formula_units_Z   1
loop_
 _symmetry_equiv_pos_site_id
 _symmetry_equiv_pos_as_xyz
  1  'x, y, z'
loop_
 _atom_site_type_symbol
 _atom_site_label
 _atom_site_symmetry_multiplicity
 _atom_site_fract_x
 _atom_site_fract_y
 _atom_site_fract_z
 _atom_site_occupancy
  Tb  Tb0  1  0.210009  0.790163  0.440984  1
  Tb  Tb1  1  0.210009  0.419846  0.440984  1
  Tb  Tb2  1  0.580099  0.790050  0.440976  1
  Tb  Tb3  1  0.790104  0.209884  0.558915  1
  Tb  Tb4  1  0.790104  0.580220  0.558915  1
  Tb  Tb5  1  0.419727  0.209864  0.558937  1
  Tb  Tb6  1  0.790212  0.209857  0.941092  1
  Tb  Tb7  1  0.790212  0.580355  0.941092  1
  Tb  Tb8  1  0.419840  0.209920  0.941116  1
  Tb  Tb9  1  0.209997  0.790106  0.059066  1
  Tb  Tb10  1  0.209997  0.419890  0.059066  1
  Y  Y11  1  0.000103  0.000051  0.499927  1
  Y  Y12  1  0.000260  0.000130  0.000043  1
  Y  Y13  1  0.580528  0.790264  0.058297  1
  Y  Y14  1  0.539648  0.460324  0.249973  1
  Y  Y15  1  0.539648  0.079325  0.249973  1
  Y  Y16  1  0.920671  0.460336  0.249851  1
  Y  Y17  1  0.460166  0.539923  0.750055  1
  Y  Y18  1  0.460166  0.920242  0.750055  1
  Y  Y19  1  0.079856  0.539927  0.750048  1
  Cd  Cd20  1  0.885514  0.114330  0.250014  1
  Cd  Cd21  1  0.885514  0.771185  0.250014  1
  Cd  Cd22  1  0.228786  0.114393  0.250098  1
  Cd  Cd23  1  0.114294  0.885478  0.749929  1
  Cd  Cd24  1  0.114294  0.228815  0.749929  1
  Cd  Cd25  1  0.771154  0.885577  0.750113  1
  Tc  Tc26  1  0.332505  0.666253  0.250676  1
  Tc  Tc27  1  0.666583  0.333291  0.749863  1
