# generated using pymatgen
data_Mn6Al5AsRu12
_symmetry_space_group_name_H-M   'P 1'
_cell_length_a   4.23635200
_cell_length_b   5.99048500
_cell_length_c   12.69400100
_cell_angle_alpha   90.00000000
_cell_angle_beta   90.00051876
_cell_angle_gamma   90.00000000
_symmetry_Int_Tables_number   1
_chemical_formula_structural   Mn6Al5AsRu12
_chemical_formula_sum   'Mn6 Al5 As1 Ru12'
_cell_volume   322.14585806
_cell_formula_units_Z   1
loop_
 _symmetry_equiv_pos_site_id
 _symmetry_equiv_pos_as_xyz
  1  'x, y, z'
loop_
 _atom_site_type_symbol
 _atom_site_label
 _atom_site_symmetry_multiplicity
 _atom_site_fract_x
 _atom_site_fract_y
 _atom_site_fract_z
 _atom_site_occupancy
  Mn  Mn0  1  0.000000  0.500001  0.000000  1
  Mn  Mn1  1  0.499848  0.000000  0.172045  1
  Mn  Mn2  1  0.999866  0.500001  0.333453  1
  Mn  Mn3  1  0.499999  0.000000  0.500000  1
  Mn  Mn4  1  0.000132  0.500001  0.666547  1
  Mn  Mn5  1  0.500153  0.000000  0.827955  1
  Al  Al6  1  0.499836  0.500001  0.166047  1
  Al  Al7  1  0.999841  0.000000  0.333833  1
  Al  Al8  1  0.499999  0.500001  0.500000  1
  Al  Al9  1  0.000160  0.000000  0.666167  1
  Al  Al10  1  0.500162  0.500001  0.833953  1
  As  As11  1  0.000000  0.000000  0.000000  1
  Ru  Ru12  1  0.499999  0.243936  0.000000  1
  Ru  Ru13  1  0.499999  0.756064  0.000000  1
  Ru  Ru14  1  0.999860  0.248276  0.164855  1
  Ru  Ru15  1  0.999860  0.751724  0.164855  1
  Ru  Ru16  1  0.499927  0.250711  0.333388  1
  Ru  Ru17  1  0.499927  0.749289  0.333388  1
  Ru  Ru18  1  0.000000  0.251250  0.500000  1
  Ru  Ru19  1  0.000000  0.748749  0.500000  1
  Ru  Ru20  1  0.500073  0.250711  0.666612  1
  Ru  Ru21  1  0.500073  0.749289  0.666612  1
  Ru  Ru22  1  0.000141  0.248276  0.835145  1
  Ru  Ru23  1  0.000141  0.751724  0.835145  1
