# generated using pymatgen
data_Tb3Sc4U(CrB6)4
_symmetry_space_group_name_H-M   'P 1'
_cell_length_a   3.46876700
_cell_length_b   8.98920363
_cell_length_c   11.36179679
_cell_angle_alpha   90.04285353
_cell_angle_beta   90.00000000
_cell_angle_gamma   90.00000000
_symmetry_Int_Tables_number   1
_chemical_formula_structural   Tb3Sc4U(CrB6)4
_chemical_formula_sum   'Tb3 Sc4 U1 Cr4 B24'
_cell_volume   354.27723255
_cell_formula_units_Z   1
loop_
 _symmetry_equiv_pos_site_id
 _symmetry_equiv_pos_as_xyz
  1  'x, y, z'
loop_
 _atom_site_type_symbol
 _atom_site_label
 _atom_site_symmetry_multiplicity
 _atom_site_fract_x
 _atom_site_fract_y
 _atom_site_fract_z
 _atom_site_occupancy
  Tb  Tb0  1  0.000000  0.822530  0.085624  1
  Tb  Tb1  1  0.000000  0.177473  0.914398  1
  Tb  Tb2  1  0.000000  0.320329  0.414319  1
  Sc  Sc3  1  0.000000  0.443507  0.130912  1
  Sc  Sc4  1  0.000000  0.556241  0.870384  1
  Sc  Sc5  1  0.000000  0.944615  0.370487  1
  Sc  Sc6  1  0.000000  0.056787  0.629040  1
  U  U7  1  0.000000  0.677365  0.585034  1
  Cr  Cr8  1  0.000000  0.141167  0.182411  1
  Cr  Cr9  1  0.000000  0.855363  0.814363  1
  Cr  Cr10  1  0.000000  0.641162  0.322184  1
  Cr  Cr11  1  0.000000  0.362672  0.680716  1
  B  B12  1  0.500000  0.054535  0.067749  1
  B  B13  1  0.500000  0.944396  0.930889  1
  B  B14  1  0.500000  0.556110  0.433251  1
  B  B15  1  0.500000  0.447475  0.568803  1
  B  B16  1  0.500000  0.253048  0.082735  1
  B  B17  1  0.500000  0.747174  0.917073  1
  B  B18  1  0.500000  0.752560  0.418879  1
  B  B19  1  0.500000  0.247800  0.583397  1
  B  B20  1  0.500000  0.294378  0.234908  1
  B  B21  1  0.500000  0.705240  0.763556  1
  B  B22  1  0.500000  0.794049  0.265362  1
  B  B23  1  0.500000  0.206306  0.734801  1
  B  B24  1  0.500000  0.129301  0.315979  1
  B  B25  1  0.500000  0.868689  0.682131  1
  B  B26  1  0.500000  0.629342  0.184347  1
  B  B27  1  0.500000  0.370920  0.816485  1
  B  B28  1  0.500000  0.482655  0.286080  1
  B  B29  1  0.500000  0.518576  0.713093  1
  B  B30  1  0.500000  0.982212  0.213976  1
  B  B31  1  0.500000  0.016882  0.785530  1
  B  B32  1  0.500000  0.097977  0.473481  1
  B  B33  1  0.500000  0.900828  0.526633  1
  B  B34  1  0.500000  0.596542  0.026677  1
  B  B35  1  0.500000  0.403792  0.974311  1
