# generated using pymatgen
data_Tb11In9NiAu3
_symmetry_space_group_name_H-M   'P 1'
_cell_length_a   13.29847685
_cell_length_b   13.30235051
_cell_length_c   3.67106100
_cell_angle_alpha   90.00000000
_cell_angle_beta   90.00000000
_cell_angle_gamma   69.28191998
_symmetry_Int_Tables_number   1
_chemical_formula_structural   Tb11In9NiAu3
_chemical_formula_sum   'Tb11 In9 Ni1 Au3'
_cell_volume   607.41832292
_cell_formula_units_Z   1
loop_
 _symmetry_equiv_pos_site_id
 _symmetry_equiv_pos_as_xyz
  1  'x, y, z'
loop_
 _atom_site_type_symbol
 _atom_site_label
 _atom_site_symmetry_multiplicity
 _atom_site_fract_x
 _atom_site_fract_y
 _atom_site_fract_z
 _atom_site_occupancy
  Tb  Tb0  1  0.416679  0.932941  0.000000  1
  Tb  Tb1  1  0.585090  0.066830  0.000000  1
  Tb  Tb2  1  0.063754  0.584629  0.000000  1
  Tb  Tb3  1  0.921149  0.419496  0.000000  1
  Tb  Tb4  1  0.369210  0.368176  0.000000  1
  Tb  Tb5  1  0.638890  0.618505  0.000000  1
  Tb  Tb6  1  0.158194  0.159853  0.000000  1
  Tb  Tb7  1  0.841065  0.839166  0.000000  1
  Tb  Tb8  1  0.999978  0.001143  0.000000  1
  Tb  Tb9  1  0.305316  0.695123  0.000000  1
  Tb  Tb10  1  0.698371  0.316274  0.000000  1
  In  In11  1  0.214909  0.931415  0.499998  1
  In  In12  1  0.784445  0.071192  0.499998  1
  In  In13  1  0.068926  0.785029  0.499998  1
  In  In14  1  0.927096  0.218685  0.499998  1
  In  In15  1  0.365880  0.155469  0.499998  1
  In  In16  1  0.634474  0.840793  0.499998  1
  In  In17  1  0.840624  0.631596  0.499998  1
  In  In18  1  0.151257  0.367486  0.499998  1
  In  In19  1  0.504998  0.498780  0.499998  1
  Ni  Ni20  1  0.754123  0.451336  0.499998  1
  Au  Au21  1  0.455582  0.747865  0.499998  1
  Au  Au22  1  0.551182  0.250279  0.499998  1
  Au  Au23  1  0.248804  0.547938  0.499998  1
