# generated using pymatgen
data_Na5TcO6
_symmetry_space_group_name_H-M   'P 1'
_cell_length_a   5.69793236
_cell_length_b   5.69793233
_cell_length_c   5.65486340
_cell_angle_alpha   100.12461162
_cell_angle_beta   100.12461389
_cell_angle_gamma   119.72349105
_symmetry_Int_Tables_number   1
_chemical_formula_structural   Na5TcO6
_chemical_formula_sum   'Na5 Tc1 O6'
_cell_volume   149.34612500
_cell_formula_units_Z   1
loop_
 _symmetry_equiv_pos_site_id
 _symmetry_equiv_pos_as_xyz
  1  'x, y, z'
loop_
 _atom_site_type_symbol
 _atom_site_label
 _atom_site_symmetry_multiplicity
 _atom_site_fract_x
 _atom_site_fract_y
 _atom_site_fract_z
 _atom_site_occupancy
  Na  Na0  1  0.499148  0.500854  0.000000  1
  Na  Na1  1  0.998809  0.001188  0.499998  1
  Na  Na2  1  0.666898  0.333101  0.500000  1
  Na  Na3  1  0.337263  0.662736  0.500000  1
  Na  Na4  1  0.833396  0.166605  0.000000  1
  Tc  Tc5  1  0.166298  0.833703  0.000000  1
  O  O6  1  0.961626  0.628576  0.202990  1
  O  O7  1  0.512897  0.903611  0.214247  1
  O  O8  1  0.236492  0.180637  0.214165  1
  O  O9  1  0.819364  0.763508  0.785836  1
  O  O10  1  0.096390  0.487105  0.785755  1
  O  O11  1  0.371425  0.038375  0.797010  1
