# generated using pymatgen
data_OsBrCl6
_symmetry_space_group_name_H-M   'P 1'
_cell_length_a   7.57106900
_cell_length_b   7.79245970
_cell_length_c   20.29274617
_cell_angle_alpha   98.12475704
_cell_angle_beta   90.00000000
_cell_angle_gamma   90.00000000
_symmetry_Int_Tables_number   1
_chemical_formula_structural   OsBrCl6
_chemical_formula_sum   'Os4 Br4 Cl24'
_cell_volume   1185.19938221
_cell_formula_units_Z   4
loop_
 _symmetry_equiv_pos_site_id
 _symmetry_equiv_pos_as_xyz
  1  'x, y, z'
loop_
 _atom_site_type_symbol
 _atom_site_label
 _atom_site_symmetry_multiplicity
 _atom_site_fract_x
 _atom_site_fract_y
 _atom_site_fract_z
 _atom_site_occupancy
  Os  Os0  1  0.715857  0.751819  0.613722  1
  Os  Os1  1  0.215857  0.248181  0.886278  1
  Os  Os2  1  0.284143  0.248181  0.386278  1
  Os  Os3  1  0.784143  0.751819  0.113722  1
  Br  Br4  1  0.886828  0.197526  0.724528  1
  Br  Br5  1  0.386828  0.802474  0.775472  1
  Br  Br6  1  0.113172  0.802474  0.275472  1
  Br  Br7  1  0.613172  0.197526  0.224528  1
  Cl  Cl8  1  0.860421  0.655871  0.220908  1
  Cl  Cl9  1  0.360421  0.344129  0.279092  1
  Cl  Cl10  1  0.139579  0.344129  0.779092  1
  Cl  Cl11  1  0.639579  0.655871  0.720908  1
  Cl  Cl12  1  0.724901  0.471704  0.074461  1
  Cl  Cl13  1  0.224901  0.528296  0.425539  1
  Cl  Cl14  1  0.275099  0.528296  0.925539  1
  Cl  Cl15  1  0.775099  0.471704  0.574461  1
  Cl  Cl16  1  0.504277  0.793935  0.154168  1
  Cl  Cl17  1  0.004277  0.206065  0.345832  1
  Cl  Cl18  1  0.495723  0.206065  0.845832  1
  Cl  Cl19  1  0.995723  0.793935  0.654168  1
  Cl  Cl20  1  0.714926  0.850024  0.017568  1
  Cl  Cl21  1  0.214926  0.149976  0.482432  1
  Cl  Cl22  1  0.285074  0.149976  0.982432  1
  Cl  Cl23  1  0.785074  0.850024  0.517568  1
  Cl  Cl24  1  0.859096  0.046050  0.164438  1
  Cl  Cl25  1  0.359096  0.953950  0.335562  1
  Cl  Cl26  1  0.140904  0.953950  0.835562  1
  Cl  Cl27  1  0.640904  0.046050  0.664438  1
  Cl  Cl28  1  0.076691  0.724384  0.086462  1
  Cl  Cl29  1  0.576691  0.275616  0.413538  1
  Cl  Cl30  1  0.923309  0.275616  0.913538  1
  Cl  Cl31  1  0.423309  0.724384  0.586462  1
