# generated using pymatgen
data_NaPr3(MgPb)4
_symmetry_space_group_name_H-M   'P 1'
_cell_length_a   7.79112777
_cell_length_b   4.78565500
_cell_length_c   9.17972940
_cell_angle_alpha   90.00000000
_cell_angle_beta   89.65265528
_cell_angle_gamma   90.00000000
_symmetry_Int_Tables_number   1
_chemical_formula_structural   NaPr3(MgPb)4
_chemical_formula_sum   'Na1 Pr3 Mg4 Pb4'
_cell_volume   342.26588377
_cell_formula_units_Z   1
loop_
 _symmetry_equiv_pos_site_id
 _symmetry_equiv_pos_as_xyz
  1  'x, y, z'
loop_
 _atom_site_type_symbol
 _atom_site_label
 _atom_site_symmetry_multiplicity
 _atom_site_fract_x
 _atom_site_fract_y
 _atom_site_fract_z
 _atom_site_occupancy
  Na  Na0  1  0.521671  0.249999  0.183140  1
  Pr  Pr1  1  0.016529  0.249999  0.316271  1
  Pr  Pr2  1  0.980611  0.750000  0.685282  1
  Pr  Pr3  1  0.478331  0.750000  0.812538  1
  Mg  Mg4  1  0.846449  0.750000  0.068261  1
  Mg  Mg5  1  0.345635  0.750000  0.429757  1
  Mg  Mg6  1  0.658308  0.249999  0.564986  1
  Mg  Mg7  1  0.150136  0.249999  0.935999  1
  Pb  Pb8  1  0.237265  0.750000  0.108680  1
  Pb  Pb9  1  0.733040  0.750000  0.389936  1
  Pb  Pb10  1  0.268974  0.249999  0.616738  1
  Pb  Pb11  1  0.763051  0.249999  0.888409  1
