# generated using pymatgen
data_Y15Er5(Ir5Pt)2
_symmetry_space_group_name_H-M   'P 1'
_cell_length_a   10.95722826
_cell_length_b   10.95191685
_cell_length_c   6.35033796
_cell_angle_alpha   90.04209880
_cell_angle_beta   89.99724558
_cell_angle_gamma   90.01671519
_symmetry_Int_Tables_number   1
_chemical_formula_structural   Y15Er5(Ir5Pt)2
_chemical_formula_sum   'Y15 Er5 Ir10 Pt2'
_cell_volume   762.05716250
_cell_formula_units_Z   1
loop_
 _symmetry_equiv_pos_site_id
 _symmetry_equiv_pos_as_xyz
  1  'x, y, z'
loop_
 _atom_site_type_symbol
 _atom_site_label
 _atom_site_symmetry_multiplicity
 _atom_site_fract_x
 _atom_site_fract_y
 _atom_site_fract_z
 _atom_site_occupancy
  Y  Y0  1  0.289900  0.088798  0.375725  1
  Y  Y1  1  0.290491  0.911829  0.875892  1
  Y  Y2  1  0.705609  0.089903  0.874306  1
  Y  Y3  1  0.705725  0.910096  0.373785  1
  Y  Y4  1  0.584111  0.790173  0.878206  1
  Y  Y5  1  0.583851  0.209825  0.378185  1
  Y  Y6  1  0.410568  0.790892  0.377661  1
  Y  Y7  1  0.410675  0.209027  0.877649  1
  Y  Y8  1  0.209764  0.411243  0.622243  1
  Y  Y9  1  0.210093  0.587963  0.121850  1
  Y  Y10  1  0.790533  0.414419  0.123052  1
  Y  Y11  1  0.790779  0.584867  0.622889  1
  Y  Y12  1  0.914367  0.707956  0.126320  1
  Y  Y13  1  0.914531  0.291677  0.626594  1
  Y  Y14  1  0.091389  0.706832  0.622431  1
  Er  Er15  1  0.091169  0.294302  0.121077  1
  Er  Er16  1  0.002930  0.999000  0.500410  1
  Er  Er17  1  0.002932  0.001497  0.000306  1
  Er  Er18  1  0.500236  0.499213  0.000372  1
  Er  Er19  1  0.499946  0.500578  0.500127  1
  Ir  Ir20  1  0.150401  0.152738  0.752025  1
  Ir  Ir21  1  0.150680  0.848185  0.250045  1
  Ir  Ir22  1  0.653349  0.347582  0.749256  1
  Ir  Ir23  1  0.653499  0.652571  0.249616  1
  Ir  Ir24  1  0.346874  0.347952  0.249417  1
  Ir  Ir25  1  0.348579  0.652034  0.750440  1
  Ir  Ir26  1  0.500106  0.999939  0.125354  1
  Ir  Ir27  1  0.500176  0.000204  0.625044  1
  Ir  Ir28  1  0.000364  0.499055  0.876169  1
  Ir  Ir29  1  0.000403  0.498615  0.373570  1
  Pt  Pt30  1  0.848601  0.152028  0.249542  1
  Pt  Pt31  1  0.847370  0.849009  0.750440  1
