# generated using pymatgen
data_Li4La4ZnSi3Sb2
_symmetry_space_group_name_H-M   'P 1'
_cell_length_a   9.97874136
_cell_length_b   9.97874192
_cell_length_c   7.10306401
_cell_angle_alpha   90.68740677
_cell_angle_beta   89.31259478
_cell_angle_gamma   153.35895931
_symmetry_Int_Tables_number   1
_chemical_formula_structural   Li4La4ZnSi3Sb2
_chemical_formula_sum   'Li4 La4 Zn1 Si3 Sb2'
_cell_volume   317.12417380
_cell_formula_units_Z   1
loop_
 _symmetry_equiv_pos_site_id
 _symmetry_equiv_pos_as_xyz
  1  'x, y, z'
loop_
 _atom_site_type_symbol
 _atom_site_label
 _atom_site_symmetry_multiplicity
 _atom_site_fract_x
 _atom_site_fract_y
 _atom_site_fract_z
 _atom_site_occupancy
  Li  Li0  1  0.815990  0.184010  0.437540  1
  Li  Li1  1  0.184120  0.815880  0.559376  1
  Li  Li2  1  0.813913  0.186087  0.060328  1
  Li  Li3  1  0.184604  0.815396  0.943334  1
  La  La4  1  0.547638  0.452362  0.745741  1
  La  La5  1  0.453856  0.546144  0.254276  1
  La  La6  1  0.348565  0.651435  0.747223  1
  La  La7  1  0.650308  0.349692  0.250647  1
  Zn  Zn8  1  0.943360  0.056640  0.926619  1
  Si  Si9  1  0.056832  0.943168  0.079025  1
  Si  Si10  1  0.944870  0.055130  0.575388  1
  Si  Si11  1  0.055739  0.944261  0.420301  1
  Sb  Sb12  1  0.719271  0.280729  0.751095  1
  Sb  Sb13  1  0.280933  0.719067  0.249105  1
