# generated using pymatgen
data_Hf4ZrSc(GaPt)6
_symmetry_space_group_name_H-M   'P 1'
_cell_length_a   7.20517800
_cell_length_b   7.17989463
_cell_length_c   7.07625800
_cell_angle_alpha   90.00000000
_cell_angle_beta   90.00000000
_cell_angle_gamma   120.00335599
_symmetry_Int_Tables_number   1
_chemical_formula_structural   Hf4ZrSc(GaPt)6
_chemical_formula_sum   'Hf4 Zr1 Sc1 Ga6 Pt6'
_cell_volume   317.01688021
_cell_formula_units_Z   1
loop_
 _symmetry_equiv_pos_site_id
 _symmetry_equiv_pos_as_xyz
  1  'x, y, z'
loop_
 _atom_site_type_symbol
 _atom_site_label
 _atom_site_symmetry_multiplicity
 _atom_site_fract_x
 _atom_site_fract_y
 _atom_site_fract_z
 _atom_site_occupancy
  Hf  Hf0  1  0.594484  0.979594  0.750000  1
  Hf  Hf1  1  0.386265  0.405493  0.750000  1
  Hf  Hf2  1  0.020712  0.615350  0.750000  1
  Hf  Hf3  1  0.611418  0.022302  0.250000  1
  Zr  Zr4  1  0.977458  0.589141  0.250000  1
  Sc  Sc5  1  0.407115  0.387763  0.250000  1
  Ga  Ga6  1  0.269060  0.003621  0.002222  1
  Ga  Ga7  1  0.269060  0.003621  0.497778  1
  Ga  Ga8  1  0.001856  0.268013  0.498670  1
  Ga  Ga9  1  0.001856  0.268013  0.001330  1
  Ga  Ga10  1  0.730195  0.729619  0.998134  1
  Ga  Ga11  1  0.730195  0.729619  0.501866  1
  Pt  Pt12  1  0.668256  0.331879  0.534663  1
  Pt  Pt13  1  0.001101  0.000749  0.750000  1
  Pt  Pt14  1  0.668256  0.331879  0.965337  1
  Pt  Pt15  1  0.335035  0.668907  0.025127  1
  Pt  Pt16  1  0.335035  0.668907  0.474873  1
  Pt  Pt17  1  0.992642  0.995530  0.250000  1
