# generated using pymatgen
data_TbTh5NiBr15
_symmetry_space_group_name_H-M   'P 1'
_cell_length_a   10.15171861
_cell_length_b   10.15171873
_cell_length_c   10.15171918
_cell_angle_alpha   109.73146869
_cell_angle_beta   109.34125193
_cell_angle_gamma   109.34125159
_symmetry_Int_Tables_number   1
_chemical_formula_structural   TbTh5NiBr15
_chemical_formula_sum   'Tb1 Th5 Ni1 Br15'
_cell_volume   805.36017192
_cell_formula_units_Z   1
loop_
 _symmetry_equiv_pos_site_id
 _symmetry_equiv_pos_as_xyz
  1  'x, y, z'
loop_
 _atom_site_type_symbol
 _atom_site_label
 _atom_site_symmetry_multiplicity
 _atom_site_fract_x
 _atom_site_fract_y
 _atom_site_fract_z
 _atom_site_occupancy
  Tb  Tb0  1  0.000000  0.243045  0.243045  1
  Th  Th1  1  0.000000  0.756628  0.756628  1
  Th  Th2  1  0.238889  0.002678  0.241567  1
  Th  Th3  1  0.761111  0.002678  0.763789  1
  Th  Th4  1  0.238889  0.241567  0.002678  1
  Th  Th5  1  0.761111  0.763789  0.002678  1
  Ni  Ni6  1  0.000000  0.993364  0.993364  1
  Br  Br7  1  0.499598  0.249603  0.249603  1
  Br  Br8  1  0.500402  0.750004  0.750004  1
  Br  Br9  1  0.000000  0.249603  0.750004  1
  Br  Br10  1  0.000000  0.750004  0.249603  1
  Br  Br11  1  0.244474  0.494609  0.250135  1
  Br  Br12  1  0.755526  0.005661  0.250135  1
  Br  Br13  1  0.749689  0.500475  0.750786  1
  Br  Br14  1  0.250311  0.001096  0.750786  1
  Br  Br15  1  0.244474  0.250135  0.494609  1
  Br  Br16  1  0.749689  0.750786  0.500475  1
  Br  Br17  1  0.755526  0.250135  0.005661  1
  Br  Br18  1  0.250311  0.750786  0.001096  1
  Br  Br19  1  0.000000  0.497259  0.497259  1
  Br  Br20  1  0.500000  0.998047  0.498047  1
  Br  Br21  1  0.500000  0.498047  0.998047  1
