# generated using pymatgen
data_LiHo4Tm12Cd3Ni4
_symmetry_space_group_name_H-M   'P 1'
_cell_length_a   9.43372148
_cell_length_b   9.43372234
_cell_length_c   9.43372190
_cell_angle_alpha   59.79644264
_cell_angle_beta   59.79644109
_cell_angle_gamma   59.79645062
_symmetry_Int_Tables_number   1
_chemical_formula_structural   LiHo4Tm12Cd3Ni4
_chemical_formula_sum   'Li1 Ho4 Tm12 Cd3 Ni4'
_cell_volume   590.91184271
_cell_formula_units_Z   1
loop_
 _symmetry_equiv_pos_site_id
 _symmetry_equiv_pos_as_xyz
  1  'x, y, z'
loop_
 _atom_site_type_symbol
 _atom_site_label
 _atom_site_symmetry_multiplicity
 _atom_site_fract_x
 _atom_site_fract_y
 _atom_site_fract_z
 _atom_site_occupancy
  Li  Li0  1  0.571706  0.571706  0.571706  1
  Ho  Ho1  1  0.347958  0.347958  0.347958  1
  Ho  Ho2  1  0.349229  0.349229  0.953752  1
  Ho  Ho3  1  0.349229  0.953752  0.349229  1
  Ho  Ho4  1  0.953752  0.349229  0.349229  1
  Tm  Tm5  1  0.811179  0.190218  0.190218  1
  Tm  Tm6  1  0.185825  0.814466  0.814466  1
  Tm  Tm7  1  0.190218  0.811179  0.190218  1
  Tm  Tm8  1  0.814466  0.185825  0.814466  1
  Tm  Tm9  1  0.190218  0.190218  0.811179  1
  Tm  Tm10  1  0.814466  0.814466  0.185825  1
  Tm  Tm11  1  0.934846  0.565358  0.565358  1
  Tm  Tm12  1  0.564145  0.936435  0.936435  1
  Tm  Tm13  1  0.565358  0.934846  0.565358  1
  Tm  Tm14  1  0.936435  0.564145  0.936435  1
  Tm  Tm15  1  0.565358  0.565358  0.934846  1
  Tm  Tm16  1  0.936435  0.936435  0.564145  1
  Cd  Cd17  1  0.581813  0.581813  0.255573  1
  Cd  Cd18  1  0.581813  0.255573  0.581813  1
  Cd  Cd19  1  0.255573  0.581813  0.581813  1
  Ni  Ni20  1  0.142909  0.142909  0.142909  1
  Ni  Ni21  1  0.141715  0.141715  0.573644  1
  Ni  Ni22  1  0.141715  0.573644  0.141715  1
  Ni  Ni23  1  0.573644  0.141715  0.141715  1
