# generated using pymatgen
data_Tb2Er3(SiBi)2
_symmetry_space_group_name_H-M   'P 1'
_cell_length_a   8.66106203
_cell_length_b   8.60337409
_cell_length_c   7.90140644
_cell_angle_alpha   89.94087521
_cell_angle_beta   90.06347226
_cell_angle_gamma   125.63224564
_symmetry_Int_Tables_number   1
_chemical_formula_structural   Tb2Er3(SiBi)2
_chemical_formula_sum   'Tb4 Er6 Si4 Bi4'
_cell_volume   478.53457281
_cell_formula_units_Z   2
loop_
 _symmetry_equiv_pos_site_id
 _symmetry_equiv_pos_as_xyz
  1  'x, y, z'
loop_
 _atom_site_type_symbol
 _atom_site_label
 _atom_site_symmetry_multiplicity
 _atom_site_fract_x
 _atom_site_fract_y
 _atom_site_fract_z
 _atom_site_occupancy
  Tb  Tb0  1  0.042947  0.290769  0.334702  1
  Tb  Tb1  1  0.956370  0.710328  0.665354  1
  Tb  Tb2  1  0.456709  0.210762  0.834783  1
  Tb  Tb3  1  0.786172  0.541481  0.164528  1
  Er  Er4  1  0.543831  0.786856  0.163654  1
  Er  Er5  1  0.216052  0.457945  0.836809  1
  Er  Er6  1  0.716376  0.958397  0.663059  1
  Er  Er7  1  0.282649  0.042143  0.336944  1
  Er  Er8  1  0.999957  0.999997  0.000022  1
  Er  Er9  1  0.499561  0.500659  0.500066  1
  Si  Si10  1  0.364243  0.364460  0.134353  1
  Si  Si11  1  0.634681  0.636517  0.865610  1
  Si  Si12  1  0.134715  0.136318  0.634216  1
  Si  Si13  1  0.863594  0.865394  0.365692  1
  Bi  Bi14  1  0.794534  0.206851  0.995557  1
  Bi  Bi15  1  0.207723  0.790932  0.004541  1
  Bi  Bi16  1  0.702342  0.288024  0.497073  1
  Bi  Bi17  1  0.297546  0.712165  0.503034  1
