# generated using pymatgen
data_Sm2LuRuBr3
_symmetry_space_group_name_H-M   'P 1'
_cell_length_a   4.16059100
_cell_length_b   8.53161076
_cell_length_c   11.97509494
_cell_angle_alpha   86.51547749
_cell_angle_beta   90.00000000
_cell_angle_gamma   90.00000000
_symmetry_Int_Tables_number   1
_chemical_formula_structural   Sm2LuRuBr3
_chemical_formula_sum   'Sm4 Lu2 Ru2 Br6'
_cell_volume   424.28861680
_cell_formula_units_Z   2
loop_
 _symmetry_equiv_pos_site_id
 _symmetry_equiv_pos_as_xyz
  1  'x, y, z'
loop_
 _atom_site_type_symbol
 _atom_site_label
 _atom_site_symmetry_multiplicity
 _atom_site_fract_x
 _atom_site_fract_y
 _atom_site_fract_z
 _atom_site_occupancy
  Sm  Sm0  1  0.750000  0.100198  0.672011  1
  Sm  Sm1  1  0.250000  0.899802  0.327989  1
  Sm  Sm2  1  0.250000  0.278533  0.897110  1
  Sm  Sm3  1  0.750000  0.721467  0.102890  1
  Lu  Lu4  1  0.750000  0.130816  0.128799  1
  Lu  Lu5  1  0.250000  0.869184  0.871201  1
  Ru  Ru6  1  0.750000  0.054848  0.905957  1
  Ru  Ru7  1  0.250000  0.945152  0.094043  1
  Br  Br8  1  0.250000  0.344939  0.641048  1
  Br  Br9  1  0.750000  0.655061  0.358952  1
  Br  Br10  1  0.750000  0.139197  0.389561  1
  Br  Br11  1  0.250000  0.860803  0.610439  1
  Br  Br12  1  0.250000  0.422603  0.131853  1
  Br  Br13  1  0.750000  0.577397  0.868147  1
