# generated using pymatgen
data_LiEuP2Pt
_symmetry_space_group_name_H-M   'P 1'
_cell_length_a   5.81944360
_cell_length_b   5.81944377
_cell_length_c   5.81944432
_cell_angle_alpha   138.88128327
_cell_angle_beta   138.88129063
_cell_angle_gamma   59.55591123
_symmetry_Int_Tables_number   1
_chemical_formula_structural   LiEuP2Pt
_chemical_formula_sum   'Li1 Eu1 P2 Pt1'
_cell_volume   84.38319344
_cell_formula_units_Z   1
loop_
 _symmetry_equiv_pos_site_id
 _symmetry_equiv_pos_as_xyz
  1  'x, y, z'
loop_
 _atom_site_type_symbol
 _atom_site_label
 _atom_site_symmetry_multiplicity
 _atom_site_fract_x
 _atom_site_fract_y
 _atom_site_fract_z
 _atom_site_occupancy
  Li  Li0  1  0.250000  0.750000  0.500000  1
  Eu  Eu1  1  0.000000  0.000000  0.000000  1
  P  P2  1  0.612717  0.612717  0.000000  1
  P  P3  1  0.387283  0.387283  0.000000  1
  Pt  Pt4  1  0.750000  0.250000  0.500000  1
