# generated using pymatgen
data_Ta4SiB4AsRu10
_symmetry_space_group_name_H-M   'P 1'
_cell_length_a   9.30556800
_cell_length_b   9.30556800
_cell_length_c   2.97353400
_cell_angle_alpha   90.00000000
_cell_angle_beta   90.00000000
_cell_angle_gamma   90.00000000
_symmetry_Int_Tables_number   1
_chemical_formula_structural   Ta4SiB4AsRu10
_chemical_formula_sum   'Ta4 Si1 B4 As1 Ru10'
_cell_volume   257.48900130
_cell_formula_units_Z   1
loop_
 _symmetry_equiv_pos_site_id
 _symmetry_equiv_pos_as_xyz
  1  'x, y, z'
loop_
 _atom_site_type_symbol
 _atom_site_label
 _atom_site_symmetry_multiplicity
 _atom_site_fract_x
 _atom_site_fract_y
 _atom_site_fract_z
 _atom_site_occupancy
  Ta  Ta0  1  0.826468  0.678926  0.000000  1
  Ta  Ta1  1  0.173532  0.321074  0.000000  1
  Ta  Ta2  1  0.321074  0.826468  0.000000  1
  Ta  Ta3  1  0.678926  0.173532  0.000000  1
  Si  Si4  1  0.000000  0.000000  0.000000  1
  B  B5  1  0.626057  0.877382  0.000000  1
  B  B6  1  0.373943  0.122618  0.000000  1
  B  B7  1  0.122618  0.626057  0.000000  1
  B  B8  1  0.877382  0.373943  0.000000  1
  As  As9  1  0.500000  0.500000  0.000000  1
  Ru  Ru10  1  0.568599  0.713064  0.500000  1
  Ru  Ru11  1  0.431401  0.286936  0.500000  1
  Ru  Ru12  1  0.067587  0.788879  0.500000  1
  Ru  Ru13  1  0.932413  0.211121  0.500000  1
  Ru  Ru14  1  0.286936  0.568599  0.500000  1
  Ru  Ru15  1  0.713064  0.431401  0.500000  1
  Ru  Ru16  1  0.211121  0.067587  0.500000  1
  Ru  Ru17  1  0.788879  0.932413  0.500000  1
  Ru  Ru18  1  0.500000  0.000000  0.500000  1
  Ru  Ru19  1  0.000000  0.500000  0.500000  1
