# generated using pymatgen
data_Er4B12RhW
_symmetry_space_group_name_H-M   'P 1'
_cell_length_a   3.62471900
_cell_length_b   9.16967081
_cell_length_c   11.58058484
_cell_angle_alpha   90.48497414
_cell_angle_beta   90.00000000
_cell_angle_gamma   90.00000000
_symmetry_Int_Tables_number   1
_chemical_formula_structural   Er4B12RhW
_chemical_formula_sum   'Er8 B24 Rh2 W2'
_cell_volume   384.89566879
_cell_formula_units_Z   2
loop_
 _symmetry_equiv_pos_site_id
 _symmetry_equiv_pos_as_xyz
  1  'x, y, z'
loop_
 _atom_site_type_symbol
 _atom_site_label
 _atom_site_symmetry_multiplicity
 _atom_site_fract_x
 _atom_site_fract_y
 _atom_site_fract_z
 _atom_site_occupancy
  Er  Er0  1  0.500000  0.319812  0.411665  1
  Er  Er1  1  0.500000  0.680188  0.588335  1
  Er  Er2  1  0.500000  0.174964  0.916688  1
  Er  Er3  1  0.500000  0.825036  0.083312  1
  Er  Er4  1  0.500000  0.444624  0.126798  1
  Er  Er5  1  0.500000  0.555376  0.873202  1
  Er  Er6  1  0.500000  0.055114  0.627330  1
  Er  Er7  1  0.500000  0.944886  0.372670  1
  B  B8  1  0.000000  0.108953  0.471494  1
  B  B9  1  0.000000  0.891047  0.528506  1
  B  B10  1  0.000000  0.394437  0.969965  1
  B  B11  1  0.000000  0.605563  0.030035  1
  B  B12  1  0.000000  0.133595  0.318230  1
  B  B13  1  0.000000  0.866405  0.681770  1
  B  B14  1  0.000000  0.367305  0.815625  1
  B  B15  1  0.000000  0.632695  0.184375  1
  B  B16  1  0.000000  0.051461  0.065513  1
  B  B17  1  0.000000  0.948539  0.934487  1
  B  B18  1  0.000000  0.446260  0.565411  1
  B  B19  1  0.000000  0.553740  0.434589  1
  B  B20  1  0.000000  0.484074  0.288712  1
  B  B21  1  0.000000  0.515926  0.711288  1
  B  B22  1  0.000000  0.020673  0.785652  1
  B  B23  1  0.000000  0.979327  0.214348  1
  B  B24  1  0.000000  0.251224  0.078619  1
  B  B25  1  0.000000  0.748776  0.921381  1
  B  B26  1  0.000000  0.251324  0.578733  1
  B  B27  1  0.000000  0.748676  0.421267  1
  B  B28  1  0.000000  0.297448  0.237064  1
  B  B29  1  0.000000  0.702552  0.762936  1
  B  B30  1  0.000000  0.208726  0.734022  1
  B  B31  1  0.000000  0.791274  0.265978  1
  Rh  Rh32  1  0.500000  0.361048  0.678401  1
  Rh  Rh33  1  0.500000  0.638952  0.321599  1
  W  W34  1  0.500000  0.139718  0.180771  1
  W  W35  1  0.500000  0.860282  0.819229  1
