# generated using pymatgen
data_Dy11In8HgRu4
_symmetry_space_group_name_H-M   'P 1'
_cell_length_a   3.79694000
_cell_length_b   12.89282713
_cell_length_c   12.87238235
_cell_angle_alpha   112.60742203
_cell_angle_beta   90.00000000
_cell_angle_gamma   90.00000000
_symmetry_Int_Tables_number   1
_chemical_formula_structural   Dy11In8HgRu4
_chemical_formula_sum   'Dy11 In8 Hg1 Ru4'
_cell_volume   581.72537083
_cell_formula_units_Z   1
loop_
 _symmetry_equiv_pos_site_id
 _symmetry_equiv_pos_as_xyz
  1  'x, y, z'
loop_
 _atom_site_type_symbol
 _atom_site_label
 _atom_site_symmetry_multiplicity
 _atom_site_fract_x
 _atom_site_fract_y
 _atom_site_fract_z
 _atom_site_occupancy
  Dy  Dy0  1  0.000000  0.913892  0.581614  1
  Dy  Dy1  1  0.000000  0.088326  0.422489  1
  Dy  Dy2  1  0.000000  0.581886  0.914316  1
  Dy  Dy3  1  0.000000  0.418443  0.085743  1
  Dy  Dy4  1  0.000000  0.163594  0.834076  1
  Dy  Dy5  1  0.000000  0.836737  0.164339  1
  Dy  Dy6  1  0.000000  0.367591  0.630835  1
  Dy  Dy7  1  0.000000  0.630435  0.369236  1
  Dy  Dy8  1  0.000000  0.694354  0.694789  1
  Dy  Dy9  1  0.000000  0.305301  0.304535  1
  Dy  Dy10  1  0.000000  0.000192  0.999246  1
  In  In11  1  0.500000  0.846841  0.369536  1
  In  In12  1  0.500000  0.630030  0.152628  1
  In  In13  1  0.500000  0.370331  0.847194  1
  In  In14  1  0.500000  0.928495  0.781937  1
  In  In15  1  0.500000  0.071179  0.219111  1
  In  In16  1  0.500000  0.782030  0.929582  1
  In  In17  1  0.500000  0.217829  0.070358  1
  In  In18  1  0.500000  0.499936  0.500239  1
  Hg  Hg19  1  0.500000  0.151689  0.632637  1
  Ru  Ru20  1  0.500000  0.741040  0.547806  1
  Ru  Ru21  1  0.500000  0.260465  0.448434  1
  Ru  Ru22  1  0.500000  0.546329  0.740083  1
  Ru  Ru23  1  0.500000  0.453056  0.259235  1
