# generated using pymatgen
data_Tm10Si5Te
_symmetry_space_group_name_H-M   'P 1'
_cell_length_a   8.42850449
_cell_length_b   8.42850383
_cell_length_c   6.20839000
_cell_angle_alpha   90.00000000
_cell_angle_beta   90.00000000
_cell_angle_gamma   120.36812869
_symmetry_Int_Tables_number   1
_chemical_formula_structural   Tm10Si5Te
_chemical_formula_sum   'Tm10 Si5 Te1'
_cell_volume   380.52888834
_cell_formula_units_Z   1
loop_
 _symmetry_equiv_pos_site_id
 _symmetry_equiv_pos_as_xyz
  1  'x, y, z'
loop_
 _atom_site_type_symbol
 _atom_site_label
 _atom_site_symmetry_multiplicity
 _atom_site_fract_x
 _atom_site_fract_y
 _atom_site_fract_z
 _atom_site_occupancy
  Tm  Tm0  1  0.675355  0.331045  0.503122  1
  Tm  Tm1  1  0.331045  0.675355  0.503122  1
  Tm  Tm2  1  0.331045  0.675355  0.996878  1
  Tm  Tm3  1  0.675355  0.331045  0.996878  1
  Tm  Tm4  1  0.765611  0.765611  0.250000  1
  Tm  Tm5  1  0.240669  0.986145  0.250000  1
  Tm  Tm6  1  0.986145  0.240669  0.250000  1
  Tm  Tm7  1  0.241029  0.241029  0.750000  1
  Tm  Tm8  1  0.755195  0.999865  0.750000  1
  Tm  Tm9  1  0.999865  0.755195  0.750000  1
  Si  Si10  1  0.604232  0.999088  0.250000  1
  Si  Si11  1  0.999088  0.604232  0.250000  1
  Si  Si12  1  0.606911  0.606911  0.750000  1
  Si  Si13  1  0.393792  0.002982  0.750000  1
  Si  Si14  1  0.002982  0.393792  0.750000  1
  Te  Te15  1  0.391681  0.391681  0.250000  1
