# generated using pymatgen
data_Yb2LuGa9Pd2
_symmetry_space_group_name_H-M   'P 1'
_cell_length_a   8.11444303
_cell_length_b   8.11444248
_cell_length_c   8.11444317
_cell_angle_alpha   149.09144339
_cell_angle_beta   108.12540534
_cell_angle_gamma   80.26532044
_symmetry_Int_Tables_number   1
_chemical_formula_structural   Yb2LuGa9Pd2
_chemical_formula_sum   'Yb2 Lu1 Ga9 Pd2'
_cell_volume   255.53790083
_cell_formula_units_Z   1
loop_
 _symmetry_equiv_pos_site_id
 _symmetry_equiv_pos_as_xyz
  1  'x, y, z'
loop_
 _atom_site_type_symbol
 _atom_site_label
 _atom_site_symmetry_multiplicity
 _atom_site_fract_x
 _atom_site_fract_y
 _atom_site_fract_z
 _atom_site_occupancy
  Yb  Yb0  1  0.500223  0.500223  0.000000  1
  Yb  Yb1  1  0.201579  0.201579  0.000000  1
  Lu  Lu2  1  0.798315  0.798315  0.000000  1
  Ga  Ga3  1  0.641944  0.361617  0.280327  1
  Ga  Ga4  1  0.359797  0.639811  0.719986  1
  Ga  Ga5  1  0.081290  0.361617  0.719673  1
  Ga  Ga6  1  0.919824  0.639811  0.280014  1
  Ga  Ga7  1  0.522238  0.155436  0.366801  1
  Ga  Ga8  1  0.478309  0.843820  0.634490  1
  Ga  Ga9  1  0.788635  0.155436  0.633199  1
  Ga  Ga10  1  0.209330  0.843820  0.365510  1
  Ga  Ga11  1  0.999705  0.499705  0.500000  1
  Pd  Pd12  1  0.177103  0.999406  0.177698  1
  Pd  Pd13  1  0.821708  0.999406  0.822302  1
