# generated using pymatgen
data_AcMnN3
_symmetry_space_group_name_H-M   'P 1'
_cell_length_a   6.57580556
_cell_length_b   6.57580580
_cell_length_c   5.42488600
_cell_angle_alpha   90.00000000
_cell_angle_beta   90.00000000
_cell_angle_gamma   143.71471653
_symmetry_Int_Tables_number   1
_chemical_formula_structural   AcMnN3
_chemical_formula_sum   'Ac2 Mn2 N6'
_cell_volume   138.82511316
_cell_formula_units_Z   2
loop_
 _symmetry_equiv_pos_site_id
 _symmetry_equiv_pos_as_xyz
  1  'x, y, z'
loop_
 _atom_site_type_symbol
 _atom_site_label
 _atom_site_symmetry_multiplicity
 _atom_site_fract_x
 _atom_site_fract_y
 _atom_site_fract_z
 _atom_site_occupancy
  Ac  Ac0  1  0.368876  0.631124  0.250000  1
  Ac  Ac1  1  0.631124  0.368876  0.750000  1
  Mn  Mn2  1  0.909037  0.090963  0.750000  1
  Mn  Mn3  1  0.090963  0.909037  0.250000  1
  N  N4  1  0.471012  0.846527  0.750000  1
  N  N5  1  0.153473  0.528988  0.750000  1
  N  N6  1  0.000000  0.000000  0.000000  1
  N  N7  1  0.528988  0.153473  0.250000  1
  N  N8  1  0.846527  0.471012  0.250000  1
  N  N9  1  0.000000  0.000000  0.500000  1
