# generated using pymatgen
data_LaSm3(Ga8Pd3)3
_symmetry_space_group_name_H-M   'P 1'
_cell_length_a   7.59904196
_cell_length_b   7.63316242
_cell_length_c   13.42083000
_cell_angle_alpha   84.89598033
_cell_angle_beta   100.43668642
_cell_angle_gamma   119.79917741
_symmetry_Int_Tables_number   1
_chemical_formula_structural   LaSm3(Ga8Pd3)3
_chemical_formula_sum   'La1 Sm3 Ga24 Pd9'
_cell_volume   664.35943605
_cell_formula_units_Z   1
loop_
 _symmetry_equiv_pos_site_id
 _symmetry_equiv_pos_as_xyz
  1  'x, y, z'
loop_
 _atom_site_type_symbol
 _atom_site_label
 _atom_site_symmetry_multiplicity
 _atom_site_fract_x
 _atom_site_fract_y
 _atom_site_fract_z
 _atom_site_occupancy
  La  La0  1  0.438053  0.831610  0.810500  1
  Sm  Sm1  1  0.562686  0.168290  0.189287  1
  Sm  Sm2  1  0.772009  0.503350  0.811570  1
  Sm  Sm3  1  0.228873  0.497549  0.188980  1
  Ga  Ga4  1  0.479579  0.168978  0.942026  1
  Ga  Ga5  1  0.521384  0.833401  0.061242  1
  Ga  Ga6  1  0.021625  0.165867  0.557558  1
  Ga  Ga7  1  0.978143  0.834188  0.441642  1
  Ga  Ga8  1  0.354085  0.833047  0.554679  1
  Ga  Ga9  1  0.645975  0.167448  0.443610  1
  Ga  Ga10  1  0.615072  0.835011  0.326743  1
  Ga  Ga11  1  0.384043  0.168036  0.671362  1
  Ga  Ga12  1  0.055758  0.492508  0.670316  1
  Ga  Ga13  1  0.940313  0.504341  0.327545  1
  Ga  Ga14  1  0.733007  0.838016  0.668417  1
  Ga  Ga15  1  0.269501  0.162287  0.328840  1
  Ga  Ga16  1  0.143824  0.497030  0.942877  1
  Ga  Ga17  1  0.854164  0.500125  0.059012  1
  Ga  Ga18  1  0.817589  0.832895  0.949345  1
  Ga  Ga19  1  0.185545  0.167242  0.053635  1
  Ga  Ga20  1  0.312853  0.500136  0.442683  1
  Ga  Ga21  1  0.687020  0.499758  0.556828  1
  Ga  Ga22  1  0.100338  0.835772  0.182442  1
  Ga  Ga23  1  0.902498  0.167233  0.817726  1
  Ga  Ga24  1  0.307583  0.365313  0.816824  1
  Ga  Ga25  1  0.692736  0.630822  0.183638  1
  Ga  Ga26  1  0.099386  0.960801  0.816949  1
  Ga  Ga27  1  0.897294  0.038931  0.183631  1
  Pd  Pd28  1  0.384544  0.503206  0.636888  1
  Pd  Pd29  1  0.614817  0.497949  0.362684  1
  Pd  Pd30  1  0.171600  0.830216  0.999659  1
  Pd  Pd31  1  0.828558  0.169110  0.001504  1
  Pd  Pd32  1  0.290446  0.833138  0.361293  1
  Pd  Pd33  1  0.708149  0.165784  0.637854  1
  Pd  Pd34  1  0.050242  0.829446  0.636645  1
  Pd  Pd35  1  0.951131  0.170826  0.362950  1
  Pd  Pd36  1  0.499576  0.500340  0.000613  1
