# generated using pymatgen
data_Zr3In3Cu2Ru
_symmetry_space_group_name_H-M   'P 1'
_cell_length_a   7.55825100
_cell_length_b   7.55825056
_cell_length_c   3.45392800
_cell_angle_alpha   90.00000000
_cell_angle_beta   90.00000000
_cell_angle_gamma   120.00001506
_symmetry_Int_Tables_number   1
_chemical_formula_structural   Zr3In3Cu2Ru
_chemical_formula_sum   'Zr3 In3 Cu2 Ru1'
_cell_volume   170.87811360
_cell_formula_units_Z   1
loop_
 _symmetry_equiv_pos_site_id
 _symmetry_equiv_pos_as_xyz
  1  'x, y, z'
loop_
 _atom_site_type_symbol
 _atom_site_label
 _atom_site_symmetry_multiplicity
 _atom_site_fract_x
 _atom_site_fract_y
 _atom_site_fract_z
 _atom_site_occupancy
  Zr  Zr0  1  0.019988  0.614584  0.500000  1
  Zr  Zr1  1  0.385416  0.405405  0.500000  1
  Zr  Zr2  1  0.594595  0.980012  0.500000  1
  In  In3  1  0.740074  0.723086  0.000000  1
  In  In4  1  0.983011  0.259926  0.000000  1
  In  In5  1  0.276914  0.016989  0.000000  1
  Cu  Cu6  1  0.000000  0.000000  0.500000  1
  Cu  Cu7  1  0.666667  0.333333  0.000000  1
  Ru  Ru8  1  0.333333  0.666667  0.000000  1
