# generated using pymatgen
data_Sc3Al5Pt16
_symmetry_space_group_name_H-M   'P 1'
_cell_length_a   4.03319800
_cell_length_b   5.58377768
_cell_length_c   16.54858390
_cell_angle_alpha   90.08853966
_cell_angle_beta   90.00000000
_cell_angle_gamma   90.00000000
_symmetry_Int_Tables_number   1
_chemical_formula_structural   Sc3Al5Pt16
_chemical_formula_sum   'Sc3 Al5 Pt16'
_cell_volume   372.68162386
_cell_formula_units_Z   1
loop_
 _symmetry_equiv_pos_site_id
 _symmetry_equiv_pos_as_xyz
  1  'x, y, z'
loop_
 _atom_site_type_symbol
 _atom_site_label
 _atom_site_symmetry_multiplicity
 _atom_site_fract_x
 _atom_site_fract_y
 _atom_site_fract_z
 _atom_site_occupancy
  Sc  Sc0  1  0.000000  0.200451  0.751356  1
  Sc  Sc1  1  0.000000  0.801790  0.248329  1
  Sc  Sc2  1  0.000000  0.692030  0.590220  1
  Al  Al3  1  0.000000  0.311442  0.407337  1
  Al  Al4  1  0.000000  0.686102  0.910636  1
  Al  Al5  1  0.000000  0.313182  0.091554  1
  Al  Al6  1  0.500000  0.999170  0.498831  1
  Al  Al7  1  0.500000  0.000358  0.000592  1
  Pt  Pt8  1  0.500000  0.057164  0.342520  1
  Pt  Pt9  1  0.500000  0.950456  0.662239  1
  Pt  Pt10  1  0.500000  0.554222  0.164996  1
  Pt  Pt11  1  0.500000  0.445292  0.835475  1
  Pt  Pt12  1  0.500000  0.556362  0.331718  1
  Pt  Pt13  1  0.500000  0.447689  0.666406  1
  Pt  Pt14  1  0.000000  0.292069  0.249482  1
  Pt  Pt15  1  0.000000  0.708310  0.754348  1
  Pt  Pt16  1  0.500000  0.946084  0.844906  1
  Pt  Pt17  1  0.500000  0.055052  0.156330  1
  Pt  Pt18  1  0.500000  0.488507  0.495895  1
  Pt  Pt19  1  0.500000  0.499784  0.000247  1
  Pt  Pt20  1  0.000000  0.195124  0.568999  1
  Pt  Pt21  1  0.000000  0.799333  0.426816  1
  Pt  Pt22  1  0.000000  0.199931  0.932462  1
  Pt  Pt23  1  0.000000  0.800096  0.068307  1
