# generated using pymatgen
data_Tb16Cd4IrRu2Pt
_symmetry_space_group_name_H-M   'P 1'
_cell_length_a   9.70514749
_cell_length_b   9.69521238
_cell_length_c   9.69521174
_cell_angle_alpha   59.86771224
_cell_angle_beta   59.87872603
_cell_angle_gamma   59.87872929
_symmetry_Int_Tables_number   1
_chemical_formula_structural   Tb16Cd4IrRu2Pt
_chemical_formula_sum   'Tb16 Cd4 Ir1 Ru2 Pt1'
_cell_volume   643.23368025
_cell_formula_units_Z   1
loop_
 _symmetry_equiv_pos_site_id
 _symmetry_equiv_pos_as_xyz
  1  'x, y, z'
loop_
 _atom_site_type_symbol
 _atom_site_label
 _atom_site_symmetry_multiplicity
 _atom_site_fract_x
 _atom_site_fract_y
 _atom_site_fract_z
 _atom_site_occupancy
  Tb  Tb0  1  0.596558  0.597583  0.597583  1
  Tb  Tb1  1  0.601599  0.603087  0.201006  1
  Tb  Tb2  1  0.601599  0.201006  0.603087  1
  Tb  Tb3  1  0.202278  0.601397  0.601397  1
  Tb  Tb4  1  0.055327  0.440717  0.440717  1
  Tb  Tb5  1  0.437352  0.060714  0.060714  1
  Tb  Tb6  1  0.440107  0.054786  0.439844  1
  Tb  Tb7  1  0.061304  0.438091  0.058966  1
  Tb  Tb8  1  0.440107  0.439844  0.054786  1
  Tb  Tb9  1  0.061304  0.058966  0.438091  1
  Tb  Tb10  1  0.188669  0.811937  0.811937  1
  Tb  Tb11  1  0.813664  0.187682  0.187682  1
  Tb  Tb12  1  0.810918  0.188823  0.813162  1
  Tb  Tb13  1  0.187967  0.814378  0.188275  1
  Tb  Tb14  1  0.810918  0.813162  0.188823  1
  Tb  Tb15  1  0.187967  0.188275  0.814378  1
  Cd  Cd16  1  0.830608  0.830758  0.830758  1
  Cd  Cd17  1  0.830546  0.830507  0.507342  1
  Cd  Cd18  1  0.830546  0.507342  0.830507  1
  Cd  Cd19  1  0.507005  0.830530  0.830530  1
  Ir  Ir20  1  0.826176  0.391229  0.391229  1
  Ru  Ru21  1  0.392205  0.390316  0.827589  1
  Ru  Ru22  1  0.392205  0.827589  0.390316  1
  Pt  Pt23  1  0.393072  0.391284  0.391284  1
