# generated using pymatgen
data_SrTbAl6Si4Au
_symmetry_space_group_name_H-M   'P 1'
_cell_length_a   4.22539066
_cell_length_b   4.20915601
_cell_length_c   17.77837359
_cell_angle_alpha   90.00433143
_cell_angle_beta   96.54144937
_cell_angle_gamma   119.88385742
_symmetry_Int_Tables_number   1
_chemical_formula_structural   SrTbAl6Si4Au
_chemical_formula_sum   'Sr1 Tb1 Al6 Si4 Au1'
_cell_volume   271.77378026
_cell_formula_units_Z   1
loop_
 _symmetry_equiv_pos_site_id
 _symmetry_equiv_pos_as_xyz
  1  'x, y, z'
loop_
 _atom_site_type_symbol
 _atom_site_label
 _atom_site_symmetry_multiplicity
 _atom_site_fract_x
 _atom_site_fract_y
 _atom_site_fract_z
 _atom_site_occupancy
  Sr  Sr0  1  0.868375  0.434189  0.301521  1
  Tb  Tb1  1  0.133508  0.566753  0.701493  1
  Al  Al2  1  0.361736  0.680852  0.041735  1
  Al  Al3  1  0.097653  0.048850  0.143191  1
  Al  Al4  1  0.638338  0.819138  0.456453  1
  Al  Al5  1  0.375758  0.187886  0.563593  1
  Al  Al6  1  0.893241  0.946617  0.843897  1
  Al  Al7  1  0.630402  0.315207  0.946949  1
  Si  Si8  1  0.460718  0.730372  0.186977  1
  Si  Si9  1  0.280021  0.140028  0.419674  1
  Si  Si10  1  0.735705  0.867834  0.603725  1
  Si  Si11  1  0.529788  0.264896  0.798541  1
  Au  Au12  1  0.994757  0.997375  0.992252  1
