# generated using pymatgen
data_Ti8Al14GePt4Rh3
_symmetry_space_group_name_H-M   'P 1'
_cell_length_a   8.66952882
_cell_length_b   8.67269635
_cell_length_c   8.68694557
_cell_angle_alpha   120.03845621
_cell_angle_beta   119.84040064
_cell_angle_gamma   90.08843705
_symmetry_Int_Tables_number   1
_chemical_formula_structural   Ti8Al14GePt4Rh3
_chemical_formula_sum   'Ti8 Al14 Ge1 Pt4 Rh3'
_cell_volume   462.33813809
_cell_formula_units_Z   1
loop_
 _symmetry_equiv_pos_site_id
 _symmetry_equiv_pos_as_xyz
  1  'x, y, z'
loop_
 _atom_site_type_symbol
 _atom_site_label
 _atom_site_symmetry_multiplicity
 _atom_site_fract_x
 _atom_site_fract_y
 _atom_site_fract_z
 _atom_site_occupancy
  Ti  Ti0  1  0.791848  0.295170  0.085254  1
  Ti  Ti1  1  0.210865  0.294124  0.503342  1
  Ti  Ti2  1  0.207222  0.708345  0.501586  1
  Ti  Ti3  1  0.209573  0.707469  0.913692  1
  Ti  Ti4  1  0.793713  0.708688  0.498785  1
  Ti  Ti5  1  0.789754  0.289932  0.500058  1
  Ti  Ti6  1  0.379727  0.120075  0.739094  1
  Ti  Ti7  1  0.375333  0.638904  0.257018  1
  Al  Al8  1  0.155267  0.339478  0.178953  1
  Al  Al9  1  0.158379  0.979953  0.820837  1
  Al  Al10  1  0.156139  0.340992  0.818465  1
  Al  Al11  1  0.521915  0.340282  0.181493  1
  Al  Al12  1  0.845001  0.659860  0.820387  1
  Al  Al13  1  0.844270  0.025290  0.181596  1
  Al  Al14  1  0.842767  0.657368  0.178919  1
  Al  Al15  1  0.478974  0.659018  0.818421  1
  Al  Al16  1  0.374742  0.117250  0.259297  1
  Al  Al17  1  0.858780  0.122120  0.744412  1
  Al  Al18  1  0.620459  0.879694  0.260549  1
  Al  Al19  1  0.624540  0.360871  0.742868  1
  Al  Al20  1  0.625576  0.881487  0.742444  1
  Al  Al21  1  0.137880  0.877555  0.254380  1
  Ge  Ge22  1  0.998537  0.497732  0.499395  1
  Pt  Pt23  1  0.997721  0.998885  0.498067  1
  Pt  Pt24  1  0.500829  0.999348  0.001517  1
  Pt  Pt25  1  0.500439  0.501753  0.001065  1
  Pt  Pt26  1  0.500041  0.499644  0.499767  1
  Rh  Rh27  1  0.000301  0.499680  0.999601  1
  Rh  Rh28  1  0.000951  0.000433  0.999283  1
  Rh  Rh29  1  0.498455  0.998599  0.499455  1
