# generated using pymatgen
data_Ca2(Hf2Bi3)3
_symmetry_space_group_name_H-M   'P 1'
_cell_length_a   10.96601640
_cell_length_b   10.96601640
_cell_length_c   7.95692606
_cell_angle_alpha   89.98998682
_cell_angle_beta   89.98998682
_cell_angle_gamma   89.97067771
_symmetry_Int_Tables_number   1
_chemical_formula_structural   Ca2(Hf2Bi3)3
_chemical_formula_sum   'Ca4 Hf12 Bi18'
_cell_volume   956.84817849
_cell_formula_units_Z   2
loop_
 _symmetry_equiv_pos_site_id
 _symmetry_equiv_pos_as_xyz
  1  'x, y, z'
loop_
 _atom_site_type_symbol
 _atom_site_label
 _atom_site_symmetry_multiplicity
 _atom_site_fract_x
 _atom_site_fract_y
 _atom_site_fract_z
 _atom_site_occupancy
  Ca  Ca0  1  0.750005  0.750005  0.074127  1
  Ca  Ca1  1  0.250014  0.250014  0.422234  1
  Ca  Ca2  1  0.749986  0.749986  0.577767  1
  Ca  Ca3  1  0.249995  0.249995  0.925874  1
  Hf  Hf4  1  0.000000  0.000000  0.000000  1
  Hf  Hf5  1  0.500000  0.000000  0.000000  1
  Hf  Hf6  1  0.000000  0.500000  0.000000  1
  Hf  Hf7  1  0.500000  0.500000  0.000000  1
  Hf  Hf8  1  0.750034  0.103856  0.159049  1
  Hf  Hf9  1  0.750014  0.396140  0.159084  1
  Hf  Hf10  1  0.103856  0.750034  0.159049  1
  Hf  Hf11  1  0.396140  0.750014  0.159084  1
  Hf  Hf12  1  0.603859  0.249985  0.840917  1
  Hf  Hf13  1  0.896145  0.249966  0.840952  1
  Hf  Hf14  1  0.249985  0.603859  0.840917  1
  Hf  Hf15  1  0.249966  0.896145  0.840952  1
  Bi  Bi16  1  0.249962  0.999979  0.184591  1
  Bi  Bi17  1  0.999979  0.249962  0.184591  1
  Bi  Bi18  1  0.500041  0.250004  0.184625  1
  Bi  Bi19  1  0.250004  0.500041  0.184625  1
  Bi  Bi20  1  0.577108  0.577108  0.345012  1
  Bi  Bi21  1  0.922917  0.577088  0.345003  1
  Bi  Bi22  1  0.922918  0.922918  0.345010  1
  Bi  Bi23  1  0.577088  0.922917  0.345003  1
  Bi  Bi24  1  0.749996  0.250004  0.500000  1
  Bi  Bi25  1  0.250004  0.749996  0.500000  1
  Bi  Bi26  1  0.422912  0.077083  0.654997  1
  Bi  Bi27  1  0.077082  0.077082  0.654990  1
  Bi  Bi28  1  0.077083  0.422912  0.654997  1
  Bi  Bi29  1  0.422892  0.422892  0.654988  1
  Bi  Bi30  1  0.749995  0.499958  0.815376  1
  Bi  Bi31  1  0.499958  0.749995  0.815376  1
  Bi  Bi32  1  0.000021  0.750038  0.815410  1
  Bi  Bi33  1  0.750038  0.000021  0.815410  1
