# generated using pymatgen
data_NdB2IrRu
_symmetry_space_group_name_H-M   'P 1'
_cell_length_a   6.92449145
_cell_length_b   6.05755129
_cell_length_c   5.60396360
_cell_angle_alpha   72.73517000
_cell_angle_beta   56.65596075
_cell_angle_gamma   50.60885786
_symmetry_Int_Tables_number   1
_chemical_formula_structural   NdB2IrRu
_chemical_formula_sum   'Nd2 B4 Ir2 Ru2'
_cell_volume   151.26441212
_cell_formula_units_Z   2
loop_
 _symmetry_equiv_pos_site_id
 _symmetry_equiv_pos_as_xyz
  1  'x, y, z'
loop_
 _atom_site_type_symbol
 _atom_site_label
 _atom_site_symmetry_multiplicity
 _atom_site_fract_x
 _atom_site_fract_y
 _atom_site_fract_z
 _atom_site_occupancy
  Nd  Nd0  1  0.000000  0.000000  0.000000  1
  Nd  Nd1  1  0.250000  0.250000  0.250000  1
  B  B2  1  0.316693  0.683307  0.316693  1
  B  B3  1  0.683307  0.316693  0.683307  1
  B  B4  1  0.572896  0.927104  0.572896  1
  B  B5  1  0.927104  0.572896  0.927104  1
  Ir  Ir6  1  0.634098  0.634098  0.365902  1
  Ir  Ir7  1  0.365902  0.365902  0.634098  1
  Ru  Ru8  1  0.615388  0.615388  0.884612  1
  Ru  Ru9  1  0.884612  0.884612  0.615388  1
