# generated using pymatgen
data_Dy3Tm2Bi2Os
_symmetry_space_group_name_H-M   'P 1'
_cell_length_a   7.91572100
_cell_length_b   8.99078700
_cell_length_c   12.51905800
_cell_angle_alpha   90.00000000
_cell_angle_beta   90.00000000
_cell_angle_gamma   90.00000000
_symmetry_Int_Tables_number   1
_chemical_formula_structural   Dy3Tm2Bi2Os
_chemical_formula_sum   'Dy12 Tm8 Bi8 Os4'
_cell_volume   890.96334872
_cell_formula_units_Z   4
loop_
 _symmetry_equiv_pos_site_id
 _symmetry_equiv_pos_as_xyz
  1  'x, y, z'
loop_
 _atom_site_type_symbol
 _atom_site_label
 _atom_site_symmetry_multiplicity
 _atom_site_fract_x
 _atom_site_fract_y
 _atom_site_fract_z
 _atom_site_occupancy
  Dy  Dy0  1  0.841616  0.750000  0.791640  1
  Dy  Dy1  1  0.158384  0.250000  0.208360  1
  Dy  Dy2  1  0.341616  0.250000  0.708360  1
  Dy  Dy3  1  0.658384  0.750000  0.291640  1
  Dy  Dy4  1  0.374576  0.750000  0.690081  1
  Dy  Dy5  1  0.625424  0.250000  0.309919  1
  Dy  Dy6  1  0.874576  0.250000  0.809919  1
  Dy  Dy7  1  0.125424  0.750000  0.190081  1
  Dy  Dy8  1  0.942591  0.750000  0.504975  1
  Dy  Dy9  1  0.057409  0.250000  0.495025  1
  Dy  Dy10  1  0.442591  0.250000  0.995025  1
  Dy  Dy11  1  0.557409  0.750000  0.004975  1
  Tm  Tm12  1  0.671826  0.041813  0.564482  1
  Tm  Tm13  1  0.328174  0.958187  0.435518  1
  Tm  Tm14  1  0.171826  0.958187  0.935518  1
  Tm  Tm15  1  0.328174  0.541813  0.435518  1
  Tm  Tm16  1  0.828174  0.041813  0.064482  1
  Tm  Tm17  1  0.671826  0.458187  0.564482  1
  Tm  Tm18  1  0.828174  0.458187  0.064482  1
  Tm  Tm19  1  0.171826  0.541813  0.935518  1
  Bi  Bi20  1  0.566057  0.494678  0.827638  1
  Bi  Bi21  1  0.433943  0.505322  0.172362  1
  Bi  Bi22  1  0.066057  0.505322  0.672362  1
  Bi  Bi23  1  0.433943  0.994678  0.172362  1
  Bi  Bi24  1  0.933943  0.494678  0.327638  1
  Bi  Bi25  1  0.566057  0.005322  0.827638  1
  Bi  Bi26  1  0.933943  0.005322  0.327638  1
  Bi  Bi27  1  0.066057  0.994678  0.672362  1
  Os  Os28  1  0.572764  0.750000  0.508670  1
  Os  Os29  1  0.427236  0.250000  0.491330  1
  Os  Os30  1  0.072764  0.250000  0.991330  1
  Os  Os31  1  0.927236  0.750000  0.008670  1
