# generated using pymatgen
data_HoHf2(Fe2Si)3
_symmetry_space_group_name_H-M   'P 1'
_cell_length_a   8.20209631
_cell_length_b   8.20209610
_cell_length_c   8.20209701
_cell_angle_alpha   35.64695139
_cell_angle_beta   35.64695110
_cell_angle_gamma   35.64695302
_symmetry_Int_Tables_number   1
_chemical_formula_structural   HoHf2(Fe2Si)3
_chemical_formula_sum   'Ho1 Hf2 Fe6 Si3'
_cell_volume   167.52318260
_cell_formula_units_Z   1
loop_
 _symmetry_equiv_pos_site_id
 _symmetry_equiv_pos_as_xyz
  1  'x, y, z'
loop_
 _atom_site_type_symbol
 _atom_site_label
 _atom_site_symmetry_multiplicity
 _atom_site_fract_x
 _atom_site_fract_y
 _atom_site_fract_z
 _atom_site_occupancy
  Ho  Ho0  1  0.000000  0.000000  0.000000  1
  Hf  Hf1  1  0.141736  0.141736  0.141736  1
  Hf  Hf2  1  0.858264  0.858264  0.858264  1
  Fe  Fe3  1  0.077743  0.585825  0.585825  1
  Fe  Fe4  1  0.585825  0.585825  0.077743  1
  Fe  Fe5  1  0.585825  0.077743  0.585825  1
  Fe  Fe6  1  0.414175  0.922257  0.414175  1
  Fe  Fe7  1  0.922257  0.414175  0.414175  1
  Fe  Fe8  1  0.414175  0.414175  0.922257  1
  Si  Si9  1  0.500000  0.500000  0.500000  1
  Si  Si10  1  0.333844  0.333844  0.333844  1
  Si  Si11  1  0.666156  0.666156  0.666156  1
