# generated using pymatgen
data_Dy2Y2Ga7Ag5
_symmetry_space_group_name_H-M   'P 1'
_cell_length_a   4.37469800
_cell_length_b   7.02748038
_cell_length_c   10.34193166
_cell_angle_alpha   89.97336804
_cell_angle_beta   90.00000000
_cell_angle_gamma   90.00000000
_symmetry_Int_Tables_number   1
_chemical_formula_structural   Dy2Y2Ga7Ag5
_chemical_formula_sum   'Dy2 Y2 Ga7 Ag5'
_cell_volume   317.94304991
_cell_formula_units_Z   1
loop_
 _symmetry_equiv_pos_site_id
 _symmetry_equiv_pos_as_xyz
  1  'x, y, z'
loop_
 _atom_site_type_symbol
 _atom_site_label
 _atom_site_symmetry_multiplicity
 _atom_site_fract_x
 _atom_site_fract_y
 _atom_site_fract_z
 _atom_site_occupancy
  Dy  Dy0  1  0.500000  0.781869  0.172509  1
  Dy  Dy1  1  0.500000  0.278737  0.328549  1
  Y  Y2  1  0.000000  0.215328  0.829631  1
  Y  Y3  1  0.000000  0.721519  0.670296  1
  Ga  Ga4  1  0.500000  0.921925  0.846708  1
  Ga  Ga5  1  0.500000  0.424787  0.654434  1
  Ga  Ga6  1  0.000000  0.078232  0.153129  1
  Ga  Ga7  1  0.000000  0.575918  0.344567  1
  Ga  Ga8  1  0.500000  0.202788  0.036409  1
  Ga  Ga9  1  0.000000  0.299342  0.535527  1
  Ga  Ga10  1  0.000000  0.795369  0.964291  1
  Ag  Ag11  1  0.500000  0.541049  0.903438  1
  Ag  Ag12  1  0.500000  0.046662  0.600823  1
  Ag  Ag13  1  0.000000  0.458014  0.097301  1
  Ag  Ag14  1  0.000000  0.961400  0.401169  1
  Ag  Ag15  1  0.500000  0.697063  0.461218  1
