# generated using pymatgen
data_TbTm3(Ga2Ag)4
_symmetry_space_group_name_H-M   'P 1'
_cell_length_a   4.36562400
_cell_length_b   6.91644527
_cell_length_c   10.22314777
_cell_angle_alpha   90.14138731
_cell_angle_beta   90.00000000
_cell_angle_gamma   90.00000000
_symmetry_Int_Tables_number   1
_chemical_formula_structural   TbTm3(Ga2Ag)4
_chemical_formula_sum   'Tb1 Tm3 Ga8 Ag4'
_cell_volume   308.68291245
_cell_formula_units_Z   1
loop_
 _symmetry_equiv_pos_site_id
 _symmetry_equiv_pos_as_xyz
  1  'x, y, z'
loop_
 _atom_site_type_symbol
 _atom_site_label
 _atom_site_symmetry_multiplicity
 _atom_site_fract_x
 _atom_site_fract_y
 _atom_site_fract_z
 _atom_site_occupancy
  Tb  Tb0  1  0.250000  0.279049  0.675938  1
  Tm  Tm1  1  0.250000  0.778519  0.825187  1
  Tm  Tm2  1  0.750000  0.220969  0.175496  1
  Tm  Tm3  1  0.750000  0.721361  0.324402  1
  Ga  Ga4  1  0.250000  0.929514  0.154986  1
  Ga  Ga5  1  0.750000  0.068646  0.845801  1
  Ga  Ga6  1  0.750000  0.572842  0.654822  1
  Ga  Ga7  1  0.250000  0.430361  0.344950  1
  Ga  Ga8  1  0.250000  0.702859  0.536187  1
  Ga  Ga9  1  0.750000  0.298870  0.462452  1
  Ga  Ga10  1  0.750000  0.799503  0.036558  1
  Ga  Ga11  1  0.250000  0.199268  0.965269  1
  Ag  Ag12  1  0.250000  0.544370  0.095723  1
  Ag  Ag13  1  0.750000  0.455705  0.904779  1
  Ag  Ag14  1  0.750000  0.954545  0.594819  1
  Ag  Ag15  1  0.250000  0.043619  0.402632  1
