# generated using pymatgen
data_La3Hg5Pt
_symmetry_space_group_name_H-M   'P 1'
_cell_length_a   8.33511100
_cell_length_b   8.33511223
_cell_length_c   3.97579600
_cell_angle_alpha   90.00000000
_cell_angle_beta   90.00000000
_cell_angle_gamma   119.99999909
_symmetry_Int_Tables_number   1
_chemical_formula_structural   La3Hg5Pt
_chemical_formula_sum   'La3 Hg5 Pt1'
_cell_volume   239.20902874
_cell_formula_units_Z   1
loop_
 _symmetry_equiv_pos_site_id
 _symmetry_equiv_pos_as_xyz
  1  'x, y, z'
loop_
 _atom_site_type_symbol
 _atom_site_label
 _atom_site_symmetry_multiplicity
 _atom_site_fract_x
 _atom_site_fract_y
 _atom_site_fract_z
 _atom_site_occupancy
  La  La0  1  0.421309  0.395770  0.500000  1
  La  La1  1  0.604230  0.025539  0.500000  1
  La  La2  1  0.974461  0.578691  0.500000  1
  Hg  Hg3  1  0.726223  0.725882  0.000000  1
  Hg  Hg4  1  0.274118  0.000342  0.000000  1
  Hg  Hg5  1  0.999658  0.273777  0.000000  1
  Hg  Hg6  1  0.333333  0.666667  0.000000  1
  Hg  Hg7  1  0.000000  0.000000  0.500000  1
  Pt  Pt8  1  0.666667  0.333333  0.000000  1
