# generated using pymatgen
data_CeEr3CdCo
_symmetry_space_group_name_H-M   'P 1'
_cell_length_a   9.44696689
_cell_length_b   9.44696719
_cell_length_c   9.44696600
_cell_angle_alpha   59.99999718
_cell_angle_beta   59.99999613
_cell_angle_gamma   59.99999443
_symmetry_Int_Tables_number   1
_chemical_formula_structural   CeEr3CdCo
_chemical_formula_sum   'Ce4 Er12 Cd4 Co4'
_cell_volume   596.15901391
_cell_formula_units_Z   4
loop_
 _symmetry_equiv_pos_site_id
 _symmetry_equiv_pos_as_xyz
  1  'x, y, z'
loop_
 _atom_site_type_symbol
 _atom_site_label
 _atom_site_symmetry_multiplicity
 _atom_site_fract_x
 _atom_site_fract_y
 _atom_site_fract_z
 _atom_site_occupancy
  Ce  Ce0  1  0.345105  0.345105  0.345105  1
  Ce  Ce1  1  0.345105  0.345105  0.964685  1
  Ce  Ce2  1  0.345105  0.964685  0.345105  1
  Ce  Ce3  1  0.964685  0.345105  0.345105  1
  Er  Er4  1  0.812710  0.187290  0.187290  1
  Er  Er5  1  0.187290  0.812710  0.812710  1
  Er  Er6  1  0.187290  0.812710  0.187290  1
  Er  Er7  1  0.812710  0.187290  0.812710  1
  Er  Er8  1  0.187290  0.187290  0.812710  1
  Er  Er9  1  0.812710  0.812710  0.187290  1
  Er  Er10  1  0.936868  0.563132  0.563132  1
  Er  Er11  1  0.563132  0.936868  0.936868  1
  Er  Er12  1  0.563132  0.936868  0.563132  1
  Er  Er13  1  0.936868  0.563132  0.936868  1
  Er  Er14  1  0.563132  0.563132  0.936868  1
  Er  Er15  1  0.936868  0.936868  0.563132  1
  Cd  Cd16  1  0.581401  0.581401  0.581401  1
  Cd  Cd17  1  0.581401  0.581401  0.255795  1
  Cd  Cd18  1  0.581401  0.255795  0.581401  1
  Cd  Cd19  1  0.255795  0.581401  0.581401  1
  Co  Co20  1  0.145442  0.145442  0.145442  1
  Co  Co21  1  0.145442  0.145442  0.563672  1
  Co  Co22  1  0.145442  0.563672  0.145442  1
  Co  Co23  1  0.563672  0.145442  0.145442  1
