# generated using pymatgen
data_Ho7Tm3(Bi2Ru)2
_symmetry_space_group_name_H-M   'P 1'
_cell_length_a   7.92283583
_cell_length_b   8.98133998
_cell_length_c   12.42165342
_cell_angle_alpha   89.96040083
_cell_angle_beta   90.03788398
_cell_angle_gamma   90.03613879
_symmetry_Int_Tables_number   1
_chemical_formula_structural   Ho7Tm3(Bi2Ru)2
_chemical_formula_sum   'Ho14 Tm6 Bi8 Ru4'
_cell_volume   883.89548640
_cell_formula_units_Z   2
loop_
 _symmetry_equiv_pos_site_id
 _symmetry_equiv_pos_as_xyz
  1  'x, y, z'
loop_
 _atom_site_type_symbol
 _atom_site_label
 _atom_site_symmetry_multiplicity
 _atom_site_fract_x
 _atom_site_fract_y
 _atom_site_fract_z
 _atom_site_occupancy
  Ho  Ho0  1  0.840331  0.750204  0.792223  1
  Ho  Ho1  1  0.159669  0.249796  0.207777  1
  Ho  Ho2  1  0.340707  0.249884  0.707365  1
  Ho  Ho3  1  0.659293  0.750116  0.292635  1
  Ho  Ho4  1  0.375871  0.750117  0.689829  1
  Ho  Ho5  1  0.624129  0.249883  0.310171  1
  Ho  Ho6  1  0.875638  0.249549  0.809636  1
  Ho  Ho7  1  0.124362  0.750451  0.190364  1
  Ho  Ho8  1  0.945602  0.750038  0.504370  1
  Ho  Ho9  1  0.054398  0.249962  0.495630  1
  Ho  Ho10  1  0.445562  0.249503  0.995738  1
  Ho  Ho11  1  0.554438  0.750497  0.004262  1
  Ho  Ho12  1  0.825265  0.457775  0.064851  1
  Ho  Ho13  1  0.174735  0.542225  0.935149  1
  Tm  Tm14  1  0.672839  0.042265  0.564535  1
  Tm  Tm15  1  0.327161  0.957735  0.435465  1
  Tm  Tm16  1  0.172816  0.957831  0.935488  1
  Tm  Tm17  1  0.327149  0.542248  0.435493  1
  Tm  Tm18  1  0.827184  0.042169  0.064512  1
  Tm  Tm19  1  0.672851  0.457752  0.564507  1
  Bi  Bi20  1  0.567396  0.493204  0.827194  1
  Bi  Bi21  1  0.432604  0.506796  0.172806  1
  Bi  Bi22  1  0.066811  0.506772  0.672438  1
  Bi  Bi23  1  0.433161  0.993299  0.172651  1
  Bi  Bi24  1  0.933189  0.493228  0.327562  1
  Bi  Bi25  1  0.566839  0.006701  0.827349  1
  Bi  Bi26  1  0.933045  0.006789  0.327470  1
  Bi  Bi27  1  0.066955  0.993211  0.672530  1
  Ru  Ru28  1  0.573019  0.749948  0.509837  1
  Ru  Ru29  1  0.426981  0.250052  0.490163  1
  Ru  Ru30  1  0.073620  0.248775  0.990012  1
  Ru  Ru31  1  0.926380  0.751225  0.009988  1
