# generated using pymatgen
data_CaLaBC11
_symmetry_space_group_name_H-M   'P 1'
_cell_length_a   4.41673689
_cell_length_b   4.41519646
_cell_length_c   9.18711400
_cell_angle_alpha   91.08339324
_cell_angle_beta   88.93296950
_cell_angle_gamma   120.02866081
_symmetry_Int_Tables_number   1
_chemical_formula_structural   CaLaBC11
_chemical_formula_sum   'Ca1 La1 B1 C11'
_cell_volume   155.07216065
_cell_formula_units_Z   1
loop_
 _symmetry_equiv_pos_site_id
 _symmetry_equiv_pos_as_xyz
  1  'x, y, z'
loop_
 _atom_site_type_symbol
 _atom_site_label
 _atom_site_symmetry_multiplicity
 _atom_site_fract_x
 _atom_site_fract_y
 _atom_site_fract_z
 _atom_site_occupancy
  Ca  Ca0  1  0.687110  0.339661  0.753028  1
  La  La1  1  0.336897  0.692766  0.243344  1
  B  B2  1  0.325312  0.324580  0.508683  1
  C  C3  1  0.659161  0.991518  0.511021  1
  C  C4  1  0.992591  0.659023  0.510311  1
  C  C5  1  0.670483  0.670262  0.509964  1
  C  C6  1  0.981131  0.325751  0.506968  1
  C  C7  1  0.326041  0.980629  0.514231  1
  C  C8  1  0.669646  0.669330  0.990809  1
  C  C9  1  0.337021  0.002208  0.988654  1
  C  C10  1  0.003795  0.336404  0.992013  1
  C  C11  1  0.336925  0.336247  0.990782  1
  C  C12  1  0.004317  0.669525  0.990861  1
  C  C13  1  0.669571  0.002094  0.989329  1
