# generated using pymatgen
data_Ac2Ni3Ir
_symmetry_space_group_name_H-M   'P 1'
_cell_length_a   4.23164800
_cell_length_b   4.18350200
_cell_length_c   7.21245300
_cell_angle_alpha   90.00015065
_cell_angle_beta   90.00000000
_cell_angle_gamma   90.00000000
_symmetry_Int_Tables_number   1
_chemical_formula_structural   Ac2Ni3Ir
_chemical_formula_sum   'Ac2 Ni3 Ir1'
_cell_volume   127.68283348
_cell_formula_units_Z   1
loop_
 _symmetry_equiv_pos_site_id
 _symmetry_equiv_pos_as_xyz
  1  'x, y, z'
loop_
 _atom_site_type_symbol
 _atom_site_label
 _atom_site_symmetry_multiplicity
 _atom_site_fract_x
 _atom_site_fract_y
 _atom_site_fract_z
 _atom_site_occupancy
  Ac  Ac0  1  0.000000  0.999965  0.001041  1
  Ac  Ac1  1  0.000000  0.499968  0.498728  1
  Ni  Ni2  1  0.500000  0.499969  0.831954  1
  Ni  Ni3  1  0.500000  0.499963  0.160386  1
  Ni  Ni4  1  0.500000  0.999968  0.673790  1
  Ir  Ir5  1  0.500000  0.999967  0.334103  1
