# generated using pymatgen
data_Ho5Ge3P9Ir19
_symmetry_space_group_name_H-M   'P 1'
_cell_length_a   12.89664733
_cell_length_b   12.78160477
_cell_length_c   3.97752800
_cell_angle_alpha   90.00000000
_cell_angle_beta   90.00000000
_cell_angle_gamma   119.95004334
_symmetry_Int_Tables_number   1
_chemical_formula_structural   Ho5Ge3P9Ir19
_chemical_formula_sum   'Ho5 Ge3 P9 Ir19'
_cell_volume   568.09960534
_cell_formula_units_Z   1
loop_
 _symmetry_equiv_pos_site_id
 _symmetry_equiv_pos_as_xyz
  1  'x, y, z'
loop_
 _atom_site_type_symbol
 _atom_site_label
 _atom_site_symmetry_multiplicity
 _atom_site_fract_x
 _atom_site_fract_y
 _atom_site_fract_z
 _atom_site_occupancy
  Ho  Ho0  1  0.663042  0.334216  0.000000  1
  Ho  Ho1  1  0.334164  0.665987  0.000000  1
  Ho  Ho2  1  0.822015  0.819519  0.500000  1
  Ho  Ho3  1  0.179200  0.000118  0.500000  1
  Ho  Ho4  1  0.999089  0.184481  0.500000  1
  Ge  Ge5  1  0.677378  0.163709  0.500000  1
  Ge  Ge6  1  0.643478  0.643712  0.000000  1
  Ge  Ge7  1  0.356453  0.997403  0.000000  1
  P  P8  1  0.833952  0.516968  0.500000  1
  P  P9  1  0.479233  0.322850  0.500000  1
  P  P10  1  0.181098  0.694515  0.500000  1
  P  P11  1  0.518014  0.823253  0.500000  1
  P  P12  1  0.305405  0.483389  0.500000  1
  P  P13  1  0.999059  0.357636  0.000000  1
  P  P14  1  0.171826  0.180840  0.000000  1
  P  P15  1  0.822582  0.998581  0.000000  1
  P  P16  1  0.003392  0.820489  0.000000  1
  Ir  Ir17  1  0.816470  0.180521  0.000000  1
  Ir  Ir18  1  0.828237  0.624912  0.000000  1
  Ir  Ir19  1  0.358380  0.190574  0.000000  1
  Ir  Ir20  1  0.175838  0.790695  0.000000  1
  Ir  Ir21  1  0.616605  0.824184  0.000000  1
  Ir  Ir22  1  0.190227  0.378177  0.000000  1
  Ir  Ir23  1  0.467825  0.439740  0.000000  1
  Ir  Ir24  1  0.557441  0.020855  0.000000  1
  Ir  Ir25  1  0.994174  0.534438  0.000000  1
  Ir  Ir26  1  0.281973  0.288436  0.500000  1
  Ir  Ir27  1  0.723067  0.996168  0.500000  1
  Ir  Ir28  1  0.002457  0.716847  0.500000  1
  Ir  Ir29  1  0.867677  0.359363  0.500000  1
  Ir  Ir30  1  0.649667  0.510133  0.500000  1
  Ir  Ir31  1  0.479139  0.141308  0.500000  1
  Ir  Ir32  1  0.370506  0.871982  0.500000  1
  Ir  Ir33  1  0.502101  0.629972  0.500000  1
  Ir  Ir34  1  0.129368  0.496723  0.500000  1
  Ir  Ir35  1  0.999469  0.997307  0.000000  1
