# generated using pymatgen
data_Nd16CdHg3IrPd3
_symmetry_space_group_name_H-M   'P 1'
_cell_length_a   9.99338224
_cell_length_b   10.00706025
_cell_length_c   10.00706100
_cell_angle_alpha   60.00000082
_cell_angle_beta   59.95471404
_cell_angle_gamma   59.95471841
_symmetry_Int_Tables_number   1
_chemical_formula_structural   Nd16CdHg3IrPd3
_chemical_formula_sum   'Nd16 Cd1 Hg3 Ir1 Pd3'
_cell_volume   707.15231486
_cell_formula_units_Z   1
loop_
 _symmetry_equiv_pos_site_id
 _symmetry_equiv_pos_as_xyz
  1  'x, y, z'
loop_
 _atom_site_type_symbol
 _atom_site_label
 _atom_site_symmetry_multiplicity
 _atom_site_fract_x
 _atom_site_fract_y
 _atom_site_fract_z
 _atom_site_occupancy
  Nd  Nd0  1  0.353987  0.347723  0.347723  1
  Nd  Nd1  1  0.353987  0.347723  0.950566  1
  Nd  Nd2  1  0.353987  0.950566  0.347723  1
  Nd  Nd3  1  0.933640  0.355453  0.355453  1
  Nd  Nd4  1  0.805429  0.190470  0.190470  1
  Nd  Nd5  1  0.195805  0.806819  0.806819  1
  Nd  Nd6  1  0.195805  0.806819  0.190556  1
  Nd  Nd7  1  0.805429  0.190470  0.813630  1
  Nd  Nd8  1  0.195805  0.190556  0.806819  1
  Nd  Nd9  1  0.805429  0.813630  0.190470  1
  Nd  Nd10  1  0.936412  0.565077  0.565077  1
  Nd  Nd11  1  0.568157  0.936319  0.936319  1
  Nd  Nd12  1  0.568157  0.936319  0.559205  1
  Nd  Nd13  1  0.936412  0.565077  0.933435  1
  Nd  Nd14  1  0.568157  0.559205  0.936319  1
  Nd  Nd15  1  0.936412  0.933435  0.565077  1
  Cd  Cd16  1  0.263461  0.578846  0.578846  1
  Hg  Hg17  1  0.579295  0.586548  0.586548  1
  Hg  Hg18  1  0.579295  0.586548  0.247607  1
  Hg  Hg19  1  0.579295  0.247607  0.586548  1
  Ir  Ir20  1  0.571041  0.142986  0.142986  1
  Pd  Pd21  1  0.138201  0.145794  0.145794  1
  Pd  Pd22  1  0.138201  0.145794  0.570210  1
  Pd  Pd23  1  0.138201  0.570210  0.145794  1
