# generated using pymatgen
data_PrMnNi4As3
_symmetry_space_group_name_H-M   'P 1'
_cell_length_a   3.95823100
_cell_length_b   11.13809600
_cell_length_c   12.72019600
_cell_angle_alpha   90.00000000
_cell_angle_beta   90.00000000
_cell_angle_gamma   90.00000000
_symmetry_Int_Tables_number   1
_chemical_formula_structural   PrMnNi4As3
_chemical_formula_sum   'Pr4 Mn4 Ni16 As12'
_cell_volume   560.79727645
_cell_formula_units_Z   4
loop_
 _symmetry_equiv_pos_site_id
 _symmetry_equiv_pos_as_xyz
  1  'x, y, z'
loop_
 _atom_site_type_symbol
 _atom_site_label
 _atom_site_symmetry_multiplicity
 _atom_site_fract_x
 _atom_site_fract_y
 _atom_site_fract_z
 _atom_site_occupancy
  Pr  Pr0  1  0.250000  0.920127  0.202465  1
  Pr  Pr1  1  0.750000  0.079873  0.797535  1
  Pr  Pr2  1  0.750000  0.420127  0.297535  1
  Pr  Pr3  1  0.250000  0.579873  0.702465  1
  Mn  Mn4  1  0.250000  0.799776  0.491516  1
  Mn  Mn5  1  0.750000  0.200224  0.508484  1
  Mn  Mn6  1  0.750000  0.299776  0.008484  1
  Mn  Mn7  1  0.250000  0.700224  0.991516  1
  Ni  Ni8  1  0.250000  0.096628  0.990877  1
  Ni  Ni9  1  0.750000  0.903372  0.009123  1
  Ni  Ni10  1  0.750000  0.596628  0.509123  1
  Ni  Ni11  1  0.250000  0.403372  0.490877  1
  Ni  Ni12  1  0.250000  0.281472  0.674554  1
  Ni  Ni13  1  0.750000  0.718528  0.325446  1
  Ni  Ni14  1  0.750000  0.781472  0.825446  1
  Ni  Ni15  1  0.250000  0.218528  0.174554  1
  Ni  Ni16  1  0.250000  0.619031  0.198313  1
  Ni  Ni17  1  0.750000  0.380969  0.801687  1
  Ni  Ni18  1  0.750000  0.119031  0.301687  1
  Ni  Ni19  1  0.250000  0.880969  0.698313  1
  Ni  Ni20  1  0.250000  0.030892  0.432090  1
  Ni  Ni21  1  0.750000  0.969108  0.567910  1
  Ni  Ni22  1  0.750000  0.530892  0.067910  1
  Ni  Ni23  1  0.250000  0.469108  0.932090  1
  As  As24  1  0.250000  0.080383  0.613444  1
  As  As25  1  0.750000  0.919617  0.386556  1
  As  As26  1  0.750000  0.580383  0.886556  1
  As  As27  1  0.250000  0.419617  0.113444  1
  As  As28  1  0.250000  0.227248  0.365213  1
  As  As29  1  0.750000  0.772752  0.634787  1
  As  As30  1  0.750000  0.727248  0.134787  1
  As  As31  1  0.250000  0.272752  0.865213  1
  As  As32  1  0.250000  0.897869  0.894355  1
  As  As33  1  0.750000  0.102131  0.105645  1
  As  As34  1  0.750000  0.397869  0.605645  1
  As  As35  1  0.250000  0.602131  0.394355  1
