# generated using pymatgen
data_Dy3Y11(Ho3Sn8)2
_symmetry_space_group_name_H-M   'P 1'
_cell_length_a   8.03932403
_cell_length_b   8.17808820
_cell_length_c   15.46949004
_cell_angle_alpha   90.00030737
_cell_angle_beta   90.00332983
_cell_angle_gamma   89.98344742
_symmetry_Int_Tables_number   1
_chemical_formula_structural   Dy3Y11(Ho3Sn8)2
_chemical_formula_sum   'Dy3 Y11 Ho6 Sn16'
_cell_volume   1017.06170355
_cell_formula_units_Z   1
loop_
 _symmetry_equiv_pos_site_id
 _symmetry_equiv_pos_as_xyz
  1  'x, y, z'
loop_
 _atom_site_type_symbol
 _atom_site_label
 _atom_site_symmetry_multiplicity
 _atom_site_fract_x
 _atom_site_fract_y
 _atom_site_fract_z
 _atom_site_occupancy
  Dy  Dy0  1  0.367550  0.836415  0.877780  1
  Dy  Dy1  1  0.867544  0.663472  0.622166  1
  Dy  Dy2  1  0.632728  0.163645  0.377956  1
  Y  Y3  1  0.367393  0.836635  0.622012  1
  Y  Y4  1  0.867323  0.663299  0.878066  1
  Y  Y5  1  0.522241  0.320944  0.902270  1
  Y  Y6  1  0.022150  0.179064  0.597734  1
  Y  Y7  1  0.477924  0.678697  0.402064  1
  Y  Y8  1  0.977721  0.821005  0.097901  1
  Y  Y9  1  0.478080  0.678884  0.097781  1
  Y  Y10  1  0.977921  0.820845  0.402226  1
  Y  Y11  1  0.522079  0.320893  0.597816  1
  Y  Y12  1  0.022056  0.179175  0.902251  1
  Y  Y13  1  0.301075  0.002957  0.249913  1
  Ho  Ho14  1  0.132433  0.336718  0.122096  1
  Ho  Ho15  1  0.632630  0.163532  0.122197  1
  Ho  Ho16  1  0.132333  0.336764  0.377761  1
  Ho  Ho17  1  0.198867  0.502784  0.749937  1
  Ho  Ho18  1  0.698856  0.997233  0.750055  1
  Ho  Ho19  1  0.801204  0.496834  0.249983  1
  Sn  Sn20  1  0.292936  0.036130  0.041805  1
  Sn  Sn21  1  0.793037  0.464369  0.457941  1
  Sn  Sn22  1  0.707633  0.964498  0.541974  1
  Sn  Sn23  1  0.207629  0.535334  0.958202  1
  Sn  Sn24  1  0.706889  0.965084  0.958222  1
  Sn  Sn25  1  0.206990  0.534931  0.541787  1
  Sn  Sn26  1  0.292507  0.036293  0.457954  1
  Sn  Sn27  1  0.792769  0.463846  0.042364  1
  Sn  Sn28  1  0.565112  0.619440  0.750058  1
  Sn  Sn29  1  0.065048  0.880536  0.749949  1
  Sn  Sn30  1  0.434821  0.380548  0.249976  1
  Sn  Sn31  1  0.934545  0.120102  0.249880  1
  Sn  Sn32  1  0.330538  0.147419  0.750138  1
  Sn  Sn33  1  0.830572  0.352581  0.749873  1
  Sn  Sn34  1  0.669834  0.852700  0.249934  1
  Sn  Sn35  1  0.169035  0.646395  0.249978  1
