# generated using pymatgen
data_Sr5Tb(Sn4Sb)2
_symmetry_space_group_name_H-M   'P 1'
_cell_length_a   8.91690010
_cell_length_b   8.91689854
_cell_length_c   8.91689944
_cell_angle_alpha   119.92079991
_cell_angle_beta   119.92078954
_cell_angle_gamma   90.13723836
_symmetry_Int_Tables_number   1
_chemical_formula_structural   Sr5Tb(Sn4Sb)2
_chemical_formula_sum   'Sr5 Tb1 Sn8 Sb2'
_cell_volume   501.93199945
_cell_formula_units_Z   1
loop_
 _symmetry_equiv_pos_site_id
 _symmetry_equiv_pos_as_xyz
  1  'x, y, z'
loop_
 _atom_site_type_symbol
 _atom_site_label
 _atom_site_symmetry_multiplicity
 _atom_site_fract_x
 _atom_site_fract_y
 _atom_site_fract_z
 _atom_site_occupancy
  Sr  Sr0  1  0.750000  0.750000  0.000000  1
  Sr  Sr1  1  0.162926  0.662926  0.825852  1
  Sr  Sr2  1  0.837074  0.337074  0.174148  1
  Sr  Sr3  1  0.662926  0.837074  0.500000  1
  Sr  Sr4  1  0.337074  0.162926  0.500000  1
  Tb  Tb5  1  0.250000  0.250000  0.000000  1
  Sn  Sn6  1  0.833536  0.328642  0.788107  1
  Sn  Sn7  1  0.171358  0.666464  0.211893  1
  Sn  Sn8  1  0.540534  0.045429  0.211893  1
  Sn  Sn9  1  0.328642  0.540534  0.495105  1
  Sn  Sn10  1  0.959466  0.171358  0.504895  1
  Sn  Sn11  1  0.454571  0.959466  0.788107  1
  Sn  Sn12  1  0.666464  0.454571  0.495105  1
  Sn  Sn13  1  0.045429  0.833536  0.504895  1
  Sb  Sb14  1  0.009419  0.009419  0.000000  1
  Sb  Sb15  1  0.490581  0.490581  0.000000  1
