# generated using pymatgen
data_Ca5ThU2O12
_symmetry_space_group_name_H-M   'P 1'
_cell_length_a   6.88423151
_cell_length_b   6.84967767
_cell_length_c   6.84934736
_cell_angle_alpha   91.98584584
_cell_angle_beta   90.86598990
_cell_angle_gamma   91.53625994
_symmetry_Int_Tables_number   1
_chemical_formula_structural   Ca5ThU2O12
_chemical_formula_sum   'Ca5 Th1 U2 O12'
_cell_volume   322.62777467
_cell_formula_units_Z   1
loop_
 _symmetry_equiv_pos_site_id
 _symmetry_equiv_pos_as_xyz
  1  'x, y, z'
loop_
 _atom_site_type_symbol
 _atom_site_label
 _atom_site_symmetry_multiplicity
 _atom_site_fract_x
 _atom_site_fract_y
 _atom_site_fract_z
 _atom_site_occupancy
  Ca  Ca0  1  0.748604  0.940507  0.441254  1
  Ca  Ca1  1  0.549437  0.247180  0.063573  1
  Ca  Ca2  1  0.254161  0.054123  0.553938  1
  Ca  Ca3  1  0.065591  0.562869  0.251426  1
  Ca  Ca4  1  0.446680  0.750979  0.941414  1
  Th  Th5  1  0.935153  0.438418  0.747402  1
  U  U6  1  0.000421  0.998018  0.005322  1
  U  U7  1  0.495869  0.502017  0.494119  1
  O  O8  1  0.291406  0.061627  0.926922  1
  O  O9  1  0.063541  0.921784  0.297503  1
  O  O10  1  0.923777  0.307299  0.058538  1
  O  O11  1  0.706669  0.937173  0.075217  1
  O  O12  1  0.934159  0.091135  0.703013  1
  O  O13  1  0.076162  0.690383  0.928218  1
  O  O14  1  0.192596  0.405966  0.541898  1
  O  O15  1  0.409206  0.540357  0.200127  1
  O  O16  1  0.459170  0.794301  0.587743  1
  O  O17  1  0.598504  0.459692  0.798026  1
  O  O18  1  0.807582  0.589624  0.471273  1
  O  O19  1  0.541312  0.206549  0.413072  1
