# generated using pymatgen
data_CaSmRe7Si4Mo
_symmetry_space_group_name_H-M   'P 1'
_cell_length_a   7.75986465
_cell_length_b   7.08798666
_cell_length_c   4.20477000
_cell_angle_alpha   90.00000000
_cell_angle_beta   90.00000000
_cell_angle_gamma   90.50813476
_symmetry_Int_Tables_number   1
_chemical_formula_structural   CaSmRe7Si4Mo
_chemical_formula_sum   'Ca1 Sm1 Re7 Si4 Mo1'
_cell_volume   231.26089564
_cell_formula_units_Z   1
loop_
 _symmetry_equiv_pos_site_id
 _symmetry_equiv_pos_as_xyz
  1  'x, y, z'
loop_
 _atom_site_type_symbol
 _atom_site_label
 _atom_site_symmetry_multiplicity
 _atom_site_fract_x
 _atom_site_fract_y
 _atom_site_fract_z
 _atom_site_occupancy
  Ca  Ca0  1  0.500896  0.499765  0.000000  1
  Sm  Sm1  1  0.999719  0.002082  0.500000  1
  Re  Re2  1  0.609217  0.154174  0.500000  1
  Re  Re3  1  0.392554  0.843848  0.500000  1
  Re  Re4  1  0.889261  0.656192  0.000000  1
  Re  Re5  1  0.157998  0.580437  0.500000  1
  Re  Re6  1  0.836225  0.419954  0.500000  1
  Re  Re7  1  0.343560  0.077797  0.000000  1
  Re  Re8  1  0.660110  0.918293  0.000000  1
  Si  Si9  1  0.688713  0.724096  0.500000  1
  Si  Si10  1  0.313865  0.275868  0.500000  1
  Si  Si11  1  0.191694  0.771506  0.000000  1
  Si  Si12  1  0.805099  0.227870  0.000000  1
  Mo  Mo13  1  0.111089  0.348116  0.000000  1
