# generated using pymatgen
data_Ho17Er3Si15Hg
_symmetry_space_group_name_H-M   'P 1'
_cell_length_a   7.40490680
_cell_length_b   7.67145156
_cell_length_c   14.58157101
_cell_angle_alpha   89.95058860
_cell_angle_beta   89.25827404
_cell_angle_gamma   90.10968095
_symmetry_Int_Tables_number   1
_chemical_formula_structural   Ho17Er3Si15Hg
_chemical_formula_sum   'Ho17 Er3 Si15 Hg1'
_cell_volume   828.25506805
_cell_formula_units_Z   1
loop_
 _symmetry_equiv_pos_site_id
 _symmetry_equiv_pos_as_xyz
  1  'x, y, z'
loop_
 _atom_site_type_symbol
 _atom_site_label
 _atom_site_symmetry_multiplicity
 _atom_site_fract_x
 _atom_site_fract_y
 _atom_site_fract_z
 _atom_site_occupancy
  Ho  Ho0  1  0.347788  0.011491  0.749495  1
  Ho  Ho1  1  0.977829  0.823504  0.102088  1
  Ho  Ho2  1  0.471936  0.684274  0.401235  1
  Ho  Ho3  1  0.517159  0.311974  0.898805  1
  Ho  Ho4  1  0.029930  0.182126  0.598036  1
  Ho  Ho5  1  0.026986  0.176135  0.899886  1
  Ho  Ho6  1  0.529373  0.315955  0.598182  1
  Ho  Ho7  1  0.476083  0.682796  0.101281  1
  Ho  Ho8  1  0.970067  0.816499  0.400538  1
  Ho  Ho9  1  0.672047  0.830574  0.873508  1
  Ho  Ho10  1  0.182101  0.679796  0.621477  1
  Ho  Ho11  1  0.823092  0.320297  0.126619  1
  Ho  Ho12  1  0.318913  0.178190  0.377840  1
  Ho  Ho13  1  0.324117  0.176692  0.124482  1
  Ho  Ho14  1  0.819913  0.321154  0.377466  1
  Ho  Ho15  1  0.181120  0.675491  0.876878  1
  Ho  Ho16  1  0.681764  0.822419  0.621678  1
  Er  Er17  1  0.649702  0.990612  0.250381  1
  Er  Er18  1  0.152420  0.510998  0.248487  1
  Er  Er19  1  0.848082  0.489579  0.747754  1
  Si  Si20  1  0.769134  0.630042  0.252339  1
  Si  Si21  1  0.269090  0.871730  0.252111  1
  Si  Si22  1  0.732806  0.128023  0.747648  1
  Si  Si23  1  0.228989  0.372002  0.747319  1
  Si  Si24  1  0.023319  0.103962  0.252154  1
  Si  Si25  1  0.523886  0.395046  0.252759  1
  Si  Si26  1  0.476234  0.604668  0.747377  1
  Si  Si27  1  0.976669  0.891938  0.747447  1
  Si  Si28  1  0.354402  0.971621  0.540662  1
  Si  Si29  1  0.653352  0.029830  0.041376  1
  Si  Si30  1  0.147231  0.470456  0.459907  1
  Si  Si31  1  0.162514  0.469341  0.042624  1
  Si  Si32  1  0.646715  0.028478  0.458622  1
  Si  Si33  1  0.347306  0.967855  0.961419  1
  Si  Si34  1  0.854521  0.530266  0.539386  1
  Hg  Hg35  1  0.833409  0.534187  0.960735  1
