# generated using pymatgen
data_La4MgTi4(Si2O11)2
_symmetry_space_group_name_H-M   'P 1'
_cell_length_a   7.40452476
_cell_length_b   7.40452551
_cell_length_c   11.18356902
_cell_angle_alpha   80.17237185
_cell_angle_beta   99.82762838
_cell_angle_gamma   134.61406279
_symmetry_Int_Tables_number   1
_chemical_formula_structural   La4MgTi4(Si2O11)2
_chemical_formula_sum   'La4 Mg1 Ti4 Si4 O22'
_cell_volume   428.94636540
_cell_formula_units_Z   1
loop_
 _symmetry_equiv_pos_site_id
 _symmetry_equiv_pos_as_xyz
  1  'x, y, z'
loop_
 _atom_site_type_symbol
 _atom_site_label
 _atom_site_symmetry_multiplicity
 _atom_site_fract_x
 _atom_site_fract_y
 _atom_site_fract_z
 _atom_site_occupancy
  La  La0  1  0.141014  0.858988  0.266111  1
  La  La1  1  0.858988  0.141014  0.733888  1
  La  La2  1  0.431541  0.568460  0.259710  1
  La  La3  1  0.568461  0.431541  0.740290  1
  Mg  Mg4  1  0.000001  0.999999  0.500000  1
  Ti  Ti5  1  0.000000  0.000000  0.000000  1
  Ti  Ti6  1  0.500000  0.000001  0.000000  1
  Ti  Ti7  1  0.000001  0.500000  0.000000  1
  Ti  Ti8  1  0.500001  0.500001  0.000000  1
  Si  Si9  1  0.200608  0.799393  0.730275  1
  Si  Si10  1  0.799394  0.200608  0.269725  1
  Si  Si11  1  0.358110  0.641892  0.544107  1
  Si  Si12  1  0.641892  0.358109  0.455894  1
  O  O13  1  0.465129  0.006335  0.815449  1
  O  O14  1  0.006334  0.465130  0.184551  1
  O  O15  1  0.534870  0.993665  0.184551  1
  O  O16  1  0.993665  0.534870  0.815449  1
  O  O17  1  0.084757  0.915244  0.671208  1
  O  O18  1  0.915244  0.084757  0.328792  1
  O  O19  1  0.271403  0.728598  0.628051  1
  O  O20  1  0.728598  0.271404  0.371949  1
  O  O21  1  0.312810  0.687191  0.400150  1
  O  O22  1  0.687191  0.312811  0.599850  1
  O  O23  1  0.726188  0.770802  0.871938  1
  O  O24  1  0.770802  0.726188  0.128062  1
  O  O25  1  0.273812  0.229197  0.128062  1
  O  O26  1  0.229198  0.273812  0.871938  1
  O  O27  1  0.355279  0.644722  0.023947  1
  O  O28  1  0.644723  0.355279  0.976054  1
  O  O29  1  0.150224  0.849777  0.011178  1
  O  O30  1  0.849778  0.150224  0.988822  1
  O  O31  1  0.341867  0.195495  0.410205  1
  O  O32  1  0.195494  0.341868  0.589795  1
  O  O33  1  0.658132  0.804506  0.589795  1
  O  O34  1  0.804504  0.658133  0.410205  1
