# generated using pymatgen
data_Ca6NdY(Si3Pd)4
_symmetry_space_group_name_H-M   'P 1'
_cell_length_a   8.25024900
_cell_length_b   8.25024719
_cell_length_c   8.39662300
_cell_angle_alpha   90.00000000
_cell_angle_beta   90.00000000
_cell_angle_gamma   119.99999522
_symmetry_Int_Tables_number   1
_chemical_formula_structural   Ca6NdY(Si3Pd)4
_chemical_formula_sum   'Ca6 Nd1 Y1 Si12 Pd4'
_cell_volume   494.95911215
_cell_formula_units_Z   1
loop_
 _symmetry_equiv_pos_site_id
 _symmetry_equiv_pos_as_xyz
  1  'x, y, z'
loop_
 _atom_site_type_symbol
 _atom_site_label
 _atom_site_symmetry_multiplicity
 _atom_site_fract_x
 _atom_site_fract_y
 _atom_site_fract_z
 _atom_site_occupancy
  Ca  Ca0  1  0.500850  0.001699  0.250000  1
  Ca  Ca1  1  0.499163  0.998325  0.750000  1
  Ca  Ca2  1  0.998301  0.499150  0.250000  1
  Ca  Ca3  1  0.001675  0.500837  0.750000  1
  Ca  Ca4  1  0.500850  0.499150  0.250000  1
  Ca  Ca5  1  0.499163  0.500837  0.750000  1
  Nd  Nd6  1  0.000000  0.000000  0.250000  1
  Y  Y7  1  0.000000  0.000000  0.750000  1
  Si  Si8  1  0.165111  0.330222  0.998826  1
  Si  Si9  1  0.834919  0.669838  0.996926  1
  Si  Si10  1  0.669778  0.834889  0.998826  1
  Si  Si11  1  0.834919  0.669838  0.503074  1
  Si  Si12  1  0.330162  0.165081  0.996926  1
  Si  Si13  1  0.165111  0.330222  0.501174  1
  Si  Si14  1  0.165111  0.834889  0.998826  1
  Si  Si15  1  0.330162  0.165081  0.503074  1
  Si  Si16  1  0.834919  0.165081  0.996926  1
  Si  Si17  1  0.669778  0.834889  0.501174  1
  Si  Si18  1  0.834919  0.165081  0.503074  1
  Si  Si19  1  0.165111  0.834889  0.501174  1
  Pd  Pd20  1  0.333333  0.666667  0.000316  1
  Pd  Pd21  1  0.666667  0.333333  0.997558  1
  Pd  Pd22  1  0.666667  0.333333  0.502442  1
  Pd  Pd23  1  0.333333  0.666667  0.499684  1
