# generated using pymatgen
data_Tb7Gd(Si3Ir)4
_symmetry_space_group_name_H-M   'P 1'
_cell_length_a   8.18711000
_cell_length_b   8.18641912
_cell_length_c   7.98019200
_cell_angle_alpha   90.00000000
_cell_angle_beta   90.00000000
_cell_angle_gamma   119.99719927
_symmetry_Int_Tables_number   1
_chemical_formula_structural   Tb7Gd(Si3Ir)4
_chemical_formula_sum   'Tb7 Gd1 Si12 Ir4'
_cell_volume   463.21309574
_cell_formula_units_Z   1
loop_
 _symmetry_equiv_pos_site_id
 _symmetry_equiv_pos_as_xyz
  1  'x, y, z'
loop_
 _atom_site_type_symbol
 _atom_site_label
 _atom_site_symmetry_multiplicity
 _atom_site_fract_x
 _atom_site_fract_y
 _atom_site_fract_z
 _atom_site_occupancy
  Tb  Tb0  1  0.000041  0.000020  0.250000  1
  Tb  Tb1  1  0.000028  0.000015  0.750000  1
  Tb  Tb2  1  0.509105  0.490869  0.250000  1
  Tb  Tb3  1  0.509105  0.018235  0.250000  1
  Tb  Tb4  1  0.981807  0.490904  0.250000  1
  Tb  Tb5  1  0.490991  0.509072  0.750000  1
  Tb  Tb6  1  0.490991  0.981919  0.750000  1
  Gd  Gd7  1  0.018258  0.509129  0.750000  1
  Si  Si8  1  0.166987  0.833543  0.498965  1
  Si  Si9  1  0.166987  0.333442  0.498965  1
  Si  Si10  1  0.666434  0.833216  0.499310  1
  Si  Si11  1  0.833066  0.166547  0.500411  1
  Si  Si12  1  0.833066  0.666521  0.500411  1
  Si  Si13  1  0.333433  0.166717  0.500578  1
  Si  Si14  1  0.833066  0.166547  0.999589  1
  Si  Si15  1  0.833066  0.666521  0.999589  1
  Si  Si16  1  0.333433  0.166717  0.999422  1
  Si  Si17  1  0.166987  0.833543  0.001035  1
  Si  Si18  1  0.166987  0.333442  0.001035  1
  Si  Si19  1  0.666434  0.833216  0.000690  1
  Ir  Ir20  1  0.333603  0.666802  0.467334  1
  Ir  Ir21  1  0.666261  0.333130  0.531610  1
  Ir  Ir22  1  0.666261  0.333130  0.968390  1
  Ir  Ir23  1  0.333603  0.666802  0.032666  1
