# generated using pymatgen
data_Li3Dy(BrO3)6
_symmetry_space_group_name_H-M   'P 1'
_cell_length_a   7.55889571
_cell_length_b   6.49705474
_cell_length_c   10.09557100
_cell_angle_alpha   92.95333381
_cell_angle_beta   111.37332730
_cell_angle_gamma   105.18208372
_symmetry_Int_Tables_number   1
_chemical_formula_structural   Li3Dy(BrO3)6
_chemical_formula_sum   'Li3 Dy1 Br6 O18'
_cell_volume   439.58864821
_cell_formula_units_Z   1
loop_
 _symmetry_equiv_pos_site_id
 _symmetry_equiv_pos_as_xyz
  1  'x, y, z'
loop_
 _atom_site_type_symbol
 _atom_site_label
 _atom_site_symmetry_multiplicity
 _atom_site_fract_x
 _atom_site_fract_y
 _atom_site_fract_z
 _atom_site_occupancy
  Li  Li0  1  0.490988  0.562539  0.314791  1
  Li  Li1  1  0.509012  0.437461  0.685209  1
  Li  Li2  1  0.000000  0.500000  0.500000  1
  Dy  Dy3  1  0.000000  0.000000  0.000000  1
  Br  Br4  1  0.509304  0.011738  0.207859  1
  Br  Br5  1  0.490696  0.988262  0.792141  1
  Br  Br6  1  0.779074  0.536068  0.154234  1
  Br  Br7  1  0.220926  0.463932  0.845766  1
  Br  Br8  1  0.134525  0.143259  0.397526  1
  Br  Br9  1  0.865475  0.856741  0.602474  1
  O  O10  1  0.603744  0.648643  0.156963  1
  O  O11  1  0.396256  0.351357  0.843037  1
  O  O12  1  0.035678  0.374267  0.683342  1
  O  O13  1  0.964322  0.625733  0.316658  1
  O  O14  1  0.533669  0.263541  0.273760  1
  O  O15  1  0.466331  0.736459  0.726240  1
  O  O16  1  0.095458  0.169205  0.222650  1
  O  O17  1  0.904542  0.830795  0.777350  1
  O  O18  1  0.301368  0.943578  0.047986  1
  O  O19  1  0.698632  0.056422  0.952014  1
  O  O20  1  0.292762  0.386917  0.485380  1
  O  O21  1  0.707238  0.613083  0.514620  1
  O  O22  1  0.919391  0.155617  0.404277  1
  O  O23  1  0.080609  0.844383  0.595723  1
  O  O24  1  0.564207  0.144482  0.683474  1
  O  O25  1  0.435793  0.855518  0.316526  1
  O  O26  1  0.124118  0.332545  0.956534  1
  O  O27  1  0.875882  0.667455  0.043466  1
