# generated using pymatgen
data_Cs7VIn3As5
_symmetry_space_group_name_H-M   'P 1'
_cell_length_a   8.98594680
_cell_length_b   9.81052251
_cell_length_c   15.02961778
_cell_angle_alpha   85.40899320
_cell_angle_beta   84.97752060
_cell_angle_gamma   85.04732610
_symmetry_Int_Tables_number   1
_chemical_formula_structural   Cs7VIn3As5
_chemical_formula_sum   'Cs14 V2 In6 As10'
_cell_volume   1311.43639406
_cell_formula_units_Z   2
loop_
 _symmetry_equiv_pos_site_id
 _symmetry_equiv_pos_as_xyz
  1  'x, y, z'
loop_
 _atom_site_type_symbol
 _atom_site_label
 _atom_site_symmetry_multiplicity
 _atom_site_fract_x
 _atom_site_fract_y
 _atom_site_fract_z
 _atom_site_occupancy
  Cs  Cs0  1  0.829550  0.369337  0.643677  1
  Cs  Cs1  1  0.814451  0.813400  0.130923  1
  Cs  Cs2  1  0.241911  0.006744  0.469464  1
  Cs  Cs3  1  0.271072  0.257191  0.251775  1
  Cs  Cs4  1  0.741414  0.500854  0.976682  1
  Cs  Cs5  1  0.258586  0.499146  0.023318  1
  Cs  Cs6  1  0.685180  0.083873  0.886313  1
  Cs  Cs7  1  0.758089  0.993256  0.530536  1
  Cs  Cs8  1  0.728928  0.742809  0.748225  1
  Cs  Cs9  1  0.319680  0.342421  0.603169  1
  Cs  Cs10  1  0.170450  0.630663  0.356323  1
  Cs  Cs11  1  0.185549  0.186600  0.869077  1
  Cs  Cs12  1  0.314820  0.916127  0.113687  1
  Cs  Cs13  1  0.680320  0.657579  0.396831  1
  V  V14  1  0.353618  0.606189  0.772725  1
  V  V15  1  0.646382  0.393811  0.227275  1
  In  In16  1  0.065761  0.810425  0.865191  1
  In  In17  1  0.934239  0.189575  0.134809  1
  In  In18  1  0.361349  0.942870  0.705620  1
  In  In19  1  0.099130  0.721979  0.627791  1
  In  In20  1  0.900870  0.278021  0.372209  1
  In  In21  1  0.638651  0.057130  0.294380  1
  As  As22  1  0.904408  0.450076  0.211585  1
  As  As23  1  0.621410  0.211677  0.127634  1
  As  As24  1  0.095592  0.549924  0.788415  1
  As  As25  1  0.585693  0.304482  0.381881  1
  As  As26  1  0.414307  0.695518  0.618119  1
  As  As27  1  0.036611  0.993268  0.701815  1
  As  As28  1  0.505657  0.411528  0.807415  1
  As  As29  1  0.494343  0.588472  0.192585  1
  As  As30  1  0.378590  0.788323  0.872366  1
  As  As31  1  0.963389  0.006732  0.298185  1
