# generated using pymatgen
data_Nd9Er3In20
_symmetry_space_group_name_H-M   'P 1'
_cell_length_a   6.68073847
_cell_length_b   10.55716200
_cell_length_c   12.46387106
_cell_angle_alpha   90.00000000
_cell_angle_beta   89.94496540
_cell_angle_gamma   90.00000000
_symmetry_Int_Tables_number   1
_chemical_formula_structural   Nd9Er3In20
_chemical_formula_sum   'Nd9 Er3 In20'
_cell_volume   879.07191258
_cell_formula_units_Z   1
loop_
 _symmetry_equiv_pos_site_id
 _symmetry_equiv_pos_as_xyz
  1  'x, y, z'
loop_
 _atom_site_type_symbol
 _atom_site_label
 _atom_site_symmetry_multiplicity
 _atom_site_fract_x
 _atom_site_fract_y
 _atom_site_fract_z
 _atom_site_occupancy
  Nd  Nd0  1  0.349900  0.750000  0.059817  1
  Nd  Nd1  1  0.887857  0.490387  0.143710  1
  Nd  Nd2  1  0.612345  0.011342  0.643115  1
  Nd  Nd3  1  0.110063  0.991279  0.855505  1
  Nd  Nd4  1  0.389507  0.509422  0.356373  1
  Nd  Nd5  1  0.110063  0.508721  0.855505  1
  Nd  Nd6  1  0.389507  0.990578  0.356373  1
  Nd  Nd7  1  0.887857  0.009613  0.143710  1
  Nd  Nd8  1  0.612345  0.488658  0.643115  1
  Er  Er9  1  0.150845  0.750000  0.558757  1
  Er  Er10  1  0.649775  0.250000  0.940098  1
  Er  Er11  1  0.849523  0.250000  0.440937  1
  In  In12  1  0.616956  0.750000  0.505577  1
  In  In13  1  0.876648  0.750000  0.002301  1
  In  In14  1  0.384751  0.250000  0.496524  1
  In  In15  1  0.113179  0.250000  0.996379  1
  In  In16  1  0.659686  0.750000  0.246256  1
  In  In17  1  0.846830  0.750000  0.743013  1
  In  In18  1  0.346843  0.250000  0.755506  1
  In  In19  1  0.153253  0.250000  0.256155  1
  In  In20  1  0.112005  0.750000  0.287881  1
  In  In21  1  0.388947  0.750000  0.782114  1
  In  In22  1  0.889834  0.250000  0.715862  1
  In  In23  1  0.612775  0.250000  0.216733  1
  In  In24  1  0.874539  0.544520  0.404678  1
  In  In25  1  0.624600  0.956550  0.902432  1
  In  In26  1  0.126526  0.044833  0.595912  1
  In  In27  1  0.373688  0.451321  0.096319  1
  In  In28  1  0.126526  0.455167  0.595912  1
  In  In29  1  0.373688  0.048679  0.096319  1
  In  In30  1  0.874539  0.955480  0.404678  1
  In  In31  1  0.624600  0.543450  0.902432  1
