# generated using pymatgen
data_Li2Ac2Si2Ge
_symmetry_space_group_name_H-M   'P 1'
_cell_length_a   9.93232000
_cell_length_b   9.93232005
_cell_length_c   7.08504200
_cell_angle_alpha   90.00000000
_cell_angle_beta   90.00000000
_cell_angle_gamma   152.89319454
_symmetry_Int_Tables_number   1
_chemical_formula_structural   Li2Ac2Si2Ge
_chemical_formula_sum   'Li4 Ac4 Si4 Ge2'
_cell_volume   318.47534998
_cell_formula_units_Z   2
loop_
 _symmetry_equiv_pos_site_id
 _symmetry_equiv_pos_as_xyz
  1  'x, y, z'
loop_
 _atom_site_type_symbol
 _atom_site_label
 _atom_site_symmetry_multiplicity
 _atom_site_fract_x
 _atom_site_fract_y
 _atom_site_fract_z
 _atom_site_occupancy
  Li  Li0  1  0.812957  0.187043  0.438964  1
  Li  Li1  1  0.187043  0.812957  0.561036  1
  Li  Li2  1  0.812957  0.187043  0.061036  1
  Li  Li3  1  0.187043  0.812957  0.938964  1
  Ac  Ac4  1  0.552086  0.447914  0.750000  1
  Ac  Ac5  1  0.447914  0.552086  0.250000  1
  Ac  Ac6  1  0.341161  0.658839  0.750000  1
  Ac  Ac7  1  0.658839  0.341161  0.250000  1
  Si  Si8  1  0.944206  0.055794  0.921680  1
  Si  Si9  1  0.055794  0.944206  0.078320  1
  Si  Si10  1  0.944206  0.055794  0.578320  1
  Si  Si11  1  0.055794  0.944206  0.421680  1
  Ge  Ge12  1  0.719849  0.280151  0.750000  1
  Ge  Ge13  1  0.280151  0.719849  0.250000  1
