# generated using pymatgen
data_YbHo2PaPt4
_symmetry_space_group_name_H-M   'P 1'
_cell_length_a   4.45657100
_cell_length_b   5.66429794
_cell_length_c   7.08412012
_cell_angle_alpha   88.31853852
_cell_angle_beta   90.00000000
_cell_angle_gamma   90.00000000
_symmetry_Int_Tables_number   1
_chemical_formula_structural   YbHo2PaPt4
_chemical_formula_sum   'Yb1 Ho2 Pa1 Pt4'
_cell_volume   178.74989318
_cell_formula_units_Z   1
loop_
 _symmetry_equiv_pos_site_id
 _symmetry_equiv_pos_as_xyz
  1  'x, y, z'
loop_
 _atom_site_type_symbol
 _atom_site_label
 _atom_site_symmetry_multiplicity
 _atom_site_fract_x
 _atom_site_fract_y
 _atom_site_fract_z
 _atom_site_occupancy
  Yb  Yb0  1  0.250000  0.357806  0.683381  1
  Ho  Ho1  1  0.750000  0.642104  0.321622  1
  Ho  Ho2  1  0.750000  0.858690  0.816612  1
  Pa  Pa3  1  0.250000  0.140651  0.182372  1
  Pt  Pt4  1  0.750000  0.153675  0.437197  1
  Pt  Pt5  1  0.250000  0.850490  0.537783  1
  Pt  Pt6  1  0.250000  0.666039  0.049903  1
  Pt  Pt7  1  0.750000  0.330545  0.971130  1
