# generated using pymatgen
data_Pr4PtPb3O14
_symmetry_space_group_name_H-M   'P 1'
_cell_length_a   7.72059495
_cell_length_b   7.72585063
_cell_length_c   7.72585000
_cell_angle_alpha   60.00000270
_cell_angle_beta   59.97748159
_cell_angle_gamma   59.97748634
_symmetry_Int_Tables_number   1
_chemical_formula_structural   Pr4PtPb3O14
_chemical_formula_sum   'Pr4 Pt1 Pb3 O14'
_cell_volume   325.74703488
_cell_formula_units_Z   1
loop_
 _symmetry_equiv_pos_site_id
 _symmetry_equiv_pos_as_xyz
  1  'x, y, z'
loop_
 _atom_site_type_symbol
 _atom_site_label
 _atom_site_symmetry_multiplicity
 _atom_site_fract_x
 _atom_site_fract_y
 _atom_site_fract_z
 _atom_site_occupancy
  Pr  Pr0  1  0.625000  0.625000  0.125000  1
  Pr  Pr1  1  0.625000  0.125000  0.625000  1
  Pr  Pr2  1  0.125000  0.625000  0.625000  1
  Pr  Pr3  1  0.625000  0.625000  0.625000  1
  Pt  Pt4  1  0.625000  0.125000  0.125000  1
  Pb  Pb5  1  0.125000  0.125000  0.625000  1
  Pb  Pb6  1  0.125000  0.625000  0.125000  1
  Pb  Pb7  1  0.125000  0.125000  0.125000  1
  O  O8  1  0.502430  0.499190  0.499190  1
  O  O9  1  0.747570  0.750810  0.750810  1
  O  O10  1  0.472594  0.039411  0.448583  1
  O  O11  1  0.226508  0.779262  0.214967  1
  O  O12  1  0.472594  0.448583  0.039411  1
  O  O13  1  0.023492  0.470738  0.470738  1
  O  O14  1  0.472594  0.039411  0.039411  1
  O  O15  1  0.023492  0.035033  0.470738  1
  O  O16  1  0.023492  0.470738  0.035033  1
  O  O17  1  0.777406  0.210589  0.210589  1
  O  O18  1  0.226508  0.779262  0.779262  1
  O  O19  1  0.777406  0.210589  0.801417  1
  O  O20  1  0.226508  0.214967  0.779262  1
  O  O21  1  0.777406  0.801417  0.210589  1
