# generated using pymatgen
data_Dy2Si2Os2C
_symmetry_space_group_name_H-M   'P 1'
_cell_length_a   5.80945730
_cell_length_b   5.80945695
_cell_length_c   6.84273752
_cell_angle_alpha   125.62542472
_cell_angle_beta   125.62542356
_cell_angle_gamma   41.08334595
_symmetry_Int_Tables_number   1
_chemical_formula_structural   Dy2Si2Os2C
_chemical_formula_sum   'Dy2 Si2 Os2 C1'
_cell_volume   118.82990602
_cell_formula_units_Z   1
loop_
 _symmetry_equiv_pos_site_id
 _symmetry_equiv_pos_as_xyz
  1  'x, y, z'
loop_
 _atom_site_type_symbol
 _atom_site_label
 _atom_site_symmetry_multiplicity
 _atom_site_fract_x
 _atom_site_fract_y
 _atom_site_fract_z
 _atom_site_occupancy
  Dy  Dy0  1  0.435976  0.435976  0.169743  1
  Dy  Dy1  1  0.564024  0.564024  0.830256  1
  Si  Si2  1  0.848267  0.848267  0.394357  1
  Si  Si3  1  0.151732  0.151732  0.605642  1
  Os  Os4  1  0.206803  0.206803  0.308743  1
  Os  Os5  1  0.793197  0.793197  0.691257  1
  C  C6  1  0.000000  0.000000  0.000000  1
