# generated using pymatgen
data_Tb12Th4Mg3CdIr4
_symmetry_space_group_name_H-M   'P 1'
_cell_length_a   9.82081073
_cell_length_b   9.84531159
_cell_length_c   9.84531100
_cell_angle_alpha   59.99999862
_cell_angle_beta   59.91743725
_cell_angle_gamma   59.91743368
_symmetry_Int_Tables_number   1
_chemical_formula_structural   Tb12Th4Mg3CdIr4
_chemical_formula_sum   'Tb12 Th4 Mg3 Cd1 Ir4'
_cell_volume   672.27681159
_cell_formula_units_Z   1
loop_
 _symmetry_equiv_pos_site_id
 _symmetry_equiv_pos_as_xyz
  1  'x, y, z'
loop_
 _atom_site_type_symbol
 _atom_site_label
 _atom_site_symmetry_multiplicity
 _atom_site_fract_x
 _atom_site_fract_y
 _atom_site_fract_z
 _atom_site_occupancy
  Tb  Tb0  1  0.062235  0.437632  0.437632  1
  Tb  Tb1  1  0.438874  0.061571  0.061571  1
  Tb  Tb2  1  0.438874  0.061571  0.437985  1
  Tb  Tb3  1  0.062235  0.437632  0.062501  1
  Tb  Tb4  1  0.438874  0.437985  0.061571  1
  Tb  Tb5  1  0.062235  0.062501  0.437632  1
  Tb  Tb6  1  0.186755  0.815040  0.815040  1
  Tb  Tb7  1  0.815850  0.184091  0.184091  1
  Tb  Tb8  1  0.815850  0.184091  0.815968  1
  Tb  Tb9  1  0.186755  0.815040  0.183165  1
  Tb  Tb10  1  0.815850  0.815968  0.184091  1
  Tb  Tb11  1  0.186755  0.183165  0.815040  1
  Th  Th12  1  0.597189  0.597654  0.597654  1
  Th  Th13  1  0.597189  0.597654  0.207502  1
  Th  Th14  1  0.597189  0.207502  0.597654  1
  Th  Th15  1  0.208249  0.597250  0.597250  1
  Mg  Mg16  1  0.829462  0.831419  0.831419  1
  Mg  Mg17  1  0.829462  0.831419  0.507701  1
  Mg  Mg18  1  0.829462  0.507701  0.831419  1
  Cd  Cd19  1  0.502194  0.832602  0.832602  1
  Ir  Ir20  1  0.392513  0.393262  0.393262  1
  Ir  Ir21  1  0.392513  0.393262  0.820964  1
  Ir  Ir22  1  0.392513  0.820964  0.393262  1
  Ir  Ir23  1  0.820924  0.393026  0.393026  1
