# generated using pymatgen
data_Li8Si2Sb
_symmetry_space_group_name_H-M   'P 1'
_cell_length_a   4.46731317
_cell_length_b   4.46695202
_cell_length_c   10.11484439
_cell_angle_alpha   77.28117787
_cell_angle_beta   77.28358468
_cell_angle_gamma   60.07259418
_symmetry_Int_Tables_number   1
_chemical_formula_structural   Li8Si2Sb
_chemical_formula_sum   'Li8 Si2 Sb1'
_cell_volume   169.17960525
_cell_formula_units_Z   1
loop_
 _symmetry_equiv_pos_site_id
 _symmetry_equiv_pos_as_xyz
  1  'x, y, z'
loop_
 _atom_site_type_symbol
 _atom_site_label
 _atom_site_symmetry_multiplicity
 _atom_site_fract_x
 _atom_site_fract_y
 _atom_site_fract_z
 _atom_site_occupancy
  Li  Li0  1  0.673836  0.191682  0.893149  1
  Li  Li1  1  0.210686  0.728963  0.273801  1
  Li  Li2  1  0.938441  0.456214  0.096804  1
  Li  Li3  1  0.398877  0.916659  0.716275  1
  Li  Li4  1  0.125271  0.642517  0.531091  1
  Li  Li5  1  0.481882  0.999270  0.458952  1
  Li  Li6  1  0.039519  0.556866  0.797857  1
  Li  Li7  1  0.571977  0.089805  0.192146  1
  Si  Si8  1  0.763614  0.281073  0.618833  1
  Si  Si9  1  0.844486  0.362316  0.371196  1
  Sb  Sb10  1  0.306085  0.824131  0.994997  1
