# generated using pymatgen
data_Ce4Tm4Mn(B8Ru)3
_symmetry_space_group_name_H-M   'P 1'
_cell_length_a   3.66733700
_cell_length_b   9.13386926
_cell_length_c   11.50881733
_cell_angle_alpha   89.97265563
_cell_angle_beta   90.00000000
_cell_angle_gamma   90.00000000
_symmetry_Int_Tables_number   1
_chemical_formula_structural   Ce4Tm4Mn(B8Ru)3
_chemical_formula_sum   'Ce4 Tm4 Mn1 B24 Ru3'
_cell_volume   385.51054186
_cell_formula_units_Z   1
loop_
 _symmetry_equiv_pos_site_id
 _symmetry_equiv_pos_as_xyz
  1  'x, y, z'
loop_
 _atom_site_type_symbol
 _atom_site_label
 _atom_site_symmetry_multiplicity
 _atom_site_fract_x
 _atom_site_fract_y
 _atom_site_fract_z
 _atom_site_occupancy
  Ce  Ce0  1  0.000000  0.326026  0.412786  1
  Ce  Ce1  1  0.000000  0.676999  0.582900  1
  Ce  Ce2  1  0.000000  0.820822  0.088419  1
  Ce  Ce3  1  0.000000  0.176992  0.914501  1
  Tm  Tm4  1  0.000000  0.941437  0.372930  1
  Tm  Tm5  1  0.000000  0.055437  0.626143  1
  Tm  Tm6  1  0.000000  0.447324  0.128770  1
  Tm  Tm7  1  0.000000  0.555372  0.873384  1
  Mn  Mn8  1  0.000000  0.639123  0.319959  1
  B  B9  1  0.500000  0.555715  0.430119  1
  B  B10  1  0.500000  0.445251  0.568073  1
  B  B11  1  0.500000  0.054458  0.068435  1
  B  B12  1  0.500000  0.945076  0.932116  1
  B  B13  1  0.500000  0.747932  0.417204  1
  B  B14  1  0.500000  0.250242  0.580761  1
  B  B15  1  0.500000  0.250717  0.081460  1
  B  B16  1  0.500000  0.749895  0.918911  1
  B  B17  1  0.500000  0.790390  0.266898  1
  B  B18  1  0.500000  0.207633  0.733900  1
  B  B19  1  0.500000  0.292444  0.233884  1
  B  B20  1  0.500000  0.707694  0.765869  1
  B  B21  1  0.500000  0.632134  0.186125  1
  B  B22  1  0.500000  0.368010  0.815771  1
  B  B23  1  0.500000  0.131669  0.315749  1
  B  B24  1  0.500000  0.868018  0.684116  1
  B  B25  1  0.500000  0.984283  0.214224  1
  B  B26  1  0.500000  0.015437  0.785901  1
  B  B27  1  0.500000  0.486953  0.286692  1
  B  B28  1  0.500000  0.515676  0.713714  1
  B  B29  1  0.500000  0.605601  0.028901  1
  B  B30  1  0.500000  0.394670  0.971569  1
  B  B31  1  0.500000  0.105690  0.470833  1
  B  B32  1  0.500000  0.894285  0.528740  1
  Ru  Ru33  1  0.000000  0.360339  0.680214  1
  Ru  Ru34  1  0.000000  0.139888  0.180061  1
  Ru  Ru35  1  0.000000  0.860368  0.819968  1
