# generated using pymatgen
data_Ho2CoNiH8
_symmetry_space_group_name_H-M   'P 1'
_cell_length_a   6.00858942
_cell_length_b   6.00858860
_cell_length_c   4.72405800
_cell_angle_alpha   90.00000000
_cell_angle_beta   90.00000000
_cell_angle_gamma   145.52969373
_symmetry_Int_Tables_number   1
_chemical_formula_structural   Ho2CoNiH8
_chemical_formula_sum   'Ho2 Co1 Ni1 H8'
_cell_volume   96.52961597
_cell_formula_units_Z   1
loop_
 _symmetry_equiv_pos_site_id
 _symmetry_equiv_pos_as_xyz
  1  'x, y, z'
loop_
 _atom_site_type_symbol
 _atom_site_label
 _atom_site_symmetry_multiplicity
 _atom_site_fract_x
 _atom_site_fract_y
 _atom_site_fract_z
 _atom_site_occupancy
  Ho  Ho0  1  0.866538  0.133462  0.750000  1
  Ho  Ho1  1  0.131074  0.868926  0.250000  1
  Co  Co2  1  0.403719  0.596281  0.250000  1
  Ni  Ni3  1  0.598916  0.401084  0.750000  1
  H  H4  1  0.086372  0.913628  0.750000  1
  H  H5  1  0.911987  0.088013  0.250000  1
  H  H6  1  0.693840  0.306160  0.492727  1
  H  H7  1  0.306927  0.693073  0.496740  1
  H  H8  1  0.693840  0.306160  0.007273  1
  H  H9  1  0.306927  0.693073  0.003260  1
  H  H10  1  0.499930  0.500070  0.003091  1
  H  H11  1  0.499930  0.500070  0.496909  1
