# generated using pymatgen
data_Pr16Dy(YIr4)3
_symmetry_space_group_name_H-M   'P 1'
_cell_length_a   11.26952000
_cell_length_b   11.26952000
_cell_length_c   6.58617600
_cell_angle_alpha   90.00000000
_cell_angle_beta   90.00000000
_cell_angle_gamma   90.00000000
_symmetry_Int_Tables_number   1
_chemical_formula_structural   Pr16Dy(YIr4)3
_chemical_formula_sum   'Pr16 Dy1 Y3 Ir12'
_cell_volume   836.45805803
_cell_formula_units_Z   1
loop_
 _symmetry_equiv_pos_site_id
 _symmetry_equiv_pos_as_xyz
  1  'x, y, z'
loop_
 _atom_site_type_symbol
 _atom_site_label
 _atom_site_symmetry_multiplicity
 _atom_site_fract_x
 _atom_site_fract_y
 _atom_site_fract_z
 _atom_site_occupancy
  Pr  Pr0  1  0.289114  0.087906  0.382952  1
  Pr  Pr1  1  0.289099  0.912027  0.882927  1
  Pr  Pr2  1  0.710901  0.087973  0.882927  1
  Pr  Pr3  1  0.710886  0.912094  0.382952  1
  Pr  Pr4  1  0.587950  0.789117  0.882943  1
  Pr  Pr5  1  0.587862  0.210928  0.382918  1
  Pr  Pr6  1  0.412138  0.789072  0.382918  1
  Pr  Pr7  1  0.412050  0.210883  0.882943  1
  Pr  Pr8  1  0.210928  0.412138  0.617082  1
  Pr  Pr9  1  0.210883  0.587950  0.117057  1
  Pr  Pr10  1  0.789117  0.412050  0.117057  1
  Pr  Pr11  1  0.789072  0.587862  0.617082  1
  Pr  Pr12  1  0.912027  0.710901  0.117073  1
  Pr  Pr13  1  0.912094  0.289114  0.617048  1
  Pr  Pr14  1  0.087906  0.710886  0.617048  1
  Pr  Pr15  1  0.087973  0.289099  0.117073  1
  Dy  Dy16  1  0.500000  0.500000  0.500000  1
  Y  Y17  1  0.000000  0.000000  0.500000  1
  Y  Y18  1  0.000000  0.000000  0.000000  1
  Y  Y19  1  0.500000  0.500000  0.000000  1
  Ir  Ir20  1  0.851472  0.148529  0.250018  1
  Ir  Ir21  1  0.851471  0.851472  0.749982  1
  Ir  Ir22  1  0.148529  0.148528  0.749982  1
  Ir  Ir23  1  0.148528  0.851471  0.250018  1
  Ir  Ir24  1  0.648305  0.351753  0.749502  1
  Ir  Ir25  1  0.648247  0.648305  0.250498  1
  Ir  Ir26  1  0.351753  0.351695  0.250498  1
  Ir  Ir27  1  0.351695  0.648247  0.749502  1
  Ir  Ir28  1  0.500000  0.000000  0.118912  1
  Ir  Ir29  1  0.500000  0.000000  0.618912  1
  Ir  Ir30  1  0.000000  0.500000  0.881088  1
  Ir  Ir31  1  0.000000  0.500000  0.381088  1
