# generated using pymatgen
data_Nd8Cd2IrOs
_symmetry_space_group_name_H-M   'P 1'
_cell_length_a   9.94899774
_cell_length_b   9.94899823
_cell_length_c   9.98366600
_cell_angle_alpha   59.88466497
_cell_angle_beta   59.88466333
_cell_angle_gamma   59.77600800
_symmetry_Int_Tables_number   1
_chemical_formula_structural   Nd8Cd2IrOs
_chemical_formula_sum   'Nd16 Cd4 Ir2 Os2'
_cell_volume   696.36415343
_cell_formula_units_Z   2
loop_
 _symmetry_equiv_pos_site_id
 _symmetry_equiv_pos_as_xyz
  1  'x, y, z'
loop_
 _atom_site_type_symbol
 _atom_site_label
 _atom_site_symmetry_multiplicity
 _atom_site_fract_x
 _atom_site_fract_y
 _atom_site_fract_z
 _atom_site_occupancy
  Nd  Nd0  1  0.346663  0.346663  0.348444  1
  Nd  Nd1  1  0.346663  0.346663  0.958231  1
  Nd  Nd2  1  0.345691  0.959563  0.347373  1
  Nd  Nd3  1  0.959563  0.345691  0.347373  1
  Nd  Nd4  1  0.810697  0.191012  0.190652  1
  Nd  Nd5  1  0.191012  0.810697  0.807639  1
  Nd  Nd6  1  0.191012  0.810697  0.190652  1
  Nd  Nd7  1  0.810697  0.191012  0.807639  1
  Nd  Nd8  1  0.190708  0.190708  0.809292  1
  Nd  Nd9  1  0.808844  0.808844  0.191156  1
  Nd  Nd10  1  0.939039  0.559118  0.561839  1
  Nd  Nd11  1  0.559118  0.939039  0.940003  1
  Nd  Nd12  1  0.559118  0.939039  0.561839  1
  Nd  Nd13  1  0.939039  0.559118  0.940003  1
  Nd  Nd14  1  0.561462  0.561462  0.938538  1
  Nd  Nd15  1  0.940423  0.940423  0.559577  1
  Cd  Cd16  1  0.579570  0.579570  0.579557  1
  Cd  Cd17  1  0.579570  0.579570  0.261302  1
  Cd  Cd18  1  0.579504  0.261356  0.579569  1
  Cd  Cd19  1  0.261356  0.579504  0.579569  1
  Ir  Ir20  1  0.140978  0.579669  0.139676  1
  Ir  Ir21  1  0.579669  0.140978  0.139676  1
  Os  Os22  1  0.139800  0.139800  0.138152  1
  Os  Os23  1  0.139800  0.139800  0.582247  1
