# generated using pymatgen
data_Sc4MnReC4
_symmetry_space_group_name_H-M   'P 1'
_cell_length_a   4.72729500
_cell_length_b   6.21699900
_cell_length_c   9.26133900
_cell_angle_alpha   90.00000000
_cell_angle_beta   90.00000000
_cell_angle_gamma   90.00000000
_symmetry_Int_Tables_number   1
_chemical_formula_structural   Sc4MnReC4
_chemical_formula_sum   'Sc8 Mn2 Re2 C8'
_cell_volume   272.18694020
_cell_formula_units_Z   2
loop_
 _symmetry_equiv_pos_site_id
 _symmetry_equiv_pos_as_xyz
  1  'x, y, z'
loop_
 _atom_site_type_symbol
 _atom_site_label
 _atom_site_symmetry_multiplicity
 _atom_site_fract_x
 _atom_site_fract_y
 _atom_site_fract_z
 _atom_site_occupancy
  Sc  Sc0  1  0.250000  0.835105  0.935123  1
  Sc  Sc1  1  0.250000  0.335105  0.564877  1
  Sc  Sc2  1  0.750000  0.169861  0.057962  1
  Sc  Sc3  1  0.750000  0.669861  0.442038  1
  Sc  Sc4  1  0.250000  0.457080  0.215638  1
  Sc  Sc5  1  0.250000  0.957080  0.284362  1
  Sc  Sc6  1  0.750000  0.538231  0.782323  1
  Sc  Sc7  1  0.750000  0.038231  0.717677  1
  Mn  Mn8  1  0.250000  0.285749  0.865799  1
  Mn  Mn9  1  0.250000  0.785749  0.634201  1
  Re  Re10  1  0.750000  0.706679  0.122575  1
  Re  Re11  1  0.750000  0.206679  0.377425  1
  C  C12  1  0.250000  0.056360  0.739111  1
  C  C13  1  0.250000  0.556360  0.760889  1
  C  C14  1  0.750000  0.938118  0.260090  1
  C  C15  1  0.750000  0.438118  0.239910  1
  C  C16  1  0.250000  0.677733  0.453352  1
  C  C17  1  0.250000  0.177733  0.046648  1
  C  C18  1  0.750000  0.335084  0.567301  1
  C  C19  1  0.750000  0.835084  0.932699  1
