# generated using pymatgen
data_Nd6Cd16Ag7Br
_symmetry_space_group_name_H-M   'P 1'
_cell_length_a   9.93814832
_cell_length_b   9.93814723
_cell_length_c   9.93814800
_cell_angle_alpha   59.99999745
_cell_angle_beta   60.00000105
_cell_angle_gamma   59.99999902
_symmetry_Int_Tables_number   1
_chemical_formula_structural   Nd6Cd16Ag7Br
_chemical_formula_sum   'Nd6 Cd16 Ag7 Br1'
_cell_volume   694.06693367
_cell_formula_units_Z   1
loop_
 _symmetry_equiv_pos_site_id
 _symmetry_equiv_pos_as_xyz
  1  'x, y, z'
loop_
 _atom_site_type_symbol
 _atom_site_label
 _atom_site_symmetry_multiplicity
 _atom_site_fract_x
 _atom_site_fract_y
 _atom_site_fract_z
 _atom_site_occupancy
  Nd  Nd0  1  0.784311  0.784311  0.215689  1
  Nd  Nd1  1  0.215689  0.784311  0.215689  1
  Nd  Nd2  1  0.784311  0.215689  0.215689  1
  Nd  Nd3  1  0.215689  0.215689  0.784311  1
  Nd  Nd4  1  0.784311  0.215689  0.784311  1
  Nd  Nd5  1  0.215689  0.784311  0.784311  1
  Cd  Cd6  1  0.832644  0.832644  0.502069  1
  Cd  Cd7  1  0.832644  0.502069  0.832644  1
  Cd  Cd8  1  0.502069  0.832644  0.832644  1
  Cd  Cd9  1  0.832644  0.832644  0.832644  1
  Cd  Cd10  1  0.167356  0.167356  0.497931  1
  Cd  Cd11  1  0.167356  0.497931  0.167356  1
  Cd  Cd12  1  0.497931  0.167356  0.167356  1
  Cd  Cd13  1  0.167356  0.167356  0.167356  1
  Cd  Cd14  1  0.620317  0.620317  0.139048  1
  Cd  Cd15  1  0.620317  0.139048  0.620317  1
  Cd  Cd16  1  0.139048  0.620317  0.620317  1
  Cd  Cd17  1  0.620317  0.620317  0.620317  1
  Cd  Cd18  1  0.379683  0.379683  0.860952  1
  Cd  Cd19  1  0.379683  0.860952  0.379683  1
  Cd  Cd20  1  0.860952  0.379683  0.379683  1
  Cd  Cd21  1  0.379683  0.379683  0.379683  1
  Ag  Ag22  1  0.000000  0.000000  0.500000  1
  Ag  Ag23  1  0.500000  0.000000  0.500000  1
  Ag  Ag24  1  0.000000  0.500000  0.500000  1
  Ag  Ag25  1  0.500000  0.500000  0.000000  1
  Ag  Ag26  1  0.000000  0.500000  0.000000  1
  Ag  Ag27  1  0.500000  0.000000  0.000000  1
  Ag  Ag28  1  0.500000  0.500000  0.500000  1
  Br  Br29  1  0.000000  0.000000  0.000000  1
