# generated using pymatgen
data_Li4Pr3HoPt4
_symmetry_space_group_name_H-M   'P 1'
_cell_length_a   4.10086400
_cell_length_b   7.25614970
_cell_length_c   8.66501300
_cell_angle_alpha   90.35680646
_cell_angle_beta   90.00000000
_cell_angle_gamma   90.00000000
_symmetry_Int_Tables_number   1
_chemical_formula_structural   Li4Pr3HoPt4
_chemical_formula_sum   'Li4 Pr3 Ho1 Pt4'
_cell_volume   257.83531311
_cell_formula_units_Z   1
loop_
 _symmetry_equiv_pos_site_id
 _symmetry_equiv_pos_as_xyz
  1  'x, y, z'
loop_
 _atom_site_type_symbol
 _atom_site_label
 _atom_site_symmetry_multiplicity
 _atom_site_fract_x
 _atom_site_fract_y
 _atom_site_fract_z
 _atom_site_occupancy
  Li  Li0  1  0.250000  0.876669  0.948117  1
  Li  Li1  1  0.750000  0.123689  0.057848  1
  Li  Li2  1  0.750000  0.629050  0.442241  1
  Li  Li3  1  0.250000  0.371323  0.553763  1
  Pr  Pr4  1  0.250000  0.454684  0.186461  1
  Pr  Pr5  1  0.750000  0.547816  0.816160  1
  Pr  Pr6  1  0.750000  0.044518  0.681611  1
  Ho  Ho7  1  0.250000  0.952971  0.318222  1
  Pt  Pt8  1  0.250000  0.752351  0.611351  1
  Pt  Pt9  1  0.750000  0.237155  0.376316  1
  Pt  Pt10  1  0.750000  0.757232  0.127298  1
  Pt  Pt11  1  0.250000  0.252542  0.880616  1
