# generated using pymatgen
data_Tm5Lu7(ZnNi2)2
_symmetry_space_group_name_H-M   'P 1'
_cell_length_a   8.14410309
_cell_length_b   8.14362227
_cell_length_c   8.14410203
_cell_angle_alpha   106.24477056
_cell_angle_beta   109.97091684
_cell_angle_gamma   112.25655044
_symmetry_Int_Tables_number   1
_chemical_formula_structural   Tm5Lu7(ZnNi2)2
_chemical_formula_sum   'Tm5 Lu7 Zn2 Ni4'
_cell_volume   414.62801385
_cell_formula_units_Z   1
loop_
 _symmetry_equiv_pos_site_id
 _symmetry_equiv_pos_as_xyz
  1  'x, y, z'
loop_
 _atom_site_type_symbol
 _atom_site_label
 _atom_site_symmetry_multiplicity
 _atom_site_fract_x
 _atom_site_fract_y
 _atom_site_fract_z
 _atom_site_occupancy
  Tm  Tm0  1  0.194966  0.520947  0.325983  1
  Tm  Tm1  1  0.604163  0.784285  0.820045  1
  Tm  Tm2  1  0.964239  0.784285  0.180121  1
  Tm  Tm3  1  0.035568  0.215742  0.819631  1
  Tm  Tm4  1  0.396112  0.215742  0.180174  1
  Lu  Lu5  1  0.693398  0.262147  0.955762  1
  Lu  Lu6  1  0.306319  0.737739  0.043782  1
  Lu  Lu7  1  0.693957  0.737739  0.431420  1
  Lu  Lu8  1  0.306385  0.262147  0.568749  1
  Lu  Lu9  1  0.805317  0.131323  0.326006  1
  Lu  Lu10  1  0.805476  0.479525  0.674048  1
  Lu  Lu11  1  0.194472  0.868652  0.674180  1
  Zn  Zn12  1  0.500007  0.500011  0.000003  1
  Zn  Zn13  1  0.500119  0.000200  0.500081  1
  Ni  Ni14  1  0.848186  0.499954  0.348462  1
  Ni  Ni15  1  0.151492  0.499954  0.651768  1
  Ni  Ni16  1  0.999819  0.123508  0.123689  1
  Ni  Ni17  1  0.000005  0.876099  0.876094  1
