# generated using pymatgen
data_Tm12Al2Tc2Pb
_symmetry_space_group_name_H-M   'P 1'
_cell_length_a   8.37041058
_cell_length_b   8.37172926
_cell_length_c   8.37041175
_cell_angle_alpha   109.89589250
_cell_angle_beta   110.22156598
_cell_angle_gamma   108.29642637
_symmetry_Int_Tables_number   1
_chemical_formula_structural   Tm12Al2Tc2Pb
_chemical_formula_sum   'Tm12 Al2 Tc2 Pb1'
_cell_volume   451.41997169
_cell_formula_units_Z   1
loop_
 _symmetry_equiv_pos_site_id
 _symmetry_equiv_pos_as_xyz
  1  'x, y, z'
loop_
 _atom_site_type_symbol
 _atom_site_label
 _atom_site_symmetry_multiplicity
 _atom_site_fract_x
 _atom_site_fract_y
 _atom_site_fract_z
 _atom_site_occupancy
  Tm  Tm0  1  0.444895  0.191155  0.253699  1
  Tm  Tm1  1  0.555105  0.808845  0.746301  1
  Tm  Tm2  1  0.937456  0.191155  0.746260  1
  Tm  Tm3  1  0.196743  0.948662  0.751919  1
  Tm  Tm4  1  0.062544  0.808845  0.253740  1
  Tm  Tm5  1  0.803257  0.051338  0.248081  1
  Tm  Tm6  1  0.196761  0.444722  0.247962  1
  Tm  Tm7  1  0.803239  0.555278  0.752038  1
  Tm  Tm8  1  0.320158  0.316545  0.636725  1
  Tm  Tm9  1  0.679842  0.683455  0.363275  1
  Tm  Tm10  1  0.320180  0.683455  0.003613  1
  Tm  Tm11  1  0.679820  0.316545  0.996387  1
  Al  Al12  1  0.500000  0.000000  0.500000  1
  Al  Al13  1  0.000000  0.000000  0.000000  1
  Tc  Tc14  1  0.336709  0.336650  0.999941  1
  Tc  Tc15  1  0.663291  0.663350  0.000059  1
  Pb  Pb16  1  0.000000  0.500000  0.500000  1
