# generated using pymatgen
data_Ho4Mg4Ir3Pd
_symmetry_space_group_name_H-M   'P 1'
_cell_length_a   4.12876600
_cell_length_b   7.07656151
_cell_length_c   8.53674154
_cell_angle_alpha   91.13229553
_cell_angle_beta   90.00000000
_cell_angle_gamma   90.00000000
_symmetry_Int_Tables_number   1
_chemical_formula_structural   Ho4Mg4Ir3Pd
_chemical_formula_sum   'Ho4 Mg4 Ir3 Pd1'
_cell_volume   249.37325627
_cell_formula_units_Z   1
loop_
 _symmetry_equiv_pos_site_id
 _symmetry_equiv_pos_as_xyz
  1  'x, y, z'
loop_
 _atom_site_type_symbol
 _atom_site_label
 _atom_site_symmetry_multiplicity
 _atom_site_fract_x
 _atom_site_fract_y
 _atom_site_fract_z
 _atom_site_occupancy
  Ho  Ho0  1  0.250000  0.029368  0.333175  1
  Ho  Ho1  1  0.250000  0.552215  0.177864  1
  Ho  Ho2  1  0.750000  0.961607  0.677337  1
  Ho  Ho3  1  0.750000  0.467422  0.815899  1
  Mg  Mg4  1  0.250000  0.636243  0.561469  1
  Mg  Mg5  1  0.250000  0.136713  0.935849  1
  Mg  Mg6  1  0.750000  0.362173  0.439150  1
  Mg  Mg7  1  0.750000  0.862285  0.061697  1
  Ir  Ir8  1  0.250000  0.248490  0.626540  1
  Ir  Ir9  1  0.250000  0.748953  0.876301  1
  Ir  Ir10  1  0.750000  0.746590  0.370968  1
  Pd  Pd11  1  0.750000  0.247939  0.123751  1
