# generated using pymatgen
data_Li7Er7TmZnSn8
_symmetry_space_group_name_H-M   'P 1'
_cell_length_a   9.35618100
_cell_length_b   9.35453081
_cell_length_c   7.18284321
_cell_angle_alpha   89.94755926
_cell_angle_beta   90.00065202
_cell_angle_gamma   120.00244486
_symmetry_Int_Tables_number   1
_chemical_formula_structural   Li7Er7TmZnSn8
_chemical_formula_sum   'Li7 Er7 Tm1 Zn1 Sn8'
_cell_volume   544.42329939
_cell_formula_units_Z   1
loop_
 _symmetry_equiv_pos_site_id
 _symmetry_equiv_pos_as_xyz
  1  'x, y, z'
loop_
 _atom_site_type_symbol
 _atom_site_label
 _atom_site_symmetry_multiplicity
 _atom_site_fract_x
 _atom_site_fract_y
 _atom_site_fract_z
 _atom_site_occupancy
  Li  Li0  1  0.834655  0.167457  0.712528  1
  Li  Li1  1  0.332526  0.664932  0.820489  1
  Li  Li2  1  0.666012  0.332199  0.319204  1
  Li  Li3  1  0.666006  0.833563  0.212812  1
  Li  Li4  1  0.166833  0.333584  0.212795  1
  Li  Li5  1  0.167599  0.833616  0.212798  1
  Li  Li6  1  0.332853  0.167555  0.712489  1
  Er  Er7  1  0.999342  0.998726  0.001583  1
  Er  Er8  1  0.000102  0.000160  0.500945  1
  Er  Er9  1  0.512075  0.489665  0.007012  1
  Er  Er10  1  0.021963  0.511125  0.506597  1
  Er  Er11  1  0.488843  0.977680  0.502257  1
  Er  Er12  1  0.511050  0.022101  0.009915  1
  Er  Er13  1  0.977544  0.489676  0.006994  1
  Tm  Tm14  1  0.489206  0.511180  0.506605  1
  Zn  Zn15  1  0.833278  0.666813  0.707231  1
  Sn  Sn16  1  0.169126  0.834545  0.771467  1
  Sn  Sn17  1  0.665210  0.330804  0.742508  1
  Sn  Sn18  1  0.333141  0.665915  0.241072  1
  Sn  Sn19  1  0.833870  0.166964  0.270330  1
  Sn  Sn20  1  0.166882  0.333324  0.768990  1
  Sn  Sn21  1  0.333273  0.167250  0.270568  1
  Sn  Sn22  1  0.833221  0.666854  0.269515  1
  Sn  Sn23  1  0.665390  0.834313  0.771295  1
