# generated using pymatgen
data_Co6Re2W5
_symmetry_space_group_name_H-M   'P 1'
_cell_length_a   4.76942752
_cell_length_b   4.76942683
_cell_length_c   9.15744100
_cell_angle_alpha   74.90545226
_cell_angle_beta   74.90545451
_cell_angle_gamma   59.99999787
_symmetry_Int_Tables_number   1
_chemical_formula_structural   Co6Re2W5
_chemical_formula_sum   'Co6 Re2 W5'
_cell_volume   172.05121100
_cell_formula_units_Z   1
loop_
 _symmetry_equiv_pos_site_id
 _symmetry_equiv_pos_as_xyz
  1  'x, y, z'
loop_
 _atom_site_type_symbol
 _atom_site_label
 _atom_site_symmetry_multiplicity
 _atom_site_fract_x
 _atom_site_fract_y
 _atom_site_fract_z
 _atom_site_occupancy
  Co  Co0  1  0.909983  0.909983  0.763783  1
  Co  Co1  1  0.416249  0.909983  0.763783  1
  Co  Co2  1  0.909983  0.416249  0.763783  1
  Co  Co3  1  0.089965  0.089965  0.236400  1
  Co  Co4  1  0.583672  0.089965  0.236400  1
  Co  Co5  1  0.089965  0.583672  0.236400  1
  Re  Re6  1  0.999619  0.999619  0.001142  1
  Re  Re7  1  0.451572  0.451572  0.645282  1
  W  W8  1  0.836542  0.836542  0.490373  1
  W  W9  1  0.162969  0.162969  0.511092  1
  W  W10  1  0.651018  0.651018  0.046947  1
  W  W11  1  0.350138  0.350138  0.949584  1
  W  W12  1  0.548323  0.548323  0.355032  1
