# generated using pymatgen
data_YEr5Ti16Ir7
_symmetry_space_group_name_H-M   'P 1'
_cell_length_a   9.09301712
_cell_length_b   9.11575587
_cell_length_c   9.11575500
_cell_angle_alpha   59.83503245
_cell_angle_beta   60.08248530
_cell_angle_gamma   60.08248966
_symmetry_Int_Tables_number   1
_chemical_formula_structural   YEr5Ti16Ir7
_chemical_formula_sum   'Y1 Er5 Ti16 Ir7'
_cell_volume   534.28499073
_cell_formula_units_Z   1
loop_
 _symmetry_equiv_pos_site_id
 _symmetry_equiv_pos_as_xyz
  1  'x, y, z'
loop_
 _atom_site_type_symbol
 _atom_site_label
 _atom_site_symmetry_multiplicity
 _atom_site_fract_x
 _atom_site_fract_y
 _atom_site_fract_z
 _atom_site_occupancy
  Y  Y0  1  0.302681  0.697365  0.697297  1
  Er  Er1  1  0.697422  0.697868  0.302612  1
  Er  Er2  1  0.302101  0.697870  0.302608  1
  Er  Er3  1  0.698381  0.301622  0.301613  1
  Er  Er4  1  0.302088  0.302589  0.697860  1
  Er  Er5  1  0.697464  0.302594  0.697856  1
  Ti  Ti6  1  0.881994  0.881621  0.354384  1
  Ti  Ti7  1  0.882037  0.354342  0.881573  1
  Ti  Ti8  1  0.354505  0.881920  0.881870  1
  Ti  Ti9  1  0.881663  0.881931  0.881893  1
  Ti  Ti10  1  0.118120  0.118336  0.645449  1
  Ti  Ti11  1  0.118098  0.645484  0.118367  1
  Ti  Ti12  1  0.645669  0.117970  0.118006  1
  Ti  Ti13  1  0.118370  0.117950  0.117992  1
  Ti  Ti14  1  0.673112  0.673229  0.980498  1
  Ti  Ti15  1  0.673120  0.980515  0.673198  1
  Ti  Ti16  1  0.980047  0.673305  0.673281  1
  Ti  Ti17  1  0.673348  0.673319  0.673281  1
  Ti  Ti18  1  0.326708  0.326648  0.019950  1
  Ti  Ti19  1  0.326676  0.019959  0.326698  1
  Ti  Ti20  1  0.019521  0.326841  0.326921  1
  Ti  Ti21  1  0.326741  0.326846  0.326921  1
  Ir  Ir22  1  0.000014  0.999946  0.999987  1
  Ir  Ir23  1  0.999550  0.000461  0.499385  1
  Ir  Ir24  1  0.500624  0.000457  0.499371  1
  Ir  Ir25  1  0.999902  0.500117  0.500076  1
  Ir  Ir26  1  0.500618  0.499400  0.000458  1
  Ir  Ir27  1  0.999516  0.499412  0.000482  1
  Ir  Ir28  1  0.499913  0.000080  0.000111  1
