# generated using pymatgen
data_Dy2Ho(In2Ni)2
_symmetry_space_group_name_H-M   'P 1'
_cell_length_a   7.82709900
_cell_length_b   7.82442704
_cell_length_c   3.70083900
_cell_angle_alpha   90.00000000
_cell_angle_beta   90.00000000
_cell_angle_gamma   120.01463619
_symmetry_Int_Tables_number   1
_chemical_formula_structural   Dy2Ho(In2Ni)2
_chemical_formula_sum   'Dy2 Ho1 In4 Ni2'
_cell_volume   196.25472693
_cell_formula_units_Z   1
loop_
 _symmetry_equiv_pos_site_id
 _symmetry_equiv_pos_as_xyz
  1  'x, y, z'
loop_
 _atom_site_type_symbol
 _atom_site_label
 _atom_site_symmetry_multiplicity
 _atom_site_fract_x
 _atom_site_fract_y
 _atom_site_fract_z
 _atom_site_occupancy
  Dy  Dy0  1  0.702851  0.751832  0.500000  1
  Dy  Dy1  1  0.248243  0.951133  0.500000  1
  Ho  Ho2  1  0.048749  0.296953  0.500000  1
  In  In3  1  0.664714  0.082218  0.000000  1
  In  In4  1  0.918006  0.582344  0.000000  1
  In  In5  1  0.417459  0.335556  0.000000  1
  In  In6  1  0.333085  0.666272  0.000000  1
  Ni  Ni7  1  0.666807  0.333351  0.500000  1
  Ni  Ni8  1  0.000084  0.000342  0.000000  1
