# generated using pymatgen
data_Ac2MgNiAg
_symmetry_space_group_name_H-M   'P 1'
_cell_length_a   8.28023383
_cell_length_b   8.28023383
_cell_length_c   4.08161800
_cell_angle_alpha   90.00000000
_cell_angle_beta   90.00000000
_cell_angle_gamma   87.76290839
_symmetry_Int_Tables_number   1
_chemical_formula_structural   Ac2MgNiAg
_chemical_formula_sum   'Ac4 Mg2 Ni2 Ag2'
_cell_volume   279.63172265
_cell_formula_units_Z   2
loop_
 _symmetry_equiv_pos_site_id
 _symmetry_equiv_pos_as_xyz
  1  'x, y, z'
loop_
 _atom_site_type_symbol
 _atom_site_label
 _atom_site_symmetry_multiplicity
 _atom_site_fract_x
 _atom_site_fract_y
 _atom_site_fract_z
 _atom_site_occupancy
  Ac  Ac0  1  0.661263  0.161263  0.500000  1
  Ac  Ac1  1  0.338737  0.838737  0.500000  1
  Ac  Ac2  1  0.194083  0.305917  0.500000  1
  Ac  Ac3  1  0.805917  0.694083  0.500000  1
  Mg  Mg4  1  0.000000  0.000000  0.000000  1
  Mg  Mg5  1  0.500000  0.500000  0.000000  1
  Ni  Ni6  1  0.612960  0.887040  0.000000  1
  Ni  Ni7  1  0.387040  0.112960  0.000000  1
  Ag  Ag8  1  0.124493  0.624493  0.000000  1
  Ag  Ag9  1  0.875507  0.375507  0.000000  1
