# generated using pymatgen
data_Nd2Y2IrRh3O14
_symmetry_space_group_name_H-M   'P 1'
_cell_length_a   7.32353920
_cell_length_b   7.35882410
_cell_length_c   7.32353996
_cell_angle_alpha   59.75058276
_cell_angle_beta   59.60916146
_cell_angle_gamma   59.75058588
_symmetry_Int_Tables_number   1
_chemical_formula_structural   Nd2Y2IrRh3O14
_chemical_formula_sum   'Nd2 Y2 Ir1 Rh3 O14'
_cell_volume   277.20327645
_cell_formula_units_Z   1
loop_
 _symmetry_equiv_pos_site_id
 _symmetry_equiv_pos_as_xyz
  1  'x, y, z'
loop_
 _atom_site_type_symbol
 _atom_site_label
 _atom_site_symmetry_multiplicity
 _atom_site_fract_x
 _atom_site_fract_y
 _atom_site_fract_z
 _atom_site_occupancy
  Nd  Nd0  1  0.125000  0.625000  0.125000  1
  Nd  Nd1  1  0.125000  0.125000  0.125000  1
  Y  Y2  1  0.625000  0.125000  0.125000  1
  Y  Y3  1  0.125000  0.125000  0.625000  1
  Ir  Ir4  1  0.625000  0.625000  0.625000  1
  Rh  Rh5  1  0.125000  0.625000  0.625000  1
  Rh  Rh6  1  0.625000  0.125000  0.625000  1
  Rh  Rh7  1  0.625000  0.625000  0.125000  1
  O  O8  1  0.702313  0.712691  0.295252  1
  O  O9  1  0.288946  0.288812  0.702168  1
  O  O10  1  0.707323  0.295618  0.707323  1
  O  O11  1  0.289435  0.707863  0.289435  1
  O  O12  1  0.295252  0.712691  0.702313  1
  O  O13  1  0.702168  0.288812  0.288946  1
  O  O14  1  0.547687  0.537309  0.954748  1
  O  O15  1  0.961054  0.961188  0.547832  1
  O  O16  1  0.542677  0.954382  0.542677  1
  O  O17  1  0.960565  0.542137  0.960565  1
  O  O18  1  0.954748  0.537309  0.547687  1
  O  O19  1  0.547832  0.961188  0.961054  1
  O  O20  1  0.257270  0.243641  0.257270  1
  O  O21  1  0.992730  0.006359  0.992730  1
