# generated using pymatgen
data_Sc12Ga3Si9Pt4
_symmetry_space_group_name_H-M   'P 1'
_cell_length_a   11.86127176
_cell_length_b   4.04393700
_cell_length_c   10.36470518
_cell_angle_alpha   90.00000000
_cell_angle_beta   89.89720787
_cell_angle_gamma   90.00000000
_symmetry_Int_Tables_number   1
_chemical_formula_structural   Sc12Ga3Si9Pt4
_chemical_formula_sum   'Sc12 Ga3 Si9 Pt4'
_cell_volume   497.15509196
_cell_formula_units_Z   1
loop_
 _symmetry_equiv_pos_site_id
 _symmetry_equiv_pos_as_xyz
  1  'x, y, z'
loop_
 _atom_site_type_symbol
 _atom_site_label
 _atom_site_symmetry_multiplicity
 _atom_site_fract_x
 _atom_site_fract_y
 _atom_site_fract_z
 _atom_site_occupancy
  Sc  Sc0  1  0.297746  0.249999  0.839824  1
  Sc  Sc1  1  0.200109  0.750000  0.341898  1
  Sc  Sc2  1  0.802825  0.249999  0.658091  1
  Sc  Sc3  1  0.700977  0.750000  0.158549  1
  Sc  Sc4  1  0.520414  0.249999  0.621120  1
  Sc  Sc5  1  0.979593  0.750000  0.122139  1
  Sc  Sc6  1  0.020362  0.249999  0.876860  1
  Sc  Sc7  1  0.479563  0.750000  0.378686  1
  Sc  Sc8  1  0.100938  0.249999  0.583763  1
  Sc  Sc9  1  0.392737  0.750000  0.082488  1
  Sc  Sc10  1  0.607425  0.249999  0.916448  1
  Sc  Sc11  1  0.895940  0.750000  0.421879  1
  Ga  Ga12  1  0.043618  0.249999  0.314223  1
  Ga  Ga13  1  0.456011  0.750000  0.814185  1
  Ga  Ga14  1  0.543697  0.249999  0.185908  1
  Si  Si15  1  0.957542  0.750000  0.689721  1
  Si  Si16  1  0.342120  0.249999  0.254390  1
  Si  Si17  1  0.155505  0.750000  0.752708  1
  Si  Si18  1  0.843111  0.249999  0.246623  1
  Si  Si19  1  0.657736  0.750000  0.745423  1
  Si  Si20  1  0.323374  0.249999  0.482785  1
  Si  Si21  1  0.174435  0.750000  0.981678  1
  Si  Si22  1  0.824739  0.249999  0.017856  1
  Si  Si23  1  0.676012  0.750000  0.517518  1
  Pt  Pt24  1  0.181966  0.249999  0.108528  1
  Pt  Pt25  1  0.317827  0.750000  0.609510  1
  Pt  Pt26  1  0.681598  0.249999  0.390280  1
  Pt  Pt27  1  0.822080  0.750000  0.886915  1
