# generated using pymatgen
data_Pr10IrRu3
_symmetry_space_group_name_H-M   'P 1'
_cell_length_a   9.00849117
_cell_length_b   9.03594676
_cell_length_c   7.44345331
_cell_angle_alpha   83.58800595
_cell_angle_beta   83.60517131
_cell_angle_gamma   43.26853784
_symmetry_Int_Tables_number   1
_chemical_formula_structural   Pr10IrRu3
_chemical_formula_sum   'Pr10 Ir1 Ru3'
_cell_volume   412.29441916
_cell_formula_units_Z   1
loop_
 _symmetry_equiv_pos_site_id
 _symmetry_equiv_pos_as_xyz
  1  'x, y, z'
loop_
 _atom_site_type_symbol
 _atom_site_label
 _atom_site_symmetry_multiplicity
 _atom_site_fract_x
 _atom_site_fract_y
 _atom_site_fract_z
 _atom_site_occupancy
  Pr  Pr0  1  0.014761  0.801171  0.917042  1
  Pr  Pr1  1  0.201043  0.984550  0.586010  1
  Pr  Pr2  1  0.985318  0.199851  0.086208  1
  Pr  Pr3  1  0.796713  0.019420  0.413666  1
  Pr  Pr4  1  0.358736  0.208041  0.815368  1
  Pr  Pr5  1  0.789370  0.642257  0.685154  1
  Pr  Pr6  1  0.643028  0.790026  0.185771  1
  Pr  Pr7  1  0.208979  0.355288  0.314188  1
  Pr  Pr8  1  0.573066  0.426959  0.749526  1
  Pr  Pr9  1  0.427352  0.574314  0.248141  1
  Ir  Ir10  1  0.179885  0.595363  0.575286  1
  Ru  Ru11  1  0.399103  0.824424  0.923729  1
  Ru  Ru12  1  0.824292  0.399928  0.425803  1
  Ru  Ru13  1  0.598353  0.178409  0.074107  1
