# generated using pymatgen
data_Fe2SnO4
_symmetry_space_group_name_H-M   'P 1'
_cell_length_a   6.28814400
_cell_length_b   6.28028599
_cell_length_c   8.75731300
_cell_angle_alpha   89.62713560
_cell_angle_beta   90.00000000
_cell_angle_gamma   90.00000000
_symmetry_Int_Tables_number   1
_chemical_formula_structural   Fe2SnO4
_chemical_formula_sum   'Fe8 Sn4 O16'
_cell_volume   345.83072513
_cell_formula_units_Z   4
loop_
 _symmetry_equiv_pos_site_id
 _symmetry_equiv_pos_as_xyz
  1  'x, y, z'
loop_
 _atom_site_type_symbol
 _atom_site_label
 _atom_site_symmetry_multiplicity
 _atom_site_fract_x
 _atom_site_fract_y
 _atom_site_fract_z
 _atom_site_occupancy
  Fe  Fe0  1  0.000272  0.238319  0.999676  1
  Fe  Fe1  1  0.000272  0.761681  0.500324  1
  Fe  Fe2  1  0.248788  0.246704  0.624858  1
  Fe  Fe3  1  0.248788  0.753296  0.875142  1
  Fe  Fe4  1  0.237898  0.000000  0.250000  1
  Fe  Fe5  1  0.762059  0.000000  0.750000  1
  Fe  Fe6  1  0.751731  0.247806  0.375592  1
  Fe  Fe7  1  0.751731  0.752194  0.124408  1
  Sn  Sn8  1  0.238840  0.500000  0.250000  1
  Sn  Sn9  1  0.499922  0.759118  0.499614  1
  Sn  Sn10  1  0.499922  0.240882  0.000386  1
  Sn  Sn11  1  0.760731  0.500000  0.750000  1
  O  O12  1  0.522805  0.739469  0.739707  1
  O  O13  1  0.522805  0.260531  0.760293  1
  O  O14  1  0.739672  0.983706  0.507267  1
  O  O15  1  0.739672  0.016294  0.992733  1
  O  O16  1  0.740431  0.522368  0.509833  1
  O  O17  1  0.740431  0.477632  0.990167  1
  O  O18  1  0.985322  0.739870  0.743527  1
  O  O19  1  0.985322  0.260130  0.756473  1
  O  O20  1  0.014783  0.740283  0.256573  1
  O  O21  1  0.014783  0.259717  0.243427  1
  O  O22  1  0.259245  0.522061  0.489914  1
  O  O23  1  0.259245  0.477939  0.010086  1
  O  O24  1  0.260349  0.983918  0.493277  1
  O  O25  1  0.260349  0.016082  0.006723  1
  O  O26  1  0.476914  0.740052  0.259555  1
  O  O27  1  0.476914  0.259948  0.240445  1
