# generated using pymatgen
data_Er8Si8Pt7Au
_symmetry_space_group_name_H-M   'P 1'
_cell_length_a   4.28711500
_cell_length_b   7.46125479
_cell_length_c   13.93776724
_cell_angle_alpha   89.97098391
_cell_angle_beta   90.00000000
_cell_angle_gamma   90.00000000
_symmetry_Int_Tables_number   1
_chemical_formula_structural   Er8Si8Pt7Au
_chemical_formula_sum   'Er8 Si8 Pt7 Au1'
_cell_volume   445.83088996
_cell_formula_units_Z   1
loop_
 _symmetry_equiv_pos_site_id
 _symmetry_equiv_pos_as_xyz
  1  'x, y, z'
loop_
 _atom_site_type_symbol
 _atom_site_label
 _atom_site_symmetry_multiplicity
 _atom_site_fract_x
 _atom_site_fract_y
 _atom_site_fract_z
 _atom_site_occupancy
  Er  Er0  1  0.000000  0.300050  0.000419  1
  Er  Er1  1  0.500000  0.701805  0.497825  1
  Er  Er2  1  0.000000  0.291028  0.497009  1
  Er  Er3  1  0.500000  0.707145  0.000817  1
  Er  Er4  1  0.000000  0.204509  0.249391  1
  Er  Er5  1  0.500000  0.795018  0.250281  1
  Er  Er6  1  0.000000  0.202463  0.751819  1
  Er  Er7  1  0.500000  0.797785  0.753216  1
  Si  Si8  1  0.000000  0.915191  0.590785  1
  Si  Si9  1  0.500000  0.094067  0.907125  1
  Si  Si10  1  0.000000  0.907522  0.406186  1
  Si  Si11  1  0.500000  0.092053  0.092720  1
  Si  Si12  1  0.000000  0.591727  0.147469  1
  Si  Si13  1  0.500000  0.408548  0.352042  1
  Si  Si14  1  0.000000  0.592933  0.857148  1
  Si  Si15  1  0.500000  0.397750  0.645436  1
  Pt  Pt16  1  0.500000  0.072104  0.608815  1
  Pt  Pt17  1  0.000000  0.925066  0.891503  1
  Pt  Pt18  1  0.500000  0.075613  0.391189  1
  Pt  Pt19  1  0.000000  0.923824  0.108787  1
  Pt  Pt20  1  0.500000  0.421084  0.154133  1
  Pt  Pt21  1  0.000000  0.579550  0.348438  1
  Pt  Pt22  1  0.500000  0.421361  0.843819  1
  Au  Au23  1  0.000000  0.581805  0.653630  1
