# generated using pymatgen
data_RbBaSbSe3
_symmetry_space_group_name_H-M   'P 1'
_cell_length_a   9.38651500
_cell_length_b   9.95926540
_cell_length_c   9.63529759
_cell_angle_alpha   72.44974348
_cell_angle_beta   90.00000000
_cell_angle_gamma   90.00000000
_symmetry_Int_Tables_number   1
_chemical_formula_structural   RbBaSbSe3
_chemical_formula_sum   'Rb4 Ba4 Sb4 Se12'
_cell_volume   858.80788935
_cell_formula_units_Z   4
loop_
 _symmetry_equiv_pos_site_id
 _symmetry_equiv_pos_as_xyz
  1  'x, y, z'
loop_
 _atom_site_type_symbol
 _atom_site_label
 _atom_site_symmetry_multiplicity
 _atom_site_fract_x
 _atom_site_fract_y
 _atom_site_fract_z
 _atom_site_occupancy
  Rb  Rb0  1  0.087214  0.583390  0.287706  1
  Rb  Rb1  1  0.587214  0.416610  0.212294  1
  Rb  Rb2  1  0.912786  0.416610  0.712294  1
  Rb  Rb3  1  0.412786  0.583390  0.787706  1
  Ba  Ba4  1  0.714482  0.920053  0.034227  1
  Ba  Ba5  1  0.214482  0.079947  0.465773  1
  Ba  Ba6  1  0.285518  0.079947  0.965773  1
  Ba  Ba7  1  0.785518  0.920053  0.534227  1
  Sb  Sb8  1  0.452359  0.757059  0.363905  1
  Sb  Sb9  1  0.952359  0.242941  0.136095  1
  Sb  Sb10  1  0.547641  0.242941  0.636095  1
  Sb  Sb11  1  0.047641  0.757059  0.863905  1
  Se  Se12  1  0.208097  0.343823  0.096771  1
  Se  Se13  1  0.708097  0.656177  0.403229  1
  Se  Se14  1  0.791903  0.656177  0.903229  1
  Se  Se15  1  0.291903  0.343823  0.596771  1
  Se  Se16  1  0.012186  0.972615  0.220547  1
  Se  Se17  1  0.512186  0.027385  0.279453  1
  Se  Se18  1  0.987814  0.027385  0.779453  1
  Se  Se19  1  0.487814  0.972615  0.720547  1
  Se  Se20  1  0.397896  0.741296  0.106577  1
  Se  Se21  1  0.897896  0.258704  0.393423  1
  Se  Se22  1  0.602104  0.258704  0.893423  1
  Se  Se23  1  0.102104  0.741296  0.606577  1
