# generated using pymatgen
data_La2Yb(YGe2)2
_symmetry_space_group_name_H-M   'P 1'
_cell_length_a   7.64556600
_cell_length_b   8.03920300
_cell_length_c   15.16810800
_cell_angle_alpha   90.00000000
_cell_angle_beta   90.00000000
_cell_angle_gamma   90.00000000
_symmetry_Int_Tables_number   1
_chemical_formula_structural   La2Yb(YGe2)2
_chemical_formula_sum   'La8 Yb4 Y8 Ge16'
_cell_volume   932.29649020
_cell_formula_units_Z   4
loop_
 _symmetry_equiv_pos_site_id
 _symmetry_equiv_pos_as_xyz
  1  'x, y, z'
loop_
 _atom_site_type_symbol
 _atom_site_label
 _atom_site_symmetry_multiplicity
 _atom_site_fract_x
 _atom_site_fract_y
 _atom_site_fract_z
 _atom_site_occupancy
  La  La0  1  0.977233  0.818223  0.401730  1
  La  La1  1  0.477233  0.681777  0.098270  1
  La  La2  1  0.522767  0.318223  0.598270  1
  La  La3  1  0.022767  0.181777  0.901730  1
  La  La4  1  0.022767  0.181777  0.598270  1
  La  La5  1  0.522767  0.318223  0.901730  1
  La  La6  1  0.477233  0.681777  0.401730  1
  La  La7  1  0.977233  0.818223  0.098270  1
  Yb  Yb8  1  0.345199  0.011438  0.750000  1
  Yb  Yb9  1  0.845199  0.488562  0.750000  1
  Yb  Yb10  1  0.154801  0.511438  0.250000  1
  Yb  Yb11  1  0.654801  0.988562  0.250000  1
  Y  Y12  1  0.320526  0.176993  0.123202  1
  Y  Y13  1  0.820526  0.323007  0.376798  1
  Y  Y14  1  0.179474  0.676993  0.876798  1
  Y  Y15  1  0.679474  0.823007  0.623202  1
  Y  Y16  1  0.320526  0.176993  0.376798  1
  Y  Y17  1  0.820526  0.323007  0.123202  1
  Y  Y18  1  0.179474  0.676993  0.623202  1
  Y  Y19  1  0.679474  0.823007  0.876798  1
  Ge  Ge20  1  0.844036  0.533391  0.538354  1
  Ge  Ge21  1  0.344036  0.966609  0.961646  1
  Ge  Ge22  1  0.655964  0.033391  0.461646  1
  Ge  Ge23  1  0.155964  0.466609  0.038354  1
  Ge  Ge24  1  0.155964  0.466609  0.461646  1
  Ge  Ge25  1  0.655964  0.033391  0.038354  1
  Ge  Ge26  1  0.344036  0.966609  0.538354  1
  Ge  Ge27  1  0.844036  0.533391  0.961646  1
  Ge  Ge28  1  0.976359  0.883092  0.750000  1
  Ge  Ge29  1  0.476359  0.616908  0.750000  1
  Ge  Ge30  1  0.523641  0.383092  0.250000  1
  Ge  Ge31  1  0.023641  0.116908  0.250000  1
  Ge  Ge32  1  0.228707  0.381921  0.750000  1
  Ge  Ge33  1  0.728707  0.118079  0.750000  1
  Ge  Ge34  1  0.271293  0.881921  0.250000  1
  Ge  Ge35  1  0.771293  0.618079  0.250000  1
