# generated using pymatgen
data_Nb2Te5Pd3
_symmetry_space_group_name_H-M   'P 1'
_cell_length_a   3.72158200
_cell_length_b   15.01576800
_cell_length_c   18.99922700
_cell_angle_alpha   90.00000000
_cell_angle_beta   90.00000000
_cell_angle_gamma   90.00000000
_symmetry_Int_Tables_number   1
_chemical_formula_structural   Nb2Te5Pd3
_chemical_formula_sum   'Nb8 Te20 Pd12'
_cell_volume   1061.72262909
_cell_formula_units_Z   4
loop_
 _symmetry_equiv_pos_site_id
 _symmetry_equiv_pos_as_xyz
  1  'x, y, z'
loop_
 _atom_site_type_symbol
 _atom_site_label
 _atom_site_symmetry_multiplicity
 _atom_site_fract_x
 _atom_site_fract_y
 _atom_site_fract_z
 _atom_site_occupancy
  Nb  Nb0  1  0.250000  0.249819  0.415797  1
  Nb  Nb1  1  0.750000  0.750181  0.584203  1
  Nb  Nb2  1  0.250000  0.749819  0.084203  1
  Nb  Nb3  1  0.750000  0.250181  0.915797  1
  Nb  Nb4  1  0.250000  0.254753  0.667509  1
  Nb  Nb5  1  0.750000  0.745247  0.332491  1
  Nb  Nb6  1  0.250000  0.754753  0.832491  1
  Nb  Nb7  1  0.750000  0.245247  0.167509  1
  Te  Te8  1  0.250000  0.113687  0.220485  1
  Te  Te9  1  0.750000  0.886313  0.779515  1
  Te  Te10  1  0.250000  0.613687  0.279515  1
  Te  Te11  1  0.750000  0.379451  0.360452  1
  Te  Te12  1  0.750000  0.386313  0.720485  1
  Te  Te13  1  0.250000  0.120549  0.860452  1
  Te  Te14  1  0.750000  0.879451  0.139548  1
  Te  Te15  1  0.250000  0.620549  0.639548  1
  Te  Te16  1  0.250000  0.387691  0.146775  1
  Te  Te17  1  0.750000  0.612309  0.853225  1
  Te  Te18  1  0.250000  0.887691  0.353225  1
  Te  Te19  1  0.750000  0.112309  0.646775  1
  Te  Te20  1  0.750000  0.143704  0.040498  1
  Te  Te21  1  0.250000  0.856296  0.959502  1
  Te  Te22  1  0.750000  0.643704  0.459502  1
  Te  Te23  1  0.250000  0.356296  0.540498  1
  Te  Te24  1  0.250000  0.392309  0.939033  1
  Te  Te25  1  0.750000  0.607691  0.060967  1
  Te  Te26  1  0.250000  0.892309  0.560967  1
  Te  Te27  1  0.750000  0.107691  0.439033  1
  Pd  Pd28  1  0.250000  0.317232  0.810124  1
  Pd  Pd29  1  0.250000  0.306431  0.273231  1
  Pd  Pd30  1  0.750000  0.693569  0.726769  1
  Pd  Pd31  1  0.250000  0.806431  0.226769  1
  Pd  Pd32  1  0.750000  0.193569  0.773231  1
  Pd  Pd33  1  0.750000  0.682768  0.189876  1
  Pd  Pd34  1  0.250000  0.817232  0.689876  1
  Pd  Pd35  1  0.750000  0.182768  0.310124  1
  Pd  Pd36  1  0.250000  0.270888  0.041485  1
  Pd  Pd37  1  0.750000  0.729112  0.958515  1
  Pd  Pd38  1  0.250000  0.770888  0.458515  1
  Pd  Pd39  1  0.750000  0.229112  0.541485  1
