# generated using pymatgen
data_Hf4TaTi(Si2W)2
_symmetry_space_group_name_H-M   'P 1'
_cell_length_a   3.56893100
_cell_length_b   6.91477828
_cell_length_c   8.29131088
_cell_angle_alpha   89.77560443
_cell_angle_beta   90.00000000
_cell_angle_gamma   90.00000000
_symmetry_Int_Tables_number   1
_chemical_formula_structural   Hf4TaTi(Si2W)2
_chemical_formula_sum   'Hf4 Ta1 Ti1 Si4 W2'
_cell_volume   204.61443969
_cell_formula_units_Z   1
loop_
 _symmetry_equiv_pos_site_id
 _symmetry_equiv_pos_as_xyz
  1  'x, y, z'
loop_
 _atom_site_type_symbol
 _atom_site_label
 _atom_site_symmetry_multiplicity
 _atom_site_fract_x
 _atom_site_fract_y
 _atom_site_fract_z
 _atom_site_occupancy
  Hf  Hf0  1  0.250000  0.546262  0.165341  1
  Hf  Hf1  1  0.250000  0.046769  0.332713  1
  Hf  Hf2  1  0.750000  0.458550  0.833385  1
  Hf  Hf3  1  0.750000  0.958438  0.667128  1
  Ta  Ta4  1  0.250000  0.630847  0.560249  1
  Ti  Ti5  1  0.250000  0.127378  0.941257  1
  Si  Si6  1  0.250000  0.756072  0.863429  1
  Si  Si7  1  0.250000  0.253645  0.641102  1
  Si  Si8  1  0.750000  0.244291  0.138977  1
  Si  Si9  1  0.750000  0.745223  0.356877  1
  W  W10  1  0.750000  0.364668  0.439425  1
  W  W11  1  0.750000  0.867856  0.060116  1
