# generated using pymatgen
data_Ba6Li2Ag19Hg3
_symmetry_space_group_name_H-M   'P 1'
_cell_length_a   10.02944900
_cell_length_b   10.02944685
_cell_length_c   8.49884900
_cell_angle_alpha   90.00000000
_cell_angle_beta   90.00000000
_cell_angle_gamma   119.99999721
_symmetry_Int_Tables_number   1
_chemical_formula_structural   Ba6Li2Ag19Hg3
_chemical_formula_sum   'Ba6 Li2 Ag19 Hg3'
_cell_volume   740.36318058
_cell_formula_units_Z   1
loop_
 _symmetry_equiv_pos_site_id
 _symmetry_equiv_pos_as_xyz
  1  'x, y, z'
loop_
 _atom_site_type_symbol
 _atom_site_label
 _atom_site_symmetry_multiplicity
 _atom_site_fract_x
 _atom_site_fract_y
 _atom_site_fract_z
 _atom_site_occupancy
  Ba  Ba0  1  0.522183  0.044366  0.249336  1
  Ba  Ba1  1  0.476646  0.953293  0.750029  1
  Ba  Ba2  1  0.955634  0.477817  0.249336  1
  Ba  Ba3  1  0.046707  0.523354  0.750029  1
  Ba  Ba4  1  0.522183  0.477817  0.249336  1
  Ba  Ba5  1  0.476646  0.523354  0.750029  1
  Li  Li6  1  0.000000  0.000000  0.000918  1
  Li  Li7  1  0.000000  0.000000  0.500880  1
  Ag  Ag8  1  0.164218  0.328437  0.065499  1
  Ag  Ag9  1  0.836921  0.673841  0.933575  1
  Ag  Ag10  1  0.671563  0.835782  0.065499  1
  Ag  Ag11  1  0.836870  0.673739  0.567021  1
  Ag  Ag12  1  0.326159  0.163079  0.933575  1
  Ag  Ag13  1  0.162795  0.325590  0.434383  1
  Ag  Ag14  1  0.164218  0.835782  0.065499  1
  Ag  Ag15  1  0.326261  0.163130  0.567021  1
  Ag  Ag16  1  0.836921  0.163079  0.933575  1
  Ag  Ag17  1  0.674410  0.837205  0.434383  1
  Ag  Ag18  1  0.836870  0.163130  0.567021  1
  Ag  Ag19  1  0.162795  0.837205  0.434383  1
  Ag  Ag20  1  0.898709  0.797418  0.250255  1
  Ag  Ag21  1  0.101156  0.202313  0.750684  1
  Ag  Ag22  1  0.202582  0.101291  0.250255  1
  Ag  Ag23  1  0.797687  0.898844  0.750684  1
  Ag  Ag24  1  0.898709  0.101291  0.250255  1
  Ag  Ag25  1  0.101156  0.898844  0.750684  1
  Ag  Ag26  1  0.333333  0.666667  0.066474  1
  Hg  Hg27  1  0.666667  0.333333  0.940317  1
  Hg  Hg28  1  0.666667  0.333333  0.557091  1
  Hg  Hg29  1  0.333333  0.666667  0.431980  1
