# generated using pymatgen
data_CeEr3MgB4Ir9
_symmetry_space_group_name_H-M   'P 1'
_cell_length_a   10.91100070
_cell_length_b   10.91099980
_cell_length_c   10.91099940
_cell_angle_alpha   29.31542933
_cell_angle_beta   29.31542629
_cell_angle_gamma   29.31543735
_symmetry_Int_Tables_number   1
_chemical_formula_structural   CeEr3MgB4Ir9
_chemical_formula_sum   'Ce1 Er3 Mg1 B4 Ir9'
_cell_volume   275.54846499
_cell_formula_units_Z   1
loop_
 _symmetry_equiv_pos_site_id
 _symmetry_equiv_pos_as_xyz
  1  'x, y, z'
loop_
 _atom_site_type_symbol
 _atom_site_label
 _atom_site_symmetry_multiplicity
 _atom_site_fract_x
 _atom_site_fract_y
 _atom_site_fract_z
 _atom_site_occupancy
  Ce  Ce0  1  0.050406  0.050406  0.050406  1
  Er  Er1  1  0.150398  0.150398  0.150398  1
  Er  Er2  1  0.950005  0.950005  0.950005  1
  Er  Er3  1  0.850148  0.850148  0.850148  1
  Mg  Mg4  1  0.500238  0.500238  0.500238  1
  B  B5  1  0.615269  0.615269  0.615269  1
  B  B6  1  0.717088  0.717088  0.717088  1
  B  B7  1  0.384227  0.384227  0.384227  1
  B  B8  1  0.282334  0.282334  0.282334  1
  Ir  Ir9  1  0.401750  0.905438  0.401750  1
  Ir  Ir10  1  0.905438  0.401750  0.401750  1
  Ir  Ir11  1  0.499593  0.499593  0.999414  1
  Ir  Ir12  1  0.499593  0.999414  0.499593  1
  Ir  Ir13  1  0.999414  0.499593  0.499593  1
  Ir  Ir14  1  0.598860  0.094628  0.598860  1
  Ir  Ir15  1  0.598860  0.598860  0.094628  1
  Ir  Ir16  1  0.094628  0.598860  0.598860  1
  Ir  Ir17  1  0.401750  0.401750  0.905438  1
