# generated using pymatgen
data_Cs12V3AsSe16
_symmetry_space_group_name_H-M   'P 1'
_cell_length_a   10.28698738
_cell_length_b   10.38846604
_cell_length_c   12.09829900
_cell_angle_alpha   90.00000000
_cell_angle_beta   90.00000000
_cell_angle_gamma   90.17059768
_symmetry_Int_Tables_number   1
_chemical_formula_structural   Cs12V3AsSe16
_chemical_formula_sum   'Cs12 V3 As1 Se16'
_cell_volume   1292.89132012
_cell_formula_units_Z   1
loop_
 _symmetry_equiv_pos_site_id
 _symmetry_equiv_pos_as_xyz
  1  'x, y, z'
loop_
 _atom_site_type_symbol
 _atom_site_label
 _atom_site_symmetry_multiplicity
 _atom_site_fract_x
 _atom_site_fract_y
 _atom_site_fract_z
 _atom_site_occupancy
  Cs  Cs0  1  0.546853  0.703148  0.040847  1
  Cs  Cs1  1  0.045759  0.793318  0.455770  1
  Cs  Cs2  1  0.455588  0.296143  0.540858  1
  Cs  Cs3  1  0.954901  0.203000  0.957063  1
  Cs  Cs4  1  0.455588  0.296143  0.959142  1
  Cs  Cs5  1  0.954901  0.203000  0.542937  1
  Cs  Cs6  1  0.546853  0.703148  0.459153  1
  Cs  Cs7  1  0.045759  0.793318  0.044230  1
  Cs  Cs8  1  0.349904  0.090596  0.250000  1
  Cs  Cs9  1  0.852422  0.410413  0.250000  1
  Cs  Cs10  1  0.645060  0.914477  0.750000  1
  Cs  Cs11  1  0.147726  0.589272  0.750000  1
  V  V12  1  0.275749  0.519765  0.250000  1
  V  V13  1  0.773677  0.979931  0.250000  1
  V  V14  1  0.724961  0.480896  0.750000  1
  As  As15  1  0.225512  0.020279  0.750000  1
  Se  Se16  1  0.292544  0.740614  0.250000  1
  Se  Se17  1  0.789059  0.759026  0.250000  1
  Se  Se18  1  0.708973  0.260241  0.750000  1
  Se  Se19  1  0.207302  0.246275  0.750000  1
  Se  Se20  1  0.481806  0.432412  0.250000  1
  Se  Se21  1  0.980322  0.067385  0.250000  1
  Se  Se22  1  0.518783  0.567926  0.750000  1
  Se  Se23  1  0.015663  0.926110  0.750000  1
  Se  Se24  1  0.167427  0.456166  0.093208  1
  Se  Se25  1  0.665690  0.042900  0.406891  1
  Se  Se26  1  0.833249  0.544117  0.592974  1
  Se  Se27  1  0.335803  0.958398  0.911917  1
  Se  Se28  1  0.833249  0.544117  0.907026  1
  Se  Se29  1  0.335803  0.958398  0.588083  1
  Se  Se30  1  0.167427  0.456166  0.406792  1
  Se  Se31  1  0.665690  0.042900  0.093109  1
