# generated using pymatgen
data_K8Ba4TiSiP8
_symmetry_space_group_name_H-M   'P 1'
_cell_length_a   10.17887485
_cell_length_b   10.16589244
_cell_length_c   7.89781066
_cell_angle_alpha   89.03348340
_cell_angle_beta   88.97405050
_cell_angle_gamma   119.73738988
_symmetry_Int_Tables_number   1
_chemical_formula_structural   K8Ba4TiSiP8
_chemical_formula_sum   'K8 Ba4 Ti1 Si1 P8'
_cell_volume   709.19403328
_cell_formula_units_Z   1
loop_
 _symmetry_equiv_pos_site_id
 _symmetry_equiv_pos_as_xyz
  1  'x, y, z'
loop_
 _atom_site_type_symbol
 _atom_site_label
 _atom_site_symmetry_multiplicity
 _atom_site_fract_x
 _atom_site_fract_y
 _atom_site_fract_z
 _atom_site_occupancy
  K  K0  1  0.051852  0.525311  0.615606  1
  K  K1  1  0.526569  0.055025  0.113729  1
  K  K2  1  0.273892  0.132919  0.816197  1
  K  K3  1  0.871810  0.728381  0.771110  1
  K  K4  1  0.862355  0.145684  0.793460  1
  K  K5  1  0.726011  0.870552  0.271877  1
  K  K6  1  0.134647  0.277513  0.317328  1
  K  K7  1  0.146257  0.861392  0.294408  1
  Ba  Ba8  1  0.470501  0.946145  0.609806  1
  Ba  Ba9  1  0.469517  0.522873  0.617347  1
  Ba  Ba10  1  0.936763  0.465776  0.111484  1
  Ba  Ba11  1  0.525993  0.463559  0.115484  1
  Ti  Ti12  1  0.335978  0.667982  0.010252  1
  Si  Si13  1  0.668108  0.336787  0.504598  1
  P  P14  1  0.665294  0.344167  0.802218  1
  P  P15  1  0.346158  0.667117  0.318788  1
  P  P16  1  0.592836  0.790699  0.891080  1
  P  P17  1  0.205192  0.403490  0.924437  1
  P  P18  1  0.201750  0.792248  0.910331  1
  P  P19  1  0.411444  0.208585  0.423092  1
  P  P20  1  0.788322  0.586802  0.393805  1
  P  P21  1  0.788749  0.206993  0.411060  1
