# generated using pymatgen
data_Ce7Sm(Si4W3)4
_symmetry_space_group_name_H-M   'P 1'
_cell_length_a   6.91967991
_cell_length_b   6.97841547
_cell_length_c   13.03661628
_cell_angle_alpha   90.01573974
_cell_angle_beta   89.99060335
_cell_angle_gamma   90.05553055
_symmetry_Int_Tables_number   1
_chemical_formula_structural   Ce7Sm(Si4W3)4
_chemical_formula_sum   'Ce7 Sm1 Si16 W12'
_cell_volume   629.51703110
_cell_formula_units_Z   1
loop_
 _symmetry_equiv_pos_site_id
 _symmetry_equiv_pos_as_xyz
  1  'x, y, z'
loop_
 _atom_site_type_symbol
 _atom_site_label
 _atom_site_symmetry_multiplicity
 _atom_site_fract_x
 _atom_site_fract_y
 _atom_site_fract_z
 _atom_site_occupancy
  Ce  Ce0  1  0.494740  0.660521  0.592227  1
  Ce  Ce1  1  0.994881  0.837599  0.907685  1
  Ce  Ce2  1  0.505560  0.338381  0.092202  1
  Ce  Ce3  1  0.004176  0.165828  0.405541  1
  Ce  Ce4  1  0.506414  0.339122  0.408135  1
  Ce  Ce5  1  0.006418  0.161938  0.092300  1
  Ce  Ce6  1  0.494589  0.662794  0.907619  1
  Sm  Sm7  1  0.995283  0.834932  0.592588  1
  Si  Si8  1  0.658045  0.954824  0.453231  1
  Si  Si9  1  0.157135  0.546621  0.047135  1
  Si  Si10  1  0.344125  0.046963  0.952519  1
  Si  Si11  1  0.843108  0.453346  0.546560  1
  Si  Si12  1  0.341952  0.045412  0.546927  1
  Si  Si13  1  0.842087  0.454054  0.953473  1
  Si  Si14  1  0.657877  0.954001  0.047233  1
  Si  Si15  1  0.156743  0.546551  0.452485  1
  Si  Si16  1  0.461101  0.364179  0.751738  1
  Si  Si17  1  0.962329  0.132652  0.749500  1
  Si  Si18  1  0.538173  0.635605  0.250260  1
  Si  Si19  1  0.038291  0.866776  0.250529  1
  Si  Si20  1  0.692096  0.868477  0.749485  1
  Si  Si21  1  0.192178  0.628579  0.750124  1
  Si  Si22  1  0.308288  0.131082  0.250146  1
  Si  Si23  1  0.808018  0.370599  0.249326  1
  W  W24  1  0.664623  0.164019  0.626502  1
  W  W25  1  0.165209  0.337590  0.873474  1
  W  W26  1  0.332296  0.838804  0.126511  1
  W  W27  1  0.830734  0.661150  0.372967  1
  W  W28  1  0.331795  0.838959  0.373766  1
  W  W29  1  0.832739  0.663008  0.126761  1
  W  W30  1  0.671439  0.160317  0.873205  1
  W  W31  1  0.166266  0.335590  0.626664  1
  W  W32  1  0.832094  0.495369  0.750351  1
  W  W33  1  0.333469  0.001687  0.750682  1
  W  W34  1  0.168277  0.503540  0.249781  1
  W  W35  1  0.667453  0.999128  0.250371  1
