# generated using pymatgen
data_Pr5AgSe4
_symmetry_space_group_name_H-M   'P 1'
_cell_length_a   7.42169907
_cell_length_b   7.42169806
_cell_length_c   7.42169800
_cell_angle_alpha   99.69272961
_cell_angle_beta   99.69273611
_cell_angle_gamma   131.54983807
_symmetry_Int_Tables_number   1
_chemical_formula_structural   Pr5AgSe4
_chemical_formula_sum   'Pr5 Ag1 Se4'
_cell_volume   278.99606733
_cell_formula_units_Z   1
loop_
 _symmetry_equiv_pos_site_id
 _symmetry_equiv_pos_as_xyz
  1  'x, y, z'
loop_
 _atom_site_type_symbol
 _atom_site_label
 _atom_site_symmetry_multiplicity
 _atom_site_fract_x
 _atom_site_fract_y
 _atom_site_fract_z
 _atom_site_occupancy
  Pr  Pr0  1  0.395455  0.805952  0.201407  1
  Pr  Pr1  1  0.000000  0.000000  0.000000  1
  Pr  Pr2  1  0.604545  0.194048  0.798593  1
  Pr  Pr3  1  0.194048  0.395455  0.589503  1
  Pr  Pr4  1  0.805952  0.604545  0.410497  1
  Ag  Ag5  1  0.500000  0.500000  0.000000  1
  Se  Se6  1  0.099907  0.698828  0.798734  1
  Se  Se7  1  0.698828  0.900093  0.598921  1
  Se  Se8  1  0.301172  0.099907  0.401079  1
  Se  Se9  1  0.900093  0.301172  0.201266  1
