# generated using pymatgen
data_TbDy4Si9P3Ir19
_symmetry_space_group_name_H-M   'P 1'
_cell_length_a   12.82643900
_cell_length_b   12.82669500
_cell_length_c   3.94993700
_cell_angle_alpha   90.00000000
_cell_angle_beta   90.00000000
_cell_angle_gamma   120.00065855
_symmetry_Int_Tables_number   1
_chemical_formula_structural   TbDy4Si9P3Ir19
_chemical_formula_sum   'Tb1 Dy4 Si9 P3 Ir19'
_cell_volume   562.78017018
_cell_formula_units_Z   1
loop_
 _symmetry_equiv_pos_site_id
 _symmetry_equiv_pos_as_xyz
  1  'x, y, z'
loop_
 _atom_site_type_symbol
 _atom_site_label
 _atom_site_symmetry_multiplicity
 _atom_site_fract_x
 _atom_site_fract_y
 _atom_site_fract_z
 _atom_site_occupancy
  Tb  Tb0  1  0.000000  0.815260  0.000000  1
  Dy  Dy1  1  0.333325  0.666665  0.500000  1
  Dy  Dy2  1  0.666675  0.333340  0.500000  1
  Dy  Dy3  1  0.184755  0.184764  0.000000  1
  Dy  Dy4  1  0.815245  0.000009  0.000000  1
  Si  Si5  1  0.000000  0.633579  0.500000  1
  Si  Si6  1  0.366279  0.366280  0.500000  1
  Si  Si7  1  0.633721  0.000001  0.500000  1
  Si  Si8  1  0.518449  0.685808  0.000000  1
  Si  Si9  1  0.314182  0.832653  0.000000  1
  Si  Si10  1  0.167343  0.481518  0.000000  1
  Si  Si11  1  0.481551  0.167359  0.000000  1
  Si  Si12  1  0.685818  0.518471  0.000000  1
  Si  Si13  1  0.832657  0.314176  0.000000  1
  P  P14  1  0.000000  0.178917  0.500000  1
  P  P15  1  0.821016  0.821128  0.500000  1
  P  P16  1  0.178984  0.000112  0.500000  1
  Ir  Ir17  1  0.513258  0.872474  0.000000  1
  Ir  Ir18  1  0.127547  0.640752  0.000000  1
  Ir  Ir19  1  0.359210  0.486731  0.000000  1
  Ir  Ir20  1  0.486742  0.359217  0.000000  1
  Ir  Ir21  1  0.872453  0.513205  0.000000  1
  Ir  Ir22  1  0.640790  0.127521  0.000000  1
  Ir  Ir23  1  0.000000  0.447696  0.500000  1
  Ir  Ir24  1  0.552276  0.552274  0.500000  1
  Ir  Ir25  1  0.447724  0.999998  0.500000  1
  Ir  Ir26  1  0.000000  0.278840  0.000000  1
  Ir  Ir27  1  0.721014  0.721101  0.000000  1
  Ir  Ir28  1  0.278986  0.000087  0.000000  1
  Ir  Ir29  1  0.627069  0.806488  0.500000  1
  Ir  Ir30  1  0.193756  0.820611  0.500000  1
  Ir  Ir31  1  0.179406  0.372930  0.500000  1
  Ir  Ir32  1  0.372931  0.179419  0.500000  1
  Ir  Ir33  1  0.806244  0.626855  0.500000  1
  Ir  Ir34  1  0.820594  0.193524  0.500000  1
  Ir  Ir35  1  0.000000  0.000239  0.500000  1
