# generated using pymatgen
data_Sr2SmPaO6
_symmetry_space_group_name_H-M   'P 1'
_cell_length_a   6.22249000
_cell_length_b   6.07416510
_cell_length_c   10.60292823
_cell_angle_alpha   55.06252457
_cell_angle_beta   90.00000000
_cell_angle_gamma   90.00000000
_symmetry_Int_Tables_number   1
_chemical_formula_structural   Sr2SmPaO6
_chemical_formula_sum   'Sr4 Sm2 Pa2 O12'
_cell_volume   328.52816151
_cell_formula_units_Z   2
loop_
 _symmetry_equiv_pos_site_id
 _symmetry_equiv_pos_as_xyz
  1  'x, y, z'
loop_
 _atom_site_type_symbol
 _atom_site_label
 _atom_site_symmetry_multiplicity
 _atom_site_fract_x
 _atom_site_fract_y
 _atom_site_fract_z
 _atom_site_occupancy
  Sr  Sr0  1  0.456195  0.260779  0.750746  1
  Sr  Sr1  1  0.956195  0.739221  0.749254  1
  Sr  Sr2  1  0.043805  0.260779  0.250746  1
  Sr  Sr3  1  0.543805  0.739221  0.249254  1
  Sm  Sm4  1  0.500000  0.000000  0.500000  1
  Sm  Sm5  1  0.000000  0.000000  0.000000  1
  Pa  Pa6  1  0.000000  0.500000  0.500000  1
  Pa  Pa7  1  0.500000  0.500000  0.000000  1
  O  O8  1  0.192096  0.736840  0.554483  1
  O  O9  1  0.692096  0.263160  0.945517  1
  O  O10  1  0.807904  0.263160  0.445517  1
  O  O11  1  0.307904  0.736840  0.054483  1
  O  O12  1  0.709942  0.630955  0.559590  1
  O  O13  1  0.209942  0.369045  0.940410  1
  O  O14  1  0.290058  0.369045  0.440410  1
  O  O15  1  0.790058  0.630955  0.059590  1
  O  O16  1  0.043555  0.152518  0.740909  1
  O  O17  1  0.543555  0.847482  0.759091  1
  O  O18  1  0.956445  0.847482  0.259091  1
  O  O19  1  0.456445  0.152518  0.240909  1
