# generated using pymatgen
data_Dy6LuCoI12
_symmetry_space_group_name_H-M   'P 1'
_cell_length_a   9.74464262
_cell_length_b   9.74779787
_cell_length_c   9.73485844
_cell_angle_alpha   106.78650559
_cell_angle_beta   106.75968049
_cell_angle_gamma   106.86552200
_symmetry_Int_Tables_number   1
_chemical_formula_structural   Dy6LuCoI12
_chemical_formula_sum   'Dy6 Lu1 Co1 I12'
_cell_volume   774.18318203
_cell_formula_units_Z   1
loop_
 _symmetry_equiv_pos_site_id
 _symmetry_equiv_pos_as_xyz
  1  'x, y, z'
loop_
 _atom_site_type_symbol
 _atom_site_label
 _atom_site_symmetry_multiplicity
 _atom_site_fract_x
 _atom_site_fract_y
 _atom_site_fract_z
 _atom_site_occupancy
  Dy  Dy0  1  0.499955  0.500097  0.499658  1
  Dy  Dy1  1  0.286890  0.091837  0.020116  1
  Dy  Dy2  1  0.020851  0.286878  0.090360  1
  Dy  Dy3  1  0.091717  0.021225  0.287576  1
  Dy  Dy4  1  0.712581  0.908141  0.978075  1
  Dy  Dy5  1  0.978394  0.712757  0.907057  1
  Lu  Lu6  1  0.910998  0.979480  0.719921  1
  Co  Co7  1  0.000150  0.000002  0.000285  1
  I  I8  1  0.462582  0.160449  0.385706  1
  I  I9  1  0.385841  0.462905  0.160277  1
  I  I10  1  0.160308  0.385616  0.462556  1
  I  I11  1  0.539609  0.840083  0.613708  1
  I  I12  1  0.614066  0.537072  0.839277  1
  I  I13  1  0.839214  0.615986  0.537034  1
  I  I14  1  0.323429  0.775793  0.929419  1
  I  I15  1  0.929032  0.321027  0.774060  1
  I  I16  1  0.776519  0.929991  0.324850  1
  I  I17  1  0.676449  0.224226  0.070357  1
  I  I18  1  0.070492  0.676947  0.223987  1
  I  I19  1  0.220926  0.069490  0.675720  1
