# generated using pymatgen
data_Sc5Ti(SiTc)6
_symmetry_space_group_name_H-M   'P 1'
_cell_length_a   7.72593040
_cell_length_b   7.72581355
_cell_length_c   7.72593114
_cell_angle_alpha   126.66908336
_cell_angle_beta   127.85576681
_cell_angle_gamma   77.82709594
_symmetry_Int_Tables_number   1
_chemical_formula_structural   Sc5Ti(SiTc)6
_chemical_formula_sum   'Sc5 Ti1 Si6 Tc6'
_cell_volume   283.09553533
_cell_formula_units_Z   1
loop_
 _symmetry_equiv_pos_site_id
 _symmetry_equiv_pos_as_xyz
  1  'x, y, z'
loop_
 _atom_site_type_symbol
 _atom_site_label
 _atom_site_symmetry_multiplicity
 _atom_site_fract_x
 _atom_site_fract_y
 _atom_site_fract_z
 _atom_site_occupancy
  Sc  Sc0  1  0.445104  0.401431  0.456328  1
  Sc  Sc1  1  0.550226  0.994933  0.944708  1
  Sc  Sc2  1  0.054682  0.011380  0.456698  1
  Sc  Sc3  1  0.950005  0.394878  0.944874  1
  Sc  Sc4  1  0.249842  0.609813  0.859971  1
  Ti  Ti5  1  0.750111  0.605063  0.354952  1
  Si  Si6  1  0.249867  0.007286  0.257419  1
  Si  Si7  1  0.750117  0.995478  0.745361  1
  Si  Si8  1  0.151978  0.668905  0.492281  1
  Si  Si9  1  0.822823  0.340353  0.491724  1
  Si  Si10  1  0.676624  0.668905  0.016927  1
  Si  Si11  1  0.348629  0.340353  0.017530  1
  Tc  Tc12  1  0.991061  0.265413  0.256427  1
  Tc  Tc13  1  0.508986  0.265413  0.774352  1
  Tc  Tc14  1  0.371605  0.743112  0.372798  1
  Tc  Tc15  1  0.629400  0.001084  0.372459  1
  Tc  Tc16  1  0.870314  0.743112  0.871507  1
  Tc  Tc17  1  0.128626  0.001084  0.871684  1
