# generated using pymatgen
data_Tb4Sc2AlGaPt4
_symmetry_space_group_name_H-M   'P 1'
_cell_length_a   4.43198100
_cell_length_b   7.17346536
_cell_length_c   8.08134755
_cell_angle_alpha   90.30785071
_cell_angle_beta   90.00000000
_cell_angle_gamma   90.00000000
_symmetry_Int_Tables_number   1
_chemical_formula_structural   Tb4Sc2AlGaPt4
_chemical_formula_sum   'Tb4 Sc2 Al1 Ga1 Pt4'
_cell_volume   256.92384411
_cell_formula_units_Z   1
loop_
 _symmetry_equiv_pos_site_id
 _symmetry_equiv_pos_as_xyz
  1  'x, y, z'
loop_
 _atom_site_type_symbol
 _atom_site_label
 _atom_site_symmetry_multiplicity
 _atom_site_fract_x
 _atom_site_fract_y
 _atom_site_fract_z
 _atom_site_occupancy
  Tb  Tb0  1  0.750000  0.554905  0.823642  1
  Tb  Tb1  1  0.250000  0.947381  0.320625  1
  Tb  Tb2  1  0.250000  0.485323  0.171052  1
  Tb  Tb3  1  0.750000  0.017016  0.674785  1
  Sc  Sc4  1  0.250000  0.369320  0.563654  1
  Sc  Sc5  1  0.750000  0.129144  0.063112  1
  Al  Al6  1  0.750000  0.636747  0.436269  1
  Ga  Ga7  1  0.250000  0.862428  0.934481  1
  Pt  Pt8  1  0.250000  0.737606  0.615353  1
  Pt  Pt9  1  0.250000  0.239044  0.883829  1
  Pt  Pt10  1  0.750000  0.758757  0.127072  1
  Pt  Pt11  1  0.750000  0.262332  0.386124  1
