# generated using pymatgen
data_YHo15In2(AgRh2)2
_symmetry_space_group_name_H-M   'P 1'
_cell_length_a   9.55499662
_cell_length_b   9.55499601
_cell_length_c   9.56905000
_cell_angle_alpha   59.95133958
_cell_angle_beta   59.95134168
_cell_angle_gamma   60.01354327
_symmetry_Int_Tables_number   1
_chemical_formula_structural   YHo15In2(AgRh2)2
_chemical_formula_sum   'Y1 Ho15 In2 Ag2 Rh4'
_cell_volume   617.36134095
_cell_formula_units_Z   1
loop_
 _symmetry_equiv_pos_site_id
 _symmetry_equiv_pos_as_xyz
  1  'x, y, z'
loop_
 _atom_site_type_symbol
 _atom_site_label
 _atom_site_symmetry_multiplicity
 _atom_site_fract_x
 _atom_site_fract_y
 _atom_site_fract_z
 _atom_site_occupancy
  Y  Y0  1  0.185741  0.185741  0.814259  1
  Ho  Ho1  1  0.600303  0.600303  0.198670  1
  Ho  Ho2  1  0.439168  0.060343  0.439844  1
  Ho  Ho3  1  0.441097  0.441097  0.058903  1
  Ho  Ho4  1  0.812367  0.182705  0.814643  1
  Ho  Ho5  1  0.182705  0.812367  0.190284  1
  Ho  Ho6  1  0.439168  0.060343  0.060645  1
  Ho  Ho7  1  0.182705  0.812367  0.814643  1
  Ho  Ho8  1  0.060343  0.439168  0.060645  1
  Ho  Ho9  1  0.811682  0.811682  0.188318  1
  Ho  Ho10  1  0.197977  0.601441  0.600291  1
  Ho  Ho11  1  0.060343  0.439168  0.439844  1
  Ho  Ho12  1  0.061802  0.061802  0.438198  1
  Ho  Ho13  1  0.812367  0.182705  0.190284  1
  Ho  Ho14  1  0.601441  0.197977  0.600291  1
  Ho  Ho15  1  0.600303  0.600303  0.600724  1
  In  In16  1  0.507690  0.833254  0.829528  1
  In  In17  1  0.833254  0.507690  0.829528  1
  Ag  Ag18  1  0.833894  0.833894  0.831726  1
  Ag  Ag19  1  0.833894  0.833894  0.500488  1
  Rh  Rh20  1  0.393337  0.822120  0.392271  1
  Rh  Rh21  1  0.393150  0.393150  0.391549  1
  Rh  Rh22  1  0.822120  0.393337  0.392271  1
  Rh  Rh23  1  0.393150  0.393150  0.822152  1
