# generated using pymatgen
data_Ta7B8(Os2Ru)2
_symmetry_space_group_name_H-M   'P 1'
_cell_length_a   9.62426239
_cell_length_b   9.63613932
_cell_length_c   3.11578600
_cell_angle_alpha   90.00000000
_cell_angle_beta   90.00000000
_cell_angle_gamma   119.92647973
_symmetry_Int_Tables_number   1
_chemical_formula_structural   Ta7B8(Os2Ru)2
_chemical_formula_sum   'Ta7 B8 Os4 Ru2'
_cell_volume   250.43212827
_cell_formula_units_Z   1
loop_
 _symmetry_equiv_pos_site_id
 _symmetry_equiv_pos_as_xyz
  1  'x, y, z'
loop_
 _atom_site_type_symbol
 _atom_site_label
 _atom_site_symmetry_multiplicity
 _atom_site_fract_x
 _atom_site_fract_y
 _atom_site_fract_z
 _atom_site_occupancy
  Ta  Ta0  1  0.999356  0.999999  0.000000  1
  Ta  Ta1  1  0.725959  0.638778  0.000000  1
  Ta  Ta2  1  0.360799  0.086792  0.000000  1
  Ta  Ta3  1  0.914645  0.275231  0.000000  1
  Ta  Ta4  1  0.274794  0.359574  0.000000  1
  Ta  Ta5  1  0.640135  0.914246  0.000000  1
  Ta  Ta6  1  0.084901  0.725196  0.000000  1
  B  B7  1  0.666481  0.333037  0.000000  1
  B  B8  1  0.333297  0.666461  0.000000  1
  B  B9  1  0.152248  0.934732  0.500000  1
  B  B10  1  0.065377  0.217532  0.500000  1
  B  B11  1  0.781593  0.845600  0.500000  1
  B  B12  1  0.846847  0.066253  0.500000  1
  B  B13  1  0.934890  0.782768  0.500000  1
  B  B14  1  0.217174  0.152553  0.500000  1
  Os  Os15  1  0.359974  0.847571  0.500000  1
  Os  Os16  1  0.153208  0.513733  0.500000  1
  Os  Os17  1  0.487529  0.640104  0.500000  1
  Os  Os18  1  0.638445  0.152114  0.500000  1
  Ru  Ru19  1  0.847377  0.485601  0.500000  1
  Ru  Ru20  1  0.514969  0.362128  0.500000  1
