# generated using pymatgen
data_Lu2Si4TcOs2
_symmetry_space_group_name_H-M   'P 1'
_cell_length_a   10.00224749
_cell_length_b   10.00224823
_cell_length_c   13.43480900
_cell_angle_alpha   54.10244581
_cell_angle_beta   54.10244271
_cell_angle_gamma   31.12191782
_symmetry_Int_Tables_number   1
_chemical_formula_structural   Lu2Si4TcOs2
_chemical_formula_sum   'Lu8 Si16 Tc4 Os8'
_cell_volume   551.20721204
_cell_formula_units_Z   4
loop_
 _symmetry_equiv_pos_site_id
 _symmetry_equiv_pos_as_xyz
  1  'x, y, z'
loop_
 _atom_site_type_symbol
 _atom_site_label
 _atom_site_symmetry_multiplicity
 _atom_site_fract_x
 _atom_site_fract_y
 _atom_site_fract_z
 _atom_site_occupancy
  Lu  Lu0  1  0.035165  0.287684  0.643561  1
  Lu  Lu1  1  0.712316  0.964835  0.856439  1
  Lu  Lu2  1  0.964835  0.712316  0.356439  1
  Lu  Lu3  1  0.287684  0.035165  0.143561  1
  Lu  Lu4  1  0.298000  0.559103  0.644266  1
  Lu  Lu5  1  0.440897  0.702000  0.855734  1
  Lu  Lu6  1  0.702000  0.440897  0.355734  1
  Lu  Lu7  1  0.559103  0.298000  0.144266  1
  Si  Si8  1  0.973266  0.251203  0.896687  1
  Si  Si9  1  0.748797  0.026734  0.603313  1
  Si  Si10  1  0.026734  0.748797  0.103313  1
  Si  Si11  1  0.251203  0.973266  0.396687  1
  Si  Si12  1  0.137509  0.385940  0.902912  1
  Si  Si13  1  0.614060  0.862491  0.597088  1
  Si  Si14  1  0.862491  0.614060  0.097088  1
  Si  Si15  1  0.385940  0.137509  0.402912  1
  Si  Si16  1  0.080235  0.576433  0.567731  1
  Si  Si17  1  0.423567  0.919765  0.932269  1
  Si  Si18  1  0.919765  0.423567  0.432269  1
  Si  Si19  1  0.576433  0.080235  0.067731  1
  Si  Si20  1  0.612700  0.387300  0.750000  1
  Si  Si21  1  0.387300  0.612700  0.250000  1
  Si  Si22  1  0.126586  0.873414  0.750000  1
  Si  Si23  1  0.873414  0.126586  0.250000  1
  Tc  Tc24  1  0.893797  0.145553  0.586458  1
  Tc  Tc25  1  0.854447  0.106203  0.913542  1
  Tc  Tc26  1  0.106203  0.854447  0.413542  1
  Tc  Tc27  1  0.145553  0.893797  0.086458  1
  Os  Os28  1  0.835655  0.643198  0.781105  1
  Os  Os29  1  0.356802  0.164345  0.718895  1
  Os  Os30  1  0.164345  0.356802  0.218895  1
  Os  Os31  1  0.643198  0.835655  0.281105  1
  Os  Os32  1  0.249077  0.503957  0.933665  1
  Os  Os33  1  0.496043  0.750923  0.566335  1
  Os  Os34  1  0.750923  0.496043  0.066335  1
  Os  Os35  1  0.503957  0.249077  0.433665  1
