# generated using pymatgen
data_TbDy7CdHgPt2
_symmetry_space_group_name_H-M   'P 1'
_cell_length_a   9.67911069
_cell_length_b   9.67911124
_cell_length_c   9.67294700
_cell_angle_alpha   60.02106152
_cell_angle_beta   60.02105962
_cell_angle_gamma   60.05241294
_symmetry_Int_Tables_number   1
_chemical_formula_structural   TbDy7CdHgPt2
_chemical_formula_sum   'Tb2 Dy14 Cd2 Hg2 Pt4'
_cell_volume   641.24614429
_cell_formula_units_Z   2
loop_
 _symmetry_equiv_pos_site_id
 _symmetry_equiv_pos_as_xyz
  1  'x, y, z'
loop_
 _atom_site_type_symbol
 _atom_site_label
 _atom_site_symmetry_multiplicity
 _atom_site_fract_x
 _atom_site_fract_y
 _atom_site_fract_z
 _atom_site_occupancy
  Tb  Tb0  1  0.564373  0.564373  0.935627  1
  Tb  Tb1  1  0.935647  0.935647  0.564353  1
  Dy  Dy2  1  0.352582  0.352582  0.350799  1
  Dy  Dy3  1  0.352582  0.352582  0.944037  1
  Dy  Dy4  1  0.355441  0.938104  0.353227  1
  Dy  Dy5  1  0.938104  0.355441  0.353227  1
  Dy  Dy6  1  0.810660  0.189095  0.190627  1
  Dy  Dy7  1  0.189095  0.810660  0.809618  1
  Dy  Dy8  1  0.189095  0.810660  0.190627  1
  Dy  Dy9  1  0.810660  0.189095  0.809618  1
  Dy  Dy10  1  0.189801  0.189801  0.810199  1
  Dy  Dy11  1  0.809697  0.809697  0.190303  1
  Dy  Dy12  1  0.935448  0.563487  0.564859  1
  Dy  Dy13  1  0.563487  0.935448  0.936207  1
  Dy  Dy14  1  0.563487  0.935448  0.564859  1
  Dy  Dy15  1  0.935448  0.563487  0.936207  1
  Cd  Cd16  1  0.580353  0.255277  0.582184  1
  Cd  Cd17  1  0.255277  0.580353  0.582184  1
  Hg  Hg18  1  0.584977  0.584977  0.587639  1
  Hg  Hg19  1  0.584977  0.584977  0.242405  1
  Pt  Pt20  1  0.143335  0.143335  0.145227  1
  Pt  Pt21  1  0.143335  0.143335  0.568104  1
  Pt  Pt22  1  0.141952  0.570185  0.143932  1
  Pt  Pt23  1  0.570185  0.141952  0.143932  1
