# generated using pymatgen
data_Hf16ReNi4W3
_symmetry_space_group_name_H-M   'P 1'
_cell_length_a   8.68683025
_cell_length_b   8.70614232
_cell_length_c   8.70614400
_cell_angle_alpha   59.99999360
_cell_angle_beta   59.92642530
_cell_angle_gamma   59.92643195
_symmetry_Int_Tables_number   1
_chemical_formula_structural   Hf16ReNi4W3
_chemical_formula_sum   'Hf16 Re1 Ni4 W3'
_cell_volume   465.06545267
_cell_formula_units_Z   1
loop_
 _symmetry_equiv_pos_site_id
 _symmetry_equiv_pos_as_xyz
  1  'x, y, z'
loop_
 _atom_site_type_symbol
 _atom_site_label
 _atom_site_symmetry_multiplicity
 _atom_site_fract_x
 _atom_site_fract_y
 _atom_site_fract_z
 _atom_site_occupancy
  Hf  Hf0  1  0.691442  0.102852  0.102852  1
  Hf  Hf1  1  0.102394  0.691763  0.102920  1
  Hf  Hf2  1  0.102394  0.102920  0.691763  1
  Hf  Hf3  1  0.102394  0.102920  0.102920  1
  Hf  Hf4  1  0.314546  0.314870  0.685292  1
  Hf  Hf5  1  0.686632  0.683781  0.314794  1
  Hf  Hf6  1  0.314546  0.685292  0.314870  1
  Hf  Hf7  1  0.686632  0.314794  0.683781  1
  Hf  Hf8  1  0.686632  0.314794  0.314794  1
  Hf  Hf9  1  0.314546  0.685292  0.685292  1
  Hf  Hf10  1  0.953852  0.954591  0.545779  1
  Hf  Hf11  1  0.545946  0.545661  0.954197  1
  Hf  Hf12  1  0.953852  0.545779  0.954591  1
  Hf  Hf13  1  0.545946  0.954197  0.545661  1
  Hf  Hf14  1  0.545946  0.954197  0.954197  1
  Hf  Hf15  1  0.953852  0.545779  0.545779  1
  Re  Re16  1  0.998474  0.333842  0.333842  1
  Ni  Ni17  1  0.325634  0.891456  0.891456  1
  Ni  Ni18  1  0.892190  0.326060  0.890876  1
  Ni  Ni19  1  0.892190  0.890876  0.326060  1
  Ni  Ni20  1  0.892190  0.890876  0.890876  1
  W  W21  1  0.332590  0.002115  0.332647  1
  W  W22  1  0.332590  0.332647  0.002115  1
  W  W23  1  0.332590  0.332647  0.332647  1
