# generated using pymatgen
data_LiTb4Al17Pd6
_symmetry_space_group_name_H-M   'P 1'
_cell_length_a   7.62794935
_cell_length_b   7.62794930
_cell_length_c   9.48809300
_cell_angle_alpha   90.00000000
_cell_angle_beta   90.00000000
_cell_angle_gamma   119.34924190
_symmetry_Int_Tables_number   1
_chemical_formula_structural   LiTb4Al17Pd6
_chemical_formula_sum   'Li1 Tb4 Al17 Pd6'
_cell_volume   481.21133475
_cell_formula_units_Z   1
loop_
 _symmetry_equiv_pos_site_id
 _symmetry_equiv_pos_as_xyz
  1  'x, y, z'
loop_
 _atom_site_type_symbol
 _atom_site_label
 _atom_site_symmetry_multiplicity
 _atom_site_fract_x
 _atom_site_fract_y
 _atom_site_fract_z
 _atom_site_occupancy
  Li  Li0  1  0.130239  0.130239  0.250000  1
  Tb  Tb1  1  0.994556  0.664711  0.250000  1
  Tb  Tb2  1  0.007248  0.330956  0.750000  1
  Tb  Tb3  1  0.664711  0.994556  0.250000  1
  Tb  Tb4  1  0.330956  0.007248  0.750000  1
  Al  Al5  1  0.867273  0.867273  0.750000  1
  Al  Al6  1  0.001798  0.328743  0.079735  1
  Al  Al7  1  0.000221  0.665259  0.924737  1
  Al  Al8  1  0.000221  0.665259  0.575263  1
  Al  Al9  1  0.328743  0.001798  0.420265  1
  Al  Al10  1  0.001798  0.328743  0.420265  1
  Al  Al11  1  0.665259  0.000221  0.575263  1
  Al  Al12  1  0.665259  0.000221  0.924737  1
  Al  Al13  1  0.328743  0.001798  0.079735  1
  Al  Al14  1  0.334443  0.334443  0.548108  1
  Al  Al15  1  0.670373  0.670373  0.440685  1
  Al  Al16  1  0.670373  0.670373  0.059315  1
  Al  Al17  1  0.334443  0.334443  0.951892  1
  Al  Al18  1  0.340191  0.542177  0.250000  1
  Al  Al19  1  0.659776  0.452994  0.750000  1
  Al  Al20  1  0.542177  0.340191  0.250000  1
  Al  Al21  1  0.452994  0.659776  0.750000  1
  Pd  Pd22  1  0.674771  0.329411  0.999938  1
  Pd  Pd23  1  0.329411  0.674771  0.999938  1
  Pd  Pd24  1  0.329411  0.674771  0.500062  1
  Pd  Pd25  1  0.674771  0.329411  0.500062  1
  Pd  Pd26  1  0.999920  0.999920  0.993828  1
  Pd  Pd27  1  0.999920  0.999920  0.506172  1
