# generated using pymatgen
data_Dy6Ho4Sn5Bi
_symmetry_space_group_name_H-M   'P 1'
_cell_length_a   8.99413500
_cell_length_b   8.98775342
_cell_length_c   6.50512200
_cell_angle_alpha   90.00000000
_cell_angle_beta   90.00000000
_cell_angle_gamma   120.02348672
_symmetry_Int_Tables_number   1
_chemical_formula_structural   Dy6Ho4Sn5Bi
_chemical_formula_sum   'Dy6 Ho4 Sn5 Bi1'
_cell_volume   455.29595982
_cell_formula_units_Z   1
loop_
 _symmetry_equiv_pos_site_id
 _symmetry_equiv_pos_as_xyz
  1  'x, y, z'
loop_
 _atom_site_type_symbol
 _atom_site_label
 _atom_site_symmetry_multiplicity
 _atom_site_fract_x
 _atom_site_fract_y
 _atom_site_fract_z
 _atom_site_occupancy
  Dy  Dy0  1  0.994674  0.757740  0.750000  1
  Dy  Dy1  1  0.000411  0.239051  0.250000  1
  Dy  Dy2  1  0.761360  0.760949  0.250000  1
  Dy  Dy3  1  0.764800  0.000000  0.750000  1
  Dy  Dy4  1  0.236934  0.242260  0.750000  1
  Dy  Dy5  1  0.237605  0.000000  0.250000  1
  Ho  Ho6  1  0.332593  0.662758  0.498433  1
  Ho  Ho7  1  0.669836  0.337242  0.001567  1
  Ho  Ho8  1  0.669836  0.337242  0.498433  1
  Ho  Ho9  1  0.332593  0.662758  0.001567  1
  Sn  Sn10  1  0.395485  0.394325  0.250000  1
  Sn  Sn11  1  0.001160  0.605675  0.250000  1
  Sn  Sn12  1  0.999645  0.395812  0.750000  1
  Sn  Sn13  1  0.603833  0.604188  0.750000  1
  Sn  Sn14  1  0.605157  0.000000  0.250000  1
  Bi  Bi15  1  0.394078  0.000000  0.750000  1
