# generated using pymatgen
data_Tb2Ho10GaCo4Hg
_symmetry_space_group_name_H-M   'P 1'
_cell_length_a   8.26480403
_cell_length_b   8.29506342
_cell_length_c   8.29506332
_cell_angle_alpha   112.21558772
_cell_angle_beta   109.69237339
_cell_angle_gamma   106.69125160
_symmetry_Int_Tables_number   1
_chemical_formula_structural   Tb2Ho10GaCo4Hg
_chemical_formula_sum   'Tb2 Ho10 Ga1 Co4 Hg1'
_cell_volume   436.00754955
_cell_formula_units_Z   1
loop_
 _symmetry_equiv_pos_site_id
 _symmetry_equiv_pos_as_xyz
  1  'x, y, z'
loop_
 _atom_site_type_symbol
 _atom_site_label
 _atom_site_symmetry_multiplicity
 _atom_site_fract_x
 _atom_site_fract_y
 _atom_site_fract_z
 _atom_site_occupancy
  Tb  Tb0  1  0.960945  0.263231  0.697714  1
  Tb  Tb1  1  0.039055  0.736769  0.302286  1
  Ho  Ho2  1  0.673032  0.860071  0.185236  1
  Ho  Ho3  1  0.326968  0.512205  0.187038  1
  Ho  Ho4  1  0.326968  0.139929  0.814764  1
  Ho  Ho5  1  0.673032  0.487795  0.812962  1
  Ho  Ho6  1  0.564733  0.263027  0.301706  1
  Ho  Ho7  1  0.435267  0.736973  0.698294  1
  Ho  Ho8  1  0.180116  0.780766  0.959772  1
  Ho  Ho9  1  0.819884  0.779656  0.600651  1
  Ho  Ho10  1  0.180116  0.220344  0.399349  1
  Ho  Ho11  1  0.819884  0.219234  0.040228  1
  Ga  Ga12  1  0.000000  0.500000  0.500000  1
  Co  Co13  1  0.114998  0.113975  0.001023  1
  Co  Co14  1  0.885002  0.886025  0.998977  1
  Co  Co15  1  0.663128  0.499669  0.163459  1
  Co  Co16  1  0.336872  0.500331  0.836541  1
  Hg  Hg17  1  0.500000  0.000000  0.500000  1
