# generated using pymatgen
data_Ta6AlFe6
_symmetry_space_group_name_H-M   'P 1'
_cell_length_a   4.90171850
_cell_length_b   4.90171846
_cell_length_c   9.40546678
_cell_angle_alpha   74.89563273
_cell_angle_beta   74.89563271
_cell_angle_gamma   59.99998818
_symmetry_Int_Tables_number   1
_chemical_formula_structural   Ta6AlFe6
_chemical_formula_sum   'Ta6 Al1 Fe6'
_cell_volume   186.63829478
_cell_formula_units_Z   1
loop_
 _symmetry_equiv_pos_site_id
 _symmetry_equiv_pos_as_xyz
  1  'x, y, z'
loop_
 _atom_site_type_symbol
 _atom_site_label
 _atom_site_symmetry_multiplicity
 _atom_site_fract_x
 _atom_site_fract_y
 _atom_site_fract_z
 _atom_site_occupancy
  Ta  Ta0  1  0.832625  0.832625  0.502123  1
  Ta  Ta1  1  0.167375  0.167375  0.497877  1
  Ta  Ta2  1  0.651563  0.651563  0.045312  1
  Ta  Ta3  1  0.348437  0.348437  0.954688  1
  Ta  Ta4  1  0.549196  0.549196  0.352413  1
  Ta  Ta5  1  0.450804  0.450804  0.647587  1
  Al  Al6  1  0.000000  0.000000  0.000000  1
  Fe  Fe7  1  0.906767  0.906767  0.773115  1
  Fe  Fe8  1  0.413350  0.906767  0.773115  1
  Fe  Fe9  1  0.906767  0.413350  0.773115  1
  Fe  Fe10  1  0.093233  0.093233  0.226885  1
  Fe  Fe11  1  0.586650  0.093233  0.226885  1
  Fe  Fe12  1  0.093233  0.586650  0.226885  1
