# generated using pymatgen
data_LuTl2P2S7
_symmetry_space_group_name_H-M   'P 1'
_cell_length_a   6.65150414
_cell_length_b   11.97990214
_cell_length_c   16.69586100
_cell_angle_alpha   79.45453068
_cell_angle_beta   78.44296755
_cell_angle_gamma   73.88609384
_symmetry_Int_Tables_number   1
_chemical_formula_structural   LuTl2P2S7
_chemical_formula_sum   'Lu4 Tl8 P8 S28'
_cell_volume   1240.69127625
_cell_formula_units_Z   4
loop_
 _symmetry_equiv_pos_site_id
 _symmetry_equiv_pos_as_xyz
  1  'x, y, z'
loop_
 _atom_site_type_symbol
 _atom_site_label
 _atom_site_symmetry_multiplicity
 _atom_site_fract_x
 _atom_site_fract_y
 _atom_site_fract_z
 _atom_site_occupancy
  Lu  Lu0  1  0.883042  0.082877  0.241881  1
  Lu  Lu1  1  0.116958  0.917123  0.758119  1
  Lu  Lu2  1  0.207649  0.417041  0.258140  1
  Lu  Lu3  1  0.792351  0.582959  0.741860  1
  Tl  Tl4  1  0.537236  0.865343  0.121991  1
  Tl  Tl5  1  0.475450  0.365367  0.621976  1
  Tl  Tl6  1  0.462764  0.134657  0.878009  1
  Tl  Tl7  1  0.826390  0.831068  0.525880  1
  Tl  Tl8  1  0.524550  0.634633  0.378024  1
  Tl  Tl9  1  0.173610  0.168932  0.474120  1
  Tl  Tl10  1  0.182102  0.668880  0.973940  1
  Tl  Tl11  1  0.817898  0.331120  0.026060  1
  P  P12  1  0.075894  0.706273  0.192683  1
  P  P13  1  0.974372  0.793629  0.307251  1
  P  P14  1  0.329164  0.694480  0.642164  1
  P  P15  1  0.924106  0.293727  0.807317  1
  P  P16  1  0.670836  0.305520  0.357836  1
  P  P17  1  0.025628  0.206371  0.692749  1
  P  P18  1  0.334925  0.194407  0.142145  1
  P  P19  1  0.665075  0.805593  0.857855  1
  S  S20  1  0.127419  0.610790  0.612404  1
  S  S21  1  0.349755  0.889199  0.887608  1
  S  S22  1  0.252779  0.869478  0.599478  1
  S  S23  1  0.887103  0.595602  0.200145  1
  S  S24  1  0.112897  0.404398  0.799855  1
  S  S25  1  0.633143  0.612227  0.594619  1
  S  S26  1  0.050754  0.840564  0.100363  1
  S  S27  1  0.949246  0.159436  0.899637  1
  S  S28  1  0.650245  0.110801  0.112392  1
  S  S29  1  0.225093  0.178857  0.267376  1
  S  S30  1  0.317350  0.095609  0.700373  1
  S  S31  1  0.366857  0.387773  0.405381  1
  S  S32  1  0.838833  0.887966  0.905399  1
  S  S33  1  0.872581  0.389210  0.387596  1
  S  S34  1  0.161167  0.112034  0.094601  1
  S  S35  1  0.682650  0.904391  0.299627  1
  S  S36  1  0.009963  0.340775  0.600474  1
  S  S37  1  0.328451  0.678918  0.767389  1
  S  S38  1  0.671549  0.321082  0.232611  1
  S  S39  1  0.721075  0.630560  0.900494  1
  S  S40  1  0.375801  0.604267  0.198572  1
  S  S41  1  0.278925  0.369440  0.099506  1
  S  S42  1  0.821768  0.104388  0.698425  1
  S  S43  1  0.747221  0.130522  0.400522  1
  S  S44  1  0.774907  0.821143  0.732624  1
  S  S45  1  0.624199  0.395733  0.801428  1
  S  S46  1  0.178232  0.895612  0.301575  1
  S  S47  1  0.990037  0.659225  0.399526  1
