# generated using pymatgen
data_K3Ti2Cl9
_symmetry_space_group_name_H-M   'P 1'
_cell_length_a   7.17414200
_cell_length_b   7.17414181
_cell_length_c   17.31907400
_cell_angle_alpha   90.00000000
_cell_angle_beta   90.00000000
_cell_angle_gamma   120.00000089
_symmetry_Int_Tables_number   1
_chemical_formula_structural   K3Ti2Cl9
_chemical_formula_sum   'K6 Ti4 Cl18'
_cell_volume   771.96075305
_cell_formula_units_Z   2
loop_
 _symmetry_equiv_pos_site_id
 _symmetry_equiv_pos_as_xyz
  1  'x, y, z'
loop_
 _atom_site_type_symbol
 _atom_site_label
 _atom_site_symmetry_multiplicity
 _atom_site_fract_x
 _atom_site_fract_y
 _atom_site_fract_z
 _atom_site_occupancy
  K  K0  1  0.333333  0.666667  0.064909  1
  K  K1  1  0.333333  0.666667  0.438455  1
  K  K2  1  0.000000  0.000000  0.261972  1
  K  K3  1  0.000000  0.000000  0.761972  1
  K  K4  1  0.666667  0.333333  0.938455  1
  K  K5  1  0.666667  0.333333  0.564909  1
  Ti  Ti6  1  0.333333  0.666667  0.830411  1
  Ti  Ti7  1  0.333333  0.666667  0.668265  1
  Ti  Ti8  1  0.666667  0.333333  0.330411  1
  Ti  Ti9  1  0.666667  0.333333  0.168265  1
  Cl  Cl10  1  0.174637  0.825363  0.592784  1
  Cl  Cl11  1  0.175086  0.824914  0.907698  1
  Cl  Cl12  1  0.007080  0.503540  0.749982  1
  Cl  Cl13  1  0.496460  0.992920  0.749982  1
  Cl  Cl14  1  0.175086  0.350171  0.907698  1
  Cl  Cl15  1  0.174637  0.349275  0.592784  1
  Cl  Cl16  1  0.496460  0.503540  0.749982  1
  Cl  Cl17  1  0.649829  0.824914  0.907698  1
  Cl  Cl18  1  0.650725  0.825363  0.592784  1
  Cl  Cl19  1  0.350171  0.175086  0.407698  1
  Cl  Cl20  1  0.349275  0.174637  0.092784  1
  Cl  Cl21  1  0.503540  0.496460  0.249982  1
  Cl  Cl22  1  0.825363  0.650725  0.092784  1
  Cl  Cl23  1  0.824914  0.649829  0.407698  1
  Cl  Cl24  1  0.503540  0.007080  0.249982  1
  Cl  Cl25  1  0.992920  0.496460  0.249982  1
  Cl  Cl26  1  0.825363  0.174637  0.092784  1
  Cl  Cl27  1  0.824914  0.175086  0.407698  1
