# generated using pymatgen
data_TaZn6Fe5Rh12
_symmetry_space_group_name_H-M   'P 1'
_cell_length_a   4.29579500
_cell_length_b   6.07188700
_cell_length_c   12.83713500
_cell_angle_alpha   89.99995881
_cell_angle_beta   89.99954553
_cell_angle_gamma   89.99983505
_symmetry_Int_Tables_number   1
_chemical_formula_structural   TaZn6Fe5Rh12
_chemical_formula_sum   'Ta1 Zn6 Fe5 Rh12'
_cell_volume   334.83846104
_cell_formula_units_Z   1
loop_
 _symmetry_equiv_pos_site_id
 _symmetry_equiv_pos_as_xyz
  1  'x, y, z'
loop_
 _atom_site_type_symbol
 _atom_site_label
 _atom_site_symmetry_multiplicity
 _atom_site_fract_x
 _atom_site_fract_y
 _atom_site_fract_z
 _atom_site_occupancy
  Ta  Ta0  1  0.000000  0.500000  0.000000  1
  Zn  Zn1  1  0.000000  0.000000  0.000000  1
  Zn  Zn2  1  0.499739  0.500000  0.168775  1
  Zn  Zn3  1  0.999716  0.000000  0.336059  1
  Zn  Zn4  1  0.500001  0.500000  0.500000  1
  Zn  Zn5  1  0.000283  0.000000  0.663941  1
  Zn  Zn6  1  0.500260  0.500000  0.831225  1
  Fe  Fe7  1  0.499724  0.000000  0.170873  1
  Fe  Fe8  1  0.999732  0.500000  0.335232  1
  Fe  Fe9  1  0.500001  0.000000  0.500000  1
  Fe  Fe10  1  0.000267  0.500000  0.664767  1
  Fe  Fe11  1  0.500277  0.000000  0.829128  1
  Rh  Rh12  1  0.499999  0.244032  0.000000  1
  Rh  Rh13  1  0.499999  0.755970  0.000000  1
  Rh  Rh14  1  0.999743  0.246934  0.167800  1
  Rh  Rh15  1  0.999744  0.753067  0.167800  1
  Rh  Rh16  1  0.499742  0.249552  0.333537  1
  Rh  Rh17  1  0.499740  0.750447  0.333538  1
  Rh  Rh18  1  0.999999  0.251206  0.500000  1
  Rh  Rh19  1  0.000001  0.748794  0.500000  1
  Rh  Rh20  1  0.500261  0.249551  0.666462  1
  Rh  Rh21  1  0.500259  0.750446  0.666463  1
  Rh  Rh22  1  0.000255  0.246933  0.832200  1
  Rh  Rh23  1  0.000256  0.753066  0.832200  1
