# generated using pymatgen
data_TbTh2In3PtRh2
_symmetry_space_group_name_H-M   'P 1'
_cell_length_a   7.72715701
_cell_length_b   7.73369186
_cell_length_c   3.96104000
_cell_angle_alpha   90.00000000
_cell_angle_beta   90.00000000
_cell_angle_gamma   120.27689215
_symmetry_Int_Tables_number   1
_chemical_formula_structural   TbTh2In3PtRh2
_chemical_formula_sum   'Tb1 Th2 In3 Pt1 Rh2'
_cell_volume   204.42214436
_cell_formula_units_Z   1
loop_
 _symmetry_equiv_pos_site_id
 _symmetry_equiv_pos_as_xyz
  1  'x, y, z'
loop_
 _atom_site_type_symbol
 _atom_site_label
 _atom_site_symmetry_multiplicity
 _atom_site_fract_x
 _atom_site_fract_y
 _atom_site_fract_z
 _atom_site_occupancy
  Tb  Tb0  1  0.592263  0.001008  0.500000  1
  Th  Th1  1  0.990076  0.585960  0.500000  1
  Th  Th2  1  0.410328  0.407110  0.500000  1
  In  In3  1  0.748996  0.759769  0.000000  1
  In  In4  1  0.984214  0.238343  0.000000  1
  In  In5  1  0.265457  0.001084  0.000000  1
  Pt  Pt6  1  0.323443  0.654929  0.000000  1
  Rh  Rh7  1  0.015582  0.000959  0.500000  1
  Rh  Rh8  1  0.669640  0.350838  0.000000  1
