# generated using pymatgen
data_Ho4ErBiAu2
_symmetry_space_group_name_H-M   'P 1'
_cell_length_a   8.68918950
_cell_length_b   8.68918912
_cell_length_c   8.68918936
_cell_angle_alpha   124.27146396
_cell_angle_beta   124.27146185
_cell_angle_gamma   82.74826424
_symmetry_Int_Tables_number   1
_chemical_formula_structural   Ho4ErBiAu2
_chemical_formula_sum   'Ho8 Er2 Bi2 Au4'
_cell_volume   430.16367997
_cell_formula_units_Z   2
loop_
 _symmetry_equiv_pos_site_id
 _symmetry_equiv_pos_as_xyz
  1  'x, y, z'
loop_
 _atom_site_type_symbol
 _atom_site_label
 _atom_site_symmetry_multiplicity
 _atom_site_fract_x
 _atom_site_fract_y
 _atom_site_fract_z
 _atom_site_occupancy
  Ho  Ho0  1  0.513924  0.013924  0.808722  1
  Ho  Ho1  1  0.205201  0.705201  0.191278  1
  Ho  Ho2  1  0.013924  0.205201  0.500000  1
  Ho  Ho3  1  0.705201  0.513924  0.500000  1
  Ho  Ho4  1  0.486076  0.986076  0.191278  1
  Ho  Ho5  1  0.794799  0.294799  0.808722  1
  Ho  Ho6  1  0.986076  0.794799  0.500000  1
  Ho  Ho7  1  0.294799  0.486076  0.500000  1
  Er  Er8  1  0.500000  0.500000  0.000000  1
  Er  Er9  1  0.000000  0.000000  0.000000  1
  Bi  Bi10  1  0.250000  0.250000  0.000000  1
  Bi  Bi11  1  0.750000  0.750000  0.000000  1
  Au  Au12  1  0.139142  0.639142  0.778285  1
  Au  Au13  1  0.860858  0.360858  0.221715  1
  Au  Au14  1  0.639142  0.860858  0.500000  1
  Au  Au15  1  0.360858  0.139142  0.500000  1
