# generated using pymatgen
data_CaPr(Be12Cu)2
_symmetry_space_group_name_H-M   'P 1'
_cell_length_a   7.33732036
_cell_length_b   7.38601242
_cell_length_c   7.31090310
_cell_angle_alpha   59.89714936
_cell_angle_beta   59.87165125
_cell_angle_gamma   59.54321722
_symmetry_Int_Tables_number   1
_chemical_formula_structural   CaPr(Be12Cu)2
_chemical_formula_sum   'Ca1 Pr1 Be24 Cu2'
_cell_volume   278.69293694
_cell_formula_units_Z   1
loop_
 _symmetry_equiv_pos_site_id
 _symmetry_equiv_pos_as_xyz
  1  'x, y, z'
loop_
 _atom_site_type_symbol
 _atom_site_label
 _atom_site_symmetry_multiplicity
 _atom_site_fract_x
 _atom_site_fract_y
 _atom_site_fract_z
 _atom_site_occupancy
  Ca  Ca0  1  0.252397  0.247603  0.252397  1
  Pr  Pr1  1  0.746805  0.753195  0.746805  1
  Be  Be2  1  0.499940  0.500060  0.499940  1
  Be  Be3  1  0.000079  0.999921  0.000079  1
  Be  Be4  1  0.566708  0.789671  0.433490  1
  Be  Be5  1  0.433490  0.210130  0.566708  1
  Be  Be6  1  0.288409  0.934742  0.712054  1
  Be  Be7  1  0.712054  0.064795  0.288409  1
  Be  Be8  1  0.929760  0.278148  0.069531  1
  Be  Be9  1  0.069531  0.722560  0.929760  1
  Be  Be10  1  0.210849  0.796183  0.559682  1
  Be  Be11  1  0.789175  0.203847  0.439861  1
  Be  Be12  1  0.439861  0.567118  0.789175  1
  Be  Be13  1  0.559682  0.433286  0.210849  1
  Be  Be14  1  0.713516  0.284628  0.934925  1
  Be  Be15  1  0.286687  0.716683  0.064400  1
  Be  Be16  1  0.064400  0.932230  0.286687  1
  Be  Be17  1  0.934925  0.066931  0.713516  1
  Be  Be18  1  0.568152  0.208909  0.788889  1
  Be  Be19  1  0.432175  0.790626  0.211049  1
  Be  Be20  1  0.788889  0.434049  0.568152  1
  Be  Be21  1  0.211049  0.566151  0.432175  1
  Be  Be22  1  0.935412  0.715369  0.287303  1
  Be  Be23  1  0.063760  0.285204  0.713092  1
  Be  Be24  1  0.287303  0.061916  0.935412  1
  Be  Be25  1  0.713092  0.937944  0.063760  1
  Cu  Cu26  1  0.802350  0.557904  0.199549  1
  Cu  Cu27  1  0.199549  0.440196  0.802350  1
