# generated using pymatgen
data_Zr13Ta3(Ir2N)4
_symmetry_space_group_name_H-M   'P 1'
_cell_length_a   8.79494803
_cell_length_b   8.73053421
_cell_length_c   8.79494800
_cell_angle_alpha   59.75564405
_cell_angle_beta   60.00000762
_cell_angle_gamma   59.75564149
_symmetry_Int_Tables_number   1
_chemical_formula_structural   Zr13Ta3(Ir2N)4
_chemical_formula_sum   'Zr13 Ta3 Ir8 N4'
_cell_volume   475.74960537
_cell_formula_units_Z   1
loop_
 _symmetry_equiv_pos_site_id
 _symmetry_equiv_pos_as_xyz
  1  'x, y, z'
loop_
 _atom_site_type_symbol
 _atom_site_label
 _atom_site_symmetry_multiplicity
 _atom_site_fract_x
 _atom_site_fract_y
 _atom_site_fract_z
 _atom_site_occupancy
  Zr  Zr0  1  0.625000  0.125000  0.625000  1
  Zr  Zr1  1  0.813156  0.812614  0.187115  1
  Zr  Zr2  1  0.184607  0.185129  0.815132  1
  Zr  Zr3  1  0.815132  0.185129  0.815132  1
  Zr  Zr4  1  0.187115  0.812614  0.187115  1
  Zr  Zr5  1  0.187115  0.812614  0.813156  1
  Zr  Zr6  1  0.815132  0.185129  0.184607  1
  Zr  Zr7  1  0.436844  0.437386  0.062885  1
  Zr  Zr8  1  0.065393  0.064871  0.434868  1
  Zr  Zr9  1  0.434868  0.064871  0.434868  1
  Zr  Zr10  1  0.062885  0.437386  0.062885  1
  Zr  Zr11  1  0.062885  0.437386  0.436844  1
  Zr  Zr12  1  0.434868  0.064871  0.065393  1
  Ta  Ta13  1  0.125000  0.625000  0.625000  1
  Ta  Ta14  1  0.625000  0.625000  0.125000  1
  Ta  Ta15  1  0.625000  0.625000  0.625000  1
  Ir  Ir16  1  0.762858  0.422199  0.407473  1
  Ir  Ir17  1  0.415061  0.754817  0.415061  1
  Ir  Ir18  1  0.407473  0.422199  0.762858  1
  Ir  Ir19  1  0.407473  0.422199  0.407473  1
  Ir  Ir20  1  0.487142  0.827801  0.842527  1
  Ir  Ir21  1  0.834939  0.495183  0.834939  1
  Ir  Ir22  1  0.842527  0.827801  0.487142  1
  Ir  Ir23  1  0.842527  0.827801  0.842527  1
  N  N24  1  0.625000  0.125000  0.125000  1
  N  N25  1  0.125000  0.625000  0.125000  1
  N  N26  1  0.125000  0.125000  0.625000  1
  N  N27  1  0.125000  0.125000  0.125000  1
