# generated using pymatgen
data_Sr3La(TmSe2)8
_symmetry_space_group_name_H-M   'P 1'
_cell_length_a   4.09597500
_cell_length_b   12.53283499
_cell_length_c   14.83648307
_cell_angle_alpha   90.20781610
_cell_angle_beta   90.00000000
_cell_angle_gamma   90.00000000
_symmetry_Int_Tables_number   1
_chemical_formula_structural   Sr3La(TmSe2)8
_chemical_formula_sum   'Sr3 La1 Tm8 Se16'
_cell_volume   761.61366504
_cell_formula_units_Z   1
loop_
 _symmetry_equiv_pos_site_id
 _symmetry_equiv_pos_as_xyz
  1  'x, y, z'
loop_
 _atom_site_type_symbol
 _atom_site_label
 _atom_site_symmetry_multiplicity
 _atom_site_fract_x
 _atom_site_fract_y
 _atom_site_fract_z
 _atom_site_occupancy
  Sr  Sr0  1  0.250000  0.258027  0.165097  1
  Sr  Sr1  1  0.750000  0.239494  0.667104  1
  Sr  Sr2  1  0.750000  0.740967  0.832864  1
  La  La3  1  0.250000  0.759989  0.331238  1
  Tm  Tm4  1  0.250000  0.439153  0.389509  1
  Tm  Tm5  1  0.250000  0.935929  0.109871  1
  Tm  Tm6  1  0.750000  0.561611  0.610115  1
  Tm  Tm7  1  0.750000  0.061458  0.889739  1
  Tm  Tm8  1  0.250000  0.418186  0.902857  1
  Tm  Tm9  1  0.250000  0.915624  0.596434  1
  Tm  Tm10  1  0.750000  0.584113  0.097158  1
  Tm  Tm11  1  0.750000  0.082150  0.402791  1
  Se  Se12  1  0.250000  0.205346  0.833088  1
  Se  Se13  1  0.250000  0.704578  0.667204  1
  Se  Se14  1  0.750000  0.795620  0.172725  1
  Se  Se15  1  0.750000  0.295274  0.330918  1
  Se  Se16  1  0.250000  0.126959  0.529682  1
  Se  Se17  1  0.250000  0.629942  0.970832  1
  Se  Se18  1  0.750000  0.868860  0.467301  1
  Se  Se19  1  0.750000  0.372974  0.031744  1
  Se  Se20  1  0.250000  0.020577  0.286141  1
  Se  Se21  1  0.250000  0.536384  0.218527  1
  Se  Se22  1  0.750000  0.971985  0.715174  1
  Se  Se23  1  0.750000  0.472473  0.784229  1
  Se  Se24  1  0.250000  0.409912  0.575374  1
  Se  Se25  1  0.250000  0.909119  0.922828  1
  Se  Se26  1  0.750000  0.594092  0.421768  1
  Se  Se27  1  0.750000  0.089205  0.077688  1
