# generated using pymatgen
data_LaYb7MgCdRu2
_symmetry_space_group_name_H-M   'P 1'
_cell_length_a   9.94240046
_cell_length_b   9.95581220
_cell_length_c   9.87366431
_cell_angle_alpha   60.40385522
_cell_angle_beta   60.31811404
_cell_angle_gamma   59.49890783
_symmetry_Int_Tables_number   1
_chemical_formula_structural   LaYb7MgCdRu2
_chemical_formula_sum   'La2 Yb14 Mg2 Cd2 Ru4'
_cell_volume   692.13339120
_cell_formula_units_Z   2
loop_
 _symmetry_equiv_pos_site_id
 _symmetry_equiv_pos_as_xyz
  1  'x, y, z'
loop_
 _atom_site_type_symbol
 _atom_site_label
 _atom_site_symmetry_multiplicity
 _atom_site_fract_x
 _atom_site_fract_y
 _atom_site_fract_z
 _atom_site_occupancy
  La  La0  1  0.063080  0.064617  0.437069  1
  La  La1  1  0.435234  0.437069  0.064617  1
  Yb  Yb2  1  0.796375  0.203625  0.203625  1
  Yb  Yb3  1  0.202623  0.197386  0.799847  1
  Yb  Yb4  1  0.800144  0.799847  0.197386  1
  Yb  Yb5  1  0.203987  0.796013  0.796013  1
  Yb  Yb6  1  0.591792  0.592092  0.225585  1
  Yb  Yb7  1  0.444893  0.055107  0.055107  1
  Yb  Yb8  1  0.056430  0.444212  0.056822  1
  Yb  Yb9  1  0.442537  0.056822  0.444212  1
  Yb  Yb10  1  0.225845  0.590146  0.591882  1
  Yb  Yb11  1  0.057617  0.442383  0.442383  1
  Yb  Yb12  1  0.590532  0.225585  0.592092  1
  Yb  Yb13  1  0.592127  0.591882  0.590146  1
  Yb  Yb14  1  0.206218  0.796254  0.201516  1
  Yb  Yb15  1  0.796012  0.201516  0.796254  1
  Mg  Mg16  1  0.824607  0.520091  0.828230  1
  Mg  Mg17  1  0.827073  0.828230  0.520091  1
  Cd  Cd18  1  0.832274  0.829954  0.829212  1
  Cd  Cd19  1  0.508561  0.829212  0.829954  1
  Ru  Ru20  1  0.857363  0.356550  0.392491  1
  Ru  Ru21  1  0.393596  0.392491  0.356550  1
  Ru  Ru22  1  0.358545  0.857207  0.391712  1
  Ru  Ru23  1  0.392536  0.391712  0.857207  1
