# generated using pymatgen
data_Ho5CoPtO12
_symmetry_space_group_name_H-M   'P 1'
_cell_length_a   6.80433795
_cell_length_b   6.80433864
_cell_length_c   7.17490851
_cell_angle_alpha   74.61030453
_cell_angle_beta   74.61030205
_cell_angle_gamma   50.93722617
_symmetry_Int_Tables_number   1
_chemical_formula_structural   Ho5CoPtO12
_chemical_formula_sum   'Ho5 Co1 Pt1 O12'
_cell_volume   246.53678154
_cell_formula_units_Z   1
loop_
 _symmetry_equiv_pos_site_id
 _symmetry_equiv_pos_as_xyz
  1  'x, y, z'
loop_
 _atom_site_type_symbol
 _atom_site_label
 _atom_site_symmetry_multiplicity
 _atom_site_fract_x
 _atom_site_fract_y
 _atom_site_fract_z
 _atom_site_occupancy
  Ho  Ho0  1  0.295554  0.308280  0.358849  1
  Ho  Ho1  1  0.691720  0.704446  0.641151  1
  Ho  Ho2  1  0.305416  0.308785  0.833225  1
  Ho  Ho3  1  0.691215  0.694584  0.166775  1
  Ho  Ho4  1  0.004571  0.995429  0.500000  1
  Co  Co5  1  0.250559  0.749441  0.000000  1
  Pt  Pt6  1  0.757697  0.242303  0.000000  1
  O  O7  1  0.904393  0.432256  0.916130  1
  O  O8  1  0.421019  0.899789  0.918337  1
  O  O9  1  0.100211  0.578981  0.081663  1
  O  O10  1  0.567744  0.095607  0.083870  1
  O  O11  1  0.095425  0.599864  0.573612  1
  O  O12  1  0.598333  0.099649  0.574440  1
  O  O13  1  0.900351  0.401667  0.425560  1
  O  O14  1  0.400136  0.904575  0.426388  1
  O  O15  1  0.016901  0.983360  0.821823  1
  O  O16  1  0.016640  0.983099  0.178177  1
  O  O17  1  0.491259  0.509144  0.817846  1
  O  O18  1  0.490856  0.508741  0.182154  1
