# generated using pymatgen
data_La4As(PO2)2
_symmetry_space_group_name_H-M   'P 1'
_cell_length_a   7.16612399
_cell_length_b   7.16612376
_cell_length_c   8.16220860
_cell_angle_alpha   90.68998830
_cell_angle_beta   89.31001308
_cell_angle_gamma   146.57458501
_symmetry_Int_Tables_number   1
_chemical_formula_structural   La4As(PO2)2
_chemical_formula_sum   'La4 As1 P2 O4'
_cell_volume   230.87458409
_cell_formula_units_Z   1
loop_
 _symmetry_equiv_pos_site_id
 _symmetry_equiv_pos_as_xyz
  1  'x, y, z'
loop_
 _atom_site_type_symbol
 _atom_site_label
 _atom_site_symmetry_multiplicity
 _atom_site_fract_x
 _atom_site_fract_y
 _atom_site_fract_z
 _atom_site_occupancy
  La  La0  1  0.320090  0.679910  0.763536  1
  La  La1  1  0.316943  0.683057  0.240915  1
  La  La2  1  0.989083  0.010917  0.497706  1
  La  La3  1  0.001918  0.998082  0.001303  1
  As  As4  1  0.628296  0.371704  0.747638  1
  P  P5  1  0.626570  0.373430  0.241199  1
  P  P6  1  0.698469  0.301531  0.004221  1
  O  O7  1  0.397820  0.602180  0.499448  1
  O  O8  1  0.412793  0.587207  0.002271  1
  O  O9  1  0.905912  0.094088  0.749770  1
  O  O10  1  0.903316  0.096684  0.251992  1
