# generated using pymatgen
data_DyLu(ZnGe)2
_symmetry_space_group_name_H-M   'P 1'
_cell_length_a   4.22983400
_cell_length_b   4.22983476
_cell_length_c   15.37385400
_cell_angle_alpha   90.00000000
_cell_angle_beta   90.00000000
_cell_angle_gamma   120.00000968
_symmetry_Int_Tables_number   1
_chemical_formula_structural   DyLu(ZnGe)2
_chemical_formula_sum   'Dy2 Lu2 Zn4 Ge4'
_cell_volume   238.21004302
_cell_formula_units_Z   2
loop_
 _symmetry_equiv_pos_site_id
 _symmetry_equiv_pos_as_xyz
  1  'x, y, z'
loop_
 _atom_site_type_symbol
 _atom_site_label
 _atom_site_symmetry_multiplicity
 _atom_site_fract_x
 _atom_site_fract_y
 _atom_site_fract_z
 _atom_site_occupancy
  Dy  Dy0  1  0.000000  0.000000  0.000000  1
  Dy  Dy1  1  0.000000  0.000000  0.500000  1
  Lu  Lu2  1  0.000000  0.000000  0.250000  1
  Lu  Lu3  1  0.000000  0.000000  0.750000  1
  Zn  Zn4  1  0.333333  0.666667  0.153717  1
  Zn  Zn5  1  0.666667  0.333333  0.846283  1
  Zn  Zn6  1  0.666667  0.333333  0.653717  1
  Zn  Zn7  1  0.333333  0.666667  0.346283  1
  Ge  Ge8  1  0.333333  0.666667  0.614121  1
  Ge  Ge9  1  0.666667  0.333333  0.385879  1
  Ge  Ge10  1  0.666667  0.333333  0.114121  1
  Ge  Ge11  1  0.333333  0.666667  0.885879  1
