# generated using pymatgen
data_Ce3Ho2Os3
_symmetry_space_group_name_H-M   'P 1'
_cell_length_a   8.05280400
_cell_length_b   8.05280278
_cell_length_c   6.63757300
_cell_angle_alpha   90.00000000
_cell_angle_beta   90.00000000
_cell_angle_gamma   119.99999681
_symmetry_Int_Tables_number   1
_chemical_formula_structural   Ce3Ho2Os3
_chemical_formula_sum   'Ce6 Ho4 Os6'
_cell_volume   372.76415823
_cell_formula_units_Z   2
loop_
 _symmetry_equiv_pos_site_id
 _symmetry_equiv_pos_as_xyz
  1  'x, y, z'
loop_
 _atom_site_type_symbol
 _atom_site_label
 _atom_site_symmetry_multiplicity
 _atom_site_fract_x
 _atom_site_fract_y
 _atom_site_fract_z
 _atom_site_occupancy
  Ce  Ce0  1  0.749492  0.749492  0.750000  1
  Ce  Ce1  1  0.250508  0.000000  0.750000  1
  Ce  Ce2  1  0.000000  0.250508  0.750000  1
  Ce  Ce3  1  0.250508  0.250508  0.250000  1
  Ce  Ce4  1  0.749492  0.000000  0.250000  1
  Ce  Ce5  1  0.000000  0.749492  0.250000  1
  Ho  Ho6  1  0.666667  0.333333  0.000000  1
  Ho  Ho7  1  0.333333  0.666667  0.000000  1
  Ho  Ho8  1  0.333333  0.666667  0.500000  1
  Ho  Ho9  1  0.666667  0.333333  0.500000  1
  Os  Os10  1  0.374510  0.374510  0.750000  1
  Os  Os11  1  0.625490  0.000000  0.750000  1
  Os  Os12  1  0.000000  0.625490  0.750000  1
  Os  Os13  1  0.625490  0.625490  0.250000  1
  Os  Os14  1  0.374510  0.000000  0.250000  1
  Os  Os15  1  0.000000  0.374510  0.250000  1
