# generated using pymatgen
data_Y5HfCo16(MoP6)2
_symmetry_space_group_name_H-M   'P 1'
_cell_length_a   12.12624687
_cell_length_b   12.13691669
_cell_length_c   3.70729800
_cell_angle_alpha   90.00000000
_cell_angle_beta   90.00000000
_cell_angle_gamma   120.02911432
_symmetry_Int_Tables_number   1
_chemical_formula_structural   Y5HfCo16(MoP6)2
_chemical_formula_sum   'Y5 Hf1 Co16 Mo2 P12'
_cell_volume   472.38426076
_cell_formula_units_Z   1
loop_
 _symmetry_equiv_pos_site_id
 _symmetry_equiv_pos_as_xyz
  1  'x, y, z'
loop_
 _atom_site_type_symbol
 _atom_site_label
 _atom_site_symmetry_multiplicity
 _atom_site_fract_x
 _atom_site_fract_y
 _atom_site_fract_z
 _atom_site_occupancy
  Y  Y0  1  0.814289  0.814036  0.500000  1
  Y  Y1  1  0.000000  0.180734  0.500000  1
  Y  Y2  1  0.335165  0.667168  0.000000  1
  Y  Y3  1  0.664835  0.332002  0.000000  1
  Y  Y4  1  0.185711  0.999748  0.500000  1
  Hf  Hf5  1  0.000000  0.558725  0.000000  1
  Co  Co6  1  0.623821  0.823833  0.000000  1
  Co  Co7  1  0.376179  0.200012  0.000000  1
  Co  Co8  1  0.000000  0.720715  0.500000  1
  Co  Co9  1  0.281208  0.280338  0.500000  1
  Co  Co10  1  0.872826  0.351334  0.500000  1
  Co  Co11  1  0.718792  0.999130  0.500000  1
  Co  Co12  1  0.818723  0.624553  0.000000  1
  Co  Co13  1  0.181277  0.805830  0.000000  1
  Co  Co14  1  0.358346  0.877265  0.500000  1
  Co  Co15  1  0.127174  0.478508  0.500000  1
  Co  Co16  1  0.641654  0.518919  0.500000  1
  Co  Co17  1  0.000000  0.999152  0.000000  1
  Co  Co18  1  0.517069  0.645659  0.500000  1
  Co  Co19  1  0.482931  0.128588  0.500000  1
  Co  Co20  1  0.198262  0.372433  0.000000  1
  Co  Co21  1  0.801738  0.174170  0.000000  1
  Mo  Mo22  1  0.445599  0.447200  0.000000  1
  Mo  Mo23  1  0.554401  0.001601  0.000000  1
  P  P24  1  0.000000  0.351485  0.000000  1
  P  P25  1  0.827571  0.519819  0.500000  1
  P  P26  1  0.686288  0.164384  0.500000  1
  P  P27  1  0.179601  0.177621  0.000000  1
  P  P28  1  0.636488  0.640599  0.000000  1
  P  P29  1  0.820399  0.998019  0.000000  1
  P  P30  1  0.520641  0.835767  0.500000  1
  P  P31  1  0.172429  0.692246  0.500000  1
  P  P32  1  0.363512  0.004111  0.000000  1
  P  P33  1  0.479359  0.315127  0.500000  1
  P  P34  1  0.000000  0.821074  0.000000  1
  P  P35  1  0.313712  0.478094  0.500000  1
