# generated using pymatgen
data_Yb6Re2HN6
_symmetry_space_group_name_H-M   'P 1'
_cell_length_a   6.05015035
_cell_length_b   6.05015111
_cell_length_c   6.05015152
_cell_angle_alpha   95.38843444
_cell_angle_beta   95.38843234
_cell_angle_gamma   95.38842936
_symmetry_Int_Tables_number   1
_chemical_formula_structural   Yb6Re2HN6
_chemical_formula_sum   'Yb6 Re2 H1 N6'
_cell_volume   218.32664919
_cell_formula_units_Z   1
loop_
 _symmetry_equiv_pos_site_id
 _symmetry_equiv_pos_as_xyz
  1  'x, y, z'
loop_
 _atom_site_type_symbol
 _atom_site_label
 _atom_site_symmetry_multiplicity
 _atom_site_fract_x
 _atom_site_fract_y
 _atom_site_fract_z
 _atom_site_occupancy
  Yb  Yb0  1  0.628944  0.119173  0.785850  1
  Yb  Yb1  1  0.119173  0.785850  0.628944  1
  Yb  Yb2  1  0.785850  0.628944  0.119173  1
  Yb  Yb3  1  0.371056  0.880827  0.214150  1
  Yb  Yb4  1  0.880827  0.214150  0.371056  1
  Yb  Yb5  1  0.214150  0.371056  0.880827  1
  Re  Re6  1  0.626103  0.626103  0.626103  1
  Re  Re7  1  0.373897  0.373897  0.373897  1
  H  H8  1  0.000000  0.000000  0.000000  1
  N  N9  1  0.736387  0.867108  0.470159  1
  N  N10  1  0.867108  0.470159  0.736387  1
  N  N11  1  0.470159  0.736387  0.867108  1
  N  N12  1  0.263613  0.132892  0.529841  1
  N  N13  1  0.132892  0.529841  0.263613  1
  N  N14  1  0.529841  0.263613  0.132892  1
