# generated using pymatgen
data_Tb9HoRu3Rh
_symmetry_space_group_name_H-M   'P 1'
_cell_length_a   6.39205615
_cell_length_b   7.29140129
_cell_length_c   8.54547962
_cell_angle_alpha   96.66329245
_cell_angle_beta   111.98641558
_cell_angle_gamma   90.09301535
_symmetry_Int_Tables_number   1
_chemical_formula_structural   Tb9HoRu3Rh
_chemical_formula_sum   'Tb9 Ho1 Ru3 Rh1'
_cell_volume   366.37972690
_cell_formula_units_Z   1
loop_
 _symmetry_equiv_pos_site_id
 _symmetry_equiv_pos_as_xyz
  1  'x, y, z'
loop_
 _atom_site_type_symbol
 _atom_site_label
 _atom_site_symmetry_multiplicity
 _atom_site_fract_x
 _atom_site_fract_y
 _atom_site_fract_z
 _atom_site_occupancy
  Tb  Tb0  1  0.979863  0.917775  0.185476  1
  Tb  Tb1  1  0.792639  0.584868  0.811850  1
  Tb  Tb2  1  0.020410  0.085358  0.813991  1
  Tb  Tb3  1  0.207925  0.413226  0.185522  1
  Tb  Tb4  1  0.640147  0.815819  0.435187  1
  Tb  Tb5  1  0.210205  0.686026  0.568413  1
  Tb  Tb6  1  0.358945  0.185895  0.566625  1
  Tb  Tb7  1  0.792905  0.312625  0.434791  1
  Tb  Tb8  1  0.420879  0.750771  0.999257  1
  Ho  Ho9  1  0.575500  0.248034  0.998581  1
  Ru  Ru10  1  0.604582  0.924177  0.779940  1
  Ru  Ru11  1  0.175437  0.424952  0.779005  1
  Ru  Ru12  1  0.397282  0.075708  0.220724  1
  Rh  Rh13  1  0.823279  0.574766  0.220638  1
