# generated using pymatgen
data_Dy13Y3Cd3AgIr4
_symmetry_space_group_name_H-M   'P 1'
_cell_length_a   9.62706937
_cell_length_b   9.62937787
_cell_length_c   9.62724866
_cell_angle_alpha   59.90604430
_cell_angle_beta   59.88006637
_cell_angle_gamma   59.86163419
_symmetry_Int_Tables_number   1
_chemical_formula_structural   Dy13Y3Cd3AgIr4
_chemical_formula_sum   'Dy13 Y3 Cd3 Ag1 Ir4'
_cell_volume   629.39143642
_cell_formula_units_Z   1
loop_
 _symmetry_equiv_pos_site_id
 _symmetry_equiv_pos_as_xyz
  1  'x, y, z'
loop_
 _atom_site_type_symbol
 _atom_site_label
 _atom_site_symmetry_multiplicity
 _atom_site_fract_x
 _atom_site_fract_y
 _atom_site_fract_z
 _atom_site_occupancy
  Dy  Dy0  1  0.349197  0.349130  0.349444  1
  Dy  Dy1  1  0.349740  0.349422  0.952836  1
  Dy  Dy2  1  0.349723  0.952933  0.349368  1
  Dy  Dy3  1  0.952867  0.349568  0.349586  1
  Dy  Dy4  1  0.810390  0.189056  0.189490  1
  Dy  Dy5  1  0.187842  0.810209  0.810230  1
  Dy  Dy6  1  0.189235  0.810350  0.189364  1
  Dy  Dy7  1  0.810226  0.187605  0.810319  1
  Dy  Dy8  1  0.189469  0.189114  0.810325  1
  Dy  Dy9  1  0.810103  0.810190  0.187889  1
  Dy  Dy10  1  0.935943  0.561635  0.561189  1
  Dy  Dy11  1  0.561006  0.937076  0.936827  1
  Dy  Dy12  1  0.561649  0.935846  0.561641  1
  Y  Y13  1  0.936567  0.561742  0.936518  1
  Y  Y14  1  0.561862  0.562251  0.935648  1
  Y  Y15  1  0.936294  0.936404  0.561838  1
  Cd  Cd16  1  0.581149  0.581287  0.259145  1
  Cd  Cd17  1  0.581164  0.259043  0.581291  1
  Cd  Cd18  1  0.259303  0.581166  0.581140  1
  Ag  Ag19  1  0.583176  0.583159  0.582887  1
  Ir  Ir20  1  0.141919  0.141702  0.141391  1
  Ir  Ir21  1  0.142862  0.142820  0.575689  1
  Ir  Ir22  1  0.142725  0.575604  0.142999  1
  Ir  Ir23  1  0.575589  0.142689  0.142949  1
