# generated using pymatgen
data_Ba3Sr2Os3ClO15
_symmetry_space_group_name_H-M   'P 1'
_cell_length_a   10.88961900
_cell_length_b   10.88961902
_cell_length_c   7.82836000
_cell_angle_alpha   90.00000000
_cell_angle_beta   90.00000000
_cell_angle_gamma   119.99999691
_symmetry_Int_Tables_number   1
_chemical_formula_structural   Ba3Sr2Os3ClO15
_chemical_formula_sum   'Ba6 Sr4 Os6 Cl2 O30'
_cell_volume   803.94586428
_cell_formula_units_Z   2
loop_
 _symmetry_equiv_pos_site_id
 _symmetry_equiv_pos_as_xyz
  1  'x, y, z'
loop_
 _atom_site_type_symbol
 _atom_site_label
 _atom_site_symmetry_multiplicity
 _atom_site_fract_x
 _atom_site_fract_y
 _atom_site_fract_z
 _atom_site_occupancy
  Ba  Ba0  1  0.737280  0.000000  0.227217  1
  Ba  Ba1  1  0.000000  0.737280  0.227217  1
  Ba  Ba2  1  0.262720  0.000000  0.727217  1
  Ba  Ba3  1  0.000000  0.262720  0.727217  1
  Ba  Ba4  1  0.262720  0.262720  0.227217  1
  Ba  Ba5  1  0.737280  0.737280  0.727217  1
  Sr  Sr6  1  0.333333  0.666667  0.474504  1
  Sr  Sr7  1  0.666667  0.333333  0.974504  1
  Sr  Sr8  1  0.333333  0.666667  0.974504  1
  Sr  Sr9  1  0.666667  0.333333  0.474504  1
  Os  Os10  1  0.389988  0.000000  0.175147  1
  Os  Os11  1  0.000000  0.389988  0.175147  1
  Os  Os12  1  0.610012  0.000000  0.675147  1
  Os  Os13  1  0.000000  0.610012  0.675147  1
  Os  Os14  1  0.610012  0.610012  0.175147  1
  Os  Os15  1  0.389988  0.389988  0.675147  1
  Cl  Cl16  1  0.000000  0.000000  0.001955  1
  Cl  Cl17  1  0.000000  0.000000  0.501955  1
  O  O18  1  0.135340  0.581070  0.211629  1
  O  O19  1  0.418930  0.554270  0.211629  1
  O  O20  1  0.864660  0.418930  0.711629  1
  O  O21  1  0.418930  0.864660  0.711629  1
  O  O22  1  0.445730  0.864660  0.211629  1
  O  O23  1  0.581070  0.445730  0.711629  1
  O  O24  1  0.445730  0.581070  0.711629  1
  O  O25  1  0.581070  0.135340  0.211629  1
  O  O26  1  0.554270  0.135340  0.711629  1
  O  O27  1  0.554270  0.418930  0.211629  1
  O  O28  1  0.135340  0.554270  0.711629  1
  O  O29  1  0.864660  0.445730  0.211629  1
  O  O30  1  0.134568  0.394181  0.024153  1
  O  O31  1  0.605819  0.740387  0.024153  1
  O  O32  1  0.865432  0.605819  0.524153  1
  O  O33  1  0.605819  0.865432  0.524153  1
  O  O34  1  0.259613  0.865432  0.024153  1
  O  O35  1  0.394181  0.259613  0.524153  1
  O  O36  1  0.259613  0.394181  0.524153  1
  O  O37  1  0.394181  0.134568  0.024153  1
  O  O38  1  0.740387  0.134568  0.524153  1
  O  O39  1  0.740387  0.605819  0.024153  1
  O  O40  1  0.134568  0.740387  0.524153  1
  O  O41  1  0.865432  0.259613  0.024153  1
  O  O42  1  0.289330  0.000000  0.348618  1
  O  O43  1  0.000000  0.289330  0.348618  1
  O  O44  1  0.710670  0.000000  0.848618  1
  O  O45  1  0.000000  0.710670  0.848618  1
  O  O46  1  0.710670  0.710670  0.348618  1
  O  O47  1  0.289330  0.289330  0.848618  1
