# generated using pymatgen
data_AcNd(SbPt)2
_symmetry_space_group_name_H-M   'P 1'
_cell_length_a   4.60994300
_cell_length_b   4.60994397
_cell_length_c   8.47715300
_cell_angle_alpha   90.00000000
_cell_angle_beta   90.00000000
_cell_angle_gamma   120.00001458
_symmetry_Int_Tables_number   1
_chemical_formula_structural   AcNd(SbPt)2
_chemical_formula_sum   'Ac1 Nd1 Sb2 Pt2'
_cell_volume   156.01695297
_cell_formula_units_Z   1
loop_
 _symmetry_equiv_pos_site_id
 _symmetry_equiv_pos_as_xyz
  1  'x, y, z'
loop_
 _atom_site_type_symbol
 _atom_site_label
 _atom_site_symmetry_multiplicity
 _atom_site_fract_x
 _atom_site_fract_y
 _atom_site_fract_z
 _atom_site_occupancy
  Ac  Ac0  1  0.000000  0.000000  0.499507  1
  Nd  Nd1  1  0.000000  0.000000  0.998374  1
  Sb  Sb2  1  0.666667  0.333333  0.225897  1
  Sb  Sb3  1  0.333333  0.666667  0.753933  1
  Pt  Pt4  1  0.333333  0.666667  0.270250  1
  Pt  Pt5  1  0.666667  0.333333  0.799839  1
