# generated using pymatgen
data_SrSmEr2(AsPt)4
_symmetry_space_group_name_H-M   'P 1'
_cell_length_a   4.29750700
_cell_length_b   4.29750705
_cell_length_c   16.16828400
_cell_angle_alpha   90.00000000
_cell_angle_beta   90.00000000
_cell_angle_gamma   120.00000734
_symmetry_Int_Tables_number   1
_chemical_formula_structural   SrSmEr2(AsPt)4
_chemical_formula_sum   'Sr1 Sm1 Er2 As4 Pt4'
_cell_volume   258.59952264
_cell_formula_units_Z   1
loop_
 _symmetry_equiv_pos_site_id
 _symmetry_equiv_pos_as_xyz
  1  'x, y, z'
loop_
 _atom_site_type_symbol
 _atom_site_label
 _atom_site_symmetry_multiplicity
 _atom_site_fract_x
 _atom_site_fract_y
 _atom_site_fract_z
 _atom_site_occupancy
  Sr  Sr0  1  0.000000  0.000000  0.500000  1
  Sm  Sm1  1  0.000000  0.000000  0.000000  1
  Er  Er2  1  0.000000  0.000000  0.241539  1
  Er  Er3  1  0.000000  0.000000  0.758461  1
  As  As4  1  0.333333  0.666667  0.887546  1
  As  As5  1  0.666667  0.333333  0.112454  1
  As  As6  1  0.666667  0.333333  0.366464  1
  As  As7  1  0.333333  0.666667  0.633536  1
  Pt  Pt8  1  0.333333  0.666667  0.346713  1
  Pt  Pt9  1  0.666667  0.333333  0.653287  1
  Pt  Pt10  1  0.666667  0.333333  0.868412  1
  Pt  Pt11  1  0.333333  0.666667  0.131588  1
