# generated using pymatgen
data_Er3In3CuIrPt
_symmetry_space_group_name_H-M   'P 1'
_cell_length_a   7.64059900
_cell_length_b   7.64059939
_cell_length_c   3.77135300
_cell_angle_alpha   90.00000000
_cell_angle_beta   90.00000000
_cell_angle_gamma   119.99999513
_symmetry_Int_Tables_number   1
_chemical_formula_structural   Er3In3CuIrPt
_chemical_formula_sum   'Er3 In3 Cu1 Ir1 Pt1'
_cell_volume   190.67013515
_cell_formula_units_Z   1
loop_
 _symmetry_equiv_pos_site_id
 _symmetry_equiv_pos_as_xyz
  1  'x, y, z'
loop_
 _atom_site_type_symbol
 _atom_site_label
 _atom_site_symmetry_multiplicity
 _atom_site_fract_x
 _atom_site_fract_y
 _atom_site_fract_z
 _atom_site_occupancy
  Er  Er0  1  0.989884  0.580725  0.500000  1
  Er  Er1  1  0.419275  0.409160  0.500000  1
  Er  Er2  1  0.590840  0.010116  0.500000  1
  In  In3  1  0.746567  0.746484  0.000000  1
  In  In4  1  0.999918  0.253433  0.000000  1
  In  In5  1  0.253516  0.000082  0.000000  1
  Cu  Cu6  1  0.000000  0.000000  0.500000  1
  Ir  Ir7  1  0.666667  0.333333  0.000000  1
  Pt  Pt8  1  0.333333  0.666667  0.000000  1
