# generated using pymatgen
data_ErMn2(Al4Fe)2
_symmetry_space_group_name_H-M   'P 1'
_cell_length_a   5.12270164
_cell_length_b   6.66199523
_cell_length_c   6.68624672
_cell_angle_alpha   81.62725464
_cell_angle_beta   67.18212897
_cell_angle_gamma   67.68307412
_symmetry_Int_Tables_number   1
_chemical_formula_structural   ErMn2(Al4Fe)2
_chemical_formula_sum   'Er1 Mn2 Al8 Fe2'
_cell_volume   194.57274271
_cell_formula_units_Z   1
loop_
 _symmetry_equiv_pos_site_id
 _symmetry_equiv_pos_as_xyz
  1  'x, y, z'
loop_
 _atom_site_type_symbol
 _atom_site_label
 _atom_site_symmetry_multiplicity
 _atom_site_fract_x
 _atom_site_fract_y
 _atom_site_fract_z
 _atom_site_occupancy
  Er  Er0  1  0.000000  0.000000  0.000000  1
  Mn  Mn1  1  0.500000  0.000000  0.500000  1
  Mn  Mn2  1  0.000000  0.500000  0.000000  1
  Al  Al3  1  0.998677  0.338046  0.661954  1
  Al  Al4  1  0.001323  0.661954  0.338046  1
  Al  Al5  1  0.662283  0.337717  0.337717  1
  Al  Al6  1  0.337717  0.662283  0.662283  1
  Al  Al7  1  0.495423  0.776453  0.223547  1
  Al  Al8  1  0.504577  0.223547  0.776453  1
  Al  Al9  1  0.723918  0.776082  0.776082  1
  Al  Al10  1  0.276082  0.223918  0.223918  1
  Fe  Fe11  1  0.000000  0.000000  0.500000  1
  Fe  Fe12  1  0.500000  0.500000  0.000000  1
