# generated using pymatgen
data_Dy4Y2MnFeB14
_symmetry_space_group_name_H-M   'P 1'
_cell_length_a   8.04361908
_cell_length_b   8.04361966
_cell_length_c   9.30864500
_cell_angle_alpha   90.00000000
_cell_angle_beta   90.00000000
_cell_angle_gamma   155.31502332
_symmetry_Int_Tables_number   1
_chemical_formula_structural   Dy4Y2MnFeB14
_chemical_formula_sum   'Dy4 Y2 Mn1 Fe1 B14'
_cell_volume   251.52431527
_cell_formula_units_Z   1
loop_
 _symmetry_equiv_pos_site_id
 _symmetry_equiv_pos_as_xyz
  1  'x, y, z'
loop_
 _atom_site_type_symbol
 _atom_site_label
 _atom_site_symmetry_multiplicity
 _atom_site_fract_x
 _atom_site_fract_y
 _atom_site_fract_z
 _atom_site_occupancy
  Dy  Dy0  1  0.895656  0.104344  0.438784  1
  Dy  Dy1  1  0.104412  0.895588  0.559355  1
  Dy  Dy2  1  0.895656  0.104344  0.061216  1
  Dy  Dy3  1  0.104412  0.895588  0.940645  1
  Y  Y4  1  0.241941  0.758059  0.250000  1
  Y  Y5  1  0.757588  0.242412  0.750000  1
  Mn  Mn6  1  0.053487  0.946513  0.250000  1
  Fe  Fe7  1  0.945664  0.054336  0.750000  1
  B  B8  1  0.727714  0.272286  0.467421  1
  B  B9  1  0.272722  0.727278  0.533559  1
  B  B10  1  0.727714  0.272286  0.032579  1
  B  B11  1  0.272722  0.727278  0.966441  1
  B  B12  1  0.630140  0.369860  0.153243  1
  B  B13  1  0.370207  0.629793  0.846740  1
  B  B14  1  0.630140  0.369860  0.346757  1
  B  B15  1  0.370207  0.629793  0.653260  1
  B  B16  1  0.521780  0.478220  0.098825  1
  B  B17  1  0.478290  0.521710  0.901331  1
  B  B18  1  0.521780  0.478220  0.401175  1
  B  B19  1  0.478290  0.521710  0.598669  1
  B  B20  1  0.459780  0.540220  0.250000  1
  B  B21  1  0.539697  0.460303  0.750000  1
