# generated using pymatgen
data_Pa2NiSe5
_symmetry_space_group_name_H-M   'P 1'
_cell_length_a   7.19745546
_cell_length_b   7.19745431
_cell_length_c   17.30916500
_cell_angle_alpha   90.00000000
_cell_angle_beta   90.00000000
_cell_angle_gamma   147.17676379
_symmetry_Int_Tables_number   1
_chemical_formula_structural   Pa2NiSe5
_chemical_formula_sum   'Pa4 Ni2 Se10'
_cell_volume   486.04067292
_cell_formula_units_Z   2
loop_
 _symmetry_equiv_pos_site_id
 _symmetry_equiv_pos_as_xyz
  1  'x, y, z'
loop_
 _atom_site_type_symbol
 _atom_site_label
 _atom_site_symmetry_multiplicity
 _atom_site_fract_x
 _atom_site_fract_y
 _atom_site_fract_z
 _atom_site_occupancy
  Pa  Pa0  1  0.220226  0.779774  0.107201  1
  Pa  Pa1  1  0.220226  0.779774  0.392799  1
  Pa  Pa2  1  0.779774  0.220226  0.892799  1
  Pa  Pa3  1  0.779774  0.220226  0.607201  1
  Ni  Ni4  1  0.707381  0.292619  0.250000  1
  Ni  Ni5  1  0.292619  0.707381  0.750000  1
  Se  Se6  1  0.594354  0.405646  0.144759  1
  Se  Se7  1  0.594354  0.405646  0.355241  1
  Se  Se8  1  0.405646  0.594354  0.855241  1
  Se  Se9  1  0.405646  0.594354  0.644759  1
  Se  Se10  1  0.152977  0.847023  0.950280  1
  Se  Se11  1  0.152977  0.847023  0.549720  1
  Se  Se12  1  0.847023  0.152977  0.049720  1
  Se  Se13  1  0.847023  0.152977  0.450280  1
  Se  Se14  1  0.308455  0.691545  0.250000  1
  Se  Se15  1  0.691545  0.308455  0.750000  1
