# generated using pymatgen
data_Ho3Er5B24MoRh3
_symmetry_space_group_name_H-M   'P 1'
_cell_length_a   3.64870600
_cell_length_b   9.14599399
_cell_length_c   11.50786207
_cell_angle_alpha   90.23021962
_cell_angle_beta   90.00000000
_cell_angle_gamma   90.00000000
_symmetry_Int_Tables_number   1
_chemical_formula_structural   Ho3Er5B24MoRh3
_chemical_formula_sum   'Ho3 Er5 B24 Mo1 Rh3'
_cell_volume   384.02626144
_cell_formula_units_Z   1
loop_
 _symmetry_equiv_pos_site_id
 _symmetry_equiv_pos_as_xyz
  1  'x, y, z'
loop_
 _atom_site_type_symbol
 _atom_site_label
 _atom_site_symmetry_multiplicity
 _atom_site_fract_x
 _atom_site_fract_y
 _atom_site_fract_z
 _atom_site_occupancy
  Ho  Ho0  1  0.500000  0.319021  0.410558  1
  Ho  Ho1  1  0.500000  0.676725  0.585198  1
  Ho  Ho2  1  0.500000  0.178213  0.916714  1
  Er  Er3  1  0.500000  0.824046  0.086932  1
  Er  Er4  1  0.500000  0.444981  0.125546  1
  Er  Er5  1  0.500000  0.556960  0.871956  1
  Er  Er6  1  0.500000  0.055865  0.628844  1
  Er  Er7  1  0.500000  0.945158  0.374147  1
  B  B8  1  0.000000  0.107501  0.472566  1
  B  B9  1  0.000000  0.891182  0.530770  1
  B  B10  1  0.000000  0.394496  0.968993  1
  B  B11  1  0.000000  0.609664  0.028779  1
  B  B12  1  0.000000  0.132210  0.316926  1
  B  B13  1  0.000000  0.866642  0.684105  1
  B  B14  1  0.000000  0.368421  0.815865  1
  B  B15  1  0.000000  0.633224  0.183902  1
  B  B16  1  0.000000  0.051675  0.064755  1
  B  B17  1  0.000000  0.946468  0.933006  1
  B  B18  1  0.000000  0.445081  0.565578  1
  B  B19  1  0.000000  0.553032  0.433604  1
  B  B20  1  0.000000  0.483463  0.287059  1
  B  B21  1  0.000000  0.516982  0.712003  1
  B  B22  1  0.000000  0.017110  0.787528  1
  B  B23  1  0.000000  0.979907  0.214012  1
  B  B24  1  0.000000  0.250869  0.078455  1
  B  B25  1  0.000000  0.751450  0.919796  1
  B  B26  1  0.000000  0.250174  0.579596  1
  B  B27  1  0.000000  0.748593  0.421066  1
  B  B28  1  0.000000  0.295537  0.235634  1
  B  B29  1  0.000000  0.706244  0.763964  1
  B  B30  1  0.000000  0.207874  0.735900  1
  B  B31  1  0.000000  0.792194  0.266311  1
  Mo  Mo32  1  0.500000  0.138235  0.179146  1
  Rh  Rh33  1  0.500000  0.860628  0.820645  1
  Rh  Rh34  1  0.500000  0.361210  0.678946  1
  Rh  Rh35  1  0.500000  0.638966  0.321196  1
