# generated using pymatgen
data_Hf16TaNi4RuRh2
_symmetry_space_group_name_H-M   'P 1'
_cell_length_a   8.69151870
_cell_length_b   8.63711836
_cell_length_c   8.62138000
_cell_angle_alpha   60.06025119
_cell_angle_beta   60.26658168
_cell_angle_gamma   60.27602121
_symmetry_Int_Tables_number   1
_chemical_formula_structural   Hf16TaNi4RuRh2
_chemical_formula_sum   'Hf16 Ta1 Ni4 Ru1 Rh2'
_cell_volume   459.72073915
_cell_formula_units_Z   1
loop_
 _symmetry_equiv_pos_site_id
 _symmetry_equiv_pos_as_xyz
  1  'x, y, z'
loop_
 _atom_site_type_symbol
 _atom_site_label
 _atom_site_symmetry_multiplicity
 _atom_site_fract_x
 _atom_site_fract_y
 _atom_site_fract_z
 _atom_site_occupancy
  Hf  Hf0  1  0.673304  0.108756  0.108969  1
  Hf  Hf1  1  0.104023  0.691100  0.102438  1
  Hf  Hf2  1  0.102891  0.101669  0.693509  1
  Hf  Hf3  1  0.102891  0.101669  0.101930  1
  Hf  Hf4  1  0.317069  0.315816  0.683558  1
  Hf  Hf5  1  0.691637  0.681022  0.313671  1
  Hf  Hf6  1  0.317196  0.687367  0.314802  1
  Hf  Hf7  1  0.693181  0.315184  0.677175  1
  Hf  Hf8  1  0.693181  0.315184  0.314463  1
  Hf  Hf9  1  0.317196  0.687367  0.680637  1
  Hf  Hf10  1  0.947527  0.951385  0.550545  1
  Hf  Hf11  1  0.549771  0.549072  0.950579  1
  Hf  Hf12  1  0.944056  0.552920  0.949854  1
  Hf  Hf13  1  0.549535  0.949775  0.549576  1
  Hf  Hf14  1  0.549535  0.949775  0.951115  1
  Hf  Hf15  1  0.944056  0.552920  0.553171  1
  Ta  Ta16  1  0.011448  0.328924  0.329814  1
  Ni  Ni17  1  0.326875  0.889431  0.891847  1
  Ni  Ni18  1  0.885773  0.321361  0.896434  1
  Ni  Ni19  1  0.887871  0.895368  0.320181  1
  Ni  Ni20  1  0.887871  0.895368  0.896581  1
  Ru  Ru21  1  0.334927  0.988103  0.338485  1
  Rh  Rh22  1  0.334096  0.335233  0.991986  1
  Rh  Rh23  1  0.334096  0.335233  0.338684  1
