# generated using pymatgen
data_Er6Ti4Al12IrRh6
_symmetry_space_group_name_H-M   'P 1'
_cell_length_a   8.96096893
_cell_length_b   8.96096832
_cell_length_c   8.96097000
_cell_angle_alpha   60.00000118
_cell_angle_beta   60.00000342
_cell_angle_gamma   60.00000004
_symmetry_Int_Tables_number   1
_chemical_formula_structural   Er6Ti4Al12IrRh6
_chemical_formula_sum   'Er6 Ti4 Al12 Ir1 Rh6'
_cell_volume   508.80334063
_cell_formula_units_Z   1
loop_
 _symmetry_equiv_pos_site_id
 _symmetry_equiv_pos_as_xyz
  1  'x, y, z'
loop_
 _atom_site_type_symbol
 _atom_site_label
 _atom_site_symmetry_multiplicity
 _atom_site_fract_x
 _atom_site_fract_y
 _atom_site_fract_z
 _atom_site_occupancy
  Er  Er0  1  0.703093  0.296907  0.296907  1
  Er  Er1  1  0.703093  0.296907  0.703093  1
  Er  Er2  1  0.703093  0.703093  0.296907  1
  Er  Er3  1  0.296907  0.703093  0.703093  1
  Er  Er4  1  0.296907  0.703093  0.296907  1
  Er  Er5  1  0.296907  0.296907  0.703093  1
  Ti  Ti6  1  0.642397  0.119201  0.119201  1
  Ti  Ti7  1  0.119201  0.642397  0.119201  1
  Ti  Ti8  1  0.119201  0.119201  0.642397  1
  Ti  Ti9  1  0.119201  0.119201  0.119201  1
  Al  Al10  1  0.358112  0.880629  0.880629  1
  Al  Al11  1  0.880629  0.358112  0.880629  1
  Al  Al12  1  0.880629  0.880629  0.358112  1
  Al  Al13  1  0.880629  0.880629  0.880629  1
  Al  Al14  1  0.010136  0.329955  0.329955  1
  Al  Al15  1  0.329955  0.010136  0.329955  1
  Al  Al16  1  0.329955  0.329955  0.010136  1
  Al  Al17  1  0.329955  0.329955  0.329955  1
  Al  Al18  1  0.985521  0.671493  0.671493  1
  Al  Al19  1  0.671493  0.985521  0.671493  1
  Al  Al20  1  0.671493  0.671493  0.985521  1
  Al  Al21  1  0.671493  0.671493  0.671493  1
  Ir  Ir22  1  0.000000  0.000000  0.000000  1
  Rh  Rh23  1  0.498992  0.001008  0.001008  1
  Rh  Rh24  1  0.498992  0.001008  0.498992  1
  Rh  Rh25  1  0.498992  0.498992  0.001008  1
  Rh  Rh26  1  0.001008  0.498992  0.498992  1
  Rh  Rh27  1  0.001008  0.498992  0.001008  1
  Rh  Rh28  1  0.001008  0.001008  0.498992  1
