# generated using pymatgen
data_ErU2Ga3IrRu2
_symmetry_space_group_name_H-M   'P 1'
_cell_length_a   6.84125500
_cell_length_b   7.12397514
_cell_length_c   3.92212500
_cell_angle_alpha   90.00000000
_cell_angle_beta   90.00000000
_cell_angle_gamma   118.69566988
_symmetry_Int_Tables_number   1
_chemical_formula_structural   ErU2Ga3IrRu2
_chemical_formula_sum   'Er1 U2 Ga3 Ir1 Ru2'
_cell_volume   167.67547330
_cell_formula_units_Z   1
loop_
 _symmetry_equiv_pos_site_id
 _symmetry_equiv_pos_as_xyz
  1  'x, y, z'
loop_
 _atom_site_type_symbol
 _atom_site_label
 _atom_site_symmetry_multiplicity
 _atom_site_fract_x
 _atom_site_fract_y
 _atom_site_fract_z
 _atom_site_occupancy
  Er  Er0  1  0.412067  0.000000  0.500000  1
  U  U1  1  0.999134  0.418476  0.500000  1
  U  U2  1  0.580658  0.581524  0.500000  1
  Ga  Ga3  1  0.735685  0.000000  0.000000  1
  Ga  Ga4  1  0.016087  0.770802  0.000000  1
  Ga  Ga5  1  0.245285  0.229198  0.000000  1
  Ir  Ir6  1  0.978897  0.000000  0.500000  1
  Ru  Ru7  1  0.329218  0.626249  0.000000  1
  Ru  Ru8  1  0.702970  0.373751  0.000000  1
