# generated using pymatgen
data_Pr5GdFeCl10
_symmetry_space_group_name_H-M   'P 1'
_cell_length_a   7.42448351
_cell_length_b   9.12251714
_cell_length_c   9.32184100
_cell_angle_alpha   109.33216385
_cell_angle_beta   96.71566527
_cell_angle_gamma   106.39292806
_symmetry_Int_Tables_number   1
_chemical_formula_structural   Pr5GdFeCl10
_chemical_formula_sum   'Pr5 Gd1 Fe1 Cl10'
_cell_volume   555.90265474
_cell_formula_units_Z   1
loop_
 _symmetry_equiv_pos_site_id
 _symmetry_equiv_pos_as_xyz
  1  'x, y, z'
loop_
 _atom_site_type_symbol
 _atom_site_label
 _atom_site_symmetry_multiplicity
 _atom_site_fract_x
 _atom_site_fract_y
 _atom_site_fract_z
 _atom_site_occupancy
  Pr  Pr0  1  0.031170  0.717617  0.409232  1
  Pr  Pr1  1  0.965398  0.280412  0.588102  1
  Pr  Pr2  1  0.854829  0.937348  0.748489  1
  Pr  Pr3  1  0.141169  0.059400  0.250224  1
  Pr  Pr4  1  0.375222  0.151057  0.697569  1
  Gd  Gd5  1  0.629924  0.853999  0.306737  1
  Fe  Fe6  1  0.999908  0.999652  0.500086  1
  Cl  Cl7  1  0.448815  0.830410  0.570138  1
  Cl  Cl8  1  0.551662  0.164441  0.422852  1
  Cl  Cl9  1  0.912316  0.630548  0.662318  1
  Cl  Cl10  1  0.086313  0.367522  0.335761  1
  Cl  Cl11  1  0.237251  0.079037  0.946947  1
  Cl  Cl12  1  0.755172  0.916620  0.057333  1
  Cl  Cl13  1  0.346373  0.456192  0.771181  1
  Cl  Cl14  1  0.647895  0.552733  0.226444  1
  Cl  Cl15  1  0.796759  0.246412  0.845894  1
  Cl  Cl16  1  0.219822  0.756601  0.160695  1
