# generated using pymatgen
data_Ho3Th11TcRu5
_symmetry_space_group_name_H-M   'P 1'
_cell_length_a   9.81702632
_cell_length_b   9.89300929
_cell_length_c   6.40491123
_cell_angle_alpha   90.06877489
_cell_angle_beta   89.90178387
_cell_angle_gamma   120.39374051
_symmetry_Int_Tables_number   1
_chemical_formula_structural   Ho3Th11TcRu5
_chemical_formula_sum   'Ho3 Th11 Tc1 Ru5'
_cell_volume   536.55548140
_cell_formula_units_Z   1
loop_
 _symmetry_equiv_pos_site_id
 _symmetry_equiv_pos_as_xyz
  1  'x, y, z'
loop_
 _atom_site_type_symbol
 _atom_site_label
 _atom_site_symmetry_multiplicity
 _atom_site_fract_x
 _atom_site_fract_y
 _atom_site_fract_z
 _atom_site_occupancy
  Ho  Ho0  1  0.461480  0.536900  0.295965  1
  Ho  Ho1  1  0.073520  0.536313  0.300924  1
  Ho  Ho2  1  0.926032  0.461092  0.800592  1
  Th  Th3  1  0.250052  0.126904  0.511161  1
  Th  Th4  1  0.542317  0.081523  0.796196  1
  Th  Th5  1  0.748597  0.873100  0.015021  1
  Th  Th6  1  0.668195  0.334864  0.274503  1
  Th  Th7  1  0.123100  0.870294  0.011626  1
  Th  Th8  1  0.459068  0.917617  0.296522  1
  Th  Th9  1  0.539395  0.463750  0.798327  1
  Th  Th10  1  0.875953  0.129438  0.512007  1
  Th  Th11  1  0.125001  0.253157  0.013911  1
  Th  Th12  1  0.874172  0.748294  0.512484  1
  Th  Th13  1  0.332658  0.664694  0.770652  1
  Tc  Tc14  1  0.812440  0.633331  0.048119  1
  Ru  Ru15  1  0.814073  0.179993  0.044715  1
  Ru  Ru16  1  0.630664  0.817147  0.544769  1
  Ru  Ru17  1  0.369769  0.185911  0.041225  1
  Ru  Ru18  1  0.184051  0.365670  0.551918  1
  Ru  Ru19  1  0.189463  0.820008  0.543357  1
