# generated using pymatgen
data_Nb3MoH3Se8
_symmetry_space_group_name_H-M   'P 1'
_cell_length_a   3.42449500
_cell_length_b   3.42449504
_cell_length_c   29.14521700
_cell_angle_alpha   90.00000000
_cell_angle_beta   90.00000000
_cell_angle_gamma   119.99998995
_symmetry_Int_Tables_number   1
_chemical_formula_structural   Nb3MoH3Se8
_chemical_formula_sum   'Nb3 Mo1 H3 Se8'
_cell_volume   295.99954728
_cell_formula_units_Z   1
loop_
 _symmetry_equiv_pos_site_id
 _symmetry_equiv_pos_as_xyz
  1  'x, y, z'
loop_
 _atom_site_type_symbol
 _atom_site_label
 _atom_site_symmetry_multiplicity
 _atom_site_fract_x
 _atom_site_fract_y
 _atom_site_fract_z
 _atom_site_occupancy
  Nb  Nb0  1  0.666667  0.333333  0.500000  1
  Nb  Nb1  1  0.333333  0.666667  0.249758  1
  Nb  Nb2  1  0.333333  0.666667  0.750242  1
  Mo  Mo3  1  0.666667  0.333333  0.000000  1
  H  H4  1  0.000000  0.000000  0.500000  1
  H  H5  1  0.000000  0.000000  0.249687  1
  H  H6  1  0.000000  0.000000  0.750313  1
  Se  Se7  1  0.666667  0.333333  0.310774  1
  Se  Se8  1  0.666667  0.333333  0.811222  1
  Se  Se9  1  0.333333  0.666667  0.943730  1
  Se  Se10  1  0.333333  0.666667  0.439023  1
  Se  Se11  1  0.333333  0.666667  0.056270  1
  Se  Se12  1  0.333333  0.666667  0.560977  1
  Se  Se13  1  0.666667  0.333333  0.188778  1
  Se  Se14  1  0.666667  0.333333  0.689226  1
