# generated using pymatgen
data_MnHgPO5
_symmetry_space_group_name_H-M   'P 1'
_cell_length_a   7.67892780
_cell_length_b   7.20302196
_cell_length_c   8.44085436
_cell_angle_alpha   89.99140439
_cell_angle_beta   90.02590000
_cell_angle_gamma   66.62118120
_symmetry_Int_Tables_number   1
_chemical_formula_structural   MnHgPO5
_chemical_formula_sum   'Mn4 Hg4 P4 O20'
_cell_volume   428.54623176
_cell_formula_units_Z   4
loop_
 _symmetry_equiv_pos_site_id
 _symmetry_equiv_pos_as_xyz
  1  'x, y, z'
loop_
 _atom_site_type_symbol
 _atom_site_label
 _atom_site_symmetry_multiplicity
 _atom_site_fract_x
 _atom_site_fract_y
 _atom_site_fract_z
 _atom_site_occupancy
  Mn  Mn0  1  0.726118  0.504184  0.755732  1
  Mn  Mn1  1  0.725759  0.004486  0.743635  1
  Mn  Mn2  1  0.225863  0.504478  0.255722  1
  Mn  Mn3  1  0.226075  0.004365  0.243582  1
  Hg  Hg4  1  0.199059  0.277351  0.921958  1
  Hg  Hg5  1  0.699061  0.277185  0.421964  1
  Hg  Hg6  1  0.198450  0.777255  0.576921  1
  Hg  Hg7  1  0.698446  0.777083  0.076942  1
  P  P8  1  0.269330  0.229987  0.566495  1
  P  P9  1  0.769293  0.229943  0.066501  1
  P  P10  1  0.268990  0.729990  0.932661  1
  P  P11  1  0.769046  0.729893  0.432669  1
  O  O12  1  0.177796  0.117976  0.457178  1
  O  O13  1  0.677814  0.117844  0.957249  1
  O  O14  1  0.326152  0.376882  0.461810  1
  O  O15  1  0.826108  0.376800  0.961754  1
  O  O16  1  0.325286  0.877501  0.037055  1
  O  O17  1  0.825305  0.877371  0.537135  1
  O  O18  1  0.177674  0.617939  0.042025  1
  O  O19  1  0.677637  0.617853  0.541974  1
  O  O20  1  0.439603  0.586117  0.839596  1
  O  O21  1  0.939664  0.586060  0.339612  1
  O  O22  1  0.109840  0.857917  0.811945  1
  O  O23  1  0.609892  0.857904  0.311951  1
  O  O24  1  0.110221  0.358721  0.686833  1
  O  O25  1  0.610213  0.358706  0.186831  1
  O  O26  1  0.439518  0.086088  0.660049  1
  O  O27  1  0.939501  0.086115  0.160084  1
  O  O28  1  0.255721  0.742787  0.334406  1
  O  O29  1  0.755716  0.742632  0.834435  1
  O  O30  1  0.255909  0.242749  0.164691  1
  O  O31  1  0.755894  0.242624  0.664726  1
