# generated using pymatgen
data_Th3Mg3IrOs2
_symmetry_space_group_name_H-M   'P 1'
_cell_length_a   7.42095400
_cell_length_b   7.42095254
_cell_length_c   4.11575200
_cell_angle_alpha   90.00000000
_cell_angle_beta   90.00000000
_cell_angle_gamma   120.00000650
_symmetry_Int_Tables_number   1
_chemical_formula_structural   Th3Mg3IrOs2
_chemical_formula_sum   'Th3 Mg3 Ir1 Os2'
_cell_volume   196.29046095
_cell_formula_units_Z   1
loop_
 _symmetry_equiv_pos_site_id
 _symmetry_equiv_pos_as_xyz
  1  'x, y, z'
loop_
 _atom_site_type_symbol
 _atom_site_label
 _atom_site_symmetry_multiplicity
 _atom_site_fract_x
 _atom_site_fract_y
 _atom_site_fract_z
 _atom_site_occupancy
  Th  Th0  1  0.417920  0.417920  0.500000  1
  Th  Th1  1  0.582080  0.000000  0.500000  1
  Th  Th2  1  0.000000  0.582080  0.500000  1
  Mg  Mg3  1  0.762383  0.762383  0.000000  1
  Mg  Mg4  1  0.237617  0.000000  0.000000  1
  Mg  Mg5  1  0.000000  0.237617  0.000000  1
  Ir  Ir6  1  0.000000  0.000000  0.500000  1
  Os  Os7  1  0.666667  0.333333  0.000000  1
  Os  Os8  1  0.333333  0.666667  0.000000  1
