# generated using pymatgen
data_Dy4Co9P12Ir3Rh8
_symmetry_space_group_name_H-M   'P 1'
_cell_length_a   3.79266600
_cell_length_b   10.58552671
_cell_length_c   12.18609933
_cell_angle_alpha   89.72857684
_cell_angle_beta   90.00000000
_cell_angle_gamma   90.00000000
_symmetry_Int_Tables_number   1
_chemical_formula_structural   Dy4Co9P12Ir3Rh8
_chemical_formula_sum   'Dy4 Co9 P12 Ir3 Rh8'
_cell_volume   489.23431553
_cell_formula_units_Z   1
loop_
 _symmetry_equiv_pos_site_id
 _symmetry_equiv_pos_as_xyz
  1  'x, y, z'
loop_
 _atom_site_type_symbol
 _atom_site_label
 _atom_site_symmetry_multiplicity
 _atom_site_fract_x
 _atom_site_fract_y
 _atom_site_fract_z
 _atom_site_occupancy
  Dy  Dy0  1  0.250000  0.583674  0.708557  1
  Dy  Dy1  1  0.250000  0.912195  0.213193  1
  Dy  Dy2  1  0.750000  0.420659  0.291347  1
  Dy  Dy3  1  0.750000  0.082528  0.790831  1
  Co  Co4  1  0.750000  0.723108  0.321669  1
  Co  Co5  1  0.250000  0.883013  0.695923  1
  Co  Co6  1  0.250000  0.620599  0.196798  1
  Co  Co7  1  0.750000  0.113169  0.303382  1
  Co  Co8  1  0.750000  0.383962  0.802370  1
  Co  Co9  1  0.250000  0.462657  0.932636  1
  Co  Co10  1  0.250000  0.036367  0.431992  1
  Co  Co11  1  0.750000  0.537439  0.068107  1
  Co  Co12  1  0.750000  0.964361  0.566113  1
  P  P13  1  0.250000  0.431834  0.110929  1
  P  P14  1  0.250000  0.069537  0.609808  1
  P  P15  1  0.750000  0.568777  0.890058  1
  P  P16  1  0.750000  0.922525  0.388768  1
  P  P17  1  0.250000  0.273161  0.870682  1
  P  P18  1  0.250000  0.226677  0.370893  1
  P  P19  1  0.750000  0.724714  0.139125  1
  P  P20  1  0.750000  0.774489  0.628704  1
  P  P21  1  0.250000  0.607167  0.377165  1
  P  P22  1  0.250000  0.899039  0.881104  1
  P  P23  1  0.750000  0.402392  0.617753  1
  P  P24  1  0.750000  0.097855  0.120280  1
  Ir  Ir25  1  0.250000  0.225325  0.180267  1
  Ir  Ir26  1  0.250000  0.274770  0.678935  1
  Ir  Ir27  1  0.750000  0.774647  0.820650  1
  Rh  Rh28  1  0.250000  0.714442  0.989073  1
  Rh  Rh29  1  0.250000  0.787030  0.485992  1
  Rh  Rh30  1  0.750000  0.281920  0.009710  1
  Rh  Rh31  1  0.750000  0.218954  0.507766  1
  Rh  Rh32  1  0.250000  0.411907  0.476995  1
  Rh  Rh33  1  0.250000  0.089101  0.979213  1
  Rh  Rh34  1  0.750000  0.594465  0.518152  1
  Rh  Rh35  1  0.750000  0.905536  0.025058  1
