# generated using pymatgen
data_Th(Ga3Pd)3
_symmetry_space_group_name_H-M   'P 1'
_cell_length_a   10.51397917
_cell_length_b   10.51397972
_cell_length_c   10.51398184
_cell_angle_alpha   42.76481238
_cell_angle_beta   42.76481582
_cell_angle_gamma   42.76481270
_symmetry_Int_Tables_number   1
_chemical_formula_structural   Th(Ga3Pd)3
_chemical_formula_sum   'Th2 Ga18 Pd6'
_cell_volume   485.44664449
_cell_formula_units_Z   2
loop_
 _symmetry_equiv_pos_site_id
 _symmetry_equiv_pos_as_xyz
  1  'x, y, z'
loop_
 _atom_site_type_symbol
 _atom_site_label
 _atom_site_symmetry_multiplicity
 _atom_site_fract_x
 _atom_site_fract_y
 _atom_site_fract_z
 _atom_site_occupancy
  Th  Th0  1  0.166892  0.166892  0.166892  1
  Th  Th1  1  0.833108  0.833108  0.833108  1
  Ga  Ga2  1  0.109126  0.435635  0.763049  1
  Ga  Ga3  1  0.435635  0.763049  0.109126  1
  Ga  Ga4  1  0.564365  0.890874  0.236951  1
  Ga  Ga5  1  0.951398  0.951398  0.951398  1
  Ga  Ga6  1  0.048602  0.048602  0.048602  1
  Ga  Ga7  1  0.299864  0.700136  0.500000  1
  Ga  Ga8  1  0.890874  0.236951  0.564365  1
  Ga  Ga9  1  0.383653  0.383653  0.383653  1
  Ga  Ga10  1  0.500000  0.299864  0.700136  1
  Ga  Ga11  1  0.236951  0.564365  0.890874  1
  Ga  Ga12  1  0.714597  0.714597  0.714597  1
  Ga  Ga13  1  0.616347  0.616347  0.616347  1
  Ga  Ga14  1  0.335106  0.000000  0.664894  1
  Ga  Ga15  1  0.700136  0.500000  0.299864  1
  Ga  Ga16  1  0.664894  0.335106  0.000000  1
  Ga  Ga17  1  0.285403  0.285403  0.285403  1
  Ga  Ga18  1  0.000000  0.664894  0.335106  1
  Ga  Ga19  1  0.763049  0.109126  0.435635  1
  Pd  Pd20  1  0.419006  0.079329  0.758790  1
  Pd  Pd21  1  0.580994  0.241210  0.920671  1
  Pd  Pd22  1  0.079329  0.758790  0.419006  1
  Pd  Pd23  1  0.758790  0.419006  0.079329  1
  Pd  Pd24  1  0.920671  0.580994  0.241210  1
  Pd  Pd25  1  0.241210  0.920671  0.580994  1
