# generated using pymatgen
data_Pr4HfV3F28
_symmetry_space_group_name_H-M   'P 1'
_cell_length_a   5.70515864
_cell_length_b   9.21997518
_cell_length_c   12.27243356
_cell_angle_alpha   62.46300749
_cell_angle_beta   89.91653136
_cell_angle_gamma   89.97887229
_symmetry_Int_Tables_number   1
_chemical_formula_structural   Pr4HfV3F28
_chemical_formula_sum   'Pr4 Hf1 V3 F28'
_cell_volume   572.41436368
_cell_formula_units_Z   1
loop_
 _symmetry_equiv_pos_site_id
 _symmetry_equiv_pos_as_xyz
  1  'x, y, z'
loop_
 _atom_site_type_symbol
 _atom_site_label
 _atom_site_symmetry_multiplicity
 _atom_site_fract_x
 _atom_site_fract_y
 _atom_site_fract_z
 _atom_site_occupancy
  Pr  Pr0  1  0.758423  0.806665  0.766655  1
  Pr  Pr1  1  0.257099  0.190801  0.738112  1
  Pr  Pr2  1  0.241086  0.192546  0.227084  1
  Pr  Pr3  1  0.741998  0.807656  0.267299  1
  Hf  Hf4  1  0.746231  0.271540  0.458248  1
  V  V5  1  0.753141  0.276500  0.956253  1
  V  V6  1  0.255543  0.723878  0.544783  1
  V  V7  1  0.246101  0.726316  0.042842  1
  F  F8  1  0.446696  0.711269  0.925127  1
  F  F9  1  0.945268  0.293635  0.583633  1
  F  F10  1  0.553241  0.293157  0.073458  1
  F  F11  1  0.054596  0.709691  0.426596  1
  F  F12  1  0.449810  0.283892  0.543270  1
  F  F13  1  0.976467  0.713665  0.955218  1
  F  F14  1  0.526684  0.715267  0.455555  1
  F  F15  1  0.025193  0.290832  0.042053  1
  F  F16  1  0.759156  0.500866  0.865326  1
  F  F17  1  0.267738  0.498047  0.634541  1
  F  F18  1  0.239176  0.501531  0.133802  1
  F  F19  1  0.733925  0.515330  0.358441  1
  F  F20  1  0.761030  0.053264  0.046738  1
  F  F21  1  0.260118  0.947550  0.454663  1
  F  F22  1  0.239651  0.951056  0.952997  1
  F  F23  1  0.737855  0.028175  0.554341  1
  F  F24  1  0.992173  0.725695  0.638980  1
  F  F25  1  0.487514  0.266987  0.867100  1
  F  F26  1  0.033492  0.265966  0.365036  1
  F  F27  1  0.510883  0.736906  0.132383  1
  F  F28  1  0.046492  0.746795  0.160596  1
  F  F29  1  0.551099  0.252265  0.328635  1
  F  F30  1  0.951469  0.257801  0.838131  1
  F  F31  1  0.452921  0.738523  0.665360  1
  F  F32  1  0.410316  0.969383  0.227286  1
  F  F33  1  0.909949  0.031895  0.271048  1
  F  F34  1  0.590002  0.032485  0.769004  1
  F  F35  1  0.087465  0.972169  0.729407  1
