# generated using pymatgen
data_Tb7Nd2Th5Rh6
_symmetry_space_group_name_H-M   'P 1'
_cell_length_a   9.95132800
_cell_length_b   9.82455537
_cell_length_c   6.41971840
_cell_angle_alpha   90.11657219
_cell_angle_beta   90.00000000
_cell_angle_gamma   120.42778202
_symmetry_Int_Tables_number   1
_chemical_formula_structural   Tb7Nd2Th5Rh6
_chemical_formula_sum   'Tb7 Nd2 Th5 Rh6'
_cell_volume   541.19164626
_cell_formula_units_Z   1
loop_
 _symmetry_equiv_pos_site_id
 _symmetry_equiv_pos_as_xyz
  1  'x, y, z'
loop_
 _atom_site_type_symbol
 _atom_site_label
 _atom_site_symmetry_multiplicity
 _atom_site_fract_x
 _atom_site_fract_y
 _atom_site_fract_z
 _atom_site_occupancy
  Tb  Tb0  1  0.873573  0.747148  0.734504  1
  Tb  Tb1  1  0.539141  0.461564  0.442558  1
  Tb  Tb2  1  0.922423  0.461564  0.442558  1
  Tb  Tb3  1  0.538983  0.077965  0.441424  1
  Tb  Tb4  1  0.462231  0.539473  0.939453  1
  Tb  Tb5  1  0.077242  0.539473  0.939453  1
  Tb  Tb6  1  0.461548  0.923096  0.939648  1
  Nd  Nd7  1  0.332904  0.665809  0.457563  1
  Nd  Nd8  1  0.666841  0.333682  0.958475  1
  Th  Th9  1  0.125385  0.872459  0.235104  1
  Th  Th10  1  0.747074  0.872459  0.235104  1
  Th  Th11  1  0.126138  0.252277  0.233053  1
  Th  Th12  1  0.870714  0.123815  0.733504  1
  Th  Th13  1  0.253100  0.123815  0.733504  1
  Rh  Rh14  1  0.819083  0.181534  0.203743  1
  Rh  Rh15  1  0.362452  0.181534  0.203743  1
  Rh  Rh16  1  0.818109  0.636216  0.209181  1
  Rh  Rh17  1  0.191221  0.822601  0.699444  1
  Rh  Rh18  1  0.631379  0.822601  0.699444  1
  Rh  Rh19  1  0.180458  0.360917  0.705101  1
