# generated using pymatgen
data_Y2Ho2Mg4Ir3Pd
_symmetry_space_group_name_H-M   'P 1'
_cell_length_a   4.11939200
_cell_length_b   7.11432381
_cell_length_c   8.57050796
_cell_angle_alpha   89.05495971
_cell_angle_beta   90.00000000
_cell_angle_gamma   90.00000000
_symmetry_Int_Tables_number   1
_chemical_formula_structural   Y2Ho2Mg4Ir3Pd
_chemical_formula_sum   'Y2 Ho2 Mg4 Ir3 Pd1'
_cell_volume   251.13904213
_cell_formula_units_Z   1
loop_
 _symmetry_equiv_pos_site_id
 _symmetry_equiv_pos_as_xyz
  1  'x, y, z'
loop_
 _atom_site_type_symbol
 _atom_site_label
 _atom_site_symmetry_multiplicity
 _atom_site_fract_x
 _atom_site_fract_y
 _atom_site_fract_z
 _atom_site_occupancy
  Y  Y0  1  0.250000  0.030872  0.666584  1
  Y  Y1  1  0.250000  0.551868  0.822729  1
  Ho  Ho2  1  0.750000  0.960434  0.322678  1
  Ho  Ho3  1  0.750000  0.467142  0.184431  1
  Mg  Mg4  1  0.250000  0.136543  0.064178  1
  Mg  Mg5  1  0.250000  0.636213  0.438850  1
  Mg  Mg6  1  0.750000  0.861759  0.939857  1
  Mg  Mg7  1  0.750000  0.362537  0.558646  1
  Ir  Ir8  1  0.250000  0.249533  0.370535  1
  Ir  Ir9  1  0.250000  0.750468  0.126750  1
  Ir  Ir10  1  0.750000  0.745927  0.628778  1
  Pd  Pd11  1  0.750000  0.246705  0.875986  1
