# generated using pymatgen
data_LuSe27
_symmetry_space_group_name_H-M   'P 1'
_cell_length_a   16.40080664
_cell_length_b   16.40080732
_cell_length_c   16.40080739
_cell_angle_alpha   119.24525753
_cell_angle_beta   119.24525764
_cell_angle_gamma   119.24525226
_symmetry_Int_Tables_number   1
_chemical_formula_structural   LuSe27
_chemical_formula_sum   'Lu1 Se27'
_cell_volume   993.79220414
_cell_formula_units_Z   1
loop_
 _symmetry_equiv_pos_site_id
 _symmetry_equiv_pos_as_xyz
  1  'x, y, z'
loop_
 _atom_site_type_symbol
 _atom_site_label
 _atom_site_symmetry_multiplicity
 _atom_site_fract_x
 _atom_site_fract_y
 _atom_site_fract_z
 _atom_site_occupancy
  Lu  Lu0  1  0.451024  0.451024  0.451024  1
  Se  Se1  1  0.986951  0.592836  0.592836  1
  Se  Se2  1  0.592836  0.592836  0.986951  1
  Se  Se3  1  0.592836  0.986951  0.592836  1
  Se  Se4  1  0.277475  0.895222  0.761127  1
  Se  Se5  1  0.895222  0.761127  0.277475  1
  Se  Se6  1  0.761127  0.277475  0.895222  1
  Se  Se7  1  0.895222  0.277475  0.761127  1
  Se  Se8  1  0.277475  0.761127  0.895222  1
  Se  Se9  1  0.761127  0.895222  0.277475  1
  Se  Se10  1  0.060144  0.592399  0.402436  1
  Se  Se11  1  0.592399  0.402436  0.060144  1
  Se  Se12  1  0.402436  0.060144  0.592399  1
  Se  Se13  1  0.592399  0.060144  0.402436  1
  Se  Se14  1  0.060144  0.402436  0.592399  1
  Se  Se15  1  0.402436  0.592399  0.060144  1
  Se  Se16  1  0.388072  0.772535  0.635091  1
  Se  Se17  1  0.772535  0.635091  0.388072  1
  Se  Se18  1  0.635091  0.388072  0.772535  1
  Se  Se19  1  0.772535  0.388072  0.635091  1
  Se  Se20  1  0.388072  0.635091  0.772535  1
  Se  Se21  1  0.635091  0.772535  0.388072  1
  Se  Se22  1  0.154975  0.423916  0.423916  1
  Se  Se23  1  0.423916  0.423916  0.154975  1
  Se  Se24  1  0.423916  0.154975  0.423916  1
  Se  Se25  1  0.024300  0.913674  0.913674  1
  Se  Se26  1  0.913674  0.913674  0.024300  1
  Se  Se27  1  0.913674  0.024300  0.913674  1
