# generated using pymatgen
data_Ho4Tm6Si5Ge
_symmetry_space_group_name_H-M   'P 1'
_cell_length_a   8.36106521
_cell_length_b   8.37434757
_cell_length_c   6.27063300
_cell_angle_alpha   90.00000000
_cell_angle_beta   90.00000000
_cell_angle_gamma   120.05926337
_symmetry_Int_Tables_number   1
_chemical_formula_structural   Ho4Tm6Si5Ge
_chemical_formula_sum   'Ho4 Tm6 Si5 Ge1'
_cell_volume   380.00993181
_cell_formula_units_Z   1
loop_
 _symmetry_equiv_pos_site_id
 _symmetry_equiv_pos_as_xyz
  1  'x, y, z'
loop_
 _atom_site_type_symbol
 _atom_site_label
 _atom_site_symmetry_multiplicity
 _atom_site_fract_x
 _atom_site_fract_y
 _atom_site_fract_z
 _atom_site_occupancy
  Ho  Ho0  1  0.758519  0.758400  0.250000  1
  Ho  Ho1  1  0.242347  0.998386  0.250000  1
  Ho  Ho2  1  0.242155  0.242281  0.750000  1
  Ho  Ho3  1  0.757287  0.999974  0.750000  1
  Tm  Tm4  1  0.668130  0.333318  0.500756  1
  Tm  Tm5  1  0.332782  0.667595  0.500757  1
  Tm  Tm6  1  0.332782  0.667595  0.999243  1
  Tm  Tm7  1  0.668130  0.333318  0.999244  1
  Tm  Tm8  1  0.998491  0.243260  0.250000  1
  Tm  Tm9  1  0.999865  0.756329  0.750000  1
  Si  Si10  1  0.606090  0.000381  0.250000  1
  Si  Si11  1  0.999879  0.604694  0.250000  1
  Si  Si12  1  0.606405  0.605923  0.750000  1
  Si  Si13  1  0.393793  0.999675  0.750000  1
  Si  Si14  1  0.000136  0.395150  0.750000  1
  Ge  Ge15  1  0.393211  0.393720  0.250000  1
