# generated using pymatgen
data_Tm12Co3HgRu2
_symmetry_space_group_name_H-M   'P 1'
_cell_length_a   8.17061303
_cell_length_b   8.17061229
_cell_length_c   8.17061247
_cell_angle_alpha   110.32420450
_cell_angle_beta   111.95950861
_cell_angle_gamma   106.18363911
_symmetry_Int_Tables_number   1
_chemical_formula_structural   Tm12Co3HgRu2
_chemical_formula_sum   'Tm12 Co3 Hg1 Ru2'
_cell_volume   418.77623881
_cell_formula_units_Z   1
loop_
 _symmetry_equiv_pos_site_id
 _symmetry_equiv_pos_as_xyz
  1  'x, y, z'
loop_
 _atom_site_type_symbol
 _atom_site_label
 _atom_site_symmetry_multiplicity
 _atom_site_fract_x
 _atom_site_fract_y
 _atom_site_fract_z
 _atom_site_occupancy
  Tm  Tm0  1  0.275462  0.179595  0.455057  1
  Tm  Tm1  1  0.726053  0.821565  0.547617  1
  Tm  Tm2  1  0.273947  0.821565  0.095511  1
  Tm  Tm3  1  0.724538  0.179595  0.904133  1
  Tm  Tm4  1  0.632205  0.319788  0.312274  1
  Tm  Tm5  1  0.367795  0.680068  0.687583  1
  Tm  Tm6  1  0.007515  0.319788  0.687583  1
  Tm  Tm7  1  0.992485  0.680068  0.312274  1
  Tm  Tm8  1  0.232984  0.419999  0.187017  1
  Tm  Tm9  1  0.771645  0.580222  0.808576  1
  Tm  Tm10  1  0.228355  0.036931  0.808576  1
  Tm  Tm11  1  0.767016  0.954034  0.187017  1
  Co  Co12  1  0.000000  0.658317  0.658317  1
  Co  Co13  1  0.387869  0.888659  0.500790  1
  Co  Co14  1  0.612131  0.112921  0.500790  1
  Hg  Hg15  1  0.500000  0.497652  0.997652  1
  Ru  Ru16  1  0.000000  0.349009  0.349009  1
  Ru  Ru17  1  0.000000  0.000225  0.000225  1
