# generated using pymatgen
data_Ac5Cd2Ru3
_symmetry_space_group_name_H-M   'P 1'
_cell_length_a   9.05017012
_cell_length_b   9.05017113
_cell_length_c   9.05017100
_cell_angle_alpha   109.47122259
_cell_angle_beta   109.47122483
_cell_angle_gamma   109.47121419
_symmetry_Int_Tables_number   1
_chemical_formula_structural   Ac5Cd2Ru3
_chemical_formula_sum   'Ac10 Cd4 Ru6'
_cell_volume   570.62189314
_cell_formula_units_Z   2
loop_
 _symmetry_equiv_pos_site_id
 _symmetry_equiv_pos_as_xyz
  1  'x, y, z'
loop_
 _atom_site_type_symbol
 _atom_site_label
 _atom_site_symmetry_multiplicity
 _atom_site_fract_x
 _atom_site_fract_y
 _atom_site_fract_z
 _atom_site_occupancy
  Ac  Ac0  1  0.250000  0.686711  0.436712  1
  Ac  Ac1  1  0.750000  0.813289  0.063289  1
  Ac  Ac2  1  0.436712  0.250000  0.686711  1
  Ac  Ac3  1  0.686711  0.436712  0.250000  1
  Ac  Ac4  1  0.063289  0.750000  0.813289  1
  Ac  Ac5  1  0.813289  0.063289  0.750000  1
  Ac  Ac6  1  0.211707  0.211707  0.211707  1
  Ac  Ac7  1  0.500001  0.000000  0.288293  1
  Ac  Ac8  1  0.288293  0.500001  0.000000  1
  Ac  Ac9  1  0.000000  0.288293  0.500001  1
  Cd  Cd10  1  0.500001  0.000000  0.912903  1
  Cd  Cd11  1  0.587097  0.587097  0.587097  1
  Cd  Cd12  1  0.912903  0.500001  0.000000  1
  Cd  Cd13  1  0.000000  0.912903  0.500001  1
  Ru  Ru14  1  0.250001  0.134534  0.884534  1
  Ru  Ru15  1  0.750000  0.365465  0.615465  1
  Ru  Ru16  1  0.884534  0.250001  0.134534  1
  Ru  Ru17  1  0.134534  0.884534  0.250001  1
  Ru  Ru18  1  0.615465  0.750000  0.365465  1
  Ru  Ru19  1  0.365465  0.615465  0.750000  1
