# generated using pymatgen
data_Pr3NdCo6O19
_symmetry_space_group_name_H-M   'P 1'
_cell_length_a   7.50712658
_cell_length_b   7.50335833
_cell_length_c   7.50335912
_cell_angle_alpha   109.46104355
_cell_angle_beta   109.48138755
_cell_angle_gamma   109.48139541
_symmetry_Int_Tables_number   1
_chemical_formula_structural   Pr3NdCo6O19
_chemical_formula_sum   'Pr3 Nd1 Co6 O19'
_cell_volume   325.31850055
_cell_formula_units_Z   1
loop_
 _symmetry_equiv_pos_site_id
 _symmetry_equiv_pos_as_xyz
  1  'x, y, z'
loop_
 _atom_site_type_symbol
 _atom_site_label
 _atom_site_symmetry_multiplicity
 _atom_site_fract_x
 _atom_site_fract_y
 _atom_site_fract_z
 _atom_site_occupancy
  Pr  Pr0  1  0.000118  0.999949  0.330009  1
  Pr  Pr1  1  0.000169  0.330060  0.000051  1
  Pr  Pr2  1  0.670109  0.669991  0.669940  1
  Nd  Nd3  1  0.330363  0.000000  0.000000  1
  Co  Co4  1  0.342055  0.500137  0.842337  1
  Co  Co5  1  0.841918  0.342201  0.499863  1
  Co  Co6  1  0.499717  0.157663  0.657799  1
  Co  Co7  1  0.157986  0.658096  0.500412  1
  Co  Co8  1  0.499890  0.842317  0.341904  1
  Co  Co9  1  0.657573  0.499588  0.157683  1
  O  O10  1  0.355537  0.000055  0.355073  1
  O  O11  1  0.355481  0.355017  0.999945  1
  O  O12  1  0.000464  0.644927  0.644983  1
  O  O13  1  0.644191  0.644253  0.999940  1
  O  O14  1  0.999938  0.355686  0.355747  1
  O  O15  1  0.644251  0.000060  0.644314  1
  O  O16  1  0.001798  0.000000  0.000000  1
  O  O17  1  0.365460  0.323875  0.617649  1
  O  O18  1  0.041585  0.293774  0.676125  1
  O  O19  1  0.747811  0.382351  0.706226  1
  O  O20  1  0.382576  0.707030  0.748483  1
  O  O21  1  0.252618  0.958767  0.636004  1
  O  O22  1  0.616614  0.363996  0.322763  1
  O  O23  1  0.323784  0.617680  0.365383  1
  O  O24  1  0.675546  0.041453  0.292970  1
  O  O25  1  0.958401  0.634617  0.252297  1
  O  O26  1  0.706104  0.747703  0.382320  1
  O  O27  1  0.634093  0.251517  0.958547  1
  O  O28  1  0.293851  0.677237  0.041233  1
