# generated using pymatgen
data_Nd2Si5PPd21
_symmetry_space_group_name_H-M   'P 1'
_cell_length_a   8.70121470
_cell_length_b   8.70121349
_cell_length_c   8.68891200
_cell_angle_alpha   60.04676363
_cell_angle_beta   60.04676821
_cell_angle_gamma   59.90647892
_symmetry_Int_Tables_number   1
_chemical_formula_structural   Nd2Si5PPd21
_chemical_formula_sum   'Nd2 Si5 P1 Pd21'
_cell_volume   465.16647942
_cell_formula_units_Z   1
loop_
 _symmetry_equiv_pos_site_id
 _symmetry_equiv_pos_as_xyz
  1  'x, y, z'
loop_
 _atom_site_type_symbol
 _atom_site_label
 _atom_site_symmetry_multiplicity
 _atom_site_fract_x
 _atom_site_fract_y
 _atom_site_fract_z
 _atom_site_occupancy
  Nd  Nd0  1  0.749943  0.749943  0.750057  1
  Nd  Nd1  1  0.249943  0.249943  0.250057  1
  Si  Si2  1  0.263447  0.735611  0.264389  1
  Si  Si3  1  0.735611  0.263447  0.264389  1
  Si  Si4  1  0.264139  0.264139  0.735861  1
  Si  Si5  1  0.735611  0.263447  0.736553  1
  Si  Si6  1  0.263447  0.735611  0.736553  1
  P  P7  1  0.736146  0.736146  0.263854  1
  Pd  Pd8  1  0.000575  0.000575  0.999425  1
  Pd  Pd9  1  0.615100  0.615100  0.156743  1
  Pd  Pd10  1  0.614842  0.155952  0.614604  1
  Pd  Pd11  1  0.155952  0.614842  0.614604  1
  Pd  Pd12  1  0.615100  0.615100  0.613059  1
  Pd  Pd13  1  0.385396  0.385396  0.844048  1
  Pd  Pd14  1  0.386941  0.843257  0.384900  1
  Pd  Pd15  1  0.843257  0.386941  0.384900  1
  Pd  Pd16  1  0.385396  0.385396  0.385158  1
  Pd  Pd17  1  0.000263  0.000263  0.344489  1
  Pd  Pd18  1  0.656412  0.998531  0.343588  1
  Pd  Pd19  1  0.998531  0.656412  0.343588  1
  Pd  Pd20  1  0.655511  0.345015  0.999737  1
  Pd  Pd21  1  0.999914  0.344194  0.000086  1
  Pd  Pd22  1  0.999914  0.344194  0.655806  1
  Pd  Pd23  1  0.345015  0.655511  0.999737  1
  Pd  Pd24  1  0.344194  0.999914  0.655806  1
  Pd  Pd25  1  0.344194  0.999914  0.000086  1
  Pd  Pd26  1  0.000263  0.000263  0.654985  1
  Pd  Pd27  1  0.998531  0.656412  0.001469  1
  Pd  Pd28  1  0.656412  0.998531  0.001469  1
