# generated using pymatgen
data_Tb16Er4Sn7Pb9
_symmetry_space_group_name_H-M   'P 1'
_cell_length_a   8.15737741
_cell_length_b   8.22323731
_cell_length_c   15.62621600
_cell_angle_alpha   90.00000000
_cell_angle_beta   90.00000000
_cell_angle_gamma   90.03408500
_symmetry_Int_Tables_number   1
_chemical_formula_structural   Tb16Er4Sn7Pb9
_chemical_formula_sum   'Tb16 Er4 Sn7 Pb9'
_cell_volume   1048.20717032
_cell_formula_units_Z   1
loop_
 _symmetry_equiv_pos_site_id
 _symmetry_equiv_pos_as_xyz
  1  'x, y, z'
loop_
 _atom_site_type_symbol
 _atom_site_label
 _atom_site_symmetry_multiplicity
 _atom_site_fract_x
 _atom_site_fract_y
 _atom_site_fract_z
 _atom_site_occupancy
  Tb  Tb0  1  0.380191  0.838411  0.876897  1
  Tb  Tb1  1  0.880479  0.661154  0.623218  1
  Tb  Tb2  1  0.619722  0.161213  0.377417  1
  Tb  Tb3  1  0.119590  0.337367  0.122768  1
  Tb  Tb4  1  0.619722  0.161213  0.122583  1
  Tb  Tb5  1  0.119590  0.337367  0.377232  1
  Tb  Tb6  1  0.380191  0.838411  0.623103  1
  Tb  Tb7  1  0.880479  0.661154  0.876782  1
  Tb  Tb8  1  0.537520  0.324738  0.895883  1
  Tb  Tb9  1  0.037973  0.174752  0.604337  1
  Tb  Tb10  1  0.465039  0.675314  0.397144  1
  Tb  Tb11  1  0.960323  0.826930  0.101593  1
  Tb  Tb12  1  0.465039  0.675314  0.102856  1
  Tb  Tb13  1  0.960323  0.826930  0.398407  1
  Tb  Tb14  1  0.537520  0.324738  0.604117  1
  Tb  Tb15  1  0.037973  0.174752  0.895663  1
  Er  Er16  1  0.211075  0.503264  0.750000  1
  Er  Er17  1  0.711006  0.996614  0.750000  1
  Er  Er18  1  0.787107  0.495067  0.250000  1
  Er  Er19  1  0.291107  0.006407  0.250000  1
  Sn  Sn20  1  0.576303  0.622073  0.750000  1
  Sn  Sn21  1  0.076353  0.877319  0.750000  1
  Sn  Sn22  1  0.424394  0.377014  0.250000  1
  Sn  Sn23  1  0.923567  0.120955  0.250000  1
  Sn  Sn24  1  0.345110  0.149097  0.750000  1
  Sn  Sn25  1  0.844853  0.350866  0.750000  1
  Sn  Sn26  1  0.656164  0.850605  0.250000  1
  Pb  Pb27  1  0.280689  0.031579  0.041370  1
  Pb  Pb28  1  0.781653  0.467404  0.458691  1
  Pb  Pb29  1  0.718350  0.968513  0.542392  1
  Pb  Pb30  1  0.218996  0.531550  0.958402  1
  Pb  Pb31  1  0.718350  0.968513  0.957608  1
  Pb  Pb32  1  0.218996  0.531550  0.541598  1
  Pb  Pb33  1  0.280689  0.031579  0.458630  1
  Pb  Pb34  1  0.781653  0.467404  0.041309  1
  Pb  Pb35  1  0.151904  0.652866  0.250000  1
