# generated using pymatgen
data_Co7Si4Ni(Mo3C)4
_symmetry_space_group_name_H-M   'P 1'
_cell_length_a   7.85942900
_cell_length_b   7.85291484
_cell_length_c   7.83995271
_cell_angle_alpha   59.94391280
_cell_angle_beta   59.98918941
_cell_angle_gamma   59.98397354
_symmetry_Int_Tables_number   1
_chemical_formula_structural   Co7Si4Ni(Mo3C)4
_chemical_formula_sum   'Co7 Si4 Ni1 Mo12 C4'
_cell_volume   341.93838881
_cell_formula_units_Z   1
loop_
 _symmetry_equiv_pos_site_id
 _symmetry_equiv_pos_as_xyz
  1  'x, y, z'
loop_
 _atom_site_type_symbol
 _atom_site_label
 _atom_site_symmetry_multiplicity
 _atom_site_fract_x
 _atom_site_fract_y
 _atom_site_fract_z
 _atom_site_occupancy
  Co  Co0  1  0.919085  0.917446  0.244501  1
  Co  Co1  1  0.331123  0.330456  0.331106  1
  Co  Co2  1  0.244499  0.917476  0.919063  1
  Co  Co3  1  0.331323  0.006216  0.331286  1
  Co  Co4  1  0.007502  0.330474  0.331072  1
  Co  Co5  1  0.331130  0.330469  0.007409  1
  Co  Co6  1  0.919067  0.917389  0.919046  1
  Si  Si7  1  0.124027  0.126028  0.124056  1
  Si  Si8  1  0.625716  0.125915  0.124204  1
  Si  Si9  1  0.124200  0.125902  0.625710  1
  Si  Si10  1  0.125175  0.624504  0.125170  1
  Ni  Ni11  1  0.918382  0.244204  0.918315  1
  Mo  Mo12  1  0.694376  0.304910  0.306425  1
  Mo  Mo13  1  0.947659  0.946371  0.553040  1
  Mo  Mo14  1  0.697256  0.696909  0.302912  1
  Mo  Mo15  1  0.694321  0.304947  0.694251  1
  Mo  Mo16  1  0.302943  0.696959  0.302863  1
  Mo  Mo17  1  0.552951  0.946463  0.552959  1
  Mo  Mo18  1  0.552994  0.946370  0.947748  1
  Mo  Mo19  1  0.946607  0.554078  0.552747  1
  Mo  Mo20  1  0.946545  0.553983  0.946609  1
  Mo  Mo21  1  0.306403  0.304833  0.694390  1
  Mo  Mo22  1  0.552721  0.554047  0.946674  1
  Mo  Mo23  1  0.302898  0.696983  0.697279  1
  C  C24  1  0.625035  0.624880  0.625038  1
  C  C25  1  0.625050  0.624850  0.125026  1
  C  C26  1  0.125044  0.624873  0.625068  1
  C  C27  1  0.625969  0.122065  0.626036  1
