# generated using pymatgen
data_Ho12Fe4SnAu
_symmetry_space_group_name_H-M   'P 1'
_cell_length_a   8.32375108
_cell_length_b   8.30975306
_cell_length_c   8.32375002
_cell_angle_alpha   111.12243107
_cell_angle_beta   110.64388016
_cell_angle_gamma   106.74843794
_symmetry_Int_Tables_number   1
_chemical_formula_structural   Ho12Fe4SnAu
_chemical_formula_sum   'Ho12 Fe4 Sn1 Au1'
_cell_volume   442.07534580
_cell_formula_units_Z   1
loop_
 _symmetry_equiv_pos_site_id
 _symmetry_equiv_pos_as_xyz
  1  'x, y, z'
loop_
 _atom_site_type_symbol
 _atom_site_label
 _atom_site_symmetry_multiplicity
 _atom_site_fract_x
 _atom_site_fract_y
 _atom_site_fract_z
 _atom_site_occupancy
  Ho  Ho0  1  0.426706  0.220795  0.205951  1
  Ho  Ho1  1  0.573294  0.779205  0.794049  1
  Ho  Ho2  1  0.014843  0.220795  0.794089  1
  Ho  Ho3  1  0.985157  0.779205  0.205911  1
  Ho  Ho4  1  0.187317  0.290280  0.477716  1
  Ho  Ho5  1  0.812683  0.709720  0.522284  1
  Ho  Ho6  1  0.187436  0.709720  0.897038  1
  Ho  Ho7  1  0.812564  0.290280  0.102962  1
  Ho  Ho8  1  0.311521  0.613164  0.301644  1
  Ho  Ho9  1  0.688479  0.386836  0.698356  1
  Ho  Ho10  1  0.311370  0.009765  0.698395  1
  Ho  Ho11  1  0.688630  0.990235  0.301605  1
  Fe  Fe12  1  0.385841  0.000000  0.385841  1
  Fe  Fe13  1  0.614159  0.000000  0.614159  1
  Fe  Fe14  1  0.107960  0.608262  0.500303  1
  Fe  Fe15  1  0.892040  0.391738  0.499697  1
  Sn  Sn16  1  0.500000  0.500000  0.000000  1
  Au  Au17  1  0.000000  0.000000  0.000000  1
