# generated using pymatgen
data_PrNd4Pt19
_symmetry_space_group_name_H-M   'P 1'
_cell_length_a   5.46159075
_cell_length_b   5.46159129
_cell_length_c   18.09042559
_cell_angle_alpha   81.31786966
_cell_angle_beta   81.31786876
_cell_angle_gamma   59.99999628
_symmetry_Int_Tables_number   1
_chemical_formula_structural   PrNd4Pt19
_chemical_formula_sum   'Pr1 Nd4 Pt19'
_cell_volume   460.16971880
_cell_formula_units_Z   1
loop_
 _symmetry_equiv_pos_site_id
 _symmetry_equiv_pos_as_xyz
  1  'x, y, z'
loop_
 _atom_site_type_symbol
 _atom_site_label
 _atom_site_symmetry_multiplicity
 _atom_site_fract_x
 _atom_site_fract_y
 _atom_site_fract_z
 _atom_site_occupancy
  Pr  Pr0  1  0.000000  0.000000  0.000000  1
  Nd  Nd1  1  0.077345  0.077345  0.767965  1
  Nd  Nd2  1  0.922655  0.922655  0.232035  1
  Nd  Nd3  1  0.152094  0.152094  0.543717  1
  Nd  Nd4  1  0.847906  0.847906  0.456283  1
  Pt  Pt5  1  0.500000  0.500000  0.500000  1
  Pt  Pt6  1  0.250050  0.250050  0.249848  1
  Pt  Pt7  1  0.749950  0.749950  0.750152  1
  Pt  Pt8  1  0.333253  0.333253  0.000240  1
  Pt  Pt9  1  0.666747  0.666747  0.999760  1
  Pt  Pt10  1  0.416275  0.416275  0.751175  1
  Pt  Pt11  1  0.583725  0.583725  0.248825  1
  Pt  Pt12  1  0.122352  0.626473  0.624701  1
  Pt  Pt13  1  0.626473  0.626473  0.624701  1
  Pt  Pt14  1  0.626473  0.122352  0.624701  1
  Pt  Pt15  1  0.877648  0.373527  0.375299  1
  Pt  Pt16  1  0.373527  0.373527  0.375299  1
  Pt  Pt17  1  0.373527  0.877648  0.375299  1
  Pt  Pt18  1  0.041238  0.541288  0.876184  1
  Pt  Pt19  1  0.541288  0.541288  0.876184  1
  Pt  Pt20  1  0.541288  0.041238  0.876184  1
  Pt  Pt21  1  0.958762  0.458712  0.123816  1
  Pt  Pt22  1  0.458712  0.458712  0.123816  1
  Pt  Pt23  1  0.458712  0.958762  0.123816  1
