# generated using pymatgen
data_Dy2Lu3V3(Co4P3)4
_symmetry_space_group_name_H-M   'P 1'
_cell_length_a   12.02072700
_cell_length_b   12.02072766
_cell_length_c   3.65135700
_cell_angle_alpha   90.00000000
_cell_angle_beta   90.00000000
_cell_angle_gamma   119.99999544
_symmetry_Int_Tables_number   1
_chemical_formula_structural   Dy2Lu3V3(Co4P3)4
_chemical_formula_sum   'Dy2 Lu3 V3 Co16 P12'
_cell_volume   456.92659904
_cell_formula_units_Z   1
loop_
 _symmetry_equiv_pos_site_id
 _symmetry_equiv_pos_as_xyz
  1  'x, y, z'
loop_
 _atom_site_type_symbol
 _atom_site_label
 _atom_site_symmetry_multiplicity
 _atom_site_fract_x
 _atom_site_fract_y
 _atom_site_fract_z
 _atom_site_occupancy
  Dy  Dy0  1  0.666667  0.333333  0.000000  1
  Dy  Dy1  1  0.333333  0.666667  0.000000  1
  Lu  Lu2  1  0.186150  0.186150  0.500000  1
  Lu  Lu3  1  0.813850  0.000000  0.500000  1
  Lu  Lu4  1  0.000000  0.813850  0.500000  1
  V  V5  1  0.556378  0.556378  0.000000  1
  V  V6  1  0.443622  0.000000  0.000000  1
  V  V7  1  0.000000  0.443622  0.000000  1
  Co  Co8  1  0.823470  0.198256  0.000000  1
  Co  Co9  1  0.801744  0.625214  0.000000  1
  Co  Co10  1  0.374786  0.176530  0.000000  1
  Co  Co11  1  0.198256  0.823470  0.000000  1
  Co  Co12  1  0.625214  0.801744  0.000000  1
  Co  Co13  1  0.176530  0.374786  0.000000  1
  Co  Co14  1  0.645120  0.125698  0.500000  1
  Co  Co15  1  0.874302  0.519421  0.500000  1
  Co  Co16  1  0.480579  0.354880  0.500000  1
  Co  Co17  1  0.125698  0.645120  0.500000  1
  Co  Co18  1  0.519421  0.874302  0.500000  1
  Co  Co19  1  0.354880  0.480579  0.500000  1
  Co  Co20  1  0.719673  0.719673  0.500000  1
  Co  Co21  1  0.280327  0.000000  0.500000  1
  Co  Co22  1  0.000000  0.280327  0.500000  1
  Co  Co23  1  0.000000  0.000000  0.000000  1
  P  P24  1  0.361549  0.361549  0.000000  1
  P  P25  1  0.638451  0.000000  0.000000  1
  P  P26  1  0.000000  0.638451  0.000000  1
  P  P27  1  0.836389  0.316161  0.500000  1
  P  P28  1  0.683839  0.520229  0.500000  1
  P  P29  1  0.479771  0.163611  0.500000  1
  P  P30  1  0.316161  0.836389  0.500000  1
  P  P31  1  0.520229  0.683839  0.500000  1
  P  P32  1  0.163611  0.479771  0.500000  1
  P  P33  1  0.822304  0.822304  0.000000  1
  P  P34  1  0.177696  0.000000  0.000000  1
  P  P35  1  0.000000  0.177696  0.000000  1
