# generated using pymatgen
data_Tm5Mg3(Ni4P3)4
_symmetry_space_group_name_H-M   'P 1'
_cell_length_a   12.16800700
_cell_length_b   12.16800760
_cell_length_c   3.76288000
_cell_angle_alpha   90.00000000
_cell_angle_beta   90.00000000
_cell_angle_gamma   120.00000653
_symmetry_Int_Tables_number   1
_chemical_formula_structural   Tm5Mg3(Ni4P3)4
_chemical_formula_sum   'Tm5 Mg3 Ni16 P12'
_cell_volume   482.49175341
_cell_formula_units_Z   1
loop_
 _symmetry_equiv_pos_site_id
 _symmetry_equiv_pos_as_xyz
  1  'x, y, z'
loop_
 _atom_site_type_symbol
 _atom_site_label
 _atom_site_symmetry_multiplicity
 _atom_site_fract_x
 _atom_site_fract_y
 _atom_site_fract_z
 _atom_site_occupancy
  Tm  Tm0  1  0.185535  0.185535  0.500000  1
  Tm  Tm1  1  0.814465  0.000000  0.500000  1
  Tm  Tm2  1  0.000000  0.814465  0.500000  1
  Tm  Tm3  1  0.333333  0.666667  0.000000  1
  Tm  Tm4  1  0.666667  0.333333  0.000000  1
  Mg  Mg5  1  0.562827  0.562827  0.000000  1
  Mg  Mg6  1  0.437173  0.000000  0.000000  1
  Mg  Mg7  1  0.000000  0.437173  0.000000  1
  Ni  Ni8  1  0.720097  0.720097  0.500000  1
  Ni  Ni9  1  0.279903  0.000000  0.500000  1
  Ni  Ni10  1  0.000000  0.279903  0.500000  1
  Ni  Ni11  1  0.183912  0.378634  0.000000  1
  Ni  Ni12  1  0.621366  0.805278  0.000000  1
  Ni  Ni13  1  0.194722  0.816088  0.000000  1
  Ni  Ni14  1  0.805278  0.621366  0.000000  1
  Ni  Ni15  1  0.816088  0.194722  0.000000  1
  Ni  Ni16  1  0.378634  0.183912  0.000000  1
  Ni  Ni17  1  0.363845  0.485753  0.500000  1
  Ni  Ni18  1  0.514247  0.878093  0.500000  1
  Ni  Ni19  1  0.121907  0.636155  0.500000  1
  Ni  Ni20  1  0.878093  0.514247  0.500000  1
  Ni  Ni21  1  0.636155  0.121907  0.500000  1
  Ni  Ni22  1  0.485753  0.363845  0.500000  1
  Ni  Ni23  1  0.000000  0.000000  0.000000  1
  P  P24  1  0.823401  0.823401  0.000000  1
  P  P25  1  0.176599  0.000000  0.000000  1
  P  P26  1  0.000000  0.176599  0.000000  1
  P  P27  1  0.173493  0.478322  0.500000  1
  P  P28  1  0.521678  0.695171  0.500000  1
  P  P29  1  0.304829  0.826507  0.500000  1
  P  P30  1  0.695171  0.521678  0.500000  1
  P  P31  1  0.826507  0.304829  0.500000  1
  P  P32  1  0.478322  0.173493  0.500000  1
  P  P33  1  0.357001  0.357001  0.000000  1
  P  P34  1  0.642999  0.000000  0.000000  1
  P  P35  1  0.000000  0.642999  0.000000  1
