# generated using pymatgen
data_Ce2NiP4Ru3
_symmetry_space_group_name_H-M   'P 1'
_cell_length_a   4.14276700
_cell_length_b   4.14276700
_cell_length_c   9.27108700
_cell_angle_alpha   90.00000000
_cell_angle_beta   90.00000000
_cell_angle_gamma   90.00000000
_symmetry_Int_Tables_number   1
_chemical_formula_structural   Ce2NiP4Ru3
_chemical_formula_sum   'Ce2 Ni1 P4 Ru3'
_cell_volume   159.11520138
_cell_formula_units_Z   1
loop_
 _symmetry_equiv_pos_site_id
 _symmetry_equiv_pos_as_xyz
  1  'x, y, z'
loop_
 _atom_site_type_symbol
 _atom_site_label
 _atom_site_symmetry_multiplicity
 _atom_site_fract_x
 _atom_site_fract_y
 _atom_site_fract_z
 _atom_site_occupancy
  Ce  Ce0  1  0.500000  0.000000  0.737117  1
  Ce  Ce1  1  0.000000  0.500000  0.258322  1
  Ni  Ni2  1  0.000000  0.500000  0.616610  1
  P  P3  1  0.500000  0.500000  0.506820  1
  P  P4  1  0.500000  0.000000  0.129675  1
  P  P5  1  0.000000  0.000000  0.506820  1
  P  P6  1  0.000000  0.500000  0.866136  1
  Ru  Ru7  1  0.500000  0.000000  0.388973  1
  Ru  Ru8  1  0.000000  0.000000  0.994763  1
  Ru  Ru9  1  0.500000  0.500000  0.994763  1
