# generated using pymatgen
data_La2Y3Zr3(As3Rh4)4
_symmetry_space_group_name_H-M   'P 1'
_cell_length_a   13.38436200
_cell_length_b   13.38436293
_cell_length_c   4.04708100
_cell_angle_alpha   90.00000000
_cell_angle_beta   90.00000000
_cell_angle_gamma   120.00000265
_symmetry_Int_Tables_number   1
_chemical_formula_structural   La2Y3Zr3(As3Rh4)4
_chemical_formula_sum   'La2 Y3 Zr3 As12 Rh16'
_cell_volume   627.86734372
_cell_formula_units_Z   1
loop_
 _symmetry_equiv_pos_site_id
 _symmetry_equiv_pos_as_xyz
  1  'x, y, z'
loop_
 _atom_site_type_symbol
 _atom_site_label
 _atom_site_symmetry_multiplicity
 _atom_site_fract_x
 _atom_site_fract_y
 _atom_site_fract_z
 _atom_site_occupancy
  La  La0  1  0.333333  0.666667  0.000000  1
  La  La1  1  0.666667  0.333333  0.000000  1
  Y  Y2  1  0.188061  0.188061  0.500000  1
  Y  Y3  1  0.811939  0.000000  0.500000  1
  Y  Y4  1  0.000000  0.811939  0.500000  1
  Zr  Zr5  1  0.556452  0.556452  0.000000  1
  Zr  Zr6  1  0.443548  0.000000  0.000000  1
  Zr  Zr7  1  0.000000  0.443548  0.000000  1
  As  As8  1  0.825259  0.825259  0.000000  1
  As  As9  1  0.174741  0.000000  0.000000  1
  As  As10  1  0.000000  0.174741  0.000000  1
  As  As11  1  0.167666  0.482212  0.500000  1
  As  As12  1  0.517788  0.685455  0.500000  1
  As  As13  1  0.314545  0.832334  0.500000  1
  As  As14  1  0.685455  0.517788  0.500000  1
  As  As15  1  0.832334  0.314545  0.500000  1
  As  As16  1  0.482212  0.167666  0.500000  1
  As  As17  1  0.354959  0.354959  0.000000  1
  As  As18  1  0.645041  0.000000  0.000000  1
  As  As19  1  0.000000  0.645041  0.000000  1
  Rh  Rh20  1  0.720734  0.720734  0.500000  1
  Rh  Rh21  1  0.279266  0.000000  0.500000  1
  Rh  Rh22  1  0.000000  0.279266  0.500000  1
  Rh  Rh23  1  0.175577  0.372064  0.000000  1
  Rh  Rh24  1  0.627936  0.803513  0.000000  1
  Rh  Rh25  1  0.196487  0.824423  0.000000  1
  Rh  Rh26  1  0.803513  0.627936  0.000000  1
  Rh  Rh27  1  0.824423  0.196487  0.000000  1
  Rh  Rh28  1  0.372064  0.175577  0.000000  1
  Rh  Rh29  1  0.354153  0.480290  0.500000  1
  Rh  Rh30  1  0.519710  0.873864  0.500000  1
  Rh  Rh31  1  0.126136  0.645847  0.500000  1
  Rh  Rh32  1  0.873864  0.519710  0.500000  1
  Rh  Rh33  1  0.645847  0.126136  0.500000  1
  Rh  Rh34  1  0.480290  0.354153  0.500000  1
  Rh  Rh35  1  0.000000  0.000000  0.000000  1
