# generated using pymatgen
data_Sm11YB3CCl12
_symmetry_space_group_name_H-M   'P 1'
_cell_length_a   9.60152805
_cell_length_b   9.60152801
_cell_length_c   9.58868707
_cell_angle_alpha   109.30334925
_cell_angle_beta   109.30334521
_cell_angle_gamma   109.22643355
_symmetry_Int_Tables_number   1
_chemical_formula_structural   Sm11YB3CCl12
_chemical_formula_sum   'Sm11 Y1 B3 C1 Cl12'
_cell_volume   685.31577483
_cell_formula_units_Z   1
loop_
 _symmetry_equiv_pos_site_id
 _symmetry_equiv_pos_as_xyz
  1  'x, y, z'
loop_
 _atom_site_type_symbol
 _atom_site_label
 _atom_site_symmetry_multiplicity
 _atom_site_fract_x
 _atom_site_fract_y
 _atom_site_fract_z
 _atom_site_occupancy
  Sm  Sm0  1  0.468128  0.479611  0.235473  1
  Sm  Sm1  1  0.750272  0.237093  0.262909  1
  Sm  Sm2  1  0.750329  0.013487  0.486670  1
  Sm  Sm3  1  0.236367  0.467989  0.480619  1
  Sm  Sm4  1  0.262907  0.749728  0.237091  1
  Sm  Sm5  1  0.032011  0.263633  0.019381  1
  Sm  Sm6  1  0.020389  0.031872  0.264527  1
  Sm  Sm7  1  0.486513  0.749671  0.013330  1
  Sm  Sm8  1  0.480684  0.236059  0.468270  1
  Sm  Sm9  1  0.013646  0.486354  0.750000  1
  Sm  Sm10  1  0.263941  0.019316  0.031730  1
  Y  Y11  1  0.234656  0.265344  0.750000  1
  B  B12  1  0.499698  0.000302  0.250000  1
  B  B13  1  0.002523  0.250005  0.501228  1
  B  B14  1  0.249995  0.497477  0.998772  1
  C  C15  1  0.250026  0.249974  0.250000  1
  Cl  Cl16  1  0.249953  0.755137  0.744320  1
  Cl  Cl17  1  0.506968  0.500539  0.753511  1
  Cl  Cl18  1  0.989188  0.746716  0.994315  1
  Cl  Cl19  1  0.744863  0.250047  0.755680  1
  Cl  Cl20  1  0.999461  0.993032  0.746489  1
  Cl  Cl21  1  0.250956  0.999635  0.510960  1
  Cl  Cl22  1  0.753284  0.510812  0.505685  1
  Cl  Cl23  1  0.500365  0.249044  0.989040  1
  Cl  Cl24  1  0.755709  0.744291  0.250000  1
  Cl  Cl25  1  0.747080  0.994500  0.989347  1
  Cl  Cl26  1  0.994587  0.505413  0.250000  1
  Cl  Cl27  1  0.505500  0.752920  0.510653  1
