# generated using pymatgen
data_Ti13Al9Fe3Ru5
_symmetry_space_group_name_H-M   'P 1'
_cell_length_a   8.62229704
_cell_length_b   8.65254337
_cell_length_c   8.62229708
_cell_angle_alpha   59.90811249
_cell_angle_beta   60.00357067
_cell_angle_gamma   59.90812336
_symmetry_Int_Tables_number   1
_chemical_formula_structural   Ti13Al9Fe3Ru5
_chemical_formula_sum   'Ti13 Al9 Fe3 Ru5'
_cell_volume   454.23635514
_cell_formula_units_Z   1
loop_
 _symmetry_equiv_pos_site_id
 _symmetry_equiv_pos_as_xyz
  1  'x, y, z'
loop_
 _atom_site_type_symbol
 _atom_site_label
 _atom_site_symmetry_multiplicity
 _atom_site_fract_x
 _atom_site_fract_y
 _atom_site_fract_z
 _atom_site_occupancy
  Ti  Ti0  1  0.206614  0.206841  0.800267  1
  Ti  Ti1  1  0.800267  0.206841  0.206614  1
  Ti  Ti2  1  0.205949  0.801815  0.205949  1
  Ti  Ti3  1  0.803378  0.803060  0.179017  1
  Ti  Ti4  1  0.179017  0.803060  0.803378  1
  Ti  Ti5  1  0.803878  0.178968  0.803878  1
  Ti  Ti6  1  0.384522  0.377961  0.384522  1
  Ti  Ti7  1  0.385669  0.855070  0.385669  1
  Ti  Ti8  1  0.853558  0.382392  0.385368  1
  Ti  Ti9  1  0.385368  0.382392  0.853558  1
  Ti  Ti10  1  0.842154  0.469435  0.842154  1
  Ti  Ti11  1  0.468830  0.845870  0.833591  1
  Ti  Ti12  1  0.833591  0.845870  0.468830  1
  Al  Al13  1  0.161958  0.161999  0.161958  1
  Al  Al14  1  0.159950  0.525643  0.159950  1
  Al  Al15  1  0.525044  0.156207  0.167197  1
  Al  Al16  1  0.167197  0.156207  0.525044  1
  Al  Al17  1  0.614409  0.618949  0.614409  1
  Al  Al18  1  0.616036  0.148442  0.616036  1
  Al  Al19  1  0.149940  0.618728  0.614353  1
  Al  Al20  1  0.614353  0.618728  0.149940  1
  Al  Al21  1  0.829159  0.829725  0.829159  1
  Fe  Fe22  1  0.502418  0.999777  0.502418  1
  Fe  Fe23  1  0.500074  0.498695  0.500074  1
  Fe  Fe24  1  0.003892  0.004217  0.003892  1
  Ru  Ru25  1  0.001174  0.001924  0.498651  1
  Ru  Ru26  1  0.498651  0.001924  0.001174  1
  Ru  Ru27  1  0.001267  0.498745  0.001267  1
  Ru  Ru28  1  0.502210  0.500258  0.999471  1
  Ru  Ru29  1  0.999471  0.500258  0.502210  1
