# generated using pymatgen
data_Ca(TaS2)3
_symmetry_space_group_name_H-M   'P 1'
_cell_length_a   5.80858900
_cell_length_b   5.80858783
_cell_length_c   14.35493100
_cell_angle_alpha   90.00000000
_cell_angle_beta   90.00000000
_cell_angle_gamma   120.00001233
_symmetry_Int_Tables_number   1
_chemical_formula_structural   Ca(TaS2)3
_chemical_formula_sum   'Ca2 Ta6 S12'
_cell_volume   419.44294699
_cell_formula_units_Z   2
loop_
 _symmetry_equiv_pos_site_id
 _symmetry_equiv_pos_as_xyz
  1  'x, y, z'
loop_
 _atom_site_type_symbol
 _atom_site_label
 _atom_site_symmetry_multiplicity
 _atom_site_fract_x
 _atom_site_fract_y
 _atom_site_fract_z
 _atom_site_occupancy
  Ca  Ca0  1  0.000000  0.000000  0.500000  1
  Ca  Ca1  1  0.000000  0.000000  0.000000  1
  Ta  Ta2  1  0.333333  0.666667  0.250000  1
  Ta  Ta3  1  0.666667  0.333333  0.750000  1
  Ta  Ta4  1  0.666667  0.333333  0.250000  1
  Ta  Ta5  1  0.333333  0.666667  0.750000  1
  Ta  Ta6  1  0.000000  0.000000  0.250000  1
  Ta  Ta7  1  0.000000  0.000000  0.750000  1
  S  S8  1  0.336035  0.000000  0.140837  1
  S  S9  1  0.000000  0.336035  0.140837  1
  S  S10  1  0.663965  0.663965  0.140837  1
  S  S11  1  0.336035  0.336035  0.640837  1
  S  S12  1  0.663965  0.663965  0.359163  1
  S  S13  1  0.663965  0.000000  0.640837  1
  S  S14  1  0.000000  0.663965  0.640837  1
  S  S15  1  0.000000  0.663965  0.859163  1
  S  S16  1  0.336035  0.336035  0.859163  1
  S  S17  1  0.000000  0.336035  0.359163  1
  S  S18  1  0.336035  0.000000  0.359163  1
  S  S19  1  0.663965  0.000000  0.859163  1
