# generated using pymatgen
data_Sc4CrGa3Os4
_symmetry_space_group_name_H-M   'P 1'
_cell_length_a   5.24319200
_cell_length_b   5.09207003
_cell_length_c   8.70730700
_cell_angle_alpha   90.00000000
_cell_angle_beta   90.00000000
_cell_angle_gamma   120.98669096
_symmetry_Int_Tables_number   1
_chemical_formula_structural   Sc4CrGa3Os4
_chemical_formula_sum   'Sc4 Cr1 Ga3 Os4'
_cell_volume   199.29673343
_cell_formula_units_Z   1
loop_
 _symmetry_equiv_pos_site_id
 _symmetry_equiv_pos_as_xyz
  1  'x, y, z'
loop_
 _atom_site_type_symbol
 _atom_site_label
 _atom_site_symmetry_multiplicity
 _atom_site_fract_x
 _atom_site_fract_y
 _atom_site_fract_z
 _atom_site_occupancy
  Sc  Sc0  1  0.331366  0.662733  0.446112  1
  Sc  Sc1  1  0.667696  0.335391  0.567659  1
  Sc  Sc2  1  0.667696  0.335391  0.932341  1
  Sc  Sc3  1  0.331366  0.662733  0.053888  1
  Cr  Cr4  1  0.167194  0.334387  0.750000  1
  Ga  Ga5  1  0.335591  0.164675  0.250000  1
  Ga  Ga6  1  0.833561  0.667124  0.250000  1
  Ga  Ga7  1  0.829081  0.164675  0.250000  1
  Os  Os8  1  0.169851  0.823875  0.750000  1
  Os  Os9  1  0.654026  0.823875  0.750000  1
  Os  Os10  1  0.006286  0.012571  0.997258  1
  Os  Os11  1  0.006286  0.012571  0.502742  1
