# generated using pymatgen
data_Ba2Ag3AuO8
_symmetry_space_group_name_H-M   'P 1'
_cell_length_a   6.97512554
_cell_length_b   7.01247339
_cell_length_c   6.95433804
_cell_angle_alpha   124.02388033
_cell_angle_beta   123.88962728
_cell_angle_gamma   83.61740855
_symmetry_Int_Tables_number   1
_chemical_formula_structural   Ba2Ag3AuO8
_chemical_formula_sum   'Ba2 Ag3 Au1 O8'
_cell_volume   223.83602717
_cell_formula_units_Z   1
loop_
 _symmetry_equiv_pos_site_id
 _symmetry_equiv_pos_as_xyz
  1  'x, y, z'
loop_
 _atom_site_type_symbol
 _atom_site_label
 _atom_site_symmetry_multiplicity
 _atom_site_fract_x
 _atom_site_fract_y
 _atom_site_fract_z
 _atom_site_occupancy
  Ba  Ba0  1  0.751405  0.250523  0.502603  1
  Ba  Ba1  1  0.998595  0.999477  0.997397  1
  Ag  Ag2  1  0.375000  0.625000  0.750000  1
  Ag  Ag3  1  0.875000  0.625000  0.250000  1
  Ag  Ag4  1  0.375000  0.625000  0.250000  1
  Au  Au5  1  0.375000  0.125000  0.750000  1
  O  O6  1  0.056463  0.436199  0.089081  1
  O  O7  1  0.718484  0.304591  0.119242  1
  O  O8  1  0.184238  0.604544  0.881663  1
  O  O9  1  0.347651  0.968208  0.908866  1
  O  O10  1  0.693537  0.813801  0.410919  1
  O  O11  1  0.031516  0.945409  0.380758  1
  O  O12  1  0.402349  0.281792  0.591134  1
  O  O13  1  0.565762  0.645456  0.618337  1
