# generated using pymatgen
data_MnCuF36
_symmetry_space_group_name_H-M   'P 1'
_cell_length_a   5.99303096
_cell_length_b   8.91850168
_cell_length_c   12.74803000
_cell_angle_alpha   100.12976129
_cell_angle_beta   90.55873781
_cell_angle_gamma   105.19979564
_symmetry_Int_Tables_number   1
_chemical_formula_structural   MnCuF36
_chemical_formula_sum   'Mn1 Cu1 F36'
_cell_volume   646.16183158
_cell_formula_units_Z   1
loop_
 _symmetry_equiv_pos_site_id
 _symmetry_equiv_pos_as_xyz
  1  'x, y, z'
loop_
 _atom_site_type_symbol
 _atom_site_label
 _atom_site_symmetry_multiplicity
 _atom_site_fract_x
 _atom_site_fract_y
 _atom_site_fract_z
 _atom_site_occupancy
  Mn  Mn0  1  0.856896  0.039395  0.685406  1
  Cu  Cu1  1  0.138572  0.960463  0.310334  1
  F  F2  1  0.677584  0.620116  0.368444  1
  F  F3  1  0.348874  0.393770  0.616323  1
  F  F4  1  0.046160  0.343623  0.344196  1
  F  F5  1  0.972903  0.651913  0.650217  1
  F  F6  1  0.192366  0.919039  0.941765  1
  F  F7  1  0.796439  0.065035  0.064756  1
  F  F8  1  0.851006  0.894827  0.344935  1
  F  F9  1  0.139875  0.112750  0.645306  1
  F  F10  1  0.114201  0.763347  0.231472  1
  F  F11  1  0.890569  0.247535  0.762561  1
  F  F12  1  0.545590  0.470867  0.388989  1
  F  F13  1  0.456968  0.554310  0.609247  1
  F  F14  1  0.063916  0.048957  0.194146  1
  F  F15  1  0.932742  0.960311  0.791366  1
  F  F16  1  0.185436  0.132855  0.408479  1
  F  F17  1  0.781058  0.864542  0.586946  1
  F  F18  1  0.037094  0.479357  0.300953  1
  F  F19  1  0.955239  0.522111  0.703895  1
  F  F20  1  0.743144  0.719835  0.059522  1
  F  F21  1  0.248432  0.273779  0.940008  1
  F  F22  1  0.828487  0.585764  0.025371  1
  F  F23  1  0.175112  0.412693  0.975183  1
  F  F24  1  0.541943  0.585190  0.839928  1
  F  F25  1  0.455174  0.408279  0.156438  1
  F  F26  1  0.448358  0.011411  0.289250  1
  F  F27  1  0.536387  0.994167  0.714892  1
  F  F28  1  0.257239  0.877417  0.487058  1
  F  F29  1  0.732645  0.100971  0.533514  1
  F  F30  1  0.296938  0.879012  0.030106  1
  F  F31  1  0.718483  0.118111  0.974974  1
  F  F32  1  0.449810  0.799440  0.207026  1
  F  F33  1  0.564566  0.203832  0.802723  1
  F  F34  1  0.598618  0.306684  0.166769  1
  F  F35  1  0.404798  0.693190  0.837679  1
  F  F36  1  0.297022  0.724390  0.474357  1
  F  F37  1  0.719354  0.260712  0.535462  1
