# generated using pymatgen
data_K3SrPrUTe6
_symmetry_space_group_name_H-M   'P 1'
_cell_length_a   8.05525518
_cell_length_b   8.05525422
_cell_length_c   8.63771500
_cell_angle_alpha   81.00524984
_cell_angle_beta   81.00524270
_cell_angle_gamma   119.85065939
_symmetry_Int_Tables_number   1
_chemical_formula_structural   K3SrPrUTe6
_chemical_formula_sum   'K3 Sr1 Pr1 U1 Te6'
_cell_volume   461.85236014
_cell_formula_units_Z   1
loop_
 _symmetry_equiv_pos_site_id
 _symmetry_equiv_pos_as_xyz
  1  'x, y, z'
loop_
 _atom_site_type_symbol
 _atom_site_label
 _atom_site_symmetry_multiplicity
 _atom_site_fract_x
 _atom_site_fract_y
 _atom_site_fract_z
 _atom_site_occupancy
  K  K0  1  0.336624  0.663376  0.500000  1
  K  K1  1  0.660465  0.339535  0.500000  1
  K  K2  1  0.002199  0.997801  0.500000  1
  Sr  Sr3  1  0.500320  0.499680  0.000000  1
  Pr  Pr4  1  0.166820  0.833180  0.000000  1
  U  U5  1  0.832675  0.167325  0.000000  1
  Te  Te6  1  0.773760  0.783980  0.214683  1
  Te  Te7  1  0.438770  0.082767  0.216104  1
  Te  Te8  1  0.071862  0.416749  0.214982  1
  Te  Te9  1  0.583251  0.928138  0.785018  1
  Te  Te10  1  0.917233  0.561230  0.783896  1
  Te  Te11  1  0.216020  0.226240  0.785317  1
