# generated using pymatgen
data_Hf3Zr3Al6(IrPt2)2
_symmetry_space_group_name_H-M   'P 1'
_cell_length_a   7.12294000
_cell_length_b   7.12294001
_cell_length_c   7.25945000
_cell_angle_alpha   90.00000000
_cell_angle_beta   90.00000000
_cell_angle_gamma   119.99999996
_symmetry_Int_Tables_number   1
_chemical_formula_structural   Hf3Zr3Al6(IrPt2)2
_chemical_formula_sum   'Hf3 Zr3 Al6 Ir2 Pt4'
_cell_volume   318.97226548
_cell_formula_units_Z   1
loop_
 _symmetry_equiv_pos_site_id
 _symmetry_equiv_pos_as_xyz
  1  'x, y, z'
loop_
 _atom_site_type_symbol
 _atom_site_label
 _atom_site_symmetry_multiplicity
 _atom_site_fract_x
 _atom_site_fract_y
 _atom_site_fract_z
 _atom_site_occupancy
  Hf  Hf0  1  0.978844  0.586930  0.250000  1
  Hf  Hf1  1  0.608086  0.021156  0.250000  1
  Hf  Hf2  1  0.413070  0.391914  0.250000  1
  Zr  Zr3  1  0.587534  0.991267  0.750000  1
  Zr  Zr4  1  0.008733  0.596268  0.750000  1
  Zr  Zr5  1  0.403732  0.412466  0.750000  1
  Al  Al6  1  0.740133  0.742192  0.000576  1
  Al  Al7  1  0.257808  0.997940  0.000576  1
  Al  Al8  1  0.002060  0.259867  0.000576  1
  Al  Al9  1  0.740133  0.742192  0.499424  1
  Al  Al10  1  0.257808  0.997940  0.499424  1
  Al  Al11  1  0.002060  0.259867  0.499424  1
  Ir  Ir12  1  0.666667  0.333333  0.989385  1
  Ir  Ir13  1  0.666667  0.333333  0.510615  1
  Pt  Pt14  1  0.000000  0.000000  0.750000  1
  Pt  Pt15  1  0.000000  0.000000  0.250000  1
  Pt  Pt16  1  0.333333  0.666667  0.467221  1
  Pt  Pt17  1  0.333333  0.666667  0.032780  1
