# generated using pymatgen
data_Ho2Be2GeRh5
_symmetry_space_group_name_H-M   'P 1'
_cell_length_a   9.54095700
_cell_length_b   9.54095700
_cell_length_c   3.26725700
_cell_angle_alpha   90.00000000
_cell_angle_beta   90.00000000
_cell_angle_gamma   90.00000000
_symmetry_Int_Tables_number   1
_chemical_formula_structural   Ho2Be2GeRh5
_chemical_formula_sum   'Ho4 Be4 Ge2 Rh10'
_cell_volume   297.41794885
_cell_formula_units_Z   2
loop_
 _symmetry_equiv_pos_site_id
 _symmetry_equiv_pos_as_xyz
  1  'x, y, z'
loop_
 _atom_site_type_symbol
 _atom_site_label
 _atom_site_symmetry_multiplicity
 _atom_site_fract_x
 _atom_site_fract_y
 _atom_site_fract_z
 _atom_site_occupancy
  Ho  Ho0  1  0.824188  0.324188  0.000000  1
  Ho  Ho1  1  0.324188  0.175812  0.000000  1
  Ho  Ho2  1  0.675812  0.824188  0.000000  1
  Ho  Ho3  1  0.175812  0.675812  0.000000  1
  Be  Be4  1  0.621600  0.121600  0.000000  1
  Be  Be5  1  0.121600  0.378400  0.000000  1
  Be  Be6  1  0.878400  0.621600  0.000000  1
  Be  Be7  1  0.378400  0.878400  0.000000  1
  Ge  Ge8  1  0.000000  0.000000  0.000000  1
  Ge  Ge9  1  0.500000  0.500000  0.000000  1
  Rh  Rh10  1  0.067832  0.209918  0.500000  1
  Rh  Rh11  1  0.209918  0.932168  0.500000  1
  Rh  Rh12  1  0.790082  0.067832  0.500000  1
  Rh  Rh13  1  0.932168  0.790082  0.500000  1
  Rh  Rh14  1  0.432168  0.709918  0.500000  1
  Rh  Rh15  1  0.567832  0.290082  0.500000  1
  Rh  Rh16  1  0.709918  0.567832  0.500000  1
  Rh  Rh17  1  0.290082  0.432168  0.500000  1
  Rh  Rh18  1  0.500000  0.000000  0.500000  1
  Rh  Rh19  1  0.000000  0.500000  0.500000  1
