# generated using pymatgen
data_FeCuBi3Ir3O14
_symmetry_space_group_name_H-M   'P 1'
_cell_length_a   7.24070024
_cell_length_b   7.24070137
_cell_length_c   7.24070137
_cell_angle_alpha   60.82844283
_cell_angle_beta   60.82845046
_cell_angle_gamma   60.82844675
_symmetry_Int_Tables_number   1
_chemical_formula_structural   FeCuBi3Ir3O14
_chemical_formula_sum   'Fe1 Cu1 Bi3 Ir3 O14'
_cell_volume   273.44221496
_cell_formula_units_Z   1
loop_
 _symmetry_equiv_pos_site_id
 _symmetry_equiv_pos_as_xyz
  1  'x, y, z'
loop_
 _atom_site_type_symbol
 _atom_site_label
 _atom_site_symmetry_multiplicity
 _atom_site_fract_x
 _atom_site_fract_y
 _atom_site_fract_z
 _atom_site_occupancy
  Fe  Fe0  1  0.000000  0.000000  0.000000  1
  Cu  Cu1  1  0.500000  0.500000  0.500000  1
  Bi  Bi2  1  0.000000  0.500000  0.500000  1
  Bi  Bi3  1  0.500000  0.500000  0.000000  1
  Bi  Bi4  1  0.500000  0.000000  0.500000  1
  Ir  Ir5  1  0.500000  0.000000  0.000000  1
  Ir  Ir6  1  0.000000  0.000000  0.500000  1
  Ir  Ir7  1  0.000000  0.500000  0.000000  1
  O  O8  1  0.924252  0.323217  0.323217  1
  O  O9  1  0.339796  0.913078  0.913078  1
  O  O10  1  0.323217  0.323217  0.924252  1
  O  O11  1  0.913078  0.913078  0.339796  1
  O  O12  1  0.913078  0.339796  0.913078  1
  O  O13  1  0.323217  0.924252  0.323217  1
  O  O14  1  0.075748  0.676783  0.676783  1
  O  O15  1  0.660204  0.086922  0.086922  1
  O  O16  1  0.676783  0.676783  0.075748  1
  O  O17  1  0.086922  0.086922  0.660204  1
  O  O18  1  0.086922  0.660204  0.086922  1
  O  O19  1  0.676783  0.075748  0.676783  1
  O  O20  1  0.392352  0.392352  0.392352  1
  O  O21  1  0.607648  0.607648  0.607648  1
