# generated using pymatgen
data_Ta12Al4Cr3Co(GeC)4
_symmetry_space_group_name_H-M   'P 1'
_cell_length_a   8.26163459
_cell_length_b   8.26163554
_cell_length_c   8.26163400
_cell_angle_alpha   59.94076908
_cell_angle_beta   59.94076525
_cell_angle_gamma   59.94077250
_symmetry_Int_Tables_number   1
_chemical_formula_structural   Ta12Al4Cr3Co(GeC)4
_chemical_formula_sum   'Ta12 Al4 Cr3 Co1 Ge4 C4'
_cell_volume   398.19805841
_cell_formula_units_Z   1
loop_
 _symmetry_equiv_pos_site_id
 _symmetry_equiv_pos_as_xyz
  1  'x, y, z'
loop_
 _atom_site_type_symbol
 _atom_site_label
 _atom_site_symmetry_multiplicity
 _atom_site_fract_x
 _atom_site_fract_y
 _atom_site_fract_z
 _atom_site_occupancy
  Ta  Ta0  1  0.552152  0.947521  0.552152  1
  Ta  Ta1  1  0.304339  0.696929  0.696929  1
  Ta  Ta2  1  0.687357  0.306101  0.306101  1
  Ta  Ta3  1  0.306101  0.687357  0.306101  1
  Ta  Ta4  1  0.696929  0.696929  0.304339  1
  Ta  Ta5  1  0.306101  0.306101  0.687357  1
  Ta  Ta6  1  0.552152  0.552152  0.947521  1
  Ta  Ta7  1  0.947521  0.552152  0.552152  1
  Ta  Ta8  1  0.563256  0.942179  0.942179  1
  Ta  Ta9  1  0.942179  0.942179  0.563256  1
  Ta  Ta10  1  0.696929  0.304339  0.696929  1
  Ta  Ta11  1  0.942179  0.563256  0.942179  1
  Al  Al12  1  0.920313  0.250731  0.920313  1
  Al  Al13  1  0.920313  0.920313  0.250731  1
  Al  Al14  1  0.250731  0.920313  0.920313  1
  Al  Al15  1  0.332364  0.332364  0.332364  1
  Cr  Cr16  1  0.621873  0.124356  0.124356  1
  Cr  Cr17  1  0.124356  0.621873  0.124356  1
  Cr  Cr18  1  0.124356  0.124356  0.621873  1
  Co  Co19  1  0.128788  0.128788  0.128788  1
  Ge  Ge20  1  0.917529  0.917529  0.917529  1
  Ge  Ge21  1  0.987032  0.337260  0.337260  1
  Ge  Ge22  1  0.337260  0.987032  0.337260  1
  Ge  Ge23  1  0.337260  0.337260  0.987032  1
  C  C24  1  0.625439  0.625439  0.625439  1
  C  C25  1  0.124420  0.625384  0.625384  1
  C  C26  1  0.625384  0.124420  0.625384  1
  C  C27  1  0.625384  0.625384  0.124420  1
