# generated using pymatgen
data_Ca2Ag6Rh
_symmetry_space_group_name_H-M   'P 1'
_cell_length_a   5.51055924
_cell_length_b   5.51055994
_cell_length_c   14.10695200
_cell_angle_alpha   90.00000000
_cell_angle_beta   90.00000000
_cell_angle_gamma   120.72029795
_symmetry_Int_Tables_number   1
_chemical_formula_structural   Ca2Ag6Rh
_chemical_formula_sum   'Ca4 Ag12 Rh2'
_cell_volume   368.26211908
_cell_formula_units_Z   2
loop_
 _symmetry_equiv_pos_site_id
 _symmetry_equiv_pos_as_xyz
  1  'x, y, z'
loop_
 _atom_site_type_symbol
 _atom_site_label
 _atom_site_symmetry_multiplicity
 _atom_site_fract_x
 _atom_site_fract_y
 _atom_site_fract_z
 _atom_site_occupancy
  Ca  Ca0  1  0.320384  0.320384  0.121870  1
  Ca  Ca1  1  0.679616  0.679616  0.621870  1
  Ca  Ca2  1  0.320384  0.320384  0.378130  1
  Ca  Ca3  1  0.679616  0.679616  0.878130  1
  Ag  Ag4  1  0.826569  0.328117  0.250000  1
  Ag  Ag5  1  0.173431  0.671883  0.750000  1
  Ag  Ag6  1  0.328117  0.826569  0.250000  1
  Ag  Ag7  1  0.671883  0.173431  0.750000  1
  Ag  Ag8  1  0.987268  0.663003  0.077473  1
  Ag  Ag9  1  0.012732  0.336997  0.577473  1
  Ag  Ag10  1  0.663003  0.987268  0.422527  1
  Ag  Ag11  1  0.336997  0.012732  0.922527  1
  Ag  Ag12  1  0.012732  0.336997  0.922527  1
  Ag  Ag13  1  0.987268  0.663003  0.422527  1
  Ag  Ag14  1  0.336997  0.012732  0.577473  1
  Ag  Ag15  1  0.663003  0.987268  0.077473  1
  Rh  Rh16  1  0.828631  0.828631  0.250000  1
  Rh  Rh17  1  0.171369  0.171369  0.750000  1
