# generated using pymatgen
data_CaTh3(NiAs)4
_symmetry_space_group_name_H-M   'P 1'
_cell_length_a   4.11764600
_cell_length_b   4.11764647
_cell_length_c   16.22202800
_cell_angle_alpha   90.00000000
_cell_angle_beta   90.00000000
_cell_angle_gamma   120.00001233
_symmetry_Int_Tables_number   1
_chemical_formula_structural   CaTh3(NiAs)4
_chemical_formula_sum   'Ca1 Th3 Ni4 As4'
_cell_volume   238.19562885
_cell_formula_units_Z   1
loop_
 _symmetry_equiv_pos_site_id
 _symmetry_equiv_pos_as_xyz
  1  'x, y, z'
loop_
 _atom_site_type_symbol
 _atom_site_label
 _atom_site_symmetry_multiplicity
 _atom_site_fract_x
 _atom_site_fract_y
 _atom_site_fract_z
 _atom_site_occupancy
  Ca  Ca0  1  0.000000  0.000000  0.500000  1
  Th  Th1  1  0.000000  0.000000  0.254165  1
  Th  Th2  1  0.000000  0.000000  0.745835  1
  Th  Th3  1  0.000000  0.000000  0.000000  1
  Ni  Ni4  1  0.333333  0.666667  0.117060  1
  Ni  Ni5  1  0.666667  0.333333  0.882940  1
  Ni  Ni6  1  0.666667  0.333333  0.636014  1
  Ni  Ni7  1  0.333333  0.666667  0.363986  1
  As  As8  1  0.333333  0.666667  0.622175  1
  As  As9  1  0.666667  0.333333  0.377825  1
  As  As10  1  0.666667  0.333333  0.130313  1
  As  As11  1  0.333333  0.666667  0.869687  1
