# generated using pymatgen
data_Er4MnAl3B16
_symmetry_space_group_name_H-M   'P 1'
_cell_length_a   3.48762200
_cell_length_b   5.93011340
_cell_length_c   11.46948827
_cell_angle_alpha   90.21503201
_cell_angle_beta   90.00000000
_cell_angle_gamma   90.00000000
_symmetry_Int_Tables_number   1
_chemical_formula_structural   Er4MnAl3B16
_chemical_formula_sum   'Er4 Mn1 Al3 B16'
_cell_volume   237.21021656
_cell_formula_units_Z   1
loop_
 _symmetry_equiv_pos_site_id
 _symmetry_equiv_pos_as_xyz
  1  'x, y, z'
loop_
 _atom_site_type_symbol
 _atom_site_label
 _atom_site_symmetry_multiplicity
 _atom_site_fract_x
 _atom_site_fract_y
 _atom_site_fract_z
 _atom_site_occupancy
  Er  Er0  1  0.500000  0.371009  0.157107  1
  Er  Er1  1  0.500000  0.627529  0.847441  1
  Er  Er2  1  0.500000  0.129214  0.644883  1
  Er  Er3  1  0.500000  0.876331  0.351592  1
  Mn  Mn4  1  0.500000  0.372973  0.417840  1
  Al  Al5  1  0.500000  0.632834  0.582789  1
  Al  Al6  1  0.500000  0.137137  0.909702  1
  Al  Al7  1  0.500000  0.860797  0.093179  1
  B  B8  1  0.000000  0.113897  0.047508  1
  B  B9  1  0.000000  0.885343  0.952642  1
  B  B10  1  0.000000  0.383069  0.543626  1
  B  B11  1  0.000000  0.610208  0.450200  1
  B  B12  1  0.000000  0.137535  0.466164  1
  B  B13  1  0.000000  0.866182  0.531242  1
  B  B14  1  0.000000  0.366162  0.969062  1
  B  B15  1  0.000000  0.632379  0.031085  1
  B  B16  1  0.000000  0.027408  0.193355  1
  B  B17  1  0.000000  0.972005  0.806121  1
  B  B18  1  0.000000  0.474443  0.692422  1
  B  B19  1  0.000000  0.519518  0.309420  1
  B  B20  1  0.000000  0.216205  0.316649  1
  B  B21  1  0.000000  0.788564  0.686099  1
  B  B22  1  0.000000  0.290328  0.812163  1
  B  B23  1  0.000000  0.708933  0.187711  1
