# generated using pymatgen
data_Y5ThIrRh
_symmetry_space_group_name_H-M   'P 1'
_cell_length_a   6.40869096
_cell_length_b   7.18610239
_cell_length_c   9.66533300
_cell_angle_alpha   90.00000000
_cell_angle_beta   90.00000000
_cell_angle_gamma   88.87875377
_symmetry_Int_Tables_number   1
_chemical_formula_structural   Y5ThIrRh
_chemical_formula_sum   'Y10 Th2 Ir2 Rh2'
_cell_volume   445.03727441
_cell_formula_units_Z   2
loop_
 _symmetry_equiv_pos_site_id
 _symmetry_equiv_pos_as_xyz
  1  'x, y, z'
loop_
 _atom_site_type_symbol
 _atom_site_label
 _atom_site_symmetry_multiplicity
 _atom_site_fract_x
 _atom_site_fract_y
 _atom_site_fract_z
 _atom_site_occupancy
  Y  Y0  1  0.140235  0.466184  0.750000  1
  Y  Y1  1  0.859765  0.533816  0.250000  1
  Y  Y2  1  0.170746  0.177454  0.064578  1
  Y  Y3  1  0.829254  0.822546  0.935422  1
  Y  Y4  1  0.668966  0.324728  0.934695  1
  Y  Y5  1  0.829254  0.822546  0.564578  1
  Y  Y6  1  0.331034  0.675272  0.065305  1
  Y  Y7  1  0.170746  0.177454  0.435422  1
  Y  Y8  1  0.331034  0.675272  0.434695  1
  Y  Y9  1  0.668966  0.324728  0.565305  1
  Th  Th10  1  0.653730  0.041558  0.250000  1
  Th  Th11  1  0.346270  0.958442  0.750000  1
  Ir  Ir12  1  0.450065  0.373196  0.250000  1
  Ir  Ir13  1  0.549935  0.626804  0.750000  1
  Rh  Rh14  1  0.953767  0.116860  0.750000  1
  Rh  Rh15  1  0.046233  0.883140  0.250000  1
