# generated using pymatgen
data_Ho8Sc11Si16Rh
_symmetry_space_group_name_H-M   'P 1'
_cell_length_a   6.97069701
_cell_length_b   7.37917701
_cell_length_c   13.87595200
_cell_angle_alpha   90.00000000
_cell_angle_beta   90.00000000
_cell_angle_gamma   89.99537054
_symmetry_Int_Tables_number   1
_chemical_formula_structural   Ho8Sc11Si16Rh
_chemical_formula_sum   'Ho8 Sc11 Si16 Rh1'
_cell_volume   713.75131462
_cell_formula_units_Z   1
loop_
 _symmetry_equiv_pos_site_id
 _symmetry_equiv_pos_as_xyz
  1  'x, y, z'
loop_
 _atom_site_type_symbol
 _atom_site_label
 _atom_site_symmetry_multiplicity
 _atom_site_fract_x
 _atom_site_fract_y
 _atom_site_fract_z
 _atom_site_occupancy
  Ho  Ho0  1  0.012125  0.178445  0.093401  1
  Ho  Ho1  1  0.991366  0.815063  0.901167  1
  Ho  Ho2  1  0.488648  0.673985  0.902067  1
  Ho  Ho3  1  0.991366  0.815063  0.598833  1
  Ho  Ho4  1  0.510478  0.322884  0.094408  1
  Ho  Ho5  1  0.012125  0.178445  0.406599  1
  Ho  Ho6  1  0.510478  0.322884  0.405592  1
  Ho  Ho7  1  0.488648  0.673985  0.597933  1
  Sc  Sc8  1  0.840306  0.496808  0.250000  1
  Sc  Sc9  1  0.341122  0.004595  0.250000  1
  Sc  Sc10  1  0.656017  0.997568  0.750000  1
  Sc  Sc11  1  0.323753  0.177569  0.627786  1
  Sc  Sc12  1  0.671733  0.824881  0.374518  1
  Sc  Sc13  1  0.172536  0.674312  0.376036  1
  Sc  Sc14  1  0.671733  0.824881  0.125482  1
  Sc  Sc15  1  0.830481  0.329221  0.628820  1
  Sc  Sc16  1  0.323753  0.177569  0.872214  1
  Sc  Sc17  1  0.830481  0.329221  0.871180  1
  Sc  Sc18  1  0.172536  0.674312  0.123964  1
  Si  Si19  1  0.026254  0.100337  0.750000  1
  Si  Si20  1  0.972081  0.887535  0.250000  1
  Si  Si21  1  0.468915  0.614750  0.250000  1
  Si  Si22  1  0.518973  0.394126  0.750000  1
  Si  Si23  1  0.283703  0.864862  0.750000  1
  Si  Si24  1  0.715666  0.130534  0.250000  1
  Si  Si25  1  0.214928  0.371222  0.250000  1
  Si  Si26  1  0.791110  0.628779  0.750000  1
  Si  Si27  1  0.159973  0.463801  0.542481  1
  Si  Si28  1  0.842798  0.535711  0.463706  1
  Si  Si29  1  0.344705  0.964574  0.463668  1
  Si  Si30  1  0.842798  0.535711  0.036294  1
  Si  Si31  1  0.659121  0.034426  0.540358  1
  Si  Si32  1  0.159973  0.463801  0.957519  1
  Si  Si33  1  0.659121  0.034426  0.959642  1
  Si  Si34  1  0.344705  0.964574  0.036332  1
  Rh  Rh35  1  0.155493  0.519138  0.750000  1
