# generated using pymatgen
data_Hf8Ga15Ir7
_symmetry_space_group_name_H-M   'P 1'
_cell_length_a   8.90383263
_cell_length_b   8.90383877
_cell_length_c   8.90379885
_cell_angle_alpha   120.68634665
_cell_angle_beta   119.68636986
_cell_angle_gamma   89.68011368
_symmetry_Int_Tables_number   1
_chemical_formula_structural   Hf8Ga15Ir7
_chemical_formula_sum   'Hf8 Ga15 Ir7'
_cell_volume   497.66726995
_cell_formula_units_Z   1
loop_
 _symmetry_equiv_pos_site_id
 _symmetry_equiv_pos_as_xyz
  1  'x, y, z'
loop_
 _atom_site_type_symbol
 _atom_site_label
 _atom_site_symmetry_multiplicity
 _atom_site_fract_x
 _atom_site_fract_y
 _atom_site_fract_z
 _atom_site_occupancy
  Hf  Hf0  1  0.803199  0.291715  0.078154  1
  Hf  Hf1  1  0.213564  0.291724  0.488514  1
  Hf  Hf2  1  0.193504  0.693503  0.499999  1
  Hf  Hf3  1  0.213562  0.725046  0.921848  1
  Hf  Hf4  1  0.803204  0.725045  0.511474  1
  Hf  Hf5  1  0.774034  0.274034  0.500006  1
  Hf  Hf6  1  0.377776  0.121412  0.743637  1
  Hf  Hf7  1  0.377776  0.634144  0.256366  1
  Ga  Ga8  1  0.983541  0.483544  0.500004  1
  Ga  Ga9  1  0.157581  0.342412  0.184816  1
  Ga  Ga10  1  0.157587  0.972755  0.815176  1
  Ga  Ga11  1  0.149907  0.351958  0.797932  1
  Ga  Ga12  1  0.554025  0.351970  0.202066  1
  Ga  Ga13  1  0.844441  0.652476  0.808021  1
  Ga  Ga14  1  0.844444  0.036411  0.191973  1
  Ga  Ga15  1  0.844258  0.655033  0.189202  1
  Ga  Ga16  1  0.465829  0.655049  0.810794  1
  Ga  Ga17  1  0.376463  0.124137  0.252334  1
  Ga  Ga18  1  0.871806  0.124130  0.747670  1
  Ga  Ga19  1  0.620309  0.867632  0.247324  1
  Ga  Ga20  1  0.620308  0.372991  0.752683  1
  Ga  Ga21  1  0.613390  0.876205  0.737188  1
  Ga  Ga22  1  0.139019  0.876202  0.262813  1
  Ir  Ir23  1  0.000056  0.001176  0.503264  1
  Ir  Ir24  1  0.497910  0.001186  0.001131  1
  Ir  Ir25  1  0.497677  0.497679  0.000003  1
  Ir  Ir26  1  0.497910  0.496792  0.496736  1
  Ir  Ir27  1  0.000050  0.496777  0.998861  1
  Ir  Ir28  1  0.998927  0.998929  0.000006  1
  Ir  Ir29  1  0.507939  0.007937  0.500008  1
