# generated using pymatgen
data_Lu2PaTc2Os
_symmetry_space_group_name_H-M   'P 1'
_cell_length_a   5.71128300
_cell_length_b   5.70899472
_cell_length_c   8.36205400
_cell_angle_alpha   90.00000000
_cell_angle_beta   90.00000000
_cell_angle_gamma   120.01325412
_symmetry_Int_Tables_number   1
_chemical_formula_structural   Lu2PaTc2Os
_chemical_formula_sum   'Lu4 Pa2 Tc4 Os2'
_cell_volume   236.09071235
_cell_formula_units_Z   2
loop_
 _symmetry_equiv_pos_site_id
 _symmetry_equiv_pos_as_xyz
  1  'x, y, z'
loop_
 _atom_site_type_symbol
 _atom_site_label
 _atom_site_symmetry_multiplicity
 _atom_site_fract_x
 _atom_site_fract_y
 _atom_site_fract_z
 _atom_site_occupancy
  Lu  Lu0  1  0.337624  0.665978  0.438658  1
  Lu  Lu1  1  0.671647  0.334022  0.561342  1
  Lu  Lu2  1  0.671647  0.334022  0.938658  1
  Lu  Lu3  1  0.337624  0.665978  0.061342  1
  Pa  Pa4  1  0.006125  0.000000  0.000000  1
  Pa  Pa5  1  0.006125  0.000000  0.500000  1
  Tc  Tc6  1  0.165247  0.326759  0.750000  1
  Tc  Tc7  1  0.170328  0.837190  0.750000  1
  Tc  Tc8  1  0.333140  0.162810  0.250000  1
  Tc  Tc9  1  0.838490  0.673241  0.250000  1
  Os  Os10  1  0.642210  0.822417  0.750000  1
  Os  Os11  1  0.819795  0.177583  0.250000  1
