# generated using pymatgen
data_Ti3MnBe2(B2Ir5)2
_symmetry_space_group_name_H-M   'P 1'
_cell_length_a   9.20821845
_cell_length_b   9.20821845
_cell_length_c   2.90374000
_cell_angle_alpha   90.00000000
_cell_angle_beta   90.00000000
_cell_angle_gamma   89.39238261
_symmetry_Int_Tables_number   1
_chemical_formula_structural   Ti3MnBe2(B2Ir5)2
_chemical_formula_sum   'Ti3 Mn1 Be2 B4 Ir10'
_cell_volume   246.19800684
_cell_formula_units_Z   1
loop_
 _symmetry_equiv_pos_site_id
 _symmetry_equiv_pos_as_xyz
  1  'x, y, z'
loop_
 _atom_site_type_symbol
 _atom_site_label
 _atom_site_symmetry_multiplicity
 _atom_site_fract_x
 _atom_site_fract_y
 _atom_site_fract_z
 _atom_site_occupancy
  Ti  Ti0  1  0.678035  0.176468  0.000000  1
  Ti  Ti1  1  0.323532  0.821965  0.000000  1
  Ti  Ti2  1  0.174967  0.325033  0.000000  1
  Mn  Mn3  1  0.821018  0.678982  0.000000  1
  Be  Be4  1  0.001014  0.000904  0.000000  1
  Be  Be5  1  0.499096  0.498986  0.000000  1
  B  B6  1  0.127997  0.629810  0.000000  1
  B  B7  1  0.870190  0.372003  0.000000  1
  B  B8  1  0.633549  0.866451  0.000000  1
  B  B9  1  0.370998  0.129002  0.000000  1
  Ir  Ir10  1  0.208245  0.068017  0.500000  1
  Ir  Ir11  1  0.794152  0.936281  0.500000  1
  Ir  Ir12  1  0.071012  0.794947  0.500000  1
  Ir  Ir13  1  0.705053  0.428988  0.500000  1
  Ir  Ir14  1  0.933827  0.207868  0.500000  1
  Ir  Ir15  1  0.292132  0.566173  0.500000  1
  Ir  Ir16  1  0.563719  0.705848  0.500000  1
  Ir  Ir17  1  0.431983  0.291755  0.500000  1
  Ir  Ir18  1  0.501147  0.998853  0.500000  1
  Ir  Ir19  1  0.998334  0.501666  0.500000  1
