# generated using pymatgen
data_PrNd6Y(CdRu)2
_symmetry_space_group_name_H-M   'P 1'
_cell_length_a   9.90611219
_cell_length_b   9.92156659
_cell_length_c   9.90752542
_cell_angle_alpha   59.94368594
_cell_angle_beta   60.09851006
_cell_angle_gamma   59.95780725
_symmetry_Int_Tables_number   1
_chemical_formula_structural   PrNd6Y(CdRu)2
_chemical_formula_sum   'Pr2 Nd12 Y2 Cd4 Ru4'
_cell_volume   688.54410027
_cell_formula_units_Z   2
loop_
 _symmetry_equiv_pos_site_id
 _symmetry_equiv_pos_as_xyz
  1  'x, y, z'
loop_
 _atom_site_type_symbol
 _atom_site_label
 _atom_site_symmetry_multiplicity
 _atom_site_fract_x
 _atom_site_fract_y
 _atom_site_fract_z
 _atom_site_occupancy
  Pr  Pr0  1  0.438907  0.438907  0.061093  1
  Pr  Pr1  1  0.061093  0.061093  0.438907  1
  Nd  Nd2  1  0.439330  0.060670  0.060670  1
  Nd  Nd3  1  0.845557  0.848781  0.845774  1
  Nd  Nd4  1  0.688579  0.311421  0.311421  1
  Nd  Nd5  1  0.060670  0.439330  0.439330  1
  Nd  Nd6  1  0.311421  0.688579  0.688579  1
  Nd  Nd7  1  0.311337  0.311337  0.688663  1
  Nd  Nd8  1  0.848781  0.845557  0.459888  1
  Nd  Nd9  1  0.688663  0.688663  0.311337  1
  Nd  Nd10  1  0.459888  0.845774  0.848781  1
  Nd  Nd11  1  0.059946  0.440054  0.059946  1
  Nd  Nd12  1  0.845774  0.459888  0.845557  1
  Nd  Nd13  1  0.440054  0.059946  0.440054  1
  Y  Y14  1  0.309818  0.690182  0.309818  1
  Y  Y15  1  0.690182  0.309818  0.690182  1
  Cd  Cd16  1  0.079945  0.762104  0.080345  1
  Cd  Cd17  1  0.077605  0.080345  0.762104  1
  Cd  Cd18  1  0.762104  0.079945  0.077605  1
  Cd  Cd19  1  0.080345  0.077605  0.079945  1
  Ru  Ru20  1  0.637440  0.085956  0.637962  1
  Ru  Ru21  1  0.637962  0.638641  0.637440  1
  Ru  Ru22  1  0.638641  0.637962  0.085956  1
  Ru  Ru23  1  0.085956  0.637440  0.638641  1
