# generated using pymatgen
data_Zn22CuIr2
_symmetry_space_group_name_H-M   'P 1'
_cell_length_a   7.75836895
_cell_length_b   7.75837031
_cell_length_c   7.76448577
_cell_angle_alpha   72.53171202
_cell_angle_beta   72.53170837
_cell_angle_gamma   58.30489635
_symmetry_Int_Tables_number   1
_chemical_formula_structural   Zn22CuIr2
_chemical_formula_sum   'Zn22 Cu1 Ir2'
_cell_volume   373.42986805
_cell_formula_units_Z   1
loop_
 _symmetry_equiv_pos_site_id
 _symmetry_equiv_pos_as_xyz
  1  'x, y, z'
loop_
 _atom_site_type_symbol
 _atom_site_label
 _atom_site_symmetry_multiplicity
 _atom_site_fract_x
 _atom_site_fract_y
 _atom_site_fract_z
 _atom_site_occupancy
  Zn  Zn0  1  0.345776  0.735274  0.311173  1
  Zn  Zn1  1  0.655920  0.261688  0.686170  1
  Zn  Zn2  1  0.261688  0.655920  0.686170  1
  Zn  Zn3  1  0.735274  0.345776  0.311173  1
  Zn  Zn4  1  0.680942  0.320688  0.999142  1
  Zn  Zn5  1  0.320688  0.680942  0.999142  1
  Zn  Zn6  1  0.828811  0.828811  0.785355  1
  Zn  Zn7  1  0.170006  0.170006  0.218483  1
  Zn  Zn8  1  0.974941  0.974941  0.172589  1
  Zn  Zn9  1  0.025939  0.025939  0.827205  1
  Zn  Zn10  1  0.358133  0.358133  0.274835  1
  Zn  Zn11  1  0.646449  0.646449  0.726621  1
  Zn  Zn12  1  0.685091  0.685091  0.378463  1
  Zn  Zn13  1  0.311864  0.311864  0.621525  1
  Zn  Zn14  1  0.659785  0.023447  0.456976  1
  Zn  Zn15  1  0.344754  0.972650  0.541484  1
  Zn  Zn16  1  0.972650  0.344754  0.541484  1
  Zn  Zn17  1  0.023447  0.659785  0.456976  1
  Zn  Zn18  1  0.622227  0.995527  0.104786  1
  Zn  Zn19  1  0.385456  0.995699  0.895798  1
  Zn  Zn20  1  0.995699  0.385456  0.895798  1
  Zn  Zn21  1  0.995527  0.622227  0.104786  1
  Cu  Cu22  1  0.657499  0.657499  0.056788  1
  Ir  Ir23  1  0.340584  0.340584  0.945670  1
  Ir  Ir24  1  0.000848  0.000848  0.501409  1
