# generated using pymatgen
data_Sm5NiRuO12
_symmetry_space_group_name_H-M   'P 1'
_cell_length_a   6.94307781
_cell_length_b   6.94307778
_cell_length_c   7.47244996
_cell_angle_alpha   74.41697300
_cell_angle_beta   74.41698461
_cell_angle_gamma   51.03548579
_symmetry_Int_Tables_number   1
_chemical_formula_structural   Sm5NiRuO12
_chemical_formula_sum   'Sm5 Ni1 Ru1 O12'
_cell_volume   267.38673034
_cell_formula_units_Z   1
loop_
 _symmetry_equiv_pos_site_id
 _symmetry_equiv_pos_as_xyz
  1  'x, y, z'
loop_
 _atom_site_type_symbol
 _atom_site_label
 _atom_site_symmetry_multiplicity
 _atom_site_fract_x
 _atom_site_fract_y
 _atom_site_fract_z
 _atom_site_occupancy
  Sm  Sm0  1  0.315888  0.295492  0.357242  1
  Sm  Sm1  1  0.704508  0.684112  0.642758  1
  Sm  Sm2  1  0.693964  0.689423  0.166949  1
  Sm  Sm3  1  0.310577  0.306036  0.833051  1
  Sm  Sm4  1  0.006656  0.993344  0.500000  1
  Ni  Ni5  1  0.744233  0.255767  0.000000  1
  Ru  Ru6  1  0.232123  0.767877  0.000000  1
  O  O7  1  0.101703  0.592691  0.575109  1
  O  O8  1  0.007590  0.990672  0.178396  1
  O  O9  1  0.407309  0.898297  0.424891  1
  O  O10  1  0.479077  0.521894  0.179527  1
  O  O11  1  0.101070  0.578379  0.080047  1
  O  O12  1  0.909803  0.398127  0.422213  1
  O  O13  1  0.009328  0.992410  0.821604  1
  O  O14  1  0.601873  0.090196  0.577787  1
  O  O15  1  0.478106  0.520923  0.820473  1
  O  O16  1  0.575782  0.101211  0.079416  1
  O  O17  1  0.421621  0.898930  0.919953  1
  O  O18  1  0.898789  0.424218  0.920584  1
