# generated using pymatgen
data_LiCe3(BrN)3
_symmetry_space_group_name_H-M   'P 1'
_cell_length_a   6.84552943
_cell_length_b   6.84552937
_cell_length_c   10.74140705
_cell_angle_alpha   83.89500118
_cell_angle_beta   83.89499699
_cell_angle_gamma   119.88370644
_symmetry_Int_Tables_number   1
_chemical_formula_structural   LiCe3(BrN)3
_chemical_formula_sum   'Li2 Ce6 Br6 N6'
_cell_volume   426.47770857
_cell_formula_units_Z   2
loop_
 _symmetry_equiv_pos_site_id
 _symmetry_equiv_pos_as_xyz
  1  'x, y, z'
loop_
 _atom_site_type_symbol
 _atom_site_label
 _atom_site_symmetry_multiplicity
 _atom_site_fract_x
 _atom_site_fract_y
 _atom_site_fract_z
 _atom_site_occupancy
  Li  Li0  1  0.666950  0.333050  0.000000  1
  Li  Li1  1  0.333050  0.666950  0.000000  1
  Ce  Ce2  1  0.208861  0.208861  0.367343  1
  Ce  Ce3  1  0.543819  0.878210  0.367848  1
  Ce  Ce4  1  0.878210  0.543819  0.367848  1
  Ce  Ce5  1  0.121790  0.456181  0.632152  1
  Ce  Ce6  1  0.456181  0.121790  0.632152  1
  Ce  Ce7  1  0.791139  0.791139  0.632657  1
  Br  Br8  1  0.050900  0.709234  0.846839  1
  Br  Br9  1  0.392999  0.392999  0.846793  1
  Br  Br10  1  0.709234  0.050900  0.846839  1
  Br  Br11  1  0.290766  0.949100  0.153161  1
  Br  Br12  1  0.607001  0.607001  0.153207  1
  Br  Br13  1  0.949100  0.290766  0.153161  1
  N  N14  1  0.137622  0.137622  0.585739  1
  N  N15  1  0.472005  0.803952  0.584638  1
  N  N16  1  0.803952  0.472005  0.584638  1
  N  N17  1  0.196048  0.527995  0.415362  1
  N  N18  1  0.527995  0.196048  0.415362  1
  N  N19  1  0.862378  0.862378  0.414261  1
