# generated using pymatgen
data_TbHo3ReRu7
_symmetry_space_group_name_H-M   'P 1'
_cell_length_a   5.21132067
_cell_length_b   5.44221734
_cell_length_c   8.96473110
_cell_angle_alpha   90.00000043
_cell_angle_beta   90.01493203
_cell_angle_gamma   121.47682003
_symmetry_Int_Tables_number   1
_chemical_formula_structural   TbHo3ReRu7
_chemical_formula_sum   'Tb1 Ho3 Re1 Ru7'
_cell_volume   216.83747109
_cell_formula_units_Z   1
loop_
 _symmetry_equiv_pos_site_id
 _symmetry_equiv_pos_as_xyz
  1  'x, y, z'
loop_
 _atom_site_type_symbol
 _atom_site_label
 _atom_site_symmetry_multiplicity
 _atom_site_fract_x
 _atom_site_fract_y
 _atom_site_fract_z
 _atom_site_occupancy
  Tb  Tb0  1  0.327079  0.663540  0.433467  1
  Ho  Ho1  1  0.653764  0.326882  0.565563  1
  Ho  Ho2  1  0.653737  0.326868  0.934794  1
  Ho  Ho3  1  0.327749  0.663874  0.066535  1
  Re  Re4  1  0.688191  0.844095  0.750481  1
  Ru  Ru5  1  0.974634  0.987317  0.499678  1
  Ru  Ru6  1  0.974271  0.987136  0.000453  1
  Ru  Ru7  1  0.837590  0.167206  0.249279  1
  Ru  Ru8  1  0.837590  0.670385  0.249279  1
  Ru  Ru9  1  0.357151  0.178576  0.249369  1
  Ru  Ru10  1  0.184121  0.828765  0.750551  1
  Ru  Ru11  1  0.184121  0.355355  0.750551  1
