# generated using pymatgen
data_Nb12IrRu2Pt
_symmetry_space_group_name_H-M   'P 1'
_cell_length_a   5.19467000
_cell_length_b   5.19439900
_cell_length_c   10.38743700
_cell_angle_alpha   90.00000000
_cell_angle_beta   90.00000000
_cell_angle_gamma   90.00000000
_symmetry_Int_Tables_number   1
_chemical_formula_structural   Nb12IrRu2Pt
_chemical_formula_sum   'Nb12 Ir1 Ru2 Pt1'
_cell_volume   280.28617220
_cell_formula_units_Z   1
loop_
 _symmetry_equiv_pos_site_id
 _symmetry_equiv_pos_as_xyz
  1  'x, y, z'
loop_
 _atom_site_type_symbol
 _atom_site_label
 _atom_site_symmetry_multiplicity
 _atom_site_fract_x
 _atom_site_fract_y
 _atom_site_fract_z
 _atom_site_occupancy
  Nb  Nb0  1  0.500000  0.000000  0.374691  1
  Nb  Nb1  1  0.500000  0.000000  0.874046  1
  Nb  Nb2  1  0.747822  0.500000  0.000000  1
  Nb  Nb3  1  0.749672  0.500000  0.500000  1
  Nb  Nb4  1  0.000000  0.748921  0.251723  1
  Nb  Nb5  1  0.000000  0.748921  0.748277  1
  Nb  Nb6  1  0.500000  0.000000  0.125954  1
  Nb  Nb7  1  0.500000  0.000000  0.625309  1
  Nb  Nb8  1  0.252178  0.500000  0.000000  1
  Nb  Nb9  1  0.250328  0.500000  0.500000  1
  Nb  Nb10  1  0.000000  0.251079  0.251723  1
  Nb  Nb11  1  0.000000  0.251079  0.748277  1
  Ir  Ir12  1  0.000000  0.000000  0.500000  1
  Ru  Ru13  1  0.500000  0.500000  0.249538  1
  Ru  Ru14  1  0.500000  0.500000  0.750462  1
  Pt  Pt15  1  0.000000  0.000000  0.000000  1
