# generated using pymatgen
data_SmEu2Al11
_symmetry_space_group_name_H-M   'P 1'
_cell_length_a   8.43154006
_cell_length_b   8.43153902
_cell_length_c   8.43154030
_cell_angle_alpha   148.94206475
_cell_angle_beta   107.40819805
_cell_angle_gamma   81.03544166
_symmetry_Int_Tables_number   1
_chemical_formula_structural   SmEu2Al11
_chemical_formula_sum   'Sm1 Eu2 Al11'
_cell_volume   288.86192445
_cell_formula_units_Z   1
loop_
 _symmetry_equiv_pos_site_id
 _symmetry_equiv_pos_as_xyz
  1  'x, y, z'
loop_
 _atom_site_type_symbol
 _atom_site_label
 _atom_site_symmetry_multiplicity
 _atom_site_fract_x
 _atom_site_fract_y
 _atom_site_fract_z
 _atom_site_occupancy
  Sm  Sm0  1  0.000000  0.000000  0.000000  1
  Eu  Eu1  1  0.314223  0.314223  0.000000  1
  Eu  Eu2  1  0.685777  0.685777  0.000000  1
  Al  Al3  1  0.500000  0.000000  0.500000  1
  Al  Al4  1  0.290069  0.500000  0.790069  1
  Al  Al5  1  0.709931  0.500000  0.209931  1
  Al  Al6  1  0.968015  0.335955  0.632059  1
  Al  Al7  1  0.031985  0.664045  0.367941  1
  Al  Al8  1  0.703896  0.335955  0.367941  1
  Al  Al9  1  0.296104  0.664045  0.632059  1
  Al  Al10  1  0.862796  0.135671  0.727125  1
  Al  Al11  1  0.137204  0.864329  0.272875  1
  Al  Al12  1  0.408546  0.135671  0.272875  1
  Al  Al13  1  0.591454  0.864329  0.727125  1
