# generated using pymatgen
data_TbYCdCo2
_symmetry_space_group_name_H-M   'P 1'
_cell_length_a   7.16503777
_cell_length_b   7.16503755
_cell_length_c   3.96721800
_cell_angle_alpha   90.00000000
_cell_angle_beta   90.00000000
_cell_angle_gamma   148.92440034
_symmetry_Int_Tables_number   1
_chemical_formula_structural   TbYCdCo2
_chemical_formula_sum   'Tb1 Y1 Cd1 Co2'
_cell_volume   105.12708553
_cell_formula_units_Z   1
loop_
 _symmetry_equiv_pos_site_id
 _symmetry_equiv_pos_as_xyz
  1  'x, y, z'
loop_
 _atom_site_type_symbol
 _atom_site_label
 _atom_site_symmetry_multiplicity
 _atom_site_fract_x
 _atom_site_fract_y
 _atom_site_fract_z
 _atom_site_occupancy
  Tb  Tb0  1  0.360301  0.639699  0.500000  1
  Y  Y1  1  0.638800  0.361200  0.500000  1
  Cd  Cd2  1  0.000161  0.999839  0.000000  1
  Co  Co3  1  0.791439  0.208561  0.000000  1
  Co  Co4  1  0.209300  0.790700  0.000000  1
