# generated using pymatgen
data_La6Mn(SiS7)2
_symmetry_space_group_name_H-M   'P 1'
_cell_length_a   10.38511300
_cell_length_b   10.38511266
_cell_length_c   5.78520200
_cell_angle_alpha   90.00000000
_cell_angle_beta   90.00000000
_cell_angle_gamma   120.00000426
_symmetry_Int_Tables_number   1
_chemical_formula_structural   La6Mn(SiS7)2
_chemical_formula_sum   'La6 Mn1 Si2 S14'
_cell_volume   540.34555031
_cell_formula_units_Z   1
loop_
 _symmetry_equiv_pos_site_id
 _symmetry_equiv_pos_as_xyz
  1  'x, y, z'
loop_
 _atom_site_type_symbol
 _atom_site_label
 _atom_site_symmetry_multiplicity
 _atom_site_fract_x
 _atom_site_fract_y
 _atom_site_fract_z
 _atom_site_occupancy
  La  La0  1  0.878200  0.234934  0.249095  1
  La  La1  1  0.765066  0.643267  0.249095  1
  La  La2  1  0.356733  0.121800  0.249095  1
  La  La3  1  0.122727  0.766530  0.753565  1
  La  La4  1  0.233470  0.356197  0.753565  1
  La  La5  1  0.643803  0.877273  0.753565  1
  Mn  Mn6  1  0.000000  0.000000  0.490567  1
  Si  Si7  1  0.666667  0.333333  0.833651  1
  Si  Si8  1  0.333333  0.666667  0.340615  1
  S  S9  1  0.666667  0.333333  0.469514  1
  S  S10  1  0.333333  0.666667  0.975983  1
  S  S11  1  0.916922  0.158914  0.726336  1
  S  S12  1  0.841086  0.758008  0.726336  1
  S  S13  1  0.241992  0.083078  0.726336  1
  S  S14  1  0.080681  0.838855  0.250154  1
  S  S15  1  0.161145  0.241825  0.250154  1
  S  S16  1  0.758175  0.919319  0.250154  1
  S  S17  1  0.592705  0.116121  0.975210  1
  S  S18  1  0.883879  0.476585  0.975210  1
  S  S19  1  0.523415  0.407295  0.975210  1
  S  S20  1  0.408808  0.884330  0.480748  1
  S  S21  1  0.115670  0.524478  0.480748  1
  S  S22  1  0.475522  0.591192  0.480748  1
