# generated using pymatgen
data_ErZn2P6IN12
_symmetry_space_group_name_H-M   'P 1'
_cell_length_a   7.36345751
_cell_length_b   7.34362895
_cell_length_c   7.36345701
_cell_angle_alpha   109.44924901
_cell_angle_beta   109.84364141
_cell_angle_gamma   109.44922883
_symmetry_Int_Tables_number   1
_chemical_formula_structural   ErZn2P6IN12
_chemical_formula_sum   'Er1 Zn2 P6 I1 N12'
_cell_volume   305.26302474
_cell_formula_units_Z   1
loop_
 _symmetry_equiv_pos_site_id
 _symmetry_equiv_pos_as_xyz
  1  'x, y, z'
loop_
 _atom_site_type_symbol
 _atom_site_label
 _atom_site_symmetry_multiplicity
 _atom_site_fract_x
 _atom_site_fract_y
 _atom_site_fract_z
 _atom_site_occupancy
  Er  Er0  1  0.019069  0.364005  0.019069  1
  Zn  Zn1  1  0.999059  0.003927  0.405817  1
  Zn  Zn2  1  0.405817  0.003927  0.999059  1
  P  P3  1  0.498856  0.258914  0.746350  1
  P  P4  1  0.247826  0.754089  0.496609  1
  P  P5  1  0.741601  0.504128  0.259228  1
  P  P6  1  0.746350  0.258914  0.498856  1
  P  P7  1  0.496609  0.754089  0.247826  1
  P  P8  1  0.259228  0.504128  0.741601  1
  I  I9  1  0.000582  0.947122  0.000582  1
  N  N10  1  0.386048  0.683540  0.386048  1
  N  N11  1  0.707059  0.431900  0.430899  1
  N  N12  1  0.430899  0.431900  0.707059  1
  N  N13  1  0.717800  0.282312  0.717800  1
  N  N14  1  0.990255  0.574807  0.288897  1
  N  N15  1  0.288897  0.574807  0.990255  1
  N  N16  1  0.279884  0.004200  0.565481  1
  N  N17  1  0.999365  0.282794  0.570935  1
  N  N18  1  0.717641  0.726750  0.290736  1
  N  N19  1  0.565481  0.004200  0.279884  1
  N  N20  1  0.290736  0.726750  0.717641  1
  N  N21  1  0.570935  0.282794  0.999365  1
