# generated using pymatgen
data_Sr(AlAg2)4
_symmetry_space_group_name_H-M   'P 1'
_cell_length_a   7.25740047
_cell_length_b   7.25741410
_cell_length_c   7.25740112
_cell_angle_alpha   97.83694635
_cell_angle_beta   97.83768306
_cell_angle_gamma   136.65857832
_symmetry_Int_Tables_number   1
_chemical_formula_structural   Sr(AlAg2)4
_chemical_formula_sum   'Sr1 Al4 Ag8'
_cell_volume   243.81058062
_cell_formula_units_Z   1
loop_
 _symmetry_equiv_pos_site_id
 _symmetry_equiv_pos_as_xyz
  1  'x, y, z'
loop_
 _atom_site_type_symbol
 _atom_site_label
 _atom_site_symmetry_multiplicity
 _atom_site_fract_x
 _atom_site_fract_y
 _atom_site_fract_z
 _atom_site_occupancy
  Sr  Sr0  1  0.000000  0.000000  0.000000  1
  Al  Al1  1  0.500000  0.500000  0.500000  1
  Al  Al2  1  0.000000  0.000000  0.500000  1
  Al  Al3  1  0.000000  0.500000  0.000000  1
  Al  Al4  1  0.500000  0.000000  0.000000  1
  Ag  Ag5  1  0.280379  0.500000  0.780379  1
  Ag  Ag6  1  0.719621  0.500000  0.219621  1
  Ag  Ag7  1  0.499988  0.280369  0.780381  1
  Ag  Ag8  1  0.500012  0.719631  0.219619  1
  Ag  Ag9  1  0.347766  0.000000  0.347766  1
  Ag  Ag10  1  0.652234  0.000000  0.652234  1
  Ag  Ag11  1  0.999992  0.347748  0.347756  1
  Ag  Ag12  1  0.000008  0.652252  0.652244  1
