# generated using pymatgen
data_Tb16Cd4OsRu3
_symmetry_space_group_name_H-M   'P 1'
_cell_length_a   9.68132999
_cell_length_b   9.67003205
_cell_length_c   9.67003200
_cell_angle_alpha   60.00000016
_cell_angle_beta   60.03859612
_cell_angle_gamma   60.03859793
_symmetry_Int_Tables_number   1
_chemical_formula_structural   Tb16Cd4OsRu3
_chemical_formula_sum   'Tb16 Cd4 Os1 Ru3'
_cell_volume   640.51450474
_cell_formula_units_Z   1
loop_
 _symmetry_equiv_pos_site_id
 _symmetry_equiv_pos_as_xyz
  1  'x, y, z'
loop_
 _atom_site_type_symbol
 _atom_site_label
 _atom_site_symmetry_multiplicity
 _atom_site_fract_x
 _atom_site_fract_y
 _atom_site_fract_z
 _atom_site_occupancy
  Tb  Tb0  1  0.594198  0.596090  0.596090  1
  Tb  Tb1  1  0.594198  0.596090  0.213622  1
  Tb  Tb2  1  0.594198  0.213622  0.596090  1
  Tb  Tb3  1  0.216690  0.594437  0.594437  1
  Tb  Tb4  1  0.059767  0.439920  0.439920  1
  Tb  Tb5  1  0.439363  0.060059  0.060059  1
  Tb  Tb6  1  0.439363  0.060059  0.440519  1
  Tb  Tb7  1  0.059767  0.439920  0.060394  1
  Tb  Tb8  1  0.439363  0.440519  0.060059  1
  Tb  Tb9  1  0.059767  0.060394  0.439920  1
  Tb  Tb10  1  0.186276  0.813435  0.813435  1
  Tb  Tb11  1  0.813263  0.189043  0.189043  1
  Tb  Tb12  1  0.813263  0.189043  0.808653  1
  Tb  Tb13  1  0.186276  0.813435  0.186855  1
  Tb  Tb14  1  0.813263  0.808653  0.189043  1
  Tb  Tb15  1  0.186276  0.186855  0.813435  1
  Cd  Cd16  1  0.830784  0.829272  0.829272  1
  Cd  Cd17  1  0.830784  0.829272  0.510672  1
  Cd  Cd18  1  0.830784  0.510672  0.829272  1
  Cd  Cd19  1  0.510628  0.829791  0.829791  1
  Os  Os20  1  0.832191  0.389270  0.389270  1
  Ru  Ru21  1  0.389846  0.387415  0.387415  1
  Ru  Ru22  1  0.389846  0.387415  0.835325  1
  Ru  Ru23  1  0.389846  0.835325  0.387415  1
