# generated using pymatgen
data_CsMnIrS4
_symmetry_space_group_name_H-M   'P 1'
_cell_length_a   6.07541700
_cell_length_b   7.11210700
_cell_length_c   16.33776300
_cell_angle_alpha   90.00000000
_cell_angle_beta   90.00000000
_cell_angle_gamma   90.00000000
_symmetry_Int_Tables_number   1
_chemical_formula_structural   CsMnIrS4
_chemical_formula_sum   'Cs4 Mn4 Ir4 S16'
_cell_volume   705.93865917
_cell_formula_units_Z   4
loop_
 _symmetry_equiv_pos_site_id
 _symmetry_equiv_pos_as_xyz
  1  'x, y, z'
loop_
 _atom_site_type_symbol
 _atom_site_label
 _atom_site_symmetry_multiplicity
 _atom_site_fract_x
 _atom_site_fract_y
 _atom_site_fract_z
 _atom_site_occupancy
  Cs  Cs0  1  0.366039  0.000000  0.000000  1
  Cs  Cs1  1  0.633961  0.500000  0.500000  1
  Cs  Cs2  1  0.033968  0.000000  0.500000  1
  Cs  Cs3  1  0.966032  0.500000  0.000000  1
  Mn  Mn4  1  0.006705  0.000000  0.249461  1
  Mn  Mn5  1  0.006705  0.000000  0.750539  1
  Mn  Mn6  1  0.993295  0.500000  0.250539  1
  Mn  Mn7  1  0.993295  0.500000  0.749461  1
  Ir  Ir8  1  0.500000  0.250000  0.250000  1
  Ir  Ir9  1  0.500000  0.750000  0.750000  1
  Ir  Ir10  1  0.500000  0.750000  0.250000  1
  Ir  Ir11  1  0.500000  0.250000  0.750000  1
  S  S12  1  0.836888  0.248853  0.326540  1
  S  S13  1  0.836888  0.751147  0.673460  1
  S  S14  1  0.163112  0.748853  0.173460  1
  S  S15  1  0.163112  0.251147  0.826540  1
  S  S16  1  0.163112  0.251147  0.173460  1
  S  S17  1  0.163112  0.748853  0.826540  1
  S  S18  1  0.836888  0.751147  0.326540  1
  S  S19  1  0.836888  0.248853  0.673460  1
  S  S20  1  0.673696  0.000000  0.175358  1
  S  S21  1  0.673696  0.000000  0.824642  1
  S  S22  1  0.326304  0.500000  0.324642  1
  S  S23  1  0.326304  0.500000  0.675358  1
  S  S24  1  0.337242  0.000000  0.326178  1
  S  S25  1  0.337242  0.000000  0.673822  1
  S  S26  1  0.662758  0.500000  0.173822  1
  S  S27  1  0.662758  0.500000  0.826178  1
