# generated using pymatgen
data_LuHfZrPdF15
_symmetry_space_group_name_H-M   'P 1'
_cell_length_a   8.03278539
_cell_length_b   8.03278550
_cell_length_c   8.03904856
_cell_angle_alpha   79.73312437
_cell_angle_beta   79.73312109
_cell_angle_gamma   100.00355264
_symmetry_Int_Tables_number   1
_chemical_formula_structural   LuHfZrPdF15
_chemical_formula_sum   'Lu2 Hf2 Zr2 Pd2 F30'
_cell_volume   490.80637829
_cell_formula_units_Z   2
loop_
 _symmetry_equiv_pos_site_id
 _symmetry_equiv_pos_as_xyz
  1  'x, y, z'
loop_
 _atom_site_type_symbol
 _atom_site_label
 _atom_site_symmetry_multiplicity
 _atom_site_fract_x
 _atom_site_fract_y
 _atom_site_fract_z
 _atom_site_occupancy
  Lu  Lu0  1  0.677189  0.322811  0.750000  1
  Lu  Lu1  1  0.322165  0.677835  0.250000  1
  Hf  Hf2  1  0.822660  0.751716  0.327296  1
  Hf  Hf3  1  0.248284  0.177340  0.172704  1
  Zr  Zr4  1  0.178357  0.249517  0.672846  1
  Zr  Zr5  1  0.750483  0.821643  0.827154  1
  Pd  Pd6  1  0.249975  0.750025  0.750000  1
  Pd  Pd7  1  0.750522  0.249478  0.250000  1
  F  F8  1  0.150565  0.184759  0.947934  1
  F  F9  1  0.686630  0.559850  0.846723  1
  F  F10  1  0.042970  0.659138  0.312466  1
  F  F11  1  0.655914  0.044427  0.813627  1
  F  F12  1  0.564119  0.689155  0.344264  1
  F  F13  1  0.186810  0.150983  0.442205  1
  F  F14  1  0.849017  0.813190  0.057795  1
  F  F15  1  0.310845  0.435881  0.155736  1
  F  F16  1  0.955573  0.344086  0.686373  1
  F  F17  1  0.340862  0.957030  0.187534  1
  F  F18  1  0.440150  0.313370  0.653277  1
  F  F19  1  0.815241  0.849435  0.552066  1
  F  F20  1  0.971697  0.028303  0.750000  1
  F  F21  1  0.538216  0.751863  0.028566  1
  F  F22  1  0.248137  0.461784  0.471434  1
  F  F23  1  0.458281  0.246663  0.973184  1
  F  F24  1  0.753337  0.541719  0.526816  1
  F  F25  1  0.028046  0.971954  0.250000  1
  F  F26  1  0.212662  0.726989  0.000128  1
  F  F27  1  0.226540  0.498046  0.791830  1
  F  F28  1  0.996999  0.709714  0.776826  1
  F  F29  1  0.711279  0.996089  0.276487  1
  F  F30  1  0.498373  0.225806  0.290469  1
  F  F31  1  0.727725  0.212980  0.500171  1
  F  F32  1  0.787020  0.272275  0.999829  1
  F  F33  1  0.774194  0.501627  0.209531  1
  F  F34  1  0.003911  0.288721  0.223513  1
  F  F35  1  0.290286  0.003001  0.723174  1
  F  F36  1  0.501954  0.773460  0.708170  1
  F  F37  1  0.273011  0.787338  0.499872  1
