# generated using pymatgen
data_LaNpF7
_symmetry_space_group_name_H-M   'P 1'
_cell_length_a   6.11989301
_cell_length_b   6.54095189
_cell_length_c   8.83937257
_cell_angle_alpha   77.45449886
_cell_angle_beta   90.00215908
_cell_angle_gamma   90.00794013
_symmetry_Int_Tables_number   1
_chemical_formula_structural   LaNpF7
_chemical_formula_sum   'La2 Np2 F14'
_cell_volume   345.39108902
_cell_formula_units_Z   2
loop_
 _symmetry_equiv_pos_site_id
 _symmetry_equiv_pos_as_xyz
  1  'x, y, z'
loop_
 _atom_site_type_symbol
 _atom_site_label
 _atom_site_symmetry_multiplicity
 _atom_site_fract_x
 _atom_site_fract_y
 _atom_site_fract_z
 _atom_site_occupancy
  La  La0  1  0.200054  0.654193  0.315394  1
  La  La1  1  0.699996  0.345811  0.684632  1
  Np  Np2  1  0.208323  0.811668  0.775657  1
  Np  Np3  1  0.708363  0.188365  0.224239  1
  F  F4  1  0.393520  0.457792  0.523904  1
  F  F5  1  0.893642  0.542274  0.476179  1
  F  F6  1  0.926923  0.923121  0.233259  1
  F  F7  1  0.426787  0.076931  0.766894  1
  F  F8  1  0.442565  0.959400  0.240528  1
  F  F9  1  0.942592  0.040437  0.759446  1
  F  F10  1  0.491357  0.455424  0.214015  1
  F  F11  1  0.991409  0.544246  0.786093  1
  F  F12  1  0.201946  0.756018  0.026350  1
  F  F13  1  0.701852  0.244107  0.973603  1
  F  F14  1  0.209838  0.860049  0.524671  1
  F  F15  1  0.709714  0.140059  0.475271  1
  F  F16  1  0.001907  0.382662  0.217570  1
  F  F17  1  0.501935  0.617443  0.782297  1
