# generated using pymatgen
data_PrSm7Cu2(Si6Pd)2
_symmetry_space_group_name_H-M   'P 1'
_cell_length_a   8.15787800
_cell_length_b   8.15787886
_cell_length_c   8.41641100
_cell_angle_alpha   90.00000000
_cell_angle_beta   90.00000000
_cell_angle_gamma   120.00000464
_symmetry_Int_Tables_number   1
_chemical_formula_structural   PrSm7Cu2(Si6Pd)2
_chemical_formula_sum   'Pr1 Sm7 Cu2 Si12 Pd2'
_cell_volume   485.07847627
_cell_formula_units_Z   1
loop_
 _symmetry_equiv_pos_site_id
 _symmetry_equiv_pos_as_xyz
  1  'x, y, z'
loop_
 _atom_site_type_symbol
 _atom_site_label
 _atom_site_symmetry_multiplicity
 _atom_site_fract_x
 _atom_site_fract_y
 _atom_site_fract_z
 _atom_site_occupancy
  Pr  Pr0  1  0.000000  0.000000  0.249031  1
  Sm  Sm1  1  0.499680  0.500320  0.750160  1
  Sm  Sm2  1  0.500329  0.499671  0.249796  1
  Sm  Sm3  1  0.000641  0.500320  0.750160  1
  Sm  Sm4  1  0.999342  0.499671  0.249796  1
  Sm  Sm5  1  0.499680  0.999359  0.750160  1
  Sm  Sm6  1  0.500329  0.000658  0.249796  1
  Sm  Sm7  1  0.000000  0.000000  0.750478  1
  Cu  Cu8  1  0.666667  0.333333  0.997929  1
  Cu  Cu9  1  0.333333  0.666667  0.002128  1
  Si  Si10  1  0.830659  0.169341  0.998361  1
  Si  Si11  1  0.169339  0.830661  0.998209  1
  Si  Si12  1  0.338682  0.169341  0.998361  1
  Si  Si13  1  0.166151  0.833849  0.501841  1
  Si  Si14  1  0.661321  0.830661  0.998209  1
  Si  Si15  1  0.833851  0.166149  0.501890  1
  Si  Si16  1  0.830659  0.661318  0.998361  1
  Si  Si17  1  0.667699  0.833849  0.501841  1
  Si  Si18  1  0.169339  0.338679  0.998209  1
  Si  Si19  1  0.332297  0.166149  0.501890  1
  Si  Si20  1  0.166151  0.332301  0.501841  1
  Si  Si21  1  0.833851  0.667703  0.501890  1
  Pd  Pd22  1  0.333333  0.666667  0.498585  1
  Pd  Pd23  1  0.666667  0.333333  0.501073  1
