# generated using pymatgen
data_Sr3Eu(Bi2O7)2
_symmetry_space_group_name_H-M   'P 1'
_cell_length_a   7.79480374
_cell_length_b   7.88462724
_cell_length_c   7.88462800
_cell_angle_alpha   120.02541421
_cell_angle_beta   120.09118327
_cell_angle_gamma   90.22895243
_symmetry_Int_Tables_number   1
_chemical_formula_structural   Sr3Eu(Bi2O7)2
_chemical_formula_sum   'Sr3 Eu1 Bi4 O14'
_cell_volume   341.35213493
_cell_formula_units_Z   1
loop_
 _symmetry_equiv_pos_site_id
 _symmetry_equiv_pos_as_xyz
  1  'x, y, z'
loop_
 _atom_site_type_symbol
 _atom_site_label
 _atom_site_symmetry_multiplicity
 _atom_site_fract_x
 _atom_site_fract_y
 _atom_site_fract_z
 _atom_site_occupancy
  Sr  Sr0  1  0.000000  0.000000  0.500000  1
  Sr  Sr1  1  0.000000  0.500000  0.000000  1
  Sr  Sr2  1  0.000000  0.000000  0.000000  1
  Eu  Eu3  1  0.500000  0.500000  0.000000  1
  Bi  Bi4  1  0.500000  0.000000  0.000000  1
  Bi  Bi5  1  0.500000  0.500000  0.500000  1
  Bi  Bi6  1  0.500000  0.000000  0.500000  1
  Bi  Bi7  1  0.000000  0.500000  0.500000  1
  O  O8  1  0.449828  0.108233  0.782692  1
  O  O9  1  0.550172  0.332864  0.658403  1
  O  O10  1  0.169158  0.411386  0.336437  1
  O  O11  1  0.830842  0.167280  0.242229  1
  O  O12  1  0.550172  0.891767  0.217308  1
  O  O13  1  0.449828  0.667136  0.341597  1
  O  O14  1  0.830842  0.588614  0.663563  1
  O  O15  1  0.169158  0.832720  0.757771  1
  O  O16  1  0.607948  0.748671  0.859277  1
  O  O17  1  0.392052  0.251329  0.140723  1
  O  O18  1  0.169297  0.898611  0.270685  1
  O  O19  1  0.830703  0.101389  0.729315  1
  O  O20  1  0.847816  0.590242  0.257573  1
  O  O21  1  0.152184  0.409758  0.742427  1
