# generated using pymatgen
data_Y7TmSc12Si9Ge7
_symmetry_space_group_name_H-M   'P 1'
_cell_length_a   7.15489386
_cell_length_b   7.41512838
_cell_length_c   14.06144127
_cell_angle_alpha   89.97822946
_cell_angle_beta   89.78892480
_cell_angle_gamma   90.09098031
_symmetry_Int_Tables_number   1
_chemical_formula_structural   Y7TmSc12Si9Ge7
_chemical_formula_sum   'Y7 Tm1 Sc12 Si9 Ge7'
_cell_volume   746.01606553
_cell_formula_units_Z   1
loop_
 _symmetry_equiv_pos_site_id
 _symmetry_equiv_pos_as_xyz
  1  'x, y, z'
loop_
 _atom_site_type_symbol
 _atom_site_label
 _atom_site_symmetry_multiplicity
 _atom_site_fract_x
 _atom_site_fract_y
 _atom_site_fract_z
 _atom_site_occupancy
  Y  Y0  1  0.009407  0.175087  0.098061  1
  Y  Y1  1  0.993689  0.824208  0.901907  1
  Y  Y2  1  0.492147  0.677044  0.902111  1
  Y  Y3  1  0.993622  0.822363  0.598514  1
  Y  Y4  1  0.506529  0.322615  0.098379  1
  Y  Y5  1  0.006929  0.177069  0.401637  1
  Y  Y6  1  0.505895  0.323206  0.401715  1
  Tm  Tm7  1  0.493958  0.677468  0.599385  1
  Sc  Sc8  1  0.166281  0.501018  0.749537  1
  Sc  Sc9  1  0.834074  0.499415  0.250091  1
  Sc  Sc10  1  0.334071  0.000553  0.248833  1
  Sc  Sc11  1  0.665623  0.998993  0.749558  1
  Sc  Sc12  1  0.337368  0.172711  0.626878  1
  Sc  Sc13  1  0.662218  0.826851  0.373432  1
  Sc  Sc14  1  0.162495  0.672599  0.373536  1
  Sc  Sc15  1  0.662446  0.826538  0.126752  1
  Sc  Sc16  1  0.836933  0.328121  0.626550  1
  Sc  Sc17  1  0.335291  0.172486  0.873316  1
  Sc  Sc18  1  0.835463  0.326515  0.873534  1
  Sc  Sc19  1  0.165406  0.675803  0.125646  1
  Si  Si20  1  0.037207  0.117587  0.750135  1
  Si  Si21  1  0.961861  0.882200  0.249844  1
  Si  Si22  1  0.461715  0.616969  0.249885  1
  Si  Si23  1  0.537694  0.383344  0.750122  1
  Si  Si24  1  0.291031  0.871035  0.749491  1
  Si  Si25  1  0.710277  0.127661  0.249869  1
  Si  Si26  1  0.209388  0.372961  0.249655  1
  Si  Si27  1  0.789573  0.628199  0.749891  1
  Si  Si28  1  0.334972  0.962435  0.040191  1
  Ge  Ge29  1  0.174567  0.461379  0.541236  1
  Ge  Ge30  1  0.826763  0.540076  0.459504  1
  Ge  Ge31  1  0.328781  0.959226  0.459694  1
  Ge  Ge32  1  0.830134  0.539113  0.040805  1
  Ge  Ge33  1  0.670839  0.038416  0.541117  1
  Ge  Ge34  1  0.169604  0.460449  0.959229  1
  Ge  Ge35  1  0.665750  0.038286  0.959955  1
