# generated using pymatgen
data_Ti8Al15FePt6
_symmetry_space_group_name_H-M   'P 1'
_cell_length_a   8.67913401
_cell_length_b   8.67913489
_cell_length_c   8.67913492
_cell_angle_alpha   120.29719384
_cell_angle_beta   119.69564144
_cell_angle_gamma   90.00700087
_symmetry_Int_Tables_number   1
_chemical_formula_structural   Ti8Al15FePt6
_chemical_formula_sum   'Ti8 Al15 Fe1 Pt6'
_cell_volume   462.29883935
_cell_formula_units_Z   1
loop_
 _symmetry_equiv_pos_site_id
 _symmetry_equiv_pos_as_xyz
  1  'x, y, z'
loop_
 _atom_site_type_symbol
 _atom_site_label
 _atom_site_symmetry_multiplicity
 _atom_site_fract_x
 _atom_site_fract_y
 _atom_site_fract_z
 _atom_site_occupancy
  Ti  Ti0  1  0.788025  0.290091  0.076751  1
  Ti  Ti1  1  0.213340  0.290091  0.502065  1
  Ti  Ti2  1  0.212134  0.712134  0.500000  1
  Ti  Ti3  1  0.213340  0.711274  0.923249  1
  Ti  Ti4  1  0.788025  0.711274  0.497935  1
  Ti  Ti5  1  0.788308  0.288308  0.500000  1
  Ti  Ti6  1  0.383503  0.117081  0.733578  1
  Ti  Ti7  1  0.383503  0.649925  0.266422  1
  Al  Al8  1  0.999864  0.499864  0.500000  1
  Al  Al9  1  0.157853  0.345910  0.188056  1
  Al  Al10  1  0.157853  0.969796  0.811944  1
  Al  Al11  1  0.159360  0.342793  0.816567  1
  Al  Al12  1  0.526226  0.342793  0.183433  1
  Al  Al13  1  0.844496  0.655884  0.811389  1
  Al  Al14  1  0.844496  0.033106  0.188611  1
  Al  Al15  1  0.843620  0.656365  0.187254  1
  Al  Al16  1  0.469112  0.656365  0.812746  1
  Al  Al17  1  0.383632  0.116578  0.267055  1
  Al  Al18  1  0.849525  0.116578  0.732945  1
  Al  Al19  1  0.617732  0.882667  0.264936  1
  Al  Al20  1  0.617732  0.352796  0.735064  1
  Al  Al21  1  0.619126  0.881590  0.737537  1
  Al  Al22  1  0.144052  0.881590  0.262463  1
  Fe  Fe23  1  0.494866  0.994866  0.500000  1
  Pt  Pt24  1  0.997110  0.999898  0.498572  1
  Pt  Pt25  1  0.501327  0.999898  0.002788  1
  Pt  Pt26  1  0.501891  0.501891  0.000000  1
  Pt  Pt27  1  0.501327  0.498539  0.501428  1
  Pt  Pt28  1  0.997110  0.498539  0.997212  1
  Pt  Pt29  1  0.001514  0.001514  0.000000  1
