# generated using pymatgen
data_Y3Ho3Zn4Pt13
_symmetry_space_group_name_H-M   'P 1'
_cell_length_a   8.32587450
_cell_length_b   8.32587537
_cell_length_c   8.31183400
_cell_angle_alpha   109.43705872
_cell_angle_beta   109.43706081
_cell_angle_gamma   109.50536708
_symmetry_Int_Tables_number   1
_chemical_formula_structural   Y3Ho3Zn4Pt13
_chemical_formula_sum   'Y3 Ho3 Zn4 Pt13'
_cell_volume   443.72880152
_cell_formula_units_Z   1
loop_
 _symmetry_equiv_pos_site_id
 _symmetry_equiv_pos_as_xyz
  1  'x, y, z'
loop_
 _atom_site_type_symbol
 _atom_site_label
 _atom_site_symmetry_multiplicity
 _atom_site_fract_x
 _atom_site_fract_y
 _atom_site_fract_z
 _atom_site_occupancy
  Y  Y0  1  0.300847  0.300819  0.999447  1
  Y  Y1  1  0.699177  0.000001  0.698646  1
  Y  Y2  1  0.000028  0.699219  0.698658  1
  Ho  Ho3  1  0.693218  0.693209  0.998299  1
  Ho  Ho4  1  0.306770  0.000004  0.305085  1
  Ho  Ho5  1  0.000013  0.306775  0.305083  1
  Zn  Zn6  1  0.999996  0.999996  0.495084  1
  Zn  Zn7  1  0.000001  0.501291  0.999361  1
  Zn  Zn8  1  0.501280  0.999998  0.999367  1
  Zn  Zn9  1  0.498704  0.498702  0.498065  1
  Pt  Pt10  1  0.330073  0.330087  0.660341  1
  Pt  Pt11  1  0.669965  0.999955  0.330215  1
  Pt  Pt12  1  0.999939  0.669932  0.330228  1
  Pt  Pt13  1  0.668588  0.332402  0.001217  1
  Pt  Pt14  1  0.331466  0.663871  0.332655  1
  Pt  Pt15  1  0.000039  0.332904  0.667220  1
  Pt  Pt16  1  0.332417  0.668610  0.001199  1
  Pt  Pt17  1  0.332880  0.000033  0.667223  1
  Pt  Pt18  1  0.663889  0.331466  0.332643  1
  Pt  Pt19  1  0.667082  0.667078  0.334267  1
  Pt  Pt20  1  0.667511  0.336136  0.668779  1
  Pt  Pt21  1  0.336113  0.667508  0.668784  1
  Pt  Pt22  1  0.000004  0.000002  0.008133  1
