# generated using pymatgen
data_Ac(AlIr)2
_symmetry_space_group_name_H-M   'P 1'
_cell_length_a   4.36697900
_cell_length_b   4.36697900
_cell_length_c   10.43155100
_cell_angle_alpha   90.00000000
_cell_angle_beta   90.00000000
_cell_angle_gamma   90.00000000
_symmetry_Int_Tables_number   1
_chemical_formula_structural   Ac(AlIr)2
_chemical_formula_sum   'Ac2 Al4 Ir4'
_cell_volume   198.93495162
_cell_formula_units_Z   2
loop_
 _symmetry_equiv_pos_site_id
 _symmetry_equiv_pos_as_xyz
  1  'x, y, z'
loop_
 _atom_site_type_symbol
 _atom_site_label
 _atom_site_symmetry_multiplicity
 _atom_site_fract_x
 _atom_site_fract_y
 _atom_site_fract_z
 _atom_site_occupancy
  Ac  Ac0  1  0.000000  0.500000  0.242269  1
  Ac  Ac1  1  0.500000  0.000000  0.757731  1
  Al  Al2  1  0.000000  0.000000  0.500000  1
  Al  Al3  1  0.500000  0.500000  0.500000  1
  Al  Al4  1  0.000000  0.500000  0.882489  1
  Al  Al5  1  0.500000  0.000000  0.117511  1
  Ir  Ir6  1  0.000000  0.000000  0.000000  1
  Ir  Ir7  1  0.500000  0.500000  0.000000  1
  Ir  Ir8  1  0.000000  0.500000  0.630080  1
  Ir  Ir9  1  0.500000  0.000000  0.369920  1
