# generated using pymatgen
data_ErHf7Ta4Ti8Si7Ge9
_symmetry_space_group_name_H-M   'P 1'
_cell_length_a   6.91290395
_cell_length_b   6.92366190
_cell_length_c   12.69485676
_cell_angle_alpha   89.89709548
_cell_angle_beta   90.05134038
_cell_angle_gamma   89.97566505
_symmetry_Int_Tables_number   1
_chemical_formula_structural   ErHf7Ta4Ti8Si7Ge9
_chemical_formula_sum   'Er1 Hf7 Ta4 Ti8 Si7 Ge9'
_cell_volume   607.60769511
_cell_formula_units_Z   1
loop_
 _symmetry_equiv_pos_site_id
 _symmetry_equiv_pos_as_xyz
  1  'x, y, z'
loop_
 _atom_site_type_symbol
 _atom_site_label
 _atom_site_symmetry_multiplicity
 _atom_site_fract_x
 _atom_site_fract_y
 _atom_site_fract_z
 _atom_site_occupancy
  Er  Er0  1  0.000485  0.657800  0.029927  1
  Hf  Hf1  1  0.343503  0.993049  0.470019  1
  Hf  Hf2  1  0.506595  0.844794  0.718731  1
  Hf  Hf3  1  0.495013  0.159242  0.223369  1
  Hf  Hf4  1  0.844934  0.506936  0.281497  1
  Hf  Hf5  1  0.155955  0.491725  0.779915  1
  Hf  Hf6  1  0.655796  0.008349  0.967743  1
  Hf  Hf7  1  0.993607  0.344685  0.530349  1
  Ta  Ta8  1  0.329077  0.327758  0.998852  1
  Ta  Ta9  1  0.172870  0.826807  0.253443  1
  Ta  Ta10  1  0.827059  0.172412  0.748493  1
  Ta  Ta11  1  0.672753  0.673218  0.500099  1
  Ti  Ti12  1  0.158339  0.007587  0.871088  1
  Ti  Ti13  1  0.492897  0.652846  0.126137  1
  Ti  Ti14  1  0.509130  0.344144  0.624493  1
  Ti  Ti15  1  0.655833  0.487664  0.873138  1
  Ti  Ti16  1  0.343812  0.509252  0.376437  1
  Ti  Ti17  1  0.844260  0.992226  0.376366  1
  Ti  Ti18  1  0.007313  0.158531  0.127335  1
  Ti  Ti19  1  0.991149  0.844928  0.624291  1
  Si  Si20  1  0.541796  0.796630  0.315845  1
  Si  Si21  1  0.457211  0.203540  0.813755  1
  Si  Si22  1  0.796076  0.542638  0.684275  1
  Si  Si23  1  0.205918  0.456713  0.186545  1
  Si  Si24  1  0.703618  0.043018  0.564377  1
  Si  Si25  1  0.958440  0.289464  0.934283  1
  Si  Si26  1  0.042123  0.704069  0.436069  1
  Ge  Ge27  1  0.205622  0.131501  0.672250  1
  Ge  Ge28  1  0.372556  0.702338  0.920573  1
  Ge  Ge29  1  0.631447  0.295638  0.424228  1
  Ge  Ge30  1  0.701771  0.365023  0.075906  1
  Ge  Ge31  1  0.294419  0.631283  0.576739  1
  Ge  Ge32  1  0.792046  0.872297  0.176554  1
  Ge  Ge33  1  0.131343  0.205362  0.327565  1
  Ge  Ge34  1  0.867418  0.796118  0.823022  1
  Ge  Ge35  1  0.297819  0.960413  0.066296  1
