# generated using pymatgen
data_Sr3Th(SbPt)4
_symmetry_space_group_name_H-M   'P 1'
_cell_length_a   4.73623600
_cell_length_b   7.87130810
_cell_length_c   8.02397678
_cell_angle_alpha   89.71000437
_cell_angle_beta   90.00000000
_cell_angle_gamma   90.00000000
_symmetry_Int_Tables_number   1
_chemical_formula_structural   Sr3Th(SbPt)4
_chemical_formula_sum   'Sr3 Th1 Sb4 Pt4'
_cell_volume   299.13301403
_cell_formula_units_Z   1
loop_
 _symmetry_equiv_pos_site_id
 _symmetry_equiv_pos_as_xyz
  1  'x, y, z'
loop_
 _atom_site_type_symbol
 _atom_site_label
 _atom_site_symmetry_multiplicity
 _atom_site_fract_x
 _atom_site_fract_y
 _atom_site_fract_z
 _atom_site_occupancy
  Sr  Sr0  1  0.250000  0.009317  0.707626  1
  Sr  Sr1  1  0.250000  0.505407  0.800295  1
  Sr  Sr2  1  0.750000  0.988564  0.296904  1
  Th  Th3  1  0.750000  0.489548  0.195837  1
  Sb  Sb4  1  0.250000  0.182199  0.091458  1
  Sb  Sb5  1  0.250000  0.684369  0.412313  1
  Sb  Sb6  1  0.750000  0.795889  0.909190  1
  Sb  Sb7  1  0.750000  0.310923  0.587173  1
  Pt  Pt8  1  0.250000  0.327975  0.401433  1
  Pt  Pt9  1  0.250000  0.781718  0.088204  1
  Pt  Pt10  1  0.750000  0.688154  0.574350  1
  Pt  Pt11  1  0.750000  0.235937  0.935216  1
