# generated using pymatgen
data_Zr6Ta2Fe9Co7P12
_symmetry_space_group_name_H-M   'P 1'
_cell_length_a   12.06275718
_cell_length_b   12.03790333
_cell_length_c   3.62748000
_cell_angle_alpha   90.00000000
_cell_angle_beta   90.00000000
_cell_angle_gamma   119.93185581
_symmetry_Int_Tables_number   1
_chemical_formula_structural   Zr6Ta2Fe9Co7P12
_chemical_formula_sum   'Zr6 Ta2 Fe9 Co7 P12'
_cell_volume   456.48961468
_cell_formula_units_Z   1
loop_
 _symmetry_equiv_pos_site_id
 _symmetry_equiv_pos_as_xyz
  1  'x, y, z'
loop_
 _atom_site_type_symbol
 _atom_site_label
 _atom_site_symmetry_multiplicity
 _atom_site_fract_x
 _atom_site_fract_y
 _atom_site_fract_z
 _atom_site_occupancy
  Zr  Zr0  1  0.000000  0.559283  0.000000  1
  Zr  Zr1  1  0.664888  0.333093  0.000000  1
  Zr  Zr2  1  0.335112  0.668206  0.000000  1
  Zr  Zr3  1  0.812028  0.813836  0.500000  1
  Zr  Zr4  1  0.187972  0.001808  0.500000  1
  Zr  Zr5  1  0.000000  0.180635  0.500000  1
  Ta  Ta6  1  0.440341  0.440747  0.000000  1
  Ta  Ta7  1  0.559659  0.000406  0.000000  1
  Fe  Fe8  1  0.127628  0.479449  0.500000  1
  Fe  Fe9  1  0.358613  0.876744  0.500000  1
  Fe  Fe10  1  0.516563  0.644158  0.500000  1
  Fe  Fe11  1  0.641387  0.518131  0.500000  1
  Fe  Fe12  1  0.872372  0.351820  0.500000  1
  Fe  Fe13  1  0.483437  0.127596  0.500000  1
  Fe  Fe14  1  0.722025  0.999171  0.500000  1
  Fe  Fe15  1  0.000000  0.726241  0.500000  1
  Fe  Fe16  1  0.277975  0.277146  0.500000  1
  Co  Co17  1  0.193934  0.370479  0.000000  1
  Co  Co18  1  0.181634  0.810437  0.000000  1
  Co  Co19  1  0.818366  0.628803  0.000000  1
  Co  Co20  1  0.806066  0.176546  0.000000  1
  Co  Co21  1  0.372453  0.193994  0.000000  1
  Co  Co22  1  0.000000  0.999625  0.000000  1
  Co  Co23  1  0.627547  0.821542  0.000000  1
  P  P24  1  0.643735  0.645784  0.000000  1
  P  P25  1  0.356265  0.002051  0.000000  1
  P  P26  1  0.000000  0.348866  0.000000  1
  P  P27  1  0.481517  0.310831  0.500000  1
  P  P28  1  0.688792  0.170575  0.500000  1
  P  P29  1  0.824531  0.518789  0.500000  1
  P  P30  1  0.518483  0.829314  0.500000  1
  P  P31  1  0.175469  0.694258  0.500000  1
  P  P32  1  0.822921  0.998585  0.000000  1
  P  P33  1  0.000000  0.823603  0.000000  1
  P  P34  1  0.311208  0.481783  0.500000  1
  P  P35  1  0.177079  0.175664  0.000000  1
