# generated using pymatgen
data_Tm20GeBi11
_symmetry_space_group_name_H-M   'P 1'
_cell_length_a   8.10677238
_cell_length_b   9.39046800
_cell_length_c   11.85680099
_cell_angle_alpha   90.00000000
_cell_angle_beta   89.80008979
_cell_angle_gamma   90.00000000
_symmetry_Int_Tables_number   1
_chemical_formula_structural   Tm20GeBi11
_chemical_formula_sum   'Tm20 Ge1 Bi11'
_cell_volume   902.60992126
_cell_formula_units_Z   1
loop_
 _symmetry_equiv_pos_site_id
 _symmetry_equiv_pos_as_xyz
  1  'x, y, z'
loop_
 _atom_site_type_symbol
 _atom_site_label
 _atom_site_symmetry_multiplicity
 _atom_site_fract_x
 _atom_site_fract_y
 _atom_site_fract_z
 _atom_site_occupancy
  Tm  Tm0  1  0.036598  0.250000  0.510855  1
  Tm  Tm1  1  0.979029  0.750000  0.490227  1
  Tm  Tm2  1  0.475355  0.750000  0.011199  1
  Tm  Tm3  1  0.526178  0.250000  0.988432  1
  Tm  Tm4  1  0.356209  0.250000  0.293658  1
  Tm  Tm5  1  0.647054  0.750000  0.716457  1
  Tm  Tm6  1  0.146641  0.750000  0.781770  1
  Tm  Tm7  1  0.853475  0.250000  0.216893  1
  Tm  Tm8  1  0.192608  0.250000  0.777244  1
  Tm  Tm9  1  0.811525  0.750000  0.218216  1
  Tm  Tm10  1  0.313315  0.750000  0.281595  1
  Tm  Tm11  1  0.671295  0.250000  0.709097  1
  Tm  Tm12  1  0.193504  0.066108  0.060605  1
  Tm  Tm13  1  0.806712  0.934779  0.940376  1
  Tm  Tm14  1  0.309863  0.949174  0.559398  1
  Tm  Tm15  1  0.806712  0.565221  0.940376  1
  Tm  Tm16  1  0.684814  0.071943  0.445140  1
  Tm  Tm17  1  0.193504  0.433892  0.060605  1
  Tm  Tm18  1  0.684814  0.428057  0.445140  1
  Tm  Tm19  1  0.309863  0.550826  0.559398  1
  Ge  Ge20  1  0.408683  0.250000  0.538201  1
  Bi  Bi21  1  0.593848  0.750000  0.457708  1
  Bi  Bi22  1  0.093750  0.750000  0.042225  1
  Bi  Bi23  1  0.908239  0.250000  0.954667  1
  Bi  Bi24  1  0.064820  0.003103  0.325325  1
  Bi  Bi25  1  0.933557  0.998570  0.674342  1
  Bi  Bi26  1  0.434355  0.995659  0.825460  1
  Bi  Bi27  1  0.933557  0.501430  0.674342  1
  Bi  Bi28  1  0.565472  0.004719  0.175132  1
  Bi  Bi29  1  0.064820  0.496897  0.325325  1
  Bi  Bi30  1  0.565472  0.495281  0.175132  1
  Bi  Bi31  1  0.434355  0.504341  0.825460  1
