# generated using pymatgen
data_Sc2FeCo4Si14Rh
_symmetry_space_group_name_H-M   'P 1'
_cell_length_a   7.64296518
_cell_length_b   7.61255136
_cell_length_c   7.63597567
_cell_angle_alpha   57.29474546
_cell_angle_beta   57.10922699
_cell_angle_gamma   57.18076201
_symmetry_Int_Tables_number   1
_chemical_formula_structural   Sc2FeCo4Si14Rh
_chemical_formula_sum   'Sc2 Fe1 Co4 Si14 Rh1'
_cell_volume   293.85227425
_cell_formula_units_Z   1
loop_
 _symmetry_equiv_pos_site_id
 _symmetry_equiv_pos_as_xyz
  1  'x, y, z'
loop_
 _atom_site_type_symbol
 _atom_site_label
 _atom_site_symmetry_multiplicity
 _atom_site_fract_x
 _atom_site_fract_y
 _atom_site_fract_z
 _atom_site_occupancy
  Sc  Sc0  1  0.001866  0.000988  0.998272  1
  Sc  Sc1  1  0.496562  0.499080  0.503128  1
  Fe  Fe2  1  0.074072  0.425667  0.750631  1
  Co  Co3  1  0.250373  0.925948  0.573224  1
  Co  Co4  1  0.571997  0.250320  0.927649  1
  Co  Co5  1  0.927380  0.573671  0.249299  1
  Co  Co6  1  0.427629  0.749993  0.071946  1
  Si  Si7  1  0.752323  0.737788  0.760146  1
  Si  Si8  1  0.249804  0.251075  0.249049  1
  Si  Si9  1  0.855199  0.072688  0.673147  1
  Si  Si10  1  0.666404  0.850749  0.072475  1
  Si  Si11  1  0.076185  0.664448  0.849146  1
  Si  Si12  1  0.643532  0.827420  0.427695  1
  Si  Si13  1  0.424330  0.650693  0.833784  1
  Si  Si14  1  0.835017  0.426411  0.650835  1
  Si  Si15  1  0.163074  0.575100  0.353407  1
  Si  Si16  1  0.568683  0.358826  0.157938  1
  Si  Si17  1  0.338087  0.169595  0.575954  1
  Si  Si18  1  0.932430  0.342016  0.138671  1
  Si  Si19  1  0.334873  0.151021  0.924227  1
  Si  Si20  1  0.160640  0.923428  0.331763  1
  Rh  Rh21  1  0.749539  0.073075  0.427614  1
