# generated using pymatgen
data_Li6Ta5AlIr12
_symmetry_space_group_name_H-M   'P 1'
_cell_length_a   4.33227800
_cell_length_b   6.13068600
_cell_length_c   12.95952100
_cell_angle_alpha   89.99953646
_cell_angle_beta   89.99936869
_cell_angle_gamma   90.00009963
_symmetry_Int_Tables_number   1
_chemical_formula_structural   Li6Ta5AlIr12
_chemical_formula_sum   'Li6 Ta5 Al1 Ir12'
_cell_volume   344.20275345
_cell_formula_units_Z   1
loop_
 _symmetry_equiv_pos_site_id
 _symmetry_equiv_pos_as_xyz
  1  'x, y, z'
loop_
 _atom_site_type_symbol
 _atom_site_label
 _atom_site_symmetry_multiplicity
 _atom_site_fract_x
 _atom_site_fract_y
 _atom_site_fract_z
 _atom_site_occupancy
  Li  Li0  1  0.000000  0.500002  0.999999  1
  Li  Li1  1  0.499885  0.000004  0.165963  1
  Li  Li2  1  0.999849  0.499994  0.329910  1
  Li  Li3  1  0.499999  0.000000  0.499999  1
  Li  Li4  1  0.000153  0.500004  0.670092  1
  Li  Li5  1  0.500116  0.999993  0.834038  1
  Ta  Ta6  1  0.499905  0.500000  0.160933  1
  Ta  Ta7  1  0.999886  0.000001  0.330635  1
  Ta  Ta8  1  0.499999  0.500000  0.500000  1
  Ta  Ta9  1  0.000114  0.000001  0.669364  1
  Ta  Ta10  1  0.500095  0.499998  0.839067  1
  Al  Al11  1  0.000000  0.999998  0.999999  1
  Ir  Ir12  1  0.500000  0.240495  0.000000  1
  Ir  Ir13  1  0.499999  0.759508  0.000000  1
  Ir  Ir14  1  0.999901  0.246344  0.163232  1
  Ir  Ir15  1  0.999900  0.753655  0.163234  1
  Ir  Ir16  1  0.499886  0.250396  0.331977  1
  Ir  Ir17  1  0.499886  0.749602  0.331977  1
  Ir  Ir18  1  0.000000  0.250176  0.500000  1
  Ir  Ir19  1  0.000000  0.749825  0.499999  1
  Ir  Ir20  1  0.500113  0.250399  0.668023  1
  Ir  Ir21  1  0.500115  0.749602  0.668023  1
  Ir  Ir22  1  0.000099  0.246345  0.836767  1
  Ir  Ir23  1  0.000098  0.753656  0.836769  1
