# generated using pymatgen
data_Dy2Er(UAl6)3
_symmetry_space_group_name_H-M   'P 1'
_cell_length_a   14.66139096
_cell_length_b   14.66139056
_cell_length_c   14.66139200
_cell_angle_alpha   24.08781662
_cell_angle_beta   24.08782091
_cell_angle_gamma   24.08782041
_symmetry_Int_Tables_number   1
_chemical_formula_structural   Dy2Er(UAl6)3
_chemical_formula_sum   'Dy2 Er1 U3 Al18'
_cell_volume   461.33147321
_cell_formula_units_Z   1
loop_
 _symmetry_equiv_pos_site_id
 _symmetry_equiv_pos_as_xyz
  1  'x, y, z'
loop_
 _atom_site_type_symbol
 _atom_site_label
 _atom_site_symmetry_multiplicity
 _atom_site_fract_x
 _atom_site_fract_y
 _atom_site_fract_z
 _atom_site_occupancy
  Dy  Dy0  1  0.999727  0.999727  0.999727  1
  Dy  Dy1  1  0.500621  0.500621  0.500621  1
  Er  Er2  1  0.609655  0.609655  0.609655  1
  U  U3  1  0.108679  0.108679  0.108679  1
  U  U4  1  0.890776  0.890776  0.890776  1
  U  U5  1  0.391178  0.391178  0.391178  1
  Al  Al6  1  0.919796  0.373520  0.373520  1
  Al  Al7  1  0.418321  0.872830  0.872830  1
  Al  Al8  1  0.373520  0.373520  0.919796  1
  Al  Al9  1  0.872830  0.872830  0.418321  1
  Al  Al10  1  0.373520  0.919796  0.373520  1
  Al  Al11  1  0.872830  0.418321  0.872830  1
  Al  Al12  1  0.581031  0.126306  0.126306  1
  Al  Al13  1  0.082208  0.626509  0.626509  1
  Al  Al14  1  0.126306  0.126306  0.581031  1
  Al  Al15  1  0.626509  0.626509  0.082208  1
  Al  Al16  1  0.126306  0.581031  0.126306  1
  Al  Al17  1  0.626509  0.082208  0.626509  1
  Al  Al18  1  0.497150  0.497150  0.005316  1
  Al  Al19  1  0.999916  0.999916  0.500233  1
  Al  Al20  1  0.497150  0.005316  0.497150  1
  Al  Al21  1  0.999916  0.500233  0.999916  1
  Al  Al22  1  0.005316  0.497150  0.497150  1
  Al  Al23  1  0.500233  0.999916  0.999916  1
