# generated using pymatgen
data_YErAlCdPt2
_symmetry_space_group_name_H-M   'P 1'
_cell_length_a   4.37179600
_cell_length_b   6.95670275
_cell_length_c   8.22343480
_cell_angle_alpha   92.88043221
_cell_angle_beta   90.00000000
_cell_angle_gamma   90.00000000
_symmetry_Int_Tables_number   1
_chemical_formula_structural   YErAlCdPt2
_chemical_formula_sum   'Y2 Er2 Al2 Cd2 Pt4'
_cell_volume   249.78568427
_cell_formula_units_Z   2
loop_
 _symmetry_equiv_pos_site_id
 _symmetry_equiv_pos_as_xyz
  1  'x, y, z'
loop_
 _atom_site_type_symbol
 _atom_site_label
 _atom_site_symmetry_multiplicity
 _atom_site_fract_x
 _atom_site_fract_y
 _atom_site_fract_z
 _atom_site_occupancy
  Y  Y0  1  0.250000  0.466817  0.187248  1
  Y  Y1  1  0.750000  0.533183  0.812752  1
  Er  Er2  1  0.750000  0.033914  0.676781  1
  Er  Er3  1  0.250000  0.966086  0.323219  1
  Al  Al4  1  0.750000  0.641475  0.442114  1
  Al  Al5  1  0.250000  0.358525  0.557886  1
  Cd  Cd6  1  0.250000  0.855436  0.934254  1
  Cd  Cd7  1  0.750000  0.144564  0.065746  1
  Pt  Pt8  1  0.250000  0.733219  0.597422  1
  Pt  Pt9  1  0.750000  0.266781  0.402578  1
  Pt  Pt10  1  0.750000  0.742599  0.143466  1
  Pt  Pt11  1  0.250000  0.257401  0.856534  1
