# generated using pymatgen
data_Ho8Ti10NbSi16Rh
_symmetry_space_group_name_H-M   'P 1'
_cell_length_a   7.03244862
_cell_length_b   7.03155165
_cell_length_c   12.87003130
_cell_angle_alpha   90.14923151
_cell_angle_beta   89.88164038
_cell_angle_gamma   89.74268168
_symmetry_Int_Tables_number   1
_chemical_formula_structural   Ho8Ti10NbSi16Rh
_chemical_formula_sum   'Ho8 Ti10 Nb1 Si16 Rh1'
_cell_volume   636.40055879
_cell_formula_units_Z   1
loop_
 _symmetry_equiv_pos_site_id
 _symmetry_equiv_pos_as_xyz
  1  'x, y, z'
loop_
 _atom_site_type_symbol
 _atom_site_label
 _atom_site_symmetry_multiplicity
 _atom_site_fract_x
 _atom_site_fract_y
 _atom_site_fract_z
 _atom_site_occupancy
  Ho  Ho0  1  0.340883  0.003258  0.467094  1
  Ho  Ho1  1  0.496799  0.842108  0.717878  1
  Ho  Ho2  1  0.500639  0.157615  0.214805  1
  Ho  Ho3  1  0.842680  0.497642  0.282073  1
  Ho  Ho4  1  0.158191  0.501128  0.785211  1
  Ho  Ho5  1  0.657161  0.998920  0.968036  1
  Ho  Ho6  1  0.003535  0.340268  0.533072  1
  Ho  Ho7  1  0.998801  0.657226  0.031713  1
  Ti  Ti8  1  0.826094  0.175533  0.751632  1
  Ti  Ti9  1  0.673482  0.673913  0.500170  1
  Ti  Ti10  1  0.149148  0.003690  0.876047  1
  Ti  Ti11  1  0.493013  0.656604  0.125243  1
  Ti  Ti12  1  0.507261  0.349358  0.627726  1
  Ti  Ti13  1  0.656076  0.493461  0.875061  1
  Ti  Ti14  1  0.348464  0.507975  0.371726  1
  Ti  Ti15  1  0.849772  0.993131  0.374102  1
  Ti  Ti16  1  0.003415  0.147735  0.124492  1
  Ti  Ti17  1  0.994135  0.849595  0.625410  1
  Nb  Nb18  1  0.175199  0.826301  0.248261  1
  Si  Si19  1  0.202306  0.132885  0.685437  1
  Si  Si20  1  0.372166  0.703028  0.933631  1
  Si  Si21  1  0.631199  0.295997  0.434180  1
  Si  Si22  1  0.702736  0.372275  0.065915  1
  Si  Si23  1  0.296203  0.630601  0.566179  1
  Si  Si24  1  0.795579  0.868318  0.183444  1
  Si  Si25  1  0.132779  0.203137  0.315254  1
  Si  Si26  1  0.868157  0.796784  0.816232  1
  Si  Si27  1  0.287759  0.951495  0.061683  1
  Si  Si28  1  0.548362  0.791685  0.315741  1
  Si  Si29  1  0.448804  0.209945  0.817680  1
  Si  Si30  1  0.791777  0.547660  0.684558  1
  Si  Si31  1  0.210219  0.447859  0.182332  1
  Si  Si32  1  0.708261  0.047891  0.565532  1
  Si  Si33  1  0.949864  0.286253  0.936232  1
  Si  Si34  1  0.047161  0.707423  0.435672  1
  Rh  Rh35  1  0.331922  0.331305  0.000544  1
