# generated using pymatgen
data_Dy10Ho2InTcNi4
_symmetry_space_group_name_H-M   'P 1'
_cell_length_a   8.29837164
_cell_length_b   8.29910154
_cell_length_c   8.29837212
_cell_angle_alpha   111.42104368
_cell_angle_beta   109.96506704
_cell_angle_gamma   107.05420678
_symmetry_Int_Tables_number   1
_chemical_formula_structural   Dy10Ho2InTcNi4
_chemical_formula_sum   'Dy10 Ho2 In1 Tc1 Ni4'
_cell_volume   439.30288327
_cell_formula_units_Z   1
loop_
 _symmetry_equiv_pos_site_id
 _symmetry_equiv_pos_as_xyz
  1  'x, y, z'
loop_
 _atom_site_type_symbol
 _atom_site_label
 _atom_site_symmetry_multiplicity
 _atom_site_fract_x
 _atom_site_fract_y
 _atom_site_fract_z
 _atom_site_occupancy
  Dy  Dy0  1  0.411364  0.220596  0.189965  1
  Dy  Dy1  1  0.588636  0.779404  0.810035  1
  Dy  Dy2  1  0.030631  0.220596  0.809232  1
  Dy  Dy3  1  0.969369  0.779404  0.190768  1
  Dy  Dy4  1  0.179817  0.283647  0.464501  1
  Dy  Dy5  1  0.820183  0.716353  0.535499  1
  Dy  Dy6  1  0.180855  0.716353  0.896170  1
  Dy  Dy7  1  0.819145  0.283647  0.103830  1
  Dy  Dy8  1  0.321117  0.626383  0.305268  1
  Dy  Dy9  1  0.678883  0.373617  0.694732  1
  Ho  Ho10  1  0.321607  0.016467  0.694860  1
  Ho  Ho11  1  0.678393  0.983533  0.305140  1
  In  In12  1  0.500000  0.500000  0.000000  1
  Tc  Tc13  1  0.000000  0.000000  0.000000  1
  Ni  Ni14  1  0.360262  0.000000  0.360262  1
  Ni  Ni15  1  0.639738  0.000000  0.639738  1
  Ni  Ni16  1  0.120059  0.620342  0.500282  1
  Ni  Ni17  1  0.879941  0.379658  0.499718  1
