# generated using pymatgen
data_Dy6Y2Ti11Si16Hg
_symmetry_space_group_name_H-M   'P 1'
_cell_length_a   7.09375928
_cell_length_b   7.09376256
_cell_length_c   12.94808610
_cell_angle_alpha   89.87733120
_cell_angle_beta   90.12443550
_cell_angle_gamma   89.57618734
_symmetry_Int_Tables_number   1
_chemical_formula_structural   Dy6Y2Ti11Si16Hg
_chemical_formula_sum   'Dy6 Y2 Ti11 Si16 Hg1'
_cell_volume   651.54551158
_cell_formula_units_Z   1
loop_
 _symmetry_equiv_pos_site_id
 _symmetry_equiv_pos_as_xyz
  1  'x, y, z'
loop_
 _atom_site_type_symbol
 _atom_site_label
 _atom_site_symmetry_multiplicity
 _atom_site_fract_x
 _atom_site_fract_y
 _atom_site_fract_z
 _atom_site_occupancy
  Dy  Dy0  1  0.658840  0.997967  0.966861  1
  Dy  Dy1  1  0.160289  0.502104  0.784039  1
  Dy  Dy2  1  0.842542  0.498618  0.285020  1
  Dy  Dy3  1  0.502079  0.160214  0.215955  1
  Dy  Dy4  1  0.498575  0.842560  0.714913  1
  Dy  Dy5  1  0.343049  0.999393  0.468473  1
  Y  Y6  1  0.997725  0.659027  0.033146  1
  Y  Y7  1  0.999615  0.342876  0.531457  1
  Ti  Ti8  1  0.349932  0.504466  0.376389  1
  Ti  Ti9  1  0.852652  0.990996  0.377065  1
  Ti  Ti10  1  0.008763  0.150718  0.125442  1
  Ti  Ti11  1  0.991113  0.852649  0.622860  1
  Ti  Ti12  1  0.504375  0.349869  0.623540  1
  Ti  Ti13  1  0.150858  0.008795  0.874532  1
  Ti  Ti14  1  0.826320  0.173536  0.750680  1
  Ti  Ti15  1  0.173717  0.826427  0.249415  1
  Ti  Ti16  1  0.327293  0.326999  0.000009  1
  Ti  Ti17  1  0.492556  0.649034  0.124429  1
  Ti  Ti18  1  0.648896  0.492566  0.875500  1
  Si  Si19  1  0.067276  0.714234  0.432407  1
  Si  Si20  1  0.952173  0.289997  0.936024  1
  Si  Si21  1  0.713998  0.067038  0.567636  1
  Si  Si22  1  0.209463  0.453351  0.185508  1
  Si  Si23  1  0.793944  0.541390  0.694671  1
  Si  Si24  1  0.453492  0.209214  0.814633  1
  Si  Si25  1  0.541125  0.794134  0.305375  1
  Si  Si26  1  0.290362  0.952433  0.064026  1
  Si  Si27  1  0.798386  0.868775  0.184445  1
  Si  Si28  1  0.275340  0.625997  0.572625  1
  Si  Si29  1  0.705608  0.368832  0.067108  1
  Si  Si30  1  0.625646  0.275201  0.427365  1
  Si  Si31  1  0.369298  0.705940  0.932879  1
  Si  Si32  1  0.132575  0.201496  0.316655  1
  Si  Si33  1  0.201707  0.132216  0.683387  1
  Si  Si34  1  0.868415  0.798646  0.815585  1
  Hg  Hg35  1  0.672002  0.672291  0.499944  1
