# generated using pymatgen
data_Dy5Ho(Tm2Sn3)2
_symmetry_space_group_name_H-M   'P 1'
_cell_length_a   6.48313400
_cell_length_b   8.92819656
_cell_length_c   8.92598246
_cell_angle_alpha   120.00820482
_cell_angle_beta   90.00000000
_cell_angle_gamma   90.00000000
_symmetry_Int_Tables_number   1
_chemical_formula_structural   Dy5Ho(Tm2Sn3)2
_chemical_formula_sum   'Dy5 Ho1 Tm4 Sn6'
_cell_volume   447.40361576
_cell_formula_units_Z   1
loop_
 _symmetry_equiv_pos_site_id
 _symmetry_equiv_pos_as_xyz
  1  'x, y, z'
loop_
 _atom_site_type_symbol
 _atom_site_label
 _atom_site_symmetry_multiplicity
 _atom_site_fract_x
 _atom_site_fract_y
 _atom_site_fract_z
 _atom_site_occupancy
  Dy  Dy0  1  0.749994  0.760557  0.760551  1
  Dy  Dy1  1  0.749994  0.000007  0.239449  1
  Dy  Dy2  1  0.250003  0.760483  0.000000  1
  Dy  Dy3  1  0.249998  0.239510  0.239403  1
  Dy  Dy4  1  0.249998  0.000106  0.760597  1
  Ho  Ho5  1  0.750004  0.239465  0.000000  1
  Tm  Tm6  1  0.500024  0.333342  0.666744  1
  Tm  Tm7  1  0.500024  0.666596  0.333256  1
  Tm  Tm8  1  0.999976  0.666612  0.333255  1
  Tm  Tm9  1  0.999976  0.333358  0.666745  1
  Sn  Sn10  1  0.750000  0.604196  0.000000  1
  Sn  Sn11  1  0.750002  0.395501  0.395335  1
  Sn  Sn12  1  0.750002  0.000167  0.604665  1
  Sn  Sn13  1  0.249996  0.395663  0.000000  1
  Sn  Sn14  1  0.250003  0.604434  0.604431  1
  Sn  Sn15  1  0.250003  0.000003  0.395569  1
