# generated using pymatgen
data_Zr6Al16Co2Pt4Rh
_symmetry_space_group_name_H-M   'P 1'
_cell_length_a   8.73066584
_cell_length_b   8.70220015
_cell_length_c   8.70219932
_cell_angle_alpha   60.21652836
_cell_angle_beta   59.89172729
_cell_angle_gamma   59.89173078
_symmetry_Int_Tables_number   1
_chemical_formula_structural   Zr6Al16Co2Pt4Rh
_chemical_formula_sum   'Zr6 Al16 Co2 Pt4 Rh1'
_cell_volume   467.49943775
_cell_formula_units_Z   1
loop_
 _symmetry_equiv_pos_site_id
 _symmetry_equiv_pos_as_xyz
  1  'x, y, z'
loop_
 _atom_site_type_symbol
 _atom_site_label
 _atom_site_symmetry_multiplicity
 _atom_site_fract_x
 _atom_site_fract_y
 _atom_site_fract_z
 _atom_site_occupancy
  Zr  Zr0  1  0.688752  0.311248  0.311248  1
  Zr  Zr1  1  0.687475  0.312525  0.687475  1
  Zr  Zr2  1  0.687475  0.687475  0.312525  1
  Zr  Zr3  1  0.311248  0.688752  0.688752  1
  Zr  Zr4  1  0.312525  0.687475  0.312525  1
  Zr  Zr5  1  0.312525  0.312525  0.687475  1
  Al  Al6  1  0.641515  0.115715  0.115715  1
  Al  Al7  1  0.115715  0.641515  0.127056  1
  Al  Al8  1  0.115715  0.127056  0.641515  1
  Al  Al9  1  0.127056  0.115715  0.115715  1
  Al  Al10  1  0.358485  0.884285  0.884285  1
  Al  Al11  1  0.884285  0.358485  0.872944  1
  Al  Al12  1  0.884285  0.872944  0.358485  1
  Al  Al13  1  0.872944  0.884285  0.884285  1
  Al  Al14  1  0.992639  0.340797  0.340797  1
  Al  Al15  1  0.340797  0.992639  0.325768  1
  Al  Al16  1  0.340797  0.325768  0.992639  1
  Al  Al17  1  0.325768  0.340797  0.340797  1
  Al  Al18  1  0.007361  0.659203  0.659203  1
  Al  Al19  1  0.659203  0.007361  0.674232  1
  Al  Al20  1  0.659203  0.674232  0.007361  1
  Al  Al21  1  0.674232  0.659203  0.659203  1
  Co  Co22  1  0.500000  0.000000  0.000000  1
  Co  Co23  1  0.000000  0.500000  0.500000  1
  Pt  Pt24  1  0.500000  0.000000  0.500000  1
  Pt  Pt25  1  0.500000  0.500000  0.000000  1
  Pt  Pt26  1  0.000000  0.500000  0.000000  1
  Pt  Pt27  1  0.000000  0.000000  0.500000  1
  Rh  Rh28  1  0.000000  0.000000  0.000000  1
