# generated using pymatgen
data_Pr4GeI5
_symmetry_space_group_name_H-M   'P 1'
_cell_length_a   4.38068500
_cell_length_b   9.12155500
_cell_length_c   19.28982100
_cell_angle_alpha   90.00000000
_cell_angle_beta   90.00000000
_cell_angle_gamma   90.00000000
_symmetry_Int_Tables_number   1
_chemical_formula_structural   Pr4GeI5
_chemical_formula_sum   'Pr8 Ge2 I10'
_cell_volume   770.79538270
_cell_formula_units_Z   2
loop_
 _symmetry_equiv_pos_site_id
 _symmetry_equiv_pos_as_xyz
  1  'x, y, z'
loop_
 _atom_site_type_symbol
 _atom_site_label
 _atom_site_symmetry_multiplicity
 _atom_site_fract_x
 _atom_site_fract_y
 _atom_site_fract_z
 _atom_site_occupancy
  Pr  Pr0  1  0.000000  0.370446  0.851295  1
  Pr  Pr1  1  0.500000  0.589798  0.000000  1
  Pr  Pr2  1  0.000000  0.370446  0.148705  1
  Pr  Pr3  1  0.000000  0.844554  0.500000  1
  Pr  Pr4  1  0.500000  0.629554  0.351295  1
  Pr  Pr5  1  0.000000  0.410202  0.500000  1
  Pr  Pr6  1  0.500000  0.629554  0.648705  1
  Pr  Pr7  1  0.500000  0.155446  0.000000  1
  Ge  Ge8  1  0.500000  0.627652  0.500000  1
  Ge  Ge9  1  0.000000  0.372348  0.000000  1
  I  I10  1  0.500000  0.116896  0.167938  1
  I  I11  1  0.000000  0.368271  0.669999  1
  I  I12  1  0.000000  0.871771  0.000000  1
  I  I13  1  0.000000  0.883104  0.332062  1
  I  I14  1  0.500000  0.116896  0.832062  1
  I  I15  1  0.500000  0.631729  0.830001  1
  I  I16  1  0.000000  0.883104  0.667938  1
  I  I17  1  0.000000  0.368271  0.330001  1
  I  I18  1  0.500000  0.631729  0.169999  1
  I  I19  1  0.500000  0.128229  0.500000  1
