# generated using pymatgen
data_LaNd2(HgPd)3
_symmetry_space_group_name_H-M   'P 1'
_cell_length_a   7.86410651
_cell_length_b   7.90884776
_cell_length_c   3.96499500
_cell_angle_alpha   90.00000000
_cell_angle_beta   90.00000000
_cell_angle_gamma   120.18838127
_symmetry_Int_Tables_number   1
_chemical_formula_structural   LaNd2(HgPd)3
_chemical_formula_sum   'La1 Nd2 Hg3 Pd3'
_cell_volume   213.16129129
_cell_formula_units_Z   1
loop_
 _symmetry_equiv_pos_site_id
 _symmetry_equiv_pos_as_xyz
  1  'x, y, z'
loop_
 _atom_site_type_symbol
 _atom_site_label
 _atom_site_symmetry_multiplicity
 _atom_site_fract_x
 _atom_site_fract_y
 _atom_site_fract_z
 _atom_site_occupancy
  La  La0  1  0.000000  0.597584  0.500000  1
  Nd  Nd1  1  0.398448  0.399490  0.500000  1
  Nd  Nd2  1  0.601552  0.001043  0.500000  1
  Hg  Hg3  1  0.733438  0.737059  0.000000  1
  Hg  Hg4  1  0.266562  0.003621  0.000000  1
  Hg  Hg5  1  0.000000  0.259192  0.000000  1
  Pd  Pd6  1  0.668644  0.336272  0.000000  1
  Pd  Pd7  1  0.331356  0.667630  0.000000  1
  Pd  Pd8  1  0.000000  0.998108  0.500000  1
