# generated using pymatgen
data_DyY5Co2(P3Ir4)4
_symmetry_space_group_name_H-M   'P 1'
_cell_length_a   3.93082100
_cell_length_b   11.09900900
_cell_length_c   12.78132400
_cell_angle_alpha   90.00037412
_cell_angle_beta   90.00000000
_cell_angle_gamma   90.00000000
_symmetry_Int_Tables_number   1
_chemical_formula_structural   DyY5Co2(P3Ir4)4
_chemical_formula_sum   'Dy1 Y5 Co2 P12 Ir16'
_cell_volume   557.62638540
_cell_formula_units_Z   1
loop_
 _symmetry_equiv_pos_site_id
 _symmetry_equiv_pos_as_xyz
  1  'x, y, z'
loop_
 _atom_site_type_symbol
 _atom_site_label
 _atom_site_symmetry_multiplicity
 _atom_site_fract_x
 _atom_site_fract_y
 _atom_site_fract_z
 _atom_site_occupancy
  Dy  Dy0  1  0.500000  0.815977  0.200440  1
  Y  Y1  1  0.000000  0.499999  0.522392  1
  Y  Y2  1  0.500000  0.999998  0.477608  1
  Y  Y3  1  0.500000  0.184011  0.200433  1
  Y  Y4  1  0.000000  0.684009  0.799569  1
  Y  Y5  1  0.000000  0.315992  0.799567  1
  Co  Co6  1  0.000000  0.500001  0.977370  1
  Co  Co7  1  0.500000  0.999987  0.022643  1
  P  P8  1  0.500000  0.499999  0.880441  1
  P  P9  1  0.000000  0.999972  0.119558  1
  P  P10  1  0.500000  0.499998  0.357861  1
  P  P11  1  0.000000  0.000000  0.642143  1
  P  P12  1  0.500000  0.315531  0.619268  1
  P  P13  1  0.500000  0.684467  0.619270  1
  P  P14  1  0.000000  0.184475  0.380736  1
  P  P15  1  0.000000  0.815525  0.380714  1
  P  P16  1  0.500000  0.852066  0.896597  1
  P  P17  1  0.500000  0.147936  0.896596  1
  P  P18  1  0.000000  0.647959  0.103410  1
  P  P19  1  0.000000  0.352068  0.103404  1
  Ir  Ir20  1  0.500000  0.500015  0.177844  1
  Ir  Ir21  1  0.000000  0.999999  0.822159  1
  Ir  Ir22  1  0.500000  0.499999  0.702475  1
  Ir  Ir23  1  0.000000  0.999963  0.297508  1
  Ir  Ir24  1  0.500000  0.339138  0.998064  1
  Ir  Ir25  1  0.500000  0.660876  0.998080  1
  Ir  Ir26  1  0.000000  0.160864  0.001937  1
  Ir  Ir27  1  0.000000  0.839135  0.001953  1
  Ir  Ir28  1  0.500000  0.292816  0.429294  1
  Ir  Ir29  1  0.500000  0.707193  0.429281  1
  Ir  Ir30  1  0.000000  0.207183  0.570705  1
  Ir  Ir31  1  0.000000  0.792818  0.570702  1
  Ir  Ir32  1  0.500000  0.870490  0.714626  1
  Ir  Ir33  1  0.500000  0.129511  0.714626  1
  Ir  Ir34  1  0.000000  0.629543  0.285357  1
  Ir  Ir35  1  0.000000  0.370490  0.285370  1
