# generated using pymatgen
data_YbDy4Zn5
_symmetry_space_group_name_H-M   'P 1'
_cell_length_a   3.61111600
_cell_length_b   3.61111600
_cell_length_c   17.65990500
_cell_angle_alpha   90.00000000
_cell_angle_beta   90.00000000
_cell_angle_gamma   90.00000000
_symmetry_Int_Tables_number   1
_chemical_formula_structural   YbDy4Zn5
_chemical_formula_sum   'Yb1 Dy4 Zn5'
_cell_volume   230.28796498
_cell_formula_units_Z   1
loop_
 _symmetry_equiv_pos_site_id
 _symmetry_equiv_pos_as_xyz
  1  'x, y, z'
loop_
 _atom_site_type_symbol
 _atom_site_label
 _atom_site_symmetry_multiplicity
 _atom_site_fract_x
 _atom_site_fract_y
 _atom_site_fract_z
 _atom_site_occupancy
  Yb  Yb0  1  0.000000  0.000000  0.000000  1
  Dy  Dy1  1  0.000000  0.000000  0.201464  1
  Dy  Dy2  1  0.000000  0.000000  0.399979  1
  Dy  Dy3  1  0.000000  0.000000  0.600021  1
  Dy  Dy4  1  0.000000  0.000000  0.798536  1
  Zn  Zn5  1  0.500000  0.500000  0.106030  1
  Zn  Zn6  1  0.500000  0.500000  0.301632  1
  Zn  Zn7  1  0.500000  0.500000  0.500000  1
  Zn  Zn8  1  0.500000  0.500000  0.698368  1
  Zn  Zn9  1  0.500000  0.500000  0.893970  1
