# generated using pymatgen
data_HoEr3Sc2(B2Rh5)2
_symmetry_space_group_name_H-M   'P 1'
_cell_length_a   9.65835215
_cell_length_b   9.65835215
_cell_length_c   3.21533900
_cell_angle_alpha   90.00000000
_cell_angle_beta   90.00000000
_cell_angle_gamma   89.98002017
_symmetry_Int_Tables_number   1
_chemical_formula_structural   HoEr3Sc2(B2Rh5)2
_chemical_formula_sum   'Ho1 Er3 Sc2 B4 Rh10'
_cell_volume   299.93891327
_cell_formula_units_Z   1
loop_
 _symmetry_equiv_pos_site_id
 _symmetry_equiv_pos_as_xyz
  1  'x, y, z'
loop_
 _atom_site_type_symbol
 _atom_site_label
 _atom_site_symmetry_multiplicity
 _atom_site_fract_x
 _atom_site_fract_y
 _atom_site_fract_z
 _atom_site_occupancy
  Ho  Ho0  1  0.825317  0.325317  0.000000  1
  Er  Er1  1  0.325251  0.174673  0.000000  1
  Er  Er2  1  0.674673  0.825251  0.000000  1
  Er  Er3  1  0.174737  0.674737  0.000000  1
  Sc  Sc4  1  0.000042  0.999914  0.000000  1
  Sc  Sc5  1  0.499914  0.500042  0.000000  1
  B  B6  1  0.620450  0.120450  0.000000  1
  B  B7  1  0.120684  0.379447  0.000000  1
  B  B8  1  0.879447  0.620684  0.000000  1
  B  B9  1  0.379459  0.879459  0.000000  1
  Rh  Rh10  1  0.071712  0.225066  0.500000  1
  Rh  Rh11  1  0.225152  0.928524  0.500000  1
  Rh  Rh12  1  0.774767  0.071195  0.500000  1
  Rh  Rh13  1  0.928543  0.774879  0.500000  1
  Rh  Rh14  1  0.428524  0.725152  0.500000  1
  Rh  Rh15  1  0.571195  0.274767  0.500000  1
  Rh  Rh16  1  0.725066  0.571712  0.500000  1
  Rh  Rh17  1  0.274879  0.428543  0.500000  1
  Rh  Rh18  1  0.499977  0.999977  0.500000  1
  Rh  Rh19  1  0.000213  0.500213  0.500000  1
