# generated using pymatgen
data_Y6TlFePd
_symmetry_space_group_name_H-M   'P 1'
_cell_length_a   8.64163680
_cell_length_b   8.64187822
_cell_length_c   8.64163800
_cell_angle_alpha   111.51889920
_cell_angle_beta   109.09019662
_cell_angle_gamma   107.82537351
_symmetry_Int_Tables_number   1
_chemical_formula_structural   Y6TlFePd
_chemical_formula_sum   'Y12 Tl2 Fe2 Pd2'
_cell_volume   496.26704031
_cell_formula_units_Z   2
loop_
 _symmetry_equiv_pos_site_id
 _symmetry_equiv_pos_as_xyz
  1  'x, y, z'
loop_
 _atom_site_type_symbol
 _atom_site_label
 _atom_site_symmetry_multiplicity
 _atom_site_fract_x
 _atom_site_fract_y
 _atom_site_fract_z
 _atom_site_occupancy
  Y  Y0  1  0.448333  0.244693  0.203643  1
  Y  Y1  1  0.551667  0.755307  0.796357  1
  Y  Y2  1  0.041050  0.244693  0.796362  1
  Y  Y3  1  0.958950  0.755307  0.203638  1
  Y  Y4  1  0.178161  0.285830  0.463986  1
  Y  Y5  1  0.821839  0.714170  0.536014  1
  Y  Y6  1  0.178157  0.714170  0.892332  1
  Y  Y7  1  0.821843  0.285830  0.107668  1
  Y  Y8  1  0.315070  0.623335  0.308267  1
  Y  Y9  1  0.684930  0.376665  0.691733  1
  Y  Y10  1  0.315066  0.006797  0.691731  1
  Y  Y11  1  0.684934  0.993203  0.308269  1
  Tl  Tl12  1  0.500000  0.500000  0.000000  1
  Tl  Tl13  1  0.000000  0.000000  0.000000  1
  Fe  Fe14  1  0.107118  0.607110  0.499993  1
  Fe  Fe15  1  0.892882  0.392890  0.500007  1
  Pd  Pd16  1  0.350656  0.000000  0.350656  1
  Pd  Pd17  1  0.649344  0.000000  0.649344  1
