# generated using pymatgen
data_Pm4Cr(MoO4)3
_symmetry_space_group_name_H-M   'P 1'
_cell_length_a   5.54672453
_cell_length_b   5.87825959
_cell_length_c   8.02413549
_cell_angle_alpha   89.82377395
_cell_angle_beta   90.03805015
_cell_angle_gamma   89.96552141
_symmetry_Int_Tables_number   1
_chemical_formula_structural   Pm4Cr(MoO4)3
_chemical_formula_sum   'Pm4 Cr1 Mo3 O12'
_cell_volume   261.62628979
_cell_formula_units_Z   1
loop_
 _symmetry_equiv_pos_site_id
 _symmetry_equiv_pos_as_xyz
  1  'x, y, z'
loop_
 _atom_site_type_symbol
 _atom_site_label
 _atom_site_symmetry_multiplicity
 _atom_site_fract_x
 _atom_site_fract_y
 _atom_site_fract_z
 _atom_site_occupancy
  Pm  Pm0  1  0.981739  0.063807  0.245000  1
  Pm  Pm1  1  0.520152  0.567553  0.245154  1
  Pm  Pm2  1  0.479848  0.432447  0.754846  1
  Pm  Pm3  1  0.018260  0.936193  0.755000  1
  Cr  Cr4  1  0.500000  0.000000  0.000000  1
  Mo  Mo5  1  0.000000  0.500001  0.000000  1
  Mo  Mo6  1  0.500000  0.000000  0.500000  1
  Mo  Mo7  1  0.000000  0.500001  0.500000  1
  O  O8  1  0.685476  0.295021  0.058324  1
  O  O9  1  0.799236  0.809693  0.056547  1
  O  O10  1  0.123619  0.449564  0.249420  1
  O  O11  1  0.384695  0.954546  0.241434  1
  O  O12  1  0.684919  0.308776  0.436179  1
  O  O13  1  0.814951  0.808764  0.434406  1
  O  O14  1  0.185050  0.191236  0.565595  1
  O  O15  1  0.315082  0.691224  0.563822  1
  O  O16  1  0.615305  0.045454  0.758566  1
  O  O17  1  0.876382  0.550436  0.750580  1
  O  O18  1  0.200765  0.190307  0.943452  1
  O  O19  1  0.314525  0.704979  0.941675  1
