# generated using pymatgen
data_Ba8Ir3WO20
_symmetry_space_group_name_H-M   'P 1'
_cell_length_a   5.77771700
_cell_length_b   7.52816713
_cell_length_c   11.72912237
_cell_angle_alpha   89.88028824
_cell_angle_beta   90.00000000
_cell_angle_gamma   90.00000000
_symmetry_Int_Tables_number   1
_chemical_formula_structural   Ba8Ir3WO20
_chemical_formula_sum   'Ba8 Ir3 W1 O20'
_cell_volume   510.16432651
_cell_formula_units_Z   1
loop_
 _symmetry_equiv_pos_site_id
 _symmetry_equiv_pos_as_xyz
  1  'x, y, z'
loop_
 _atom_site_type_symbol
 _atom_site_label
 _atom_site_symmetry_multiplicity
 _atom_site_fract_x
 _atom_site_fract_y
 _atom_site_fract_z
 _atom_site_occupancy
  Ba  Ba0  1  0.750000  0.168411  0.580826  1
  Ba  Ba1  1  0.250000  0.829327  0.418488  1
  Ba  Ba2  1  0.750000  0.675981  0.918240  1
  Ba  Ba3  1  0.250000  0.334944  0.083303  1
  Ba  Ba4  1  0.250000  0.018706  0.785850  1
  Ba  Ba5  1  0.750000  0.974845  0.212406  1
  Ba  Ba6  1  0.250000  0.521423  0.712571  1
  Ba  Ba7  1  0.750000  0.476808  0.289128  1
  Ir  Ir8  1  0.250000  0.328303  0.438669  1
  Ir  Ir9  1  0.750000  0.671539  0.561904  1
  Ir  Ir10  1  0.250000  0.829999  0.061215  1
  W  W11  1  0.750000  0.176913  0.935639  1
  O  O12  1  0.491371  0.677802  0.113710  1
  O  O13  1  0.991322  0.323987  0.885873  1
  O  O14  1  0.008816  0.177743  0.386251  1
  O  O15  1  0.508212  0.822033  0.613763  1
  O  O16  1  0.508678  0.323987  0.885873  1
  O  O17  1  0.008629  0.677802  0.113710  1
  O  O18  1  0.991788  0.822033  0.613763  1
  O  O19  1  0.491184  0.177743  0.386251  1
  O  O20  1  0.750000  0.276603  0.091718  1
  O  O21  1  0.250000  0.717170  0.907719  1
  O  O22  1  0.750000  0.784463  0.408590  1
  O  O23  1  0.250000  0.215098  0.592107  1
  O  O24  1  0.999733  0.499629  0.499964  1
  O  O25  1  0.500267  0.499629  0.499964  1
  O  O26  1  0.500189  0.000096  0.999928  1
  O  O27  1  0.999811  0.000096  0.999928  1
  O  O28  1  0.250000  0.467853  0.301826  1
  O  O29  1  0.750000  0.532349  0.698510  1
  O  O30  1  0.250000  0.967766  0.198522  1
  O  O31  1  0.750000  0.028916  0.803789  1
