# generated using pymatgen
data_Th2TiAl3
_symmetry_space_group_name_H-M   'P 1'
_cell_length_a   5.66507400
_cell_length_b   5.74947037
_cell_length_c   5.66507500
_cell_angle_alpha   60.48440036
_cell_angle_beta   60.00000001
_cell_angle_gamma   60.48440036
_symmetry_Int_Tables_number   1
_chemical_formula_structural   Th2TiAl3
_chemical_formula_sum   'Th2 Ti1 Al3'
_cell_volume   131.42118177
_cell_formula_units_Z   1
loop_
 _symmetry_equiv_pos_site_id
 _symmetry_equiv_pos_as_xyz
  1  'x, y, z'
loop_
 _atom_site_type_symbol
 _atom_site_label
 _atom_site_symmetry_multiplicity
 _atom_site_fract_x
 _atom_site_fract_y
 _atom_site_fract_z
 _atom_site_occupancy
  Th  Th0  1  0.757267  0.728200  0.757267  1
  Th  Th1  1  0.492733  0.521800  0.492733  1
  Ti  Ti2  1  0.125000  0.625000  0.125000  1
  Al  Al3  1  0.125000  0.125000  0.625000  1
  Al  Al4  1  0.125000  0.125000  0.125000  1
  Al  Al5  1  0.625000  0.125000  0.125000  1
