# generated using pymatgen
data_Ti8Nb2AlPt4
_symmetry_space_group_name_H-M   'P 1'
_cell_length_a   9.77704600
_cell_length_b   9.77704600
_cell_length_c   5.06568900
_cell_angle_alpha   90.00000000
_cell_angle_beta   90.00000000
_cell_angle_gamma   90.00000000
_symmetry_Int_Tables_number   1
_chemical_formula_structural   Ti8Nb2AlPt4
_chemical_formula_sum   'Ti16 Nb4 Al2 Pt8'
_cell_volume   484.23239523
_cell_formula_units_Z   2
loop_
 _symmetry_equiv_pos_site_id
 _symmetry_equiv_pos_as_xyz
  1  'x, y, z'
loop_
 _atom_site_type_symbol
 _atom_site_label
 _atom_site_symmetry_multiplicity
 _atom_site_fract_x
 _atom_site_fract_y
 _atom_site_fract_z
 _atom_site_occupancy
  Ti  Ti0  1  0.127810  0.465491  0.000000  1
  Ti  Ti1  1  0.965491  0.372190  0.500000  1
  Ti  Ti2  1  0.034509  0.627810  0.500000  1
  Ti  Ti3  1  0.872190  0.534509  0.000000  1
  Ti  Ti4  1  0.372190  0.965491  0.500000  1
  Ti  Ti5  1  0.627810  0.034509  0.500000  1
  Ti  Ti6  1  0.465491  0.127810  0.000000  1
  Ti  Ti7  1  0.534509  0.872190  0.000000  1
  Ti  Ti8  1  0.186008  0.186008  0.253512  1
  Ti  Ti9  1  0.686008  0.313992  0.753512  1
  Ti  Ti10  1  0.313992  0.686008  0.753512  1
  Ti  Ti11  1  0.813992  0.813992  0.253512  1
  Ti  Ti12  1  0.313992  0.686008  0.246488  1
  Ti  Ti13  1  0.686008  0.313992  0.246488  1
  Ti  Ti14  1  0.186008  0.186008  0.746488  1
  Ti  Ti15  1  0.813992  0.813992  0.746488  1
  Nb  Nb16  1  0.395225  0.395225  0.000000  1
  Nb  Nb17  1  0.895225  0.104775  0.500000  1
  Nb  Nb18  1  0.104775  0.895225  0.500000  1
  Nb  Nb19  1  0.604775  0.604775  0.000000  1
  Al  Al20  1  0.000000  0.000000  0.000000  1
  Al  Al21  1  0.500000  0.500000  0.500000  1
  Pt  Pt22  1  0.261991  0.940924  0.000000  1
  Pt  Pt23  1  0.440924  0.238009  0.500000  1
  Pt  Pt24  1  0.559076  0.761991  0.500000  1
  Pt  Pt25  1  0.738009  0.059076  0.000000  1
  Pt  Pt26  1  0.238009  0.440924  0.500000  1
  Pt  Pt27  1  0.761991  0.559076  0.500000  1
  Pt  Pt28  1  0.940924  0.261991  0.000000  1
  Pt  Pt29  1  0.059076  0.738009  0.000000  1
