# generated using pymatgen
data_Dy7HoSc12Si15Pb
_symmetry_space_group_name_H-M   'P 1'
_cell_length_a   7.13960611
_cell_length_b   7.42628831
_cell_length_c   14.08213225
_cell_angle_alpha   89.99184243
_cell_angle_beta   89.52429777
_cell_angle_gamma   90.04720347
_symmetry_Int_Tables_number   1
_chemical_formula_structural   Dy7HoSc12Si15Pb
_chemical_formula_sum   'Dy7 Ho1 Sc12 Si15 Pb1'
_cell_volume   746.61954723
_cell_formula_units_Z   1
loop_
 _symmetry_equiv_pos_site_id
 _symmetry_equiv_pos_as_xyz
  1  'x, y, z'
loop_
 _atom_site_type_symbol
 _atom_site_label
 _atom_site_symmetry_multiplicity
 _atom_site_fract_x
 _atom_site_fract_y
 _atom_site_fract_z
 _atom_site_occupancy
  Dy  Dy0  1  0.012676  0.175912  0.096693  1
  Dy  Dy1  1  0.987606  0.824589  0.903992  1
  Dy  Dy2  1  0.488499  0.676316  0.903899  1
  Dy  Dy3  1  0.987147  0.832236  0.598617  1
  Dy  Dy4  1  0.511845  0.323762  0.097036  1
  Dy  Dy5  1  0.005862  0.168793  0.398668  1
  Dy  Dy6  1  0.514556  0.319267  0.398571  1
  Ho  Ho7  1  0.503120  0.686102  0.600488  1
  Sc  Sc8  1  0.161308  0.502529  0.756684  1
  Sc  Sc9  1  0.838219  0.497795  0.249284  1
  Sc  Sc10  1  0.338567  0.002427  0.249322  1
  Sc  Sc11  1  0.662795  0.997444  0.751518  1
  Sc  Sc12  1  0.342787  0.159909  0.631325  1
  Sc  Sc13  1  0.664625  0.825577  0.372607  1
  Sc  Sc14  1  0.164200  0.684070  0.368930  1
  Sc  Sc15  1  0.669085  0.823138  0.124144  1
  Sc  Sc16  1  0.820791  0.323299  0.626739  1
  Sc  Sc17  1  0.330122  0.175449  0.875346  1
  Sc  Sc18  1  0.830316  0.323455  0.875438  1
  Sc  Sc19  1  0.169374  0.676813  0.125029  1
  Si  Si20  1  0.033888  0.119182  0.751334  1
  Si  Si21  1  0.964382  0.884833  0.246901  1
  Si  Si22  1  0.466429  0.615958  0.248598  1
  Si  Si23  1  0.531348  0.385496  0.751642  1
  Si  Si24  1  0.285611  0.869670  0.752137  1
  Si  Si25  1  0.713427  0.126156  0.247486  1
  Si  Si26  1  0.212865  0.373074  0.249227  1
  Si  Si27  1  0.788955  0.627624  0.751230  1
  Si  Si28  1  0.826470  0.539736  0.458266  1
  Si  Si29  1  0.338986  0.963919  0.460049  1
  Si  Si30  1  0.842930  0.534528  0.039388  1
  Si  Si31  1  0.660756  0.037249  0.538168  1
  Si  Si32  1  0.156530  0.464789  0.961719  1
  Si  Si33  1  0.656487  0.035162  0.960618  1
  Si  Si34  1  0.342700  0.965197  0.039742  1
  Pb  Pb35  1  0.174735  0.458544  0.539167  1
