# generated using pymatgen
data_Ca2PrNdIn2
_symmetry_space_group_name_H-M   'P 1'
_cell_length_a   5.57041100
_cell_length_b   5.57041074
_cell_length_c   6.97304000
_cell_angle_alpha   90.00000000
_cell_angle_beta   90.00000000
_cell_angle_gamma   119.99998374
_symmetry_Int_Tables_number   1
_chemical_formula_structural   Ca2PrNdIn2
_chemical_formula_sum   'Ca2 Pr1 Nd1 In2'
_cell_volume   187.38176206
_cell_formula_units_Z   1
loop_
 _symmetry_equiv_pos_site_id
 _symmetry_equiv_pos_as_xyz
  1  'x, y, z'
loop_
 _atom_site_type_symbol
 _atom_site_label
 _atom_site_symmetry_multiplicity
 _atom_site_fract_x
 _atom_site_fract_y
 _atom_site_fract_z
 _atom_site_occupancy
  Ca  Ca0  1  0.000000  0.000000  0.500691  1
  Ca  Ca1  1  0.000000  0.000000  0.999309  1
  Pr  Pr2  1  0.666667  0.333333  0.250000  1
  Nd  Nd3  1  0.333333  0.666667  0.750000  1
  In  In4  1  0.666667  0.333333  0.750000  1
  In  In5  1  0.333333  0.666667  0.250000  1
