# generated using pymatgen
data_CaUZnCuSb4
_symmetry_space_group_name_H-M   'P 1'
_cell_length_a   4.39553900
_cell_length_b   4.29649000
_cell_length_c   9.90520400
_cell_angle_alpha   90.00000000
_cell_angle_beta   90.00000000
_cell_angle_gamma   90.00000000
_symmetry_Int_Tables_number   1
_chemical_formula_structural   CaUZnCuSb4
_chemical_formula_sum   'Ca1 U1 Zn1 Cu1 Sb4'
_cell_volume   187.06363421
_cell_formula_units_Z   1
loop_
 _symmetry_equiv_pos_site_id
 _symmetry_equiv_pos_as_xyz
  1  'x, y, z'
loop_
 _atom_site_type_symbol
 _atom_site_label
 _atom_site_symmetry_multiplicity
 _atom_site_fract_x
 _atom_site_fract_y
 _atom_site_fract_z
 _atom_site_occupancy
  Ca  Ca0  1  0.000000  0.500000  0.765373  1
  U  U1  1  0.500000  0.000000  0.259910  1
  Zn  Zn2  1  0.500000  0.500000  0.489842  1
  Cu  Cu3  1  0.000000  0.000000  0.490565  1
  Sb  Sb4  1  0.500000  0.500000  0.016223  1
  Sb  Sb5  1  0.000000  0.000000  0.017188  1
  Sb  Sb6  1  0.000000  0.500000  0.309653  1
  Sb  Sb7  1  0.500000  0.000000  0.651244  1
