# generated using pymatgen
data_Ba2Al16CuPt8
_symmetry_space_group_name_H-M   'P 1'
_cell_length_a   11.36588218
_cell_length_b   11.36588236
_cell_length_c   11.36588213
_cell_angle_alpha   158.62638137
_cell_angle_beta   116.47493603
_cell_angle_gamma   67.85016834
_symmetry_Int_Tables_number   1
_chemical_formula_structural   Ba2Al16CuPt8
_chemical_formula_sum   'Ba2 Al16 Cu1 Pt8'
_cell_volume   475.71437996
_cell_formula_units_Z   1
loop_
 _symmetry_equiv_pos_site_id
 _symmetry_equiv_pos_as_xyz
  1  'x, y, z'
loop_
 _atom_site_type_symbol
 _atom_site_label
 _atom_site_symmetry_multiplicity
 _atom_site_fract_x
 _atom_site_fract_y
 _atom_site_fract_z
 _atom_site_occupancy
  Ba  Ba0  1  0.229368  0.229597  0.999772  1
  Ba  Ba1  1  0.770176  0.770403  0.999772  1
  Al  Al2  1  0.276566  0.394820  0.881745  1
  Al  Al3  1  0.092927  0.919332  0.173595  1
  Al  Al4  1  0.507852  0.205819  0.302034  1
  Al  Al5  1  0.254262  0.080668  0.173595  1
  Al  Al6  1  0.918049  0.416294  0.501755  1
  Al  Al7  1  0.719707  0.603021  0.116687  1
  Al  Al8  1  0.898483  0.201572  0.696911  1
  Al  Al9  1  0.495341  0.798428  0.696911  1
  Al  Al10  1  0.382036  0.000000  0.382036  1
  Al  Al11  1  0.614946  0.000000  0.614946  1
  Al  Al12  1  0.486925  0.605180  0.881745  1
  Al  Al13  1  0.096215  0.794181  0.302034  1
  Al  Al14  1  0.907862  0.078139  0.829724  1
  Al  Al15  1  0.751586  0.921861  0.829724  1
  Al  Al16  1  0.513668  0.396979  0.116687  1
  Al  Al17  1  0.085462  0.583706  0.501755  1
  Cu  Cu18  1  0.748721  0.500000  0.248721  1
  Pt  Pt19  1  0.033138  0.339900  0.693237  1
  Pt  Pt20  1  0.617388  0.117935  0.499454  1
  Pt  Pt21  1  0.248164  0.500000  0.748164  1
  Pt  Pt22  1  0.381520  0.882065  0.499454  1
  Pt  Pt23  1  0.002918  0.000000  0.002918  1
  Pt  Pt24  1  0.651823  0.345130  0.306694  1
  Pt  Pt25  1  0.353337  0.660100  0.693237  1
  Pt  Pt26  1  0.961563  0.654870  0.306694  1
