# generated using pymatgen
data_TbDy6Co2Sn23Os4
_symmetry_space_group_name_H-M   'P 1'
_cell_length_a   9.81310405
_cell_length_b   9.86578359
_cell_length_c   10.07784367
_cell_angle_alpha   89.99999890
_cell_angle_beta   89.79435885
_cell_angle_gamma   120.17774354
_symmetry_Int_Tables_number   1
_chemical_formula_structural   TbDy6Co2Sn23Os4
_chemical_formula_sum   'Tb1 Dy6 Co2 Sn23 Os4'
_cell_volume   843.43546100
_cell_formula_units_Z   1
loop_
 _symmetry_equiv_pos_site_id
 _symmetry_equiv_pos_as_xyz
  1  'x, y, z'
loop_
 _atom_site_type_symbol
 _atom_site_label
 _atom_site_symmetry_multiplicity
 _atom_site_fract_x
 _atom_site_fract_y
 _atom_site_fract_z
 _atom_site_occupancy
  Tb  Tb0  1  0.000000  0.000000  0.000000  1
  Dy  Dy1  1  0.483879  0.518907  0.305753  1
  Dy  Dy2  1  0.516121  0.481093  0.694247  1
  Dy  Dy3  1  0.483879  0.964973  0.305753  1
  Dy  Dy4  1  0.516121  0.035027  0.694247  1
  Dy  Dy5  1  0.034949  0.517475  0.304171  1
  Dy  Dy6  1  0.965051  0.482525  0.695829  1
  Co  Co7  1  0.339034  0.169517  0.199378  1
  Co  Co8  1  0.660966  0.830483  0.800622  1
  Sn  Sn9  1  0.349313  0.002693  0.004803  1
  Sn  Sn10  1  0.650687  0.997307  0.995197  1
  Sn  Sn11  1  0.000000  0.349542  0.000000  1
  Sn  Sn12  1  0.000000  0.650458  0.000000  1
  Sn  Sn13  1  0.650687  0.653379  0.995197  1
  Sn  Sn14  1  0.349313  0.346621  0.004803  1
  Sn  Sn15  1  0.336176  0.668089  0.821636  1
  Sn  Sn16  1  0.663824  0.331911  0.178364  1
  Sn  Sn17  1  0.000000  0.000000  0.500000  1
  Sn  Sn18  1  0.780644  0.220024  0.461357  1
  Sn  Sn19  1  0.219356  0.779976  0.538643  1
  Sn  Sn20  1  0.780644  0.560621  0.461357  1
  Sn  Sn21  1  0.219356  0.439379  0.538643  1
  Sn  Sn22  1  0.437169  0.218584  0.454375  1
  Sn  Sn23  1  0.562831  0.781416  0.545625  1
  Sn  Sn24  1  0.335059  0.667529  0.124016  1
  Sn  Sn25  1  0.664941  0.332471  0.875984  1
  Sn  Sn26  1  0.120955  0.889053  0.275453  1
  Sn  Sn27  1  0.879045  0.110947  0.724547  1
  Sn  Sn28  1  0.120955  0.231902  0.275453  1
  Sn  Sn29  1  0.879045  0.768098  0.724547  1
  Sn  Sn30  1  0.763898  0.881949  0.276600  1
  Sn  Sn31  1  0.236102  0.118051  0.723400  1
  Os  Os32  1  0.829415  0.168439  0.200824  1
  Os  Os33  1  0.170585  0.831561  0.799176  1
  Os  Os34  1  0.829415  0.660975  0.200824  1
  Os  Os35  1  0.170585  0.339025  0.799176  1
