# generated using pymatgen
data_PrY(Zn2Pt)4
_symmetry_space_group_name_H-M   'P 1'
_cell_length_a   7.68249900
_cell_length_b   7.68249952
_cell_length_c   4.22389400
_cell_angle_alpha   90.00000000
_cell_angle_beta   90.00000000
_cell_angle_gamma   92.26166945
_symmetry_Int_Tables_number   1
_chemical_formula_structural   PrY(Zn2Pt)4
_chemical_formula_sum   'Pr1 Y1 Zn8 Pt4'
_cell_volume   249.10338333
_cell_formula_units_Z   1
loop_
 _symmetry_equiv_pos_site_id
 _symmetry_equiv_pos_as_xyz
  1  'x, y, z'
loop_
 _atom_site_type_symbol
 _atom_site_label
 _atom_site_symmetry_multiplicity
 _atom_site_fract_x
 _atom_site_fract_y
 _atom_site_fract_z
 _atom_site_occupancy
  Pr  Pr0  1  0.000000  0.000000  0.000000  1
  Y  Y1  1  0.500000  0.500000  0.500000  1
  Zn  Zn2  1  0.353666  0.096676  0.500000  1
  Zn  Zn3  1  0.646334  0.903324  0.500000  1
  Zn  Zn4  1  0.845308  0.408349  0.000000  1
  Zn  Zn5  1  0.154692  0.591651  0.000000  1
  Zn  Zn6  1  0.096676  0.353666  0.500000  1
  Zn  Zn7  1  0.903324  0.646334  0.500000  1
  Zn  Zn8  1  0.408349  0.845308  0.000000  1
  Zn  Zn9  1  0.591651  0.154692  0.000000  1
  Pt  Pt10  1  0.779825  0.220175  0.500000  1
  Pt  Pt11  1  0.220175  0.779825  0.500000  1
  Pt  Pt12  1  0.289191  0.289191  0.000000  1
  Pt  Pt13  1  0.710809  0.710809  0.000000  1
