# generated using pymatgen
data_Nb8Fe4Co3Si14Ni
_symmetry_space_group_name_H-M   'P 1'
_cell_length_a   9.24355274
_cell_length_b   9.24411893
_cell_length_c   9.25646155
_cell_angle_alpha   94.25617388
_cell_angle_beta   94.25520085
_cell_angle_gamma   148.41174106
_symmetry_Int_Tables_number   1
_chemical_formula_structural   Nb8Fe4Co3Si14Ni
_chemical_formula_sum   'Nb8 Fe4 Co3 Si14 Ni1'
_cell_volume   398.61341636
_cell_formula_units_Z   1
loop_
 _symmetry_equiv_pos_site_id
 _symmetry_equiv_pos_as_xyz
  1  'x, y, z'
loop_
 _atom_site_type_symbol
 _atom_site_label
 _atom_site_symmetry_multiplicity
 _atom_site_fract_x
 _atom_site_fract_y
 _atom_site_fract_z
 _atom_site_occupancy
  Nb  Nb0  1  0.135143  0.134661  0.269018  1
  Nb  Nb1  1  0.865300  0.864743  0.730942  1
  Nb  Nb2  1  0.865499  0.134902  0.000052  1
  Nb  Nb3  1  0.135022  0.865437  0.999935  1
  Nb  Nb4  1  0.498672  0.690991  0.191432  1
  Nb  Nb5  1  0.498782  0.306998  0.808860  1
  Nb  Nb6  1  0.309087  0.501404  0.808625  1
  Nb  Nb7  1  0.693291  0.501547  0.191030  1
  Fe  Fe8  1  0.598399  0.401447  0.500025  1
  Fe  Fe9  1  0.899921  0.098474  0.500047  1
  Fe  Fe10  1  0.901212  0.402544  0.803773  1
  Fe  Fe11  1  0.597906  0.099260  0.196104  1
  Co  Co12  1  0.397346  0.896015  0.792909  1
  Co  Co13  1  0.104497  0.603134  0.207130  1
  Co  Co14  1  0.103539  0.896234  0.499825  1
  Si  Si15  1  0.287423  0.285806  0.583957  1
  Si  Si16  1  0.713195  0.711741  0.416049  1
  Si  Si17  1  0.709005  0.291806  0.999942  1
  Si  Si18  1  0.291069  0.709204  0.999961  1
  Si  Si19  1  0.987881  0.285431  0.295270  1
  Si  Si20  1  0.992736  0.695649  0.703300  1
  Si  Si21  1  0.714483  0.012032  0.704926  1
  Si  Si22  1  0.304616  0.007659  0.296554  1
  Si  Si23  1  0.520407  0.928248  0.403662  1
  Si  Si24  1  0.514961  0.108536  0.594590  1
  Si  Si25  1  0.071453  0.479322  0.596389  1
  Si  Si26  1  0.891643  0.485206  0.405383  1
  Si  Si27  1  0.750937  0.751087  0.999898  1
  Si  Si28  1  0.249243  0.249375  0.000049  1
  Ni  Ni29  1  0.397331  0.601105  0.500365  1
