# generated using pymatgen
data_Dy3HoVOs7
_symmetry_space_group_name_H-M   'P 1'
_cell_length_a   5.24365765
_cell_length_b   5.24365722
_cell_length_c   8.87887401
_cell_angle_alpha   89.99438409
_cell_angle_beta   90.00561438
_cell_angle_gamma   117.29495828
_symmetry_Int_Tables_number   1
_chemical_formula_structural   Dy3HoVOs7
_chemical_formula_sum   'Dy3 Ho1 V1 Os7'
_cell_volume   216.95065623
_cell_formula_units_Z   1
loop_
 _symmetry_equiv_pos_site_id
 _symmetry_equiv_pos_as_xyz
  1  'x, y, z'
loop_
 _atom_site_type_symbol
 _atom_site_label
 _atom_site_symmetry_multiplicity
 _atom_site_fract_x
 _atom_site_fract_y
 _atom_site_fract_z
 _atom_site_occupancy
  Dy  Dy0  1  0.330733  0.669267  0.436983  1
  Dy  Dy1  1  0.668336  0.331664  0.566034  1
  Dy  Dy2  1  0.668340  0.331660  0.934042  1
  Ho  Ho3  1  0.330683  0.669317  0.062956  1
  V  V4  1  0.834456  0.165544  0.249858  1
  Os  Os5  1  0.996050  0.003950  0.498578  1
  Os  Os6  1  0.996080  0.003920  0.001488  1
  Os  Os7  1  0.824492  0.651284  0.249770  1
  Os  Os8  1  0.348716  0.175508  0.249770  1
  Os  Os9  1  0.171364  0.828636  0.750214  1
  Os  Os10  1  0.174223  0.343474  0.750154  1
  Os  Os11  1  0.656526  0.825777  0.750154  1
