# generated using pymatgen
data_TaMn8NbAl2
_symmetry_space_group_name_H-M   'P 1'
_cell_length_a   4.72607400
_cell_length_b   4.72607301
_cell_length_c   7.82948000
_cell_angle_alpha   90.00000000
_cell_angle_beta   90.00000000
_cell_angle_gamma   120.00000694
_symmetry_Int_Tables_number   1
_chemical_formula_structural   TaMn8NbAl2
_chemical_formula_sum   'Ta1 Mn8 Nb1 Al2'
_cell_volume   151.44832145
_cell_formula_units_Z   1
loop_
 _symmetry_equiv_pos_site_id
 _symmetry_equiv_pos_as_xyz
  1  'x, y, z'
loop_
 _atom_site_type_symbol
 _atom_site_label
 _atom_site_symmetry_multiplicity
 _atom_site_fract_x
 _atom_site_fract_y
 _atom_site_fract_z
 _atom_site_occupancy
  Ta  Ta0  1  0.666667  0.333333  0.566784  1
  Mn  Mn1  1  0.173821  0.347640  0.750577  1
  Mn  Mn2  1  0.826062  0.173938  0.251437  1
  Mn  Mn3  1  0.347874  0.173938  0.251437  1
  Mn  Mn4  1  0.652360  0.826179  0.750577  1
  Mn  Mn5  1  0.000000  0.000000  0.992741  1
  Mn  Mn6  1  0.000000  0.000000  0.492677  1
  Mn  Mn7  1  0.826062  0.652126  0.251437  1
  Mn  Mn8  1  0.173821  0.826179  0.750577  1
  Nb  Nb9  1  0.333333  0.666667  0.067696  1
  Al  Al10  1  0.333333  0.666667  0.437167  1
  Al  Al11  1  0.666667  0.333333  0.936895  1
