# generated using pymatgen
data_Er10Cd2NiPd
_symmetry_space_group_name_H-M   'P 1'
_cell_length_a   9.54613650
_cell_length_b   9.46370349
_cell_length_c   9.45237600
_cell_angle_alpha   90.00000000
_cell_angle_beta   90.00000000
_cell_angle_gamma   119.84941266
_symmetry_Int_Tables_number   1
_chemical_formula_structural   Er10Cd2NiPd
_chemical_formula_sum   'Er20 Cd4 Ni2 Pd2'
_cell_volume   740.65744658
_cell_formula_units_Z   2
loop_
 _symmetry_equiv_pos_site_id
 _symmetry_equiv_pos_as_xyz
  1  'x, y, z'
loop_
 _atom_site_type_symbol
 _atom_site_label
 _atom_site_symmetry_multiplicity
 _atom_site_fract_x
 _atom_site_fract_y
 _atom_site_fract_z
 _atom_site_occupancy
  Er  Er0  1  0.981398  0.991351  0.470456  1
  Er  Er1  1  0.981398  0.991351  0.029544  1
  Er  Er2  1  0.555947  0.466942  0.250000  1
  Er  Er3  1  0.561041  0.088737  0.250000  1
  Er  Er4  1  0.920844  0.463198  0.250000  1
  Er  Er5  1  0.458366  0.540469  0.750000  1
  Er  Er6  1  0.459341  0.912668  0.750000  1
  Er  Er7  1  0.092340  0.546364  0.750000  1
  Er  Er8  1  0.211266  0.793613  0.437446  1
  Er  Er9  1  0.208362  0.417142  0.437169  1
  Er  Er10  1  0.573569  0.784788  0.437821  1
  Er  Er11  1  0.792882  0.212361  0.559874  1
  Er  Er12  1  0.793266  0.581705  0.558504  1
  Er  Er13  1  0.419882  0.208551  0.560221  1
  Er  Er14  1  0.792882  0.212361  0.940126  1
  Er  Er15  1  0.793266  0.581705  0.941496  1
  Er  Er16  1  0.419882  0.208551  0.939779  1
  Er  Er17  1  0.211266  0.793613  0.062554  1
  Er  Er18  1  0.208362  0.417142  0.062831  1
  Er  Er19  1  0.573569  0.784788  0.062179  1
  Cd  Cd20  1  0.246788  0.119583  0.250000  1
  Cd  Cd21  1  0.111507  0.893200  0.750000  1
  Cd  Cd22  1  0.109210  0.219759  0.750000  1
  Cd  Cd23  1  0.777021  0.887799  0.750000  1
  Ni  Ni24  1  0.329807  0.666102  0.250000  1
  Ni  Ni25  1  0.663938  0.333363  0.750000  1
  Pd  Pd26  1  0.881070  0.137841  0.250000  1
  Pd  Pd27  1  0.871531  0.744953  0.250000  1
