# generated using pymatgen
data_Sc4MnCo5Ru2
_symmetry_space_group_name_H-M   'P 1'
_cell_length_a   4.86297377
_cell_length_b   4.92865749
_cell_length_c   8.32167200
_cell_angle_alpha   90.00000000
_cell_angle_beta   90.00000000
_cell_angle_gamma   120.44782934
_symmetry_Int_Tables_number   1
_chemical_formula_structural   Sc4MnCo5Ru2
_chemical_formula_sum   'Sc4 Mn1 Co5 Ru2'
_cell_volume   171.94685701
_cell_formula_units_Z   1
loop_
 _symmetry_equiv_pos_site_id
 _symmetry_equiv_pos_as_xyz
  1  'x, y, z'
loop_
 _atom_site_type_symbol
 _atom_site_label
 _atom_site_symmetry_multiplicity
 _atom_site_fract_x
 _atom_site_fract_y
 _atom_site_fract_z
 _atom_site_occupancy
  Sc  Sc0  1  0.332493  0.666247  0.429660  1
  Sc  Sc1  1  0.664320  0.332159  0.565474  1
  Sc  Sc2  1  0.664320  0.332159  0.934526  1
  Sc  Sc3  1  0.332493  0.666247  0.070340  1
  Mn  Mn4  1  0.663094  0.831547  0.750000  1
  Co  Co5  1  0.829283  0.171627  0.250000  1
  Co  Co6  1  0.829283  0.657655  0.250000  1
  Co  Co7  1  0.342457  0.171228  0.250000  1
  Co  Co8  1  0.175925  0.829733  0.750000  1
  Co  Co9  1  0.175925  0.346193  0.750000  1
  Ru  Ru10  1  0.995204  0.997603  0.497923  1
  Ru  Ru11  1  0.995204  0.997603  0.002077  1
