# generated using pymatgen
data_DyYGe2Ru2C
_symmetry_space_group_name_H-M   'P 1'
_cell_length_a   5.89574822
_cell_length_b   5.89574814
_cell_length_c   6.92975767
_cell_angle_alpha   125.23318448
_cell_angle_beta   125.23318140
_cell_angle_gamma   40.95660393
_symmetry_Int_Tables_number   1
_chemical_formula_structural   DyYGe2Ru2C
_chemical_formula_sum   'Dy1 Y1 Ge2 Ru2 C1'
_cell_volume   124.40072274
_cell_formula_units_Z   1
loop_
 _symmetry_equiv_pos_site_id
 _symmetry_equiv_pos_as_xyz
  1  'x, y, z'
loop_
 _atom_site_type_symbol
 _atom_site_label
 _atom_site_symmetry_multiplicity
 _atom_site_fract_x
 _atom_site_fract_y
 _atom_site_fract_z
 _atom_site_occupancy
  Dy  Dy0  1  0.560922  0.560922  0.292155  1
  Y  Y1  1  0.438602  0.438602  0.707129  1
  Ge  Ge2  1  0.844222  0.844222  0.306358  1
  Ge  Ge3  1  0.155659  0.155659  0.693112  1
  Ru  Ru4  1  0.200676  0.200676  0.096384  1
  Ru  Ru5  1  0.799583  0.799583  0.903768  1
  C  C6  1  0.000335  0.000335  0.001097  1
