# generated using pymatgen
data_Ho8Th4TcRu3
_symmetry_space_group_name_H-M   'P 1'
_cell_length_a   6.34262548
_cell_length_b   7.26719537
_cell_length_c   9.48753300
_cell_angle_alpha   90.00000000
_cell_angle_beta   90.00000000
_cell_angle_gamma   89.93134408
_symmetry_Int_Tables_number   1
_chemical_formula_structural   Ho8Th4TcRu3
_chemical_formula_sum   'Ho8 Th4 Tc1 Ru3'
_cell_volume   437.30947964
_cell_formula_units_Z   1
loop_
 _symmetry_equiv_pos_site_id
 _symmetry_equiv_pos_as_xyz
  1  'x, y, z'
loop_
 _atom_site_type_symbol
 _atom_site_label
 _atom_site_symmetry_multiplicity
 _atom_site_fract_x
 _atom_site_fract_y
 _atom_site_fract_z
 _atom_site_occupancy
  Ho  Ho0  1  0.332600  0.675485  0.066418  1
  Ho  Ho1  1  0.167533  0.177043  0.433200  1
  Ho  Ho2  1  0.665550  0.324069  0.566373  1
  Ho  Ho3  1  0.836514  0.823704  0.933948  1
  Ho  Ho4  1  0.665550  0.324069  0.933627  1
  Ho  Ho5  1  0.836514  0.823704  0.566052  1
  Ho  Ho6  1  0.332600  0.675485  0.433582  1
  Ho  Ho7  1  0.167533  0.177043  0.066800  1
  Th  Th8  1  0.853842  0.547889  0.250000  1
  Th  Th9  1  0.646657  0.046716  0.250000  1
  Th  Th10  1  0.151195  0.452173  0.750000  1
  Th  Th11  1  0.350397  0.952285  0.750000  1
  Tc  Tc12  1  0.020029  0.869727  0.250000  1
  Ru  Ru13  1  0.472081  0.370305  0.250000  1
  Ru  Ru14  1  0.970112  0.130424  0.750000  1
  Ru  Ru15  1  0.531293  0.629882  0.750000  1
