# generated using pymatgen
data_Ba4Au4SeS3F4
_symmetry_space_group_name_H-M   'P 1'
_cell_length_a   6.38468101
_cell_length_b   9.29360900
_cell_length_c   6.34314401
_cell_angle_alpha   90.00000000
_cell_angle_beta   90.00656375
_cell_angle_gamma   90.00000000
_symmetry_Int_Tables_number   1
_chemical_formula_structural   Ba4Au4SeS3F4
_chemical_formula_sum   'Ba4 Au4 Se1 S3 F4'
_cell_volume   376.38141406
_cell_formula_units_Z   1
loop_
 _symmetry_equiv_pos_site_id
 _symmetry_equiv_pos_as_xyz
  1  'x, y, z'
loop_
 _atom_site_type_symbol
 _atom_site_label
 _atom_site_symmetry_multiplicity
 _atom_site_fract_x
 _atom_site_fract_y
 _atom_site_fract_z
 _atom_site_occupancy
  Ba  Ba0  1  0.500000  0.161989  0.249999  1
  Ba  Ba1  1  0.000000  0.841435  0.249999  1
  Ba  Ba2  1  0.000000  0.161117  0.750000  1
  Ba  Ba3  1  0.500000  0.840716  0.750000  1
  Au  Au4  1  0.750059  0.500154  0.246408  1
  Au  Au5  1  0.249939  0.500154  0.253592  1
  Au  Au6  1  0.743760  0.495378  0.745881  1
  Au  Au7  1  0.256238  0.495378  0.754120  1
  Se  Se8  1  0.000000  0.696683  0.750000  1
  S  S9  1  0.000000  0.310925  0.249999  1
  S  S10  1  0.500000  0.689275  0.249999  1
  S  S11  1  0.500000  0.302914  0.750000  1
  F  F12  1  0.749517  0.000985  0.000610  1
  F  F13  1  0.250481  0.000985  0.499391  1
  F  F14  1  0.749532  0.000957  0.499706  1
  F  F15  1  0.250466  0.000957  0.000295  1
