# generated using pymatgen
data_Y2Tm3Zr3(Ni4As3)4
_symmetry_space_group_name_H-M   'P 1'
_cell_length_a   12.67850600
_cell_length_b   12.67850489
_cell_length_c   3.88830800
_cell_angle_alpha   90.00000000
_cell_angle_beta   90.00000000
_cell_angle_gamma   120.00000289
_symmetry_Int_Tables_number   1
_chemical_formula_structural   Y2Tm3Zr3(Ni4As3)4
_chemical_formula_sum   'Y2 Tm3 Zr3 Ni16 As12'
_cell_volume   541.28675595
_cell_formula_units_Z   1
loop_
 _symmetry_equiv_pos_site_id
 _symmetry_equiv_pos_as_xyz
  1  'x, y, z'
loop_
 _atom_site_type_symbol
 _atom_site_label
 _atom_site_symmetry_multiplicity
 _atom_site_fract_x
 _atom_site_fract_y
 _atom_site_fract_z
 _atom_site_occupancy
  Y  Y0  1  0.333333  0.666667  0.000000  1
  Y  Y1  1  0.666667  0.333333  0.000000  1
  Tm  Tm2  1  0.182820  0.182820  0.500000  1
  Tm  Tm3  1  0.817180  0.000000  0.500000  1
  Tm  Tm4  1  0.000000  0.817180  0.500000  1
  Zr  Zr5  1  0.562019  0.562019  0.000000  1
  Zr  Zr6  1  0.437981  0.000000  0.000000  1
  Zr  Zr7  1  0.000000  0.437981  0.000000  1
  Ni  Ni8  1  0.724212  0.724212  0.500000  1
  Ni  Ni9  1  0.275788  0.000000  0.500000  1
  Ni  Ni10  1  0.000000  0.275788  0.500000  1
  Ni  Ni11  1  0.182425  0.374786  0.000000  1
  Ni  Ni12  1  0.625214  0.807639  0.000000  1
  Ni  Ni13  1  0.192361  0.817575  0.000000  1
  Ni  Ni14  1  0.807639  0.625214  0.000000  1
  Ni  Ni15  1  0.817575  0.192361  0.000000  1
  Ni  Ni16  1  0.374786  0.182425  0.000000  1
  Ni  Ni17  1  0.360896  0.481860  0.500000  1
  Ni  Ni18  1  0.518140  0.879038  0.500000  1
  Ni  Ni19  1  0.120962  0.639104  0.500000  1
  Ni  Ni20  1  0.879038  0.518140  0.500000  1
  Ni  Ni21  1  0.639104  0.120962  0.500000  1
  Ni  Ni22  1  0.481860  0.360896  0.500000  1
  Ni  Ni23  1  0.000000  0.000000  0.000000  1
  As  As24  1  0.822815  0.822815  0.000000  1
  As  As25  1  0.177185  0.000000  0.000000  1
  As  As26  1  0.000000  0.177185  0.000000  1
  As  As27  1  0.172009  0.479258  0.500000  1
  As  As28  1  0.520742  0.692751  0.500000  1
  As  As29  1  0.307249  0.827991  0.500000  1
  As  As30  1  0.692751  0.520742  0.500000  1
  As  As31  1  0.827991  0.307249  0.500000  1
  As  As32  1  0.479258  0.172009  0.500000  1
  As  As33  1  0.353959  0.353959  0.000000  1
  As  As34  1  0.646041  0.000000  0.000000  1
  As  As35  1  0.000000  0.646041  0.000000  1
