# generated using pymatgen
data_Zr3TiPt2C
_symmetry_space_group_name_H-M   'P 1'
_cell_length_a   8.77332757
_cell_length_b   8.77332735
_cell_length_c   8.77332800
_cell_angle_alpha   60.00000508
_cell_angle_beta   60.00000590
_cell_angle_gamma   60.00000093
_symmetry_Int_Tables_number   1
_chemical_formula_structural   Zr3TiPt2C
_chemical_formula_sum   'Zr12 Ti4 Pt8 C4'
_cell_volume   477.50517874
_cell_formula_units_Z   4
loop_
 _symmetry_equiv_pos_site_id
 _symmetry_equiv_pos_as_xyz
  1  'x, y, z'
loop_
 _atom_site_type_symbol
 _atom_site_label
 _atom_site_symmetry_multiplicity
 _atom_site_fract_x
 _atom_site_fract_y
 _atom_site_fract_z
 _atom_site_occupancy
  Zr  Zr0  1  0.813187  0.813187  0.186813  1
  Zr  Zr1  1  0.186813  0.186813  0.813187  1
  Zr  Zr2  1  0.813187  0.186813  0.813187  1
  Zr  Zr3  1  0.186813  0.813187  0.186813  1
  Zr  Zr4  1  0.186813  0.813187  0.813187  1
  Zr  Zr5  1  0.813187  0.186813  0.186813  1
  Zr  Zr6  1  0.436813  0.436813  0.063187  1
  Zr  Zr7  1  0.063187  0.063187  0.436813  1
  Zr  Zr8  1  0.436813  0.063187  0.436813  1
  Zr  Zr9  1  0.063187  0.436813  0.063187  1
  Zr  Zr10  1  0.063187  0.436813  0.436813  1
  Zr  Zr11  1  0.436813  0.063187  0.063187  1
  Ti  Ti12  1  0.125000  0.625000  0.625000  1
  Ti  Ti13  1  0.625000  0.125000  0.625000  1
  Ti  Ti14  1  0.625000  0.625000  0.125000  1
  Ti  Ti15  1  0.625000  0.625000  0.625000  1
  Pt  Pt16  1  0.756408  0.414530  0.414530  1
  Pt  Pt17  1  0.414530  0.756408  0.414530  1
  Pt  Pt18  1  0.414530  0.414530  0.756408  1
  Pt  Pt19  1  0.414530  0.414530  0.414530  1
  Pt  Pt20  1  0.493592  0.835470  0.835470  1
  Pt  Pt21  1  0.835470  0.493592  0.835470  1
  Pt  Pt22  1  0.835470  0.835470  0.493592  1
  Pt  Pt23  1  0.835470  0.835470  0.835470  1
  C  C24  1  0.625000  0.125000  0.125000  1
  C  C25  1  0.125000  0.625000  0.125000  1
  C  C26  1  0.125000  0.125000  0.625000  1
  C  C27  1  0.125000  0.125000  0.125000  1
