# generated using pymatgen
data_Ho9Er11CoBi8Ir3
_symmetry_space_group_name_H-M   'P 1'
_cell_length_a   7.94752487
_cell_length_b   8.96378600
_cell_length_c   12.43493900
_cell_angle_alpha   90.00000000
_cell_angle_beta   90.18620400
_cell_angle_gamma   90.00000000
_symmetry_Int_Tables_number   1
_chemical_formula_structural   Ho9Er11CoBi8Ir3
_chemical_formula_sum   'Ho9 Er11 Co1 Bi8 Ir3'
_cell_volume   885.85928449
_cell_formula_units_Z   1
loop_
 _symmetry_equiv_pos_site_id
 _symmetry_equiv_pos_as_xyz
  1  'x, y, z'
loop_
 _atom_site_type_symbol
 _atom_site_label
 _atom_site_symmetry_multiplicity
 _atom_site_fract_x
 _atom_site_fract_y
 _atom_site_fract_z
 _atom_site_occupancy
  Ho  Ho0  1  0.657760  0.750000  0.699969  1
  Ho  Ho1  1  0.338421  0.250000  0.292905  1
  Ho  Ho2  1  0.161269  0.250000  0.793009  1
  Ho  Ho3  1  0.838906  0.750000  0.206887  1
  Ho  Ho4  1  0.123383  0.750000  0.808160  1
  Ho  Ho5  1  0.875050  0.250000  0.191433  1
  Ho  Ho6  1  0.624525  0.250000  0.691407  1
  Ho  Ho7  1  0.380510  0.750000  0.314455  1
  Ho  Ho8  1  0.446731  0.250000  0.001198  1
  Er  Er9  1  0.556385  0.750000  0.997469  1
  Er  Er10  1  0.055277  0.250000  0.501472  1
  Er  Er11  1  0.946786  0.750000  0.498475  1
  Er  Er12  1  0.825557  0.457146  0.932996  1
  Er  Er13  1  0.175508  0.542239  0.066883  1
  Er  Er14  1  0.325311  0.543908  0.565766  1
  Er  Er15  1  0.175508  0.957761  0.066883  1
  Er  Er16  1  0.672972  0.464393  0.435609  1
  Er  Er17  1  0.825557  0.042854  0.932996  1
  Er  Er18  1  0.672972  0.035607  0.435609  1
  Er  Er19  1  0.325311  0.956092  0.565766  1
  Co  Co20  1  0.567760  0.750000  0.492221  1
  Bi  Bi21  1  0.932645  0.008717  0.672015  1
  Bi  Bi22  1  0.066189  0.990858  0.327753  1
  Bi  Bi23  1  0.434063  0.990528  0.826547  1
  Bi  Bi24  1  0.066189  0.509142  0.327753  1
  Bi  Bi25  1  0.565672  0.007933  0.173532  1
  Bi  Bi26  1  0.932645  0.491283  0.672015  1
  Bi  Bi27  1  0.565672  0.492067  0.173532  1
  Bi  Bi28  1  0.434063  0.509472  0.826547  1
  Ir  Ir29  1  0.929309  0.750000  0.991875  1
  Ir  Ir30  1  0.072219  0.250000  0.008895  1
  Ir  Ir31  1  0.429874  0.250000  0.507967  1
