# generated using pymatgen
data_Tb2ThAl2GaNi3
_symmetry_space_group_name_H-M   'P 1'
_cell_length_a   7.19190600
_cell_length_b   7.02611891
_cell_length_c   3.85776100
_cell_angle_alpha   90.00000000
_cell_angle_beta   90.00000000
_cell_angle_gamma   120.78366224
_symmetry_Int_Tables_number   1
_chemical_formula_structural   Tb2ThAl2GaNi3
_chemical_formula_sum   'Tb2 Th1 Al2 Ga1 Ni3'
_cell_volume   167.47172849
_cell_formula_units_Z   1
loop_
 _symmetry_equiv_pos_site_id
 _symmetry_equiv_pos_as_xyz
  1  'x, y, z'
loop_
 _atom_site_type_symbol
 _atom_site_label
 _atom_site_symmetry_multiplicity
 _atom_site_fract_x
 _atom_site_fract_y
 _atom_site_fract_z
 _atom_site_occupancy
  Tb  Tb0  1  0.997552  0.414062  0.500000  1
  Tb  Tb1  1  0.583489  0.585938  0.500000  1
  Th  Th2  1  0.423574  0.000000  0.500000  1
  Al  Al3  1  0.993043  0.758243  0.000000  1
  Al  Al4  1  0.234800  0.241757  0.000000  1
  Ga  Ga5  1  0.771490  0.000000  0.000000  1
  Ni  Ni6  1  0.329264  0.673279  0.000000  1
  Ni  Ni7  1  0.655987  0.326721  0.000000  1
  Ni  Ni8  1  0.010801  0.000000  0.500000  1
