# generated using pymatgen
data_NdPa7(ZnRh)8
_symmetry_space_group_name_H-M   'P 1'
_cell_length_a   3.80955100
_cell_length_b   7.45430149
_cell_length_c   16.30578378
_cell_angle_alpha   90.53347783
_cell_angle_beta   90.00000000
_cell_angle_gamma   90.00000000
_symmetry_Int_Tables_number   1
_chemical_formula_structural   NdPa7(ZnRh)8
_chemical_formula_sum   'Nd1 Pa7 Zn8 Rh8'
_cell_volume   463.02410346
_cell_formula_units_Z   1
loop_
 _symmetry_equiv_pos_site_id
 _symmetry_equiv_pos_as_xyz
  1  'x, y, z'
loop_
 _atom_site_type_symbol
 _atom_site_label
 _atom_site_symmetry_multiplicity
 _atom_site_fract_x
 _atom_site_fract_y
 _atom_site_fract_z
 _atom_site_occupancy
  Nd  Nd0  1  0.250000  0.553550  0.786706  1
  Pa  Pa1  1  0.250000  0.168504  0.939847  1
  Pa  Pa2  1  0.250000  0.676375  0.560132  1
  Pa  Pa3  1  0.750000  0.335467  0.439792  1
  Pa  Pa4  1  0.750000  0.942654  0.284994  1
  Pa  Pa5  1  0.750000  0.829555  0.061779  1
  Pa  Pa6  1  0.750000  0.441380  0.215712  1
  Pa  Pa7  1  0.250000  0.052868  0.714960  1
  Zn  Zn8  1  0.750000  0.014007  0.556648  1
  Zn  Zn9  1  0.250000  0.613533  0.343911  1
  Zn  Zn10  1  0.750000  0.388077  0.656493  1
  Zn  Zn11  1  0.250000  0.492941  0.062572  1
  Zn  Zn12  1  0.750000  0.502759  0.939653  1
  Zn  Zn13  1  0.250000  0.997344  0.438229  1
  Zn  Zn14  1  0.250000  0.114816  0.156031  1
  Zn  Zn15  1  0.750000  0.873667  0.845086  1
  Rh  Rh16  1  0.750000  0.736377  0.440733  1
  Rh  Rh17  1  0.250000  0.242354  0.314555  1
  Rh  Rh18  1  0.750000  0.223315  0.815968  1
  Rh  Rh19  1  0.750000  0.779855  0.675700  1
  Rh  Rh20  1  0.250000  0.272444  0.557108  1
  Rh  Rh21  1  0.250000  0.743728  0.187137  1
  Rh  Rh22  1  0.750000  0.234770  0.057332  1
  Rh  Rh23  1  0.250000  0.769661  0.948921  1
