# generated using pymatgen
data_Nb12Al8ZnCu(RhC2)2
_symmetry_space_group_name_H-M   'P 1'
_cell_length_a   8.33844553
_cell_length_b   8.33464974
_cell_length_c   8.33464800
_cell_angle_alpha   59.99999898
_cell_angle_beta   60.01505624
_cell_angle_gamma   60.01505733
_symmetry_Int_Tables_number   1
_chemical_formula_structural   Nb12Al8ZnCu(RhC2)2
_chemical_formula_sum   'Nb12 Al8 Zn1 Cu1 Rh2 C4'
_cell_volume   409.67882020
_cell_formula_units_Z   1
loop_
 _symmetry_equiv_pos_site_id
 _symmetry_equiv_pos_as_xyz
  1  'x, y, z'
loop_
 _atom_site_type_symbol
 _atom_site_label
 _atom_site_symmetry_multiplicity
 _atom_site_fract_x
 _atom_site_fract_y
 _atom_site_fract_z
 _atom_site_occupancy
  Nb  Nb0  1  0.566749  0.934357  0.564537  1
  Nb  Nb1  1  0.315700  0.683945  0.684931  1
  Nb  Nb2  1  0.684579  0.314945  0.314916  1
  Nb  Nb3  1  0.315929  0.684315  0.315441  1
  Nb  Nb4  1  0.684579  0.685560  0.314916  1
  Nb  Nb5  1  0.315700  0.315424  0.684931  1
  Nb  Nb6  1  0.565421  0.564440  0.935084  1
  Nb  Nb7  1  0.934300  0.566055  0.565069  1
  Nb  Nb8  1  0.565421  0.935055  0.935084  1
  Nb  Nb9  1  0.934300  0.934576  0.565069  1
  Nb  Nb10  1  0.683251  0.315643  0.685463  1
  Nb  Nb11  1  0.934071  0.565685  0.934559  1
  Al  Al12  1  0.922520  0.913363  0.912425  1
  Al  Al13  1  0.998207  0.334202  0.333388  1
  Al  Al14  1  0.327480  0.998308  0.337575  1
  Al  Al15  1  0.326703  0.337039  0.999218  1
  Al  Al16  1  0.922520  0.251692  0.912425  1
  Al  Al17  1  0.923297  0.912961  0.250782  1
  Al  Al18  1  0.251793  0.915798  0.916612  1
  Al  Al19  1  0.327480  0.336637  0.337575  1
  Zn  Zn20  1  0.625000  0.125000  0.125000  1
  Cu  Cu21  1  0.125000  0.125000  0.625000  1
  Rh  Rh22  1  0.125000  0.125000  0.125000  1
  Rh  Rh23  1  0.125000  0.625000  0.125000  1
  C  C24  1  0.625000  0.625000  0.625000  1
  C  C25  1  0.125000  0.625000  0.625000  1
  C  C26  1  0.625000  0.125000  0.625000  1
  C  C27  1  0.625000  0.625000  0.125000  1
