# generated using pymatgen
data_Pa5TiRh10
_symmetry_space_group_name_H-M   'P 1'
_cell_length_a   5.82156476
_cell_length_b   5.82156438
_cell_length_c   8.87209100
_cell_angle_alpha   90.00000000
_cell_angle_beta   90.00000000
_cell_angle_gamma   103.73408132
_symmetry_Int_Tables_number   1
_chemical_formula_structural   Pa5TiRh10
_chemical_formula_sum   'Pa5 Ti1 Rh10'
_cell_volume   292.08357238
_cell_formula_units_Z   1
loop_
 _symmetry_equiv_pos_site_id
 _symmetry_equiv_pos_as_xyz
  1  'x, y, z'
loop_
 _atom_site_type_symbol
 _atom_site_label
 _atom_site_symmetry_multiplicity
 _atom_site_fract_x
 _atom_site_fract_y
 _atom_site_fract_z
 _atom_site_occupancy
  Pa  Pa0  1  0.383418  0.383418  0.250000  1
  Pa  Pa1  1  0.799587  0.214169  0.503868  1
  Pa  Pa2  1  0.214169  0.799587  0.996132  1
  Pa  Pa3  1  0.214169  0.799587  0.503868  1
  Pa  Pa4  1  0.799587  0.214169  0.996132  1
  Ti  Ti5  1  0.600627  0.600627  0.750000  1
  Rh  Rh6  1  0.705739  0.705739  0.023303  1
  Rh  Rh7  1  0.705739  0.705739  0.476697  1
  Rh  Rh8  1  0.315382  0.315382  0.938802  1
  Rh  Rh9  1  0.315382  0.315382  0.561198  1
  Rh  Rh10  1  0.500323  0.010997  0.750000  1
  Rh  Rh11  1  0.503732  0.952292  0.250000  1
  Rh  Rh12  1  0.992549  0.992549  0.250000  1
  Rh  Rh13  1  0.986309  0.986309  0.750000  1
  Rh  Rh14  1  0.010997  0.500323  0.750000  1
  Rh  Rh15  1  0.952292  0.503732  0.250000  1
