# generated using pymatgen
data_Y3Ho5Cd2(SnAu4)2
_symmetry_space_group_name_H-M   'P 1'
_cell_length_a   8.00485106
_cell_length_b   8.00485106
_cell_length_c   7.34815718
_cell_angle_alpha   90.01806273
_cell_angle_beta   89.98193727
_cell_angle_gamma   90.11402252
_symmetry_Int_Tables_number   1
_chemical_formula_structural   Y3Ho5Cd2(SnAu4)2
_chemical_formula_sum   'Y3 Ho5 Cd2 Sn2 Au8'
_cell_volume   470.85159538
_cell_formula_units_Z   1
loop_
 _symmetry_equiv_pos_site_id
 _symmetry_equiv_pos_as_xyz
  1  'x, y, z'
loop_
 _atom_site_type_symbol
 _atom_site_label
 _atom_site_symmetry_multiplicity
 _atom_site_fract_x
 _atom_site_fract_y
 _atom_site_fract_z
 _atom_site_occupancy
  Y  Y0  1  0.839373  0.159385  0.500028  1
  Y  Y1  1  0.159385  0.839373  0.499972  1
  Y  Y2  1  0.340254  0.340254  0.000000  1
  Ho  Ho3  1  0.659176  0.659176  0.000000  1
  Ho  Ho4  1  0.681606  0.681606  0.500000  1
  Ho  Ho5  1  0.319260  0.319260  0.500000  1
  Ho  Ho6  1  0.181333  0.818821  0.999953  1
  Ho  Ho7  1  0.818821  0.181333  0.000047  1
  Cd  Cd8  1  0.499946  0.000074  0.249984  1
  Cd  Cd9  1  0.000074  0.499946  0.750016  1
  Sn  Sn10  1  0.499982  0.000080  0.749997  1
  Sn  Sn11  1  0.000080  0.499982  0.250003  1
  Au  Au12  1  0.625146  0.369042  0.271089  1
  Au  Au13  1  0.376491  0.632446  0.271008  1
  Au  Au14  1  0.124238  0.131431  0.771836  1
  Au  Au15  1  0.874583  0.867333  0.774123  1
  Au  Au16  1  0.369042  0.625146  0.728911  1
  Au  Au17  1  0.632446  0.376491  0.728992  1
  Au  Au18  1  0.867333  0.874583  0.225877  1
  Au  Au19  1  0.131431  0.124238  0.228164  1
