# generated using pymatgen
data_Tb15CeCd2(HgRu2)2
_symmetry_space_group_name_H-M   'P 1'
_cell_length_a   9.69228881
_cell_length_b   9.69240766
_cell_length_c   9.69240774
_cell_angle_alpha   59.40310277
_cell_angle_beta   59.39050469
_cell_angle_gamma   59.39050653
_symmetry_Int_Tables_number   1
_chemical_formula_structural   Tb15CeCd2(HgRu2)2
_chemical_formula_sum   'Tb15 Ce1 Cd2 Hg2 Ru4'
_cell_volume   634.96644786
_cell_formula_units_Z   1
loop_
 _symmetry_equiv_pos_site_id
 _symmetry_equiv_pos_as_xyz
  1  'x, y, z'
loop_
 _atom_site_type_symbol
 _atom_site_label
 _atom_site_symmetry_multiplicity
 _atom_site_fract_x
 _atom_site_fract_y
 _atom_site_fract_z
 _atom_site_occupancy
  Tb  Tb0  1  0.561597  0.561887  0.939782  1
  Tb  Tb1  1  0.937509  0.561455  0.938979  1
  Tb  Tb2  1  0.561318  0.938367  0.938367  1
  Tb  Tb3  1  0.937509  0.938979  0.561455  1
  Tb  Tb4  1  0.561597  0.939782  0.561887  1
  Tb  Tb5  1  0.938019  0.562102  0.562102  1
  Tb  Tb6  1  0.189805  0.190122  0.811740  1
  Tb  Tb7  1  0.811101  0.189039  0.811389  1
  Tb  Tb8  1  0.188199  0.811671  0.811670  1
  Tb  Tb9  1  0.811101  0.811390  0.189039  1
  Tb  Tb10  1  0.189804  0.811740  0.190121  1
  Tb  Tb11  1  0.810591  0.190941  0.190941  1
  Tb  Tb12  1  0.346806  0.346421  0.956126  1
  Tb  Tb13  1  0.346806  0.956126  0.346421  1
  Tb  Tb14  1  0.954082  0.347221  0.347221  1
  Ce  Ce15  1  0.341998  0.342034  0.342034  1
  Cd  Cd16  1  0.259888  0.579185  0.579185  1
  Cd  Cd17  1  0.578976  0.579612  0.579612  1
  Hg  Hg18  1  0.582893  0.585051  0.247491  1
  Hg  Hg19  1  0.582893  0.247491  0.585051  1
  Ru  Ru20  1  0.146868  0.147234  0.575212  1
  Ru  Ru21  1  0.146868  0.575212  0.147234  1
  Ru  Ru22  1  0.574801  0.147383  0.147383  1
  Ru  Ru23  1  0.138968  0.139559  0.139559  1
