# generated using pymatgen
data_DyYEr(Ga2Ni3)3
_symmetry_space_group_name_H-M   'P 1'
_cell_length_a   8.78751500
_cell_length_b   8.78751542
_cell_length_c   4.10167600
_cell_angle_alpha   90.00000000
_cell_angle_beta   90.00000000
_cell_angle_gamma   119.99999465
_symmetry_Int_Tables_number   1
_chemical_formula_structural   DyYEr(Ga2Ni3)3
_chemical_formula_sum   'Dy1 Y1 Er1 Ga6 Ni9'
_cell_volume   274.29897588
_cell_formula_units_Z   1
loop_
 _symmetry_equiv_pos_site_id
 _symmetry_equiv_pos_as_xyz
  1  'x, y, z'
loop_
 _atom_site_type_symbol
 _atom_site_label
 _atom_site_symmetry_multiplicity
 _atom_site_fract_x
 _atom_site_fract_y
 _atom_site_fract_z
 _atom_site_occupancy
  Dy  Dy0  1  0.666667  0.333333  0.500000  1
  Y  Y1  1  0.333333  0.666667  0.500000  1
  Er  Er2  1  0.000000  0.000000  0.000000  1
  Ga  Ga3  1  0.480541  0.480600  0.000000  1
  Ga  Ga4  1  0.519400  0.999941  0.000000  1
  Ga  Ga5  1  0.000059  0.519459  0.000000  1
  Ga  Ga6  1  0.729893  0.729906  0.500000  1
  Ga  Ga7  1  0.270094  0.999987  0.500000  1
  Ga  Ga8  1  0.000013  0.270107  0.500000  1
  Ni  Ni9  1  0.826671  0.199180  0.000000  1
  Ni  Ni10  1  0.800820  0.627491  0.000000  1
  Ni  Ni11  1  0.372509  0.173329  0.000000  1
  Ni  Ni12  1  0.199045  0.826962  0.000000  1
  Ni  Ni13  1  0.627917  0.800955  0.000000  1
  Ni  Ni14  1  0.173038  0.372083  0.000000  1
  Ni  Ni15  1  0.292342  0.292181  0.500000  1
  Ni  Ni16  1  0.707819  0.000161  0.500000  1
  Ni  Ni17  1  0.999839  0.707658  0.500000  1
