# generated using pymatgen
data_ThNi10(B3Ir)2
_symmetry_space_group_name_H-M   'P 1'
_cell_length_a   6.22707862
_cell_length_b   6.09361572
_cell_length_c   6.09361560
_cell_angle_alpha   104.06387470
_cell_angle_beta   104.35898502
_cell_angle_gamma   104.35900128
_symmetry_Int_Tables_number   1
_chemical_formula_structural   ThNi10(B3Ir)2
_chemical_formula_sum   'Th1 Ni10 B6 Ir2'
_cell_volume   205.26386100
_cell_formula_units_Z   1
loop_
 _symmetry_equiv_pos_site_id
 _symmetry_equiv_pos_as_xyz
  1  'x, y, z'
loop_
 _atom_site_type_symbol
 _atom_site_label
 _atom_site_symmetry_multiplicity
 _atom_site_fract_x
 _atom_site_fract_y
 _atom_site_fract_z
 _atom_site_occupancy
  Th  Th0  1  0.000000  0.995891  0.004109  1
  Ni  Ni1  1  0.500000  0.869512  0.130488  1
  Ni  Ni2  1  0.866169  0.495500  0.140125  1
  Ni  Ni3  1  0.500000  0.134373  0.865627  1
  Ni  Ni4  1  0.133831  0.859875  0.504500  1
  Ni  Ni5  1  0.800360  0.547200  0.541153  1
  Ni  Ni6  1  0.549320  0.544669  0.814026  1
  Ni  Ni7  1  0.540462  0.810961  0.544030  1
  Ni  Ni8  1  0.199640  0.458847  0.452800  1
  Ni  Ni9  1  0.459538  0.455970  0.189039  1
  Ni  Ni10  1  0.450680  0.185974  0.455331  1
  B  B11  1  0.350558  0.773259  0.768330  1
  B  B12  1  0.763883  0.758097  0.331445  1
  B  B13  1  0.762572  0.342199  0.771477  1
  B  B14  1  0.649442  0.231670  0.226741  1
  B  B15  1  0.237428  0.228523  0.657801  1
  B  B16  1  0.236117  0.668555  0.241903  1
  Ir  Ir17  1  0.865492  0.127741  0.488817  1
  Ir  Ir18  1  0.134508  0.511183  0.872259  1
