# generated using pymatgen
data_Sr3Pa(Pt2O7)2
_symmetry_space_group_name_H-M   'P 1'
_cell_length_a   7.37522011
_cell_length_b   7.50727550
_cell_length_c   7.37522000
_cell_angle_alpha   60.58019751
_cell_angle_beta   60.00000047
_cell_angle_gamma   60.58019483
_symmetry_Int_Tables_number   1
_chemical_formula_structural   Sr3Pa(Pt2O7)2
_chemical_formula_sum   'Sr3 Pa1 Pt4 O14'
_cell_volume   291.25325305
_cell_formula_units_Z   1
loop_
 _symmetry_equiv_pos_site_id
 _symmetry_equiv_pos_as_xyz
  1  'x, y, z'
loop_
 _atom_site_type_symbol
 _atom_site_label
 _atom_site_symmetry_multiplicity
 _atom_site_fract_x
 _atom_site_fract_y
 _atom_site_fract_z
 _atom_site_occupancy
  Sr  Sr0  1  0.125000  0.125000  0.625000  1
  Sr  Sr1  1  0.625000  0.125000  0.125000  1
  Sr  Sr2  1  0.125000  0.125000  0.125000  1
  Pa  Pa3  1  0.125000  0.625000  0.125000  1
  Pt  Pt4  1  0.625000  0.625000  0.125000  1
  Pt  Pt5  1  0.625000  0.125000  0.625000  1
  Pt  Pt6  1  0.125000  0.625000  0.625000  1
  Pt  Pt7  1  0.625000  0.625000  0.625000  1
  O  O8  1  0.233292  0.300125  0.233292  1
  O  O9  1  0.016708  0.949875  0.016708  1
  O  O10  1  0.547063  0.950155  0.547063  1
  O  O11  1  0.290236  0.697225  0.290236  1
  O  O12  1  0.527695  0.552775  0.959764  1
  O  O13  1  0.959764  0.552775  0.527695  1
  O  O14  1  0.547063  0.950155  0.955720  1
  O  O15  1  0.955720  0.950155  0.547063  1
  O  O16  1  0.959764  0.552775  0.959764  1
  O  O17  1  0.702937  0.299845  0.294280  1
  O  O18  1  0.290236  0.697225  0.722305  1
  O  O19  1  0.702937  0.299845  0.702937  1
  O  O20  1  0.294280  0.299845  0.702937  1
  O  O21  1  0.722305  0.697225  0.290236  1
