# generated using pymatgen
data_HoHf5(SnRu2)6
_symmetry_space_group_name_H-M   'P 1'
_cell_length_a   4.57887900
_cell_length_b   6.46148100
_cell_length_c   13.71294700
_cell_angle_alpha   90.00000000
_cell_angle_beta   90.00077581
_cell_angle_gamma   90.00000000
_symmetry_Int_Tables_number   1
_chemical_formula_structural   HoHf5(SnRu2)6
_chemical_formula_sum   'Ho1 Hf5 Sn6 Ru12'
_cell_volume   405.71590768
_cell_formula_units_Z   1
loop_
 _symmetry_equiv_pos_site_id
 _symmetry_equiv_pos_as_xyz
  1  'x, y, z'
loop_
 _atom_site_type_symbol
 _atom_site_label
 _atom_site_symmetry_multiplicity
 _atom_site_fract_x
 _atom_site_fract_y
 _atom_site_fract_z
 _atom_site_occupancy
  Ho  Ho0  1  0.000000  0.000000  0.000000  1
  Hf  Hf1  1  0.499956  0.499981  0.167016  1
  Hf  Hf2  1  0.999959  0.000026  0.333244  1
  Hf  Hf3  1  0.500001  0.500000  0.500000  1
  Hf  Hf4  1  0.000041  0.999974  0.666756  1
  Hf  Hf5  1  0.500042  0.500019  0.832984  1
  Sn  Sn6  1  0.000000  0.500000  0.000000  1
  Sn  Sn7  1  0.499959  0.000004  0.166280  1
  Sn  Sn8  1  0.999953  0.500006  0.334320  1
  Sn  Sn9  1  0.500001  0.000000  0.500000  1
  Sn  Sn10  1  0.000047  0.499994  0.665679  1
  Sn  Sn11  1  0.500042  0.999996  0.833720  1
  Ru  Ru12  1  0.500114  0.259842  0.999995  1
  Ru  Ru13  1  0.499888  0.740158  0.000005  1
  Ru  Ru14  1  0.999903  0.254426  0.171058  1
  Ru  Ru15  1  0.000019  0.745576  0.171052  1
  Ru  Ru16  1  0.500007  0.249295  0.334314  1
  Ru  Ru17  1  0.499906  0.750711  0.334311  1
  Ru  Ru18  1  0.999927  0.250132  0.500001  1
  Ru  Ru19  1  0.000073  0.749869  0.499999  1
  Ru  Ru20  1  0.500095  0.249288  0.665689  1
  Ru  Ru21  1  0.499994  0.750704  0.665686  1
  Ru  Ru22  1  0.999981  0.254423  0.828948  1
  Ru  Ru23  1  0.000097  0.745573  0.828942  1
