# generated using pymatgen
data_CoSi4Pt
_symmetry_space_group_name_H-M   'P 1'
_cell_length_a   7.01215987
_cell_length_b   7.01215990
_cell_length_c   7.01215837
_cell_angle_alpha   32.23810622
_cell_angle_beta   32.23810317
_cell_angle_gamma   32.23811184
_symmetry_Int_Tables_number   1
_chemical_formula_structural   CoSi4Pt
_chemical_formula_sum   'Co1 Si4 Pt1'
_cell_volume   87.20523542
_cell_formula_units_Z   1
loop_
 _symmetry_equiv_pos_site_id
 _symmetry_equiv_pos_as_xyz
  1  'x, y, z'
loop_
 _atom_site_type_symbol
 _atom_site_label
 _atom_site_symmetry_multiplicity
 _atom_site_fract_x
 _atom_site_fract_y
 _atom_site_fract_z
 _atom_site_occupancy
  Co  Co0  1  0.000000  0.000000  0.000000  1
  Si  Si1  1  0.630163  0.630163  0.630163  1
  Si  Si2  1  0.114100  0.114100  0.114100  1
  Si  Si3  1  0.885900  0.885900  0.885900  1
  Si  Si4  1  0.369837  0.369837  0.369837  1
  Pt  Pt5  1  0.500000  0.500000  0.500000  1
