# generated using pymatgen
data_Na20Ta2AlGaP12
_symmetry_space_group_name_H-M   'P 1'
_cell_length_a   7.36896263
_cell_length_b   8.13797303
_cell_length_c   15.47412038
_cell_angle_alpha   59.14666242
_cell_angle_beta   89.96279674
_cell_angle_gamma   90.00616325
_symmetry_Int_Tables_number   1
_chemical_formula_structural   Na20Ta2AlGaP12
_chemical_formula_sum   'Na20 Ta2 Al1 Ga1 P12'
_cell_volume   796.63622137
_cell_formula_units_Z   1
loop_
 _symmetry_equiv_pos_site_id
 _symmetry_equiv_pos_as_xyz
  1  'x, y, z'
loop_
 _atom_site_type_symbol
 _atom_site_label
 _atom_site_symmetry_multiplicity
 _atom_site_fract_x
 _atom_site_fract_y
 _atom_site_fract_z
 _atom_site_occupancy
  Na  Na0  1  0.738210  0.941195  0.245723  1
  Na  Na1  1  0.261721  0.941108  0.746675  1
  Na  Na2  1  0.772777  0.055348  0.761100  1
  Na  Na3  1  0.227135  0.055338  0.260882  1
  Na  Na4  1  0.265975  0.245385  0.418703  1
  Na  Na5  1  0.734940  0.245045  0.918994  1
  Na  Na6  1  0.217608  0.751966  0.579305  1
  Na  Na7  1  0.783253  0.752430  0.079206  1
  Na  Na8  1  0.087791  0.345393  0.582621  1
  Na  Na9  1  0.912135  0.344673  0.083659  1
  Na  Na10  1  0.404940  0.656681  0.418524  1
  Na  Na11  1  0.594500  0.656201  0.918744  1
  Na  Na12  1  0.596568  0.335994  0.242902  1
  Na  Na13  1  0.403602  0.335236  0.743347  1
  Na  Na14  1  0.908183  0.664329  0.759872  1
  Na  Na15  1  0.091454  0.662935  0.260388  1
  Na  Na16  1  0.771497  0.424199  0.407482  1
  Na  Na17  1  0.228662  0.423362  0.907654  1
  Na  Na18  1  0.741014  0.578386  0.589262  1
  Na  Na19  1  0.257966  0.578754  0.089301  1
  Ta  Ta20  1  0.615944  0.989774  0.578440  1
  Ta  Ta21  1  0.384031  0.989641  0.078161  1
  Al  Al22  1  0.888497  0.012350  0.415986  1
  Ga  Ga23  1  0.109352  0.012676  0.915049  1
  P  P24  1  0.979719  0.312644  0.274429  1
  P  P25  1  0.019937  0.315914  0.772909  1
  P  P26  1  0.520281  0.694951  0.723821  1
  P  P27  1  0.479355  0.695044  0.223743  1
  P  P28  1  0.942768  0.019046  0.571855  1
  P  P29  1  0.056959  0.019101  0.073008  1
  P  P30  1  0.548167  0.979971  0.428926  1
  P  P31  1  0.455654  0.979716  0.928917  1
  P  P32  1  0.002713  0.729658  0.421663  1
  P  P33  1  0.996733  0.726880  0.921630  1
  P  P34  1  0.491530  0.264525  0.578580  1
  P  P35  1  0.508428  0.264145  0.078538  1
