# generated using pymatgen
data_Li12Ca9La3(ReO6)8
_symmetry_space_group_name_H-M   'P 1'
_cell_length_a   10.81181523
_cell_length_b   10.83639216
_cell_length_c   10.83988478
_cell_angle_alpha   109.51960358
_cell_angle_beta   109.42828705
_cell_angle_gamma   109.40797645
_symmetry_Int_Tables_number   1
_chemical_formula_structural   Li12Ca9La3(ReO6)8
_chemical_formula_sum   'Li12 Ca9 La3 Re8 O48'
_cell_volume   978.35199243
_cell_formula_units_Z   1
loop_
 _symmetry_equiv_pos_site_id
 _symmetry_equiv_pos_as_xyz
  1  'x, y, z'
loop_
 _atom_site_type_symbol
 _atom_site_label
 _atom_site_symmetry_multiplicity
 _atom_site_fract_x
 _atom_site_fract_y
 _atom_site_fract_z
 _atom_site_occupancy
  Li  Li0  1  0.251937  0.879148  0.128162  1
  Li  Li1  1  0.376226  0.249025  0.128183  1
  Li  Li2  1  0.625299  0.876237  0.250350  1
  Li  Li3  1  0.125063  0.374077  0.250303  1
  Li  Li4  1  0.751494  0.626412  0.377303  1
  Li  Li5  1  0.125803  0.750890  0.377286  1
  Li  Li6  1  0.249848  0.372841  0.621596  1
  Li  Li7  1  0.871741  0.248747  0.621568  1
  Li  Li8  1  0.876714  0.627623  0.748314  1
  Li  Li9  1  0.371600  0.120674  0.748304  1
  Li  Li10  1  0.749886  0.123616  0.874407  1
  Li  Li11  1  0.624491  0.750774  0.874385  1
  Ca  Ca12  1  0.750157  0.373175  0.126896  1
  Ca  Ca13  1  0.876739  0.753726  0.126901  1
  Ca  Ca14  1  0.874800  0.124797  0.249598  1
  Ca  Ca15  1  0.377547  0.627545  0.255087  1
  Ca  Ca16  1  0.625233  0.249602  0.374580  1
  Ca  Ca17  1  0.249344  0.124985  0.374576  1
  Ca  Ca18  1  0.748535  0.874001  0.624698  1
  Ca  Ca19  1  0.376163  0.750704  0.624707  1
  Ca  Ca20  1  0.124769  0.874768  0.749539  1
  La  La21  1  0.622822  0.372825  0.745650  1
  La  La22  1  0.122262  0.244475  0.872317  1
  La  La23  1  0.250042  0.627836  0.872312  1
  Re  Re24  1  0.998310  0.996144  0.001910  1
  Re  Re25  1  0.503599  0.005771  0.001924  1
  Re  Re26  1  0.505902  0.502969  0.006914  1
  Re  Re27  1  0.001009  0.503940  0.006911  1
  Re  Re28  1  0.498750  0.501316  0.496399  1
  Re  Re29  1  0.996706  0.498161  0.493682  1
  Re  Re30  1  0.497636  0.995079  0.496391  1
  Re  Re31  1  0.997026  0.995539  0.493712  1
  O  O32  1  0.691331  0.112071  0.019533  1
  O  O33  1  0.828193  0.907451  0.019519  1
  O  O34  1  0.390754  0.409056  0.081537  1
  O  O35  1  0.190783  0.672481  0.081538  1
  O  O36  1  0.112488  0.422685  0.092626  1
  O  O37  1  0.480147  0.669946  0.092628  1
  O  O38  1  0.520788  0.192233  0.111823  1
  O  O39  1  0.091030  0.919593  0.111822  1
  O  O40  1  0.692464  0.579855  0.172540  1
  O  O41  1  0.980085  0.592686  0.172543  1
  O  O42  1  0.609624  0.016885  0.187418  1
  O  O43  1  0.077786  0.170525  0.187413  1
  O  O44  1  0.827787  0.919118  0.307600  1
  O  O45  1  0.979821  0.388480  0.307579  1
  O  O46  1  0.422411  0.311086  0.330674  1
  O  O47  1  0.408252  0.019576  0.330664  1
  O  O48  1  0.809221  0.481187  0.387891  1
  O  O49  1  0.078692  0.906724  0.387912  1
  O  O50  1  0.579004  0.888512  0.407419  1
  O  O51  1  0.328404  0.518902  0.407417  1
  O  O52  1  0.591350  0.611222  0.419192  1
  O  O53  1  0.327833  0.807964  0.419188  1
  O  O54  1  0.890508  0.312632  0.482228  1
  O  O55  1  0.091739  0.169616  0.482247  1
  O  O56  1  0.110537  0.689079  0.519365  1
  O  O57  1  0.908835  0.830293  0.519363  1
  O  O58  1  0.669036  0.190876  0.578239  1
  O  O59  1  0.409203  0.387375  0.578247  1
  O  O60  1  0.672360  0.481894  0.591364  1
  O  O61  1  0.418987  0.109464  0.591347  1
  O  O62  1  0.190095  0.518137  0.608929  1
  O  O63  1  0.918848  0.090804  0.608938  1
  O  O64  1  0.591358  0.982401  0.670140  1
  O  O65  1  0.578777  0.687751  0.670135  1
  O  O66  1  0.169271  0.078313  0.690250  1
  O  O67  1  0.020982  0.611928  0.690233  1
  O  O68  1  0.389291  0.979664  0.811005  1
  O  O69  1  0.921707  0.831333  0.811001  1
  O  O70  1  0.310789  0.420869  0.830124  1
  O  O71  1  0.019321  0.409245  0.830120  1
  O  O72  1  0.479336  0.809337  0.888179  1
  O  O73  1  0.908830  0.078837  0.888174  1
  O  O74  1  0.891398  0.581097  0.909239  1
  O  O75  1  0.517832  0.328133  0.909235  1
  O  O76  1  0.810827  0.330590  0.922669  1
  O  O77  1  0.611833  0.592073  0.922664  1
  O  O78  1  0.172222  0.091617  0.982613  1
  O  O79  1  0.310386  0.890992  0.982609  1
