# generated using pymatgen
data_HoTm5TcRu
_symmetry_space_group_name_H-M   'P 1'
_cell_length_a   6.21754069
_cell_length_b   7.32288130
_cell_length_c   8.99115100
_cell_angle_alpha   90.00000000
_cell_angle_beta   90.00000000
_cell_angle_gamma   90.12446412
_symmetry_Int_Tables_number   1
_chemical_formula_structural   HoTm5TcRu
_chemical_formula_sum   'Ho2 Tm10 Tc2 Ru2'
_cell_volume   409.36894804
_cell_formula_units_Z   2
loop_
 _symmetry_equiv_pos_site_id
 _symmetry_equiv_pos_as_xyz
  1  'x, y, z'
loop_
 _atom_site_type_symbol
 _atom_site_label
 _atom_site_symmetry_multiplicity
 _atom_site_fract_x
 _atom_site_fract_y
 _atom_site_fract_z
 _atom_site_occupancy
  Ho  Ho0  1  0.623762  0.038722  0.250000  1
  Ho  Ho1  1  0.369887  0.957987  0.750000  1
  Tm  Tm2  1  0.335143  0.675990  0.062877  1
  Tm  Tm3  1  0.163256  0.177673  0.437088  1
  Tm  Tm4  1  0.663791  0.325153  0.562206  1
  Tm  Tm5  1  0.837684  0.823078  0.937796  1
  Tm  Tm6  1  0.663791  0.325153  0.937794  1
  Tm  Tm7  1  0.837684  0.823078  0.562204  1
  Tm  Tm8  1  0.335143  0.675990  0.437123  1
  Tm  Tm9  1  0.163256  0.177673  0.062912  1
  Tm  Tm10  1  0.875773  0.538937  0.250000  1
  Tm  Tm11  1  0.130809  0.457541  0.750000  1
  Tc  Tc12  1  0.039603  0.884725  0.250000  1
  Tc  Tc13  1  0.462131  0.385923  0.250000  1
  Ru  Ru14  1  0.958863  0.117100  0.750000  1
  Ru  Ru15  1  0.539425  0.615278  0.750000  1
