# generated using pymatgen
data_Y5HgRh2
_symmetry_space_group_name_H-M   'P 1'
_cell_length_a   7.80558900
_cell_length_b   7.80558900
_cell_length_c   13.33583500
_cell_angle_alpha   90.00000000
_cell_angle_beta   90.00000000
_cell_angle_gamma   90.00000000
_symmetry_Int_Tables_number   1
_chemical_formula_structural   Y5HgRh2
_chemical_formula_sum   'Y20 Hg4 Rh8'
_cell_volume   812.51534809
_cell_formula_units_Z   4
loop_
 _symmetry_equiv_pos_site_id
 _symmetry_equiv_pos_as_xyz
  1  'x, y, z'
loop_
 _atom_site_type_symbol
 _atom_site_label
 _atom_site_symmetry_multiplicity
 _atom_site_fract_x
 _atom_site_fract_y
 _atom_site_fract_z
 _atom_site_occupancy
  Y  Y0  1  0.842358  0.840590  0.886799  1
  Y  Y1  1  0.159410  0.157642  0.613201  1
  Y  Y2  1  0.842358  0.159410  0.386799  1
  Y  Y3  1  0.157642  0.840590  0.386799  1
  Y  Y4  1  0.340590  0.342358  0.386799  1
  Y  Y5  1  0.840590  0.157642  0.113201  1
  Y  Y6  1  0.340590  0.657642  0.886799  1
  Y  Y7  1  0.159410  0.842358  0.113201  1
  Y  Y8  1  0.500000  0.000000  0.751465  1
  Y  Y9  1  0.000000  0.500000  0.248535  1
  Y  Y10  1  0.342358  0.659410  0.613201  1
  Y  Y11  1  0.657642  0.659410  0.113201  1
  Y  Y12  1  0.657642  0.340590  0.613201  1
  Y  Y13  1  0.000000  0.500000  0.748535  1
  Y  Y14  1  0.840590  0.842358  0.613201  1
  Y  Y15  1  0.659410  0.342358  0.886799  1
  Y  Y16  1  0.157642  0.159410  0.886799  1
  Y  Y17  1  0.500000  0.000000  0.251465  1
  Y  Y18  1  0.659410  0.657642  0.386799  1
  Y  Y19  1  0.342358  0.340590  0.113201  1
  Hg  Hg20  1  0.000000  0.500000  0.000034  1
  Hg  Hg21  1  0.500000  0.000000  0.999966  1
  Hg  Hg22  1  0.500000  0.000000  0.499966  1
  Hg  Hg23  1  0.000000  0.500000  0.500034  1
  Rh  Rh24  1  0.640756  0.359244  0.250000  1
  Rh  Rh25  1  0.359244  0.640756  0.250000  1
  Rh  Rh26  1  0.140756  0.140756  0.250000  1
  Rh  Rh27  1  0.359244  0.359244  0.750000  1
  Rh  Rh28  1  0.140756  0.859244  0.750000  1
  Rh  Rh29  1  0.859244  0.859244  0.250000  1
  Rh  Rh30  1  0.640756  0.640756  0.750000  1
  Rh  Rh31  1  0.859244  0.140756  0.750000  1
