# generated using pymatgen
data_Pr3Lu(Sc3Ga4)2
_symmetry_space_group_name_H-M   'P 1'
_cell_length_a   7.44556922
_cell_length_b   7.69736900
_cell_length_c   14.70384800
_cell_angle_alpha   90.00000000
_cell_angle_beta   89.98615618
_cell_angle_gamma   90.00000000
_symmetry_Int_Tables_number   1
_chemical_formula_structural   Pr3Lu(Sc3Ga4)2
_chemical_formula_sum   'Pr6 Lu2 Sc12 Ga16'
_cell_volume   842.69652637
_cell_formula_units_Z   2
loop_
 _symmetry_equiv_pos_site_id
 _symmetry_equiv_pos_as_xyz
  1  'x, y, z'
loop_
 _atom_site_type_symbol
 _atom_site_label
 _atom_site_symmetry_multiplicity
 _atom_site_fract_x
 _atom_site_fract_y
 _atom_site_fract_z
 _atom_site_occupancy
  Pr  Pr0  1  0.487587  0.676811  0.904217  1
  Pr  Pr1  1  0.485513  0.674869  0.590529  1
  Pr  Pr2  1  0.985513  0.825131  0.590529  1
  Pr  Pr3  1  0.987587  0.823189  0.904217  1
  Pr  Pr4  1  0.513465  0.325074  0.096633  1
  Pr  Pr5  1  0.013465  0.174926  0.096633  1
  Lu  Lu6  1  0.011432  0.184165  0.402422  1
  Lu  Lu7  1  0.511432  0.315835  0.402422  1
  Sc  Sc8  1  0.331475  0.173922  0.622333  1
  Sc  Sc9  1  0.672200  0.829149  0.375952  1
  Sc  Sc10  1  0.661841  0.003199  0.748901  1
  Sc  Sc11  1  0.172200  0.670851  0.375952  1
  Sc  Sc12  1  0.830311  0.328045  0.874905  1
  Sc  Sc13  1  0.831475  0.326078  0.622333  1
  Sc  Sc14  1  0.838732  0.498206  0.253668  1
  Sc  Sc15  1  0.338732  0.001794  0.253668  1
  Sc  Sc16  1  0.330311  0.171955  0.874905  1
  Sc  Sc17  1  0.170228  0.672849  0.128814  1
  Sc  Sc18  1  0.670228  0.827151  0.128814  1
  Sc  Sc19  1  0.161841  0.496801  0.748901  1
  Ga  Ga20  1  0.284965  0.879204  0.747786  1
  Ga  Ga21  1  0.469818  0.618215  0.254205  1
  Ga  Ga22  1  0.031855  0.122924  0.749126  1
  Ga  Ga23  1  0.531855  0.377076  0.749126  1
  Ga  Ga24  1  0.156541  0.456250  0.537186  1
  Ga  Ga25  1  0.969818  0.881785  0.254205  1
  Ga  Ga26  1  0.715777  0.125194  0.254794  1
  Ga  Ga27  1  0.845005  0.540295  0.042860  1
  Ga  Ga28  1  0.345005  0.959705  0.042860  1
  Ga  Ga29  1  0.157035  0.461158  0.960082  1
  Ga  Ga30  1  0.656541  0.043750  0.537186  1
  Ga  Ga31  1  0.336218  0.973085  0.455587  1
  Ga  Ga32  1  0.836218  0.526915  0.455587  1
  Ga  Ga33  1  0.784965  0.620796  0.747786  1
  Ga  Ga34  1  0.215777  0.374806  0.254794  1
  Ga  Ga35  1  0.657035  0.038842  0.960082  1
