# generated using pymatgen
data_Lu3Ga3CuPt2
_symmetry_space_group_name_H-M   'P 1'
_cell_length_a   7.15660700
_cell_length_b   7.15660721
_cell_length_c   3.77468000
_cell_angle_alpha   90.00000000
_cell_angle_beta   90.00000000
_cell_angle_gamma   119.99999440
_symmetry_Int_Tables_number   1
_chemical_formula_structural   Lu3Ga3CuPt2
_chemical_formula_sum   'Lu3 Ga3 Cu1 Pt2'
_cell_volume   167.42686560
_cell_formula_units_Z   1
loop_
 _symmetry_equiv_pos_site_id
 _symmetry_equiv_pos_as_xyz
  1  'x, y, z'
loop_
 _atom_site_type_symbol
 _atom_site_label
 _atom_site_symmetry_multiplicity
 _atom_site_fract_x
 _atom_site_fract_y
 _atom_site_fract_z
 _atom_site_occupancy
  Lu  Lu0  1  0.000000  0.409519  0.500000  1
  Lu  Lu1  1  0.590481  0.590481  0.500000  1
  Lu  Lu2  1  0.409519  0.000000  0.500000  1
  Ga  Ga3  1  0.000000  0.754045  0.000000  1
  Ga  Ga4  1  0.245955  0.245955  0.000000  1
  Ga  Ga5  1  0.754045  0.000000  0.000000  1
  Cu  Cu6  1  0.000000  0.000000  0.500000  1
  Pt  Pt7  1  0.333333  0.666667  0.000000  1
  Pt  Pt8  1  0.666667  0.333333  0.000000  1
