# generated using pymatgen
data_TbY3(Al3Ir)6
_symmetry_space_group_name_H-M   'P 1'
_cell_length_a   7.55597321
_cell_length_b   7.55542819
_cell_length_c   9.49453800
_cell_angle_alpha   90.00000000
_cell_angle_beta   90.00000000
_cell_angle_gamma   119.53481218
_symmetry_Int_Tables_number   1
_chemical_formula_structural   TbY3(Al3Ir)6
_chemical_formula_sum   'Tb1 Y3 Al18 Ir6'
_cell_volume   471.59664555
_cell_formula_units_Z   1
loop_
 _symmetry_equiv_pos_site_id
 _symmetry_equiv_pos_as_xyz
  1  'x, y, z'
loop_
 _atom_site_type_symbol
 _atom_site_label
 _atom_site_symmetry_multiplicity
 _atom_site_fract_x
 _atom_site_fract_y
 _atom_site_fract_z
 _atom_site_occupancy
  Tb  Tb0  1  0.329355  0.005232  0.750000  1
  Y  Y1  1  0.994631  0.670515  0.250000  1
  Y  Y2  1  0.005252  0.329458  0.750000  1
  Y  Y3  1  0.670580  0.994684  0.250000  1
  Al  Al4  1  0.128323  0.128363  0.250000  1
  Al  Al5  1  0.871517  0.871513  0.750000  1
  Al  Al6  1  0.001024  0.334869  0.073261  1
  Al  Al7  1  0.998878  0.664986  0.926726  1
  Al  Al8  1  0.998878  0.664986  0.573274  1
  Al  Al9  1  0.334870  0.001044  0.426616  1
  Al  Al10  1  0.001024  0.334869  0.426739  1
  Al  Al11  1  0.665284  0.999000  0.573262  1
  Al  Al12  1  0.665284  0.999000  0.926738  1
  Al  Al13  1  0.334870  0.001044  0.073384  1
  Al  Al14  1  0.333496  0.333625  0.551614  1
  Al  Al15  1  0.666487  0.666492  0.448333  1
  Al  Al16  1  0.666487  0.666492  0.051667  1
  Al  Al17  1  0.333496  0.333625  0.948386  1
  Al  Al18  1  0.338982  0.547583  0.250000  1
  Al  Al19  1  0.661040  0.452516  0.750000  1
  Al  Al20  1  0.547638  0.339026  0.250000  1
  Al  Al21  1  0.452466  0.660979  0.750000  1
  Ir  Ir22  1  0.671917  0.328181  0.000074  1
  Ir  Ir23  1  0.328190  0.671913  0.000028  1
  Ir  Ir24  1  0.328190  0.671913  0.499972  1
  Ir  Ir25  1  0.671917  0.328181  0.499926  1
  Ir  Ir26  1  0.999961  0.999957  0.000039  1
  Ir  Ir27  1  0.999961  0.999957  0.499961  1
