# generated using pymatgen
data_DyTm15(AgRh)4
_symmetry_space_group_name_H-M   'P 1'
_cell_length_a   9.41226424
_cell_length_b   9.41226511
_cell_length_c   9.38576400
_cell_angle_alpha   60.09309544
_cell_angle_beta   60.09309239
_cell_angle_gamma   60.18065799
_symmetry_Int_Tables_number   1
_chemical_formula_structural   DyTm15(AgRh)4
_chemical_formula_sum   'Dy1 Tm15 Ag4 Rh4'
_cell_volume   589.58127122
_cell_formula_units_Z   1
loop_
 _symmetry_equiv_pos_site_id
 _symmetry_equiv_pos_as_xyz
  1  'x, y, z'
loop_
 _atom_site_type_symbol
 _atom_site_label
 _atom_site_symmetry_multiplicity
 _atom_site_fract_x
 _atom_site_fract_y
 _atom_site_fract_z
 _atom_site_occupancy
  Dy  Dy0  1  0.065110  0.065110  0.434890  1
  Tm  Tm1  1  0.435471  0.065369  0.434944  1
  Tm  Tm2  1  0.065369  0.435471  0.064217  1
  Tm  Tm3  1  0.060199  0.645655  0.647074  1
  Tm  Tm4  1  0.435030  0.435030  0.064970  1
  Tm  Tm5  1  0.645655  0.060199  0.647074  1
  Tm  Tm6  1  0.186966  0.813128  0.186160  1
  Tm  Tm7  1  0.187422  0.187422  0.812578  1
  Tm  Tm8  1  0.813339  0.813339  0.186661  1
  Tm  Tm9  1  0.435471  0.065369  0.064217  1
  Tm  Tm10  1  0.813128  0.186966  0.186160  1
  Tm  Tm11  1  0.065369  0.435471  0.434944  1
  Tm  Tm12  1  0.813128  0.186966  0.813746  1
  Tm  Tm13  1  0.186966  0.813128  0.813746  1
  Tm  Tm14  1  0.646166  0.646166  0.061530  1
  Tm  Tm15  1  0.646166  0.646166  0.646141  1
  Ag  Ag16  1  0.417475  0.417475  0.417608  1
  Ag  Ag17  1  0.746341  0.418627  0.417515  1
  Ag  Ag18  1  0.418627  0.746341  0.417515  1
  Ag  Ag19  1  0.417475  0.417475  0.747439  1
  Rh  Rh20  1  0.855636  0.855636  0.431774  1
  Rh  Rh21  1  0.855636  0.855636  0.856954  1
  Rh  Rh22  1  0.432620  0.855235  0.856073  1
  Rh  Rh23  1  0.855235  0.432620  0.856073  1
