# generated using pymatgen
data_Ho4Tm12In3HgRh4
_symmetry_space_group_name_H-M   'P 1'
_cell_length_a   9.53733252
_cell_length_b   9.54220310
_cell_length_c   9.54722457
_cell_angle_alpha   60.05066258
_cell_angle_beta   59.91337307
_cell_angle_gamma   59.94522109
_symmetry_Int_Tables_number   1
_chemical_formula_structural   Ho4Tm12In3HgRh4
_chemical_formula_sum   'Ho4 Tm12 In3 Hg1 Rh4'
_cell_volume   613.95756926
_cell_formula_units_Z   1
loop_
 _symmetry_equiv_pos_site_id
 _symmetry_equiv_pos_as_xyz
  1  'x, y, z'
loop_
 _atom_site_type_symbol
 _atom_site_label
 _atom_site_symmetry_multiplicity
 _atom_site_fract_x
 _atom_site_fract_y
 _atom_site_fract_z
 _atom_site_occupancy
  Ho  Ho0  1  0.061557  0.061641  0.438159  1
  Ho  Ho1  1  0.437128  0.065916  0.436227  1
  Ho  Ho2  1  0.062637  0.438059  0.061948  1
  Ho  Ho3  1  0.053144  0.647255  0.648078  1
  Tm  Tm4  1  0.437766  0.437645  0.064017  1
  Tm  Tm5  1  0.647517  0.053187  0.647536  1
  Tm  Tm6  1  0.189363  0.811905  0.188738  1
  Tm  Tm7  1  0.189101  0.188685  0.812651  1
  Tm  Tm8  1  0.809676  0.809344  0.191533  1
  Tm  Tm9  1  0.439655  0.060947  0.060037  1
  Tm  Tm10  1  0.812186  0.189085  0.188962  1
  Tm  Tm11  1  0.064614  0.438117  0.437279  1
  Tm  Tm12  1  0.809402  0.191311  0.810049  1
  Tm  Tm13  1  0.191386  0.809815  0.810605  1
  Tm  Tm14  1  0.647969  0.647213  0.052813  1
  Tm  Tm15  1  0.650994  0.651562  0.651637  1
  In  In16  1  0.747181  0.417797  0.417951  1
  In  In17  1  0.418584  0.747437  0.417124  1
  In  In18  1  0.418351  0.416877  0.748064  1
  Hg  Hg19  1  0.413714  0.414005  0.412671  1
  Rh  Rh20  1  0.857854  0.858874  0.426412  1
  Rh  Rh21  1  0.855317  0.858825  0.859020  1
  Rh  Rh22  1  0.427665  0.858251  0.859337  1
  Rh  Rh23  1  0.857239  0.426243  0.859150  1
