# generated using pymatgen
data_SrLaCdSbO6
_symmetry_space_group_name_H-M   'P 1'
_cell_length_a   8.27826589
_cell_length_b   8.35420294
_cell_length_c   8.35405974
_cell_angle_alpha   87.90129459
_cell_angle_beta   90.11290642
_cell_angle_gamma   89.88700165
_symmetry_Int_Tables_number   1
_chemical_formula_structural   SrLaCdSbO6
_chemical_formula_sum   'Sr4 La4 Cd4 Sb4 O24'
_cell_volume   577.36280774
_cell_formula_units_Z   4
loop_
 _symmetry_equiv_pos_site_id
 _symmetry_equiv_pos_as_xyz
  1  'x, y, z'
loop_
 _atom_site_type_symbol
 _atom_site_label
 _atom_site_symmetry_multiplicity
 _atom_site_fract_x
 _atom_site_fract_y
 _atom_site_fract_z
 _atom_site_occupancy
  Sr  Sr0  1  0.248248  0.030099  0.018102  1
  Sr  Sr1  1  0.248248  0.530098  0.518102  1
  Sr  Sr2  1  0.748248  0.481899  0.969904  1
  Sr  Sr3  1  0.748248  0.981899  0.469903  1
  La  La4  1  0.246256  0.520438  0.037874  1
  La  La5  1  0.246256  0.020438  0.537875  1
  La  La6  1  0.746254  0.962126  0.979558  1
  La  La7  1  0.746255  0.462126  0.479558  1
  Cd  Cd8  1  0.498773  0.245666  0.247152  1
  Cd  Cd9  1  0.998773  0.752848  0.254334  1
  Cd  Cd10  1  0.498773  0.745666  0.747152  1
  Cd  Cd11  1  0.998773  0.252848  0.754334  1
  Sb  Sb12  1  0.499818  0.250809  0.751414  1
  Sb  Sb13  1  0.499818  0.750810  0.251414  1
  Sb  Sb14  1  0.999817  0.748584  0.749192  1
  Sb  Sb15  1  0.999817  0.248584  0.249193  1
  O  O16  1  0.768097  0.321197  0.226249  1
  O  O17  1  0.768097  0.821198  0.726249  1
  O  O18  1  0.268095  0.773753  0.178800  1
  O  O19  1  0.268096  0.273752  0.678801  1
  O  O20  1  0.062007  0.478544  0.289076  1
  O  O21  1  0.062007  0.978544  0.789076  1
  O  O22  1  0.562005  0.710918  0.021452  1
  O  O23  1  0.562006  0.210919  0.521453  1
  O  O24  1  0.453535  0.516525  0.294075  1
  O  O25  1  0.453535  0.016525  0.794075  1
  O  O26  1  0.953535  0.705926  0.983478  1
  O  O27  1  0.953535  0.205926  0.483478  1
  O  O28  1  0.054002  0.302822  0.017799  1
  O  O29  1  0.054002  0.802822  0.517799  1
  O  O30  1  0.554002  0.482197  0.697181  1
  O  O31  1  0.554001  0.982196  0.197181  1
  O  O32  1  0.439198  0.309358  0.977494  1
  O  O33  1  0.439199  0.809358  0.477494  1
  O  O34  1  0.939196  0.522510  0.690646  1
  O  O35  1  0.939196  0.022510  0.190646  1
  O  O36  1  0.730072  0.212268  0.828487  1
  O  O37  1  0.730072  0.712268  0.328486  1
  O  O38  1  0.230070  0.671513  0.787732  1
  O  O39  1  0.230069  0.171514  0.287733  1
