# generated using pymatgen
data_SmNiPN
_symmetry_space_group_name_H-M   'P 1'
_cell_length_a   3.67359900
_cell_length_b   3.67359900
_cell_length_c   7.79909800
_cell_angle_alpha   90.00000000
_cell_angle_beta   90.00000000
_cell_angle_gamma   90.00000000
_symmetry_Int_Tables_number   1
_chemical_formula_structural   SmNiPN
_chemical_formula_sum   'Sm2 Ni2 P2 N2'
_cell_volume   105.25139819
_cell_formula_units_Z   2
loop_
 _symmetry_equiv_pos_site_id
 _symmetry_equiv_pos_as_xyz
  1  'x, y, z'
loop_
 _atom_site_type_symbol
 _atom_site_label
 _atom_site_symmetry_multiplicity
 _atom_site_fract_x
 _atom_site_fract_y
 _atom_site_fract_z
 _atom_site_occupancy
  Sm  Sm0  1  0.000000  0.500000  0.330478  1
  Sm  Sm1  1  0.500000  0.000000  0.669522  1
  Ni  Ni2  1  0.000000  0.000000  0.000000  1
  Ni  Ni3  1  0.500000  0.500000  0.000000  1
  P  P4  1  0.000000  0.500000  0.846687  1
  P  P5  1  0.500000  0.000000  0.153313  1
  N  N6  1  0.000000  0.500000  0.629937  1
  N  N7  1  0.500000  0.000000  0.370063  1
