# generated using pymatgen
data_Nd5(Hg2Ir)2
_symmetry_space_group_name_H-M   'P 1'
_cell_length_a   3.81337900
_cell_length_b   8.15764000
_cell_length_c   18.42778000
_cell_angle_alpha   90.00000000
_cell_angle_beta   90.00000000
_cell_angle_gamma   90.00000000
_symmetry_Int_Tables_number   1
_chemical_formula_structural   Nd5(Hg2Ir)2
_chemical_formula_sum   'Nd10 Hg8 Ir4'
_cell_volume   573.25456945
_cell_formula_units_Z   2
loop_
 _symmetry_equiv_pos_site_id
 _symmetry_equiv_pos_as_xyz
  1  'x, y, z'
loop_
 _atom_site_type_symbol
 _atom_site_label
 _atom_site_symmetry_multiplicity
 _atom_site_fract_x
 _atom_site_fract_y
 _atom_site_fract_z
 _atom_site_occupancy
  Nd  Nd0  1  0.000000  0.111382  0.410963  1
  Nd  Nd1  1  0.000000  0.888618  0.589037  1
  Nd  Nd2  1  0.000000  0.388618  0.910963  1
  Nd  Nd3  1  0.000000  0.611382  0.089037  1
  Nd  Nd4  1  0.000000  0.238660  0.218410  1
  Nd  Nd5  1  0.000000  0.761340  0.781590  1
  Nd  Nd6  1  0.000000  0.261340  0.718410  1
  Nd  Nd7  1  0.000000  0.738660  0.281590  1
  Nd  Nd8  1  0.000000  0.000000  0.000000  1
  Nd  Nd9  1  0.000000  0.500000  0.500000  1
  Hg  Hg10  1  0.500000  0.421539  0.353203  1
  Hg  Hg11  1  0.500000  0.578461  0.646797  1
  Hg  Hg12  1  0.500000  0.078461  0.853203  1
  Hg  Hg13  1  0.500000  0.921539  0.146797  1
  Hg  Hg14  1  0.500000  0.289926  0.063916  1
  Hg  Hg15  1  0.500000  0.710074  0.936084  1
  Hg  Hg16  1  0.500000  0.210074  0.563916  1
  Hg  Hg17  1  0.500000  0.789926  0.436084  1
  Ir  Ir18  1  0.500000  0.020753  0.302355  1
  Ir  Ir19  1  0.500000  0.979247  0.697645  1
  Ir  Ir20  1  0.500000  0.479247  0.802355  1
  Ir  Ir21  1  0.500000  0.520753  0.197645  1
