# generated using pymatgen
data_ThTc6SnO24
_symmetry_space_group_name_H-M   'P 1'
_cell_length_a   10.19871000
_cell_length_b   10.19870955
_cell_length_c   6.30283300
_cell_angle_alpha   90.00000000
_cell_angle_beta   90.00000000
_cell_angle_gamma   119.99999498
_symmetry_Int_Tables_number   1
_chemical_formula_structural   ThTc6SnO24
_chemical_formula_sum   'Th1 Tc6 Sn1 O24'
_cell_volume   567.74970885
_cell_formula_units_Z   1
loop_
 _symmetry_equiv_pos_site_id
 _symmetry_equiv_pos_as_xyz
  1  'x, y, z'
loop_
 _atom_site_type_symbol
 _atom_site_label
 _atom_site_symmetry_multiplicity
 _atom_site_fract_x
 _atom_site_fract_y
 _atom_site_fract_z
 _atom_site_occupancy
  Th  Th0  1  0.666667  0.333333  0.750000  1
  Tc  Tc1  1  0.084237  0.390932  0.750000  1
  Tc  Tc2  1  0.390261  0.296397  0.250000  1
  Tc  Tc3  1  0.609068  0.693303  0.750000  1
  Tc  Tc4  1  0.906135  0.609739  0.250000  1
  Tc  Tc5  1  0.306697  0.915763  0.750000  1
  Tc  Tc6  1  0.703603  0.093865  0.250000  1
  Sn  Sn7  1  0.333333  0.666667  0.250000  1
  O  O8  1  0.494105  0.643239  0.525905  1
  O  O9  1  0.356761  0.850866  0.525905  1
  O  O10  1  0.831205  0.726819  0.250000  1
  O  O11  1  0.115912  0.850886  0.750000  1
  O  O12  1  0.273181  0.104386  0.250000  1
  O  O13  1  0.149114  0.265026  0.750000  1
  O  O14  1  0.508597  0.352341  0.024279  1
  O  O15  1  0.895614  0.168795  0.250000  1
  O  O16  1  0.100983  0.716373  0.250000  1
  O  O17  1  0.149134  0.505895  0.974095  1
  O  O18  1  0.149134  0.505895  0.525905  1
  O  O19  1  0.884047  0.294898  0.750000  1
  O  O20  1  0.283627  0.384609  0.250000  1
  O  O21  1  0.705102  0.589149  0.750000  1
  O  O22  1  0.843744  0.491403  0.475721  1
  O  O23  1  0.410851  0.115953  0.750000  1
  O  O24  1  0.647659  0.156256  0.024279  1
  O  O25  1  0.494105  0.643239  0.974095  1
  O  O26  1  0.356761  0.850866  0.974095  1
  O  O27  1  0.647659  0.156256  0.475721  1
  O  O28  1  0.508597  0.352341  0.475721  1
  O  O29  1  0.843744  0.491403  0.024279  1
  O  O30  1  0.734974  0.884088  0.750000  1
  O  O31  1  0.615391  0.899017  0.250000  1
