# generated using pymatgen
data_Pr11Nd5Cd4Pd3Ru
_symmetry_space_group_name_H-M   'P 1'
_cell_length_a   10.08532279
_cell_length_b   10.09230100
_cell_length_c   10.09229987
_cell_angle_alpha   59.61137295
_cell_angle_beta   59.60132524
_cell_angle_gamma   59.60132784
_symmetry_Int_Tables_number   1
_chemical_formula_structural   Pr11Nd5Cd4Pd3Ru
_chemical_formula_sum   'Pr11 Nd5 Cd4 Pd3 Ru1'
_cell_volume   719.83897847
_cell_formula_units_Z   1
loop_
 _symmetry_equiv_pos_site_id
 _symmetry_equiv_pos_as_xyz
  1  'x, y, z'
loop_
 _atom_site_type_symbol
 _atom_site_label
 _atom_site_symmetry_multiplicity
 _atom_site_fract_x
 _atom_site_fract_y
 _atom_site_fract_z
 _atom_site_occupancy
  Pr  Pr0  1  0.189066  0.807096  0.807096  1
  Pr  Pr1  1  0.188955  0.817067  0.189648  1
  Pr  Pr2  1  0.807182  0.189138  0.807373  1
  Pr  Pr3  1  0.188955  0.189648  0.817067  1
  Pr  Pr4  1  0.807182  0.807373  0.189138  1
  Pr  Pr5  1  0.935701  0.564271  0.564271  1
  Pr  Pr6  1  0.558760  0.936660  0.936660  1
  Pr  Pr7  1  0.564521  0.935946  0.564058  1
  Pr  Pr8  1  0.936624  0.558195  0.937138  1
  Pr  Pr9  1  0.564521  0.564058  0.935946  1
  Pr  Pr10  1  0.936624  0.937138  0.558195  1
  Nd  Nd11  1  0.352918  0.352209  0.352209  1
  Nd  Nd12  1  0.346635  0.346398  0.953243  1
  Nd  Nd13  1  0.346635  0.953243  0.346398  1
  Nd  Nd14  1  0.952677  0.346473  0.346473  1
  Nd  Nd15  1  0.816827  0.189527  0.189527  1
  Cd  Cd16  1  0.579220  0.579349  0.579349  1
  Cd  Cd17  1  0.580914  0.580395  0.259079  1
  Cd  Cd18  1  0.580914  0.259079  0.580395  1
  Cd  Cd19  1  0.259124  0.580743  0.580743  1
  Pd  Pd20  1  0.146473  0.146292  0.569464  1
  Pd  Pd21  1  0.146473  0.569464  0.146292  1
  Pd  Pd22  1  0.570345  0.146626  0.146626  1
  Ru  Ru23  1  0.142755  0.143616  0.143616  1
