# generated using pymatgen
data_Dy2(ThIr)3
_symmetry_space_group_name_H-M   'P 1'
_cell_length_a   6.53224600
_cell_length_b   8.37504170
_cell_length_c   8.37465936
_cell_angle_alpha   120.00150744
_cell_angle_beta   90.00000000
_cell_angle_gamma   90.00000000
_symmetry_Int_Tables_number   1
_chemical_formula_structural   Dy2(ThIr)3
_chemical_formula_sum   'Dy4 Th6 Ir6'
_cell_volume   396.77170654
_cell_formula_units_Z   2
loop_
 _symmetry_equiv_pos_site_id
 _symmetry_equiv_pos_as_xyz
  1  'x, y, z'
loop_
 _atom_site_type_symbol
 _atom_site_label
 _atom_site_symmetry_multiplicity
 _atom_site_fract_x
 _atom_site_fract_y
 _atom_site_fract_z
 _atom_site_occupancy
  Dy  Dy0  1  0.500000  0.333315  0.666642  1
  Dy  Dy1  1  0.500000  0.666674  0.333358  1
  Dy  Dy2  1  0.000000  0.666685  0.333358  1
  Dy  Dy3  1  0.000000  0.333327  0.666642  1
  Th  Th4  1  0.750005  0.254504  0.000000  1
  Th  Th5  1  0.749997  0.745497  0.745510  1
  Th  Th6  1  0.749997  0.999986  0.254490  1
  Th  Th7  1  0.250005  0.745496  0.000000  1
  Th  Th8  1  0.249997  0.254503  0.254490  1
  Th  Th9  1  0.249997  0.000014  0.745510  1
  Ir  Ir10  1  0.749995  0.618892  0.000000  1
  Ir  Ir11  1  0.750003  0.381104  0.381113  1
  Ir  Ir12  1  0.750003  0.999991  0.618887  1
  Ir  Ir13  1  0.249995  0.381108  0.000000  1
  Ir  Ir14  1  0.250003  0.618896  0.618887  1
  Ir  Ir15  1  0.250003  0.000009  0.381113  1
