# generated using pymatgen
data_Zr3CoAs2Ir2Ru
_symmetry_space_group_name_H-M   'P 1'
_cell_length_a   6.52452059
_cell_length_b   6.52452036
_cell_length_c   4.00843400
_cell_angle_alpha   90.00000000
_cell_angle_beta   90.00000000
_cell_angle_gamma   119.77490051
_symmetry_Int_Tables_number   1
_chemical_formula_structural   Zr3CoAs2Ir2Ru
_chemical_formula_sum   'Zr3 Co1 As2 Ir2 Ru1'
_cell_volume   148.10959438
_cell_formula_units_Z   1
loop_
 _symmetry_equiv_pos_site_id
 _symmetry_equiv_pos_as_xyz
  1  'x, y, z'
loop_
 _atom_site_type_symbol
 _atom_site_label
 _atom_site_symmetry_multiplicity
 _atom_site_fract_x
 _atom_site_fract_y
 _atom_site_fract_z
 _atom_site_occupancy
  Zr  Zr0  1  0.389812  0.389812  0.500000  1
  Zr  Zr1  1  0.608994  0.998795  0.500000  1
  Zr  Zr2  1  0.998795  0.608994  0.500000  1
  Co  Co3  1  0.999149  0.999149  0.500000  1
  As  As4  1  0.667505  0.336233  0.000000  1
  As  As5  1  0.336233  0.667505  0.000000  1
  Ir  Ir6  1  0.999361  0.235481  0.000000  1
  Ir  Ir7  1  0.235481  0.999361  0.000000  1
  Ru  Ru8  1  0.764670  0.764670  0.000000  1
