# generated using pymatgen
data_Y2Lu2Al17GaIr6
_symmetry_space_group_name_H-M   'P 1'
_cell_length_a   7.53281734
_cell_length_b   7.53281820
_cell_length_c   9.46515300
_cell_angle_alpha   90.00000000
_cell_angle_beta   90.00000000
_cell_angle_gamma   119.45994757
_symmetry_Int_Tables_number   1
_chemical_formula_structural   Y2Lu2Al17GaIr6
_chemical_formula_sum   'Y2 Lu2 Al17 Ga1 Ir6'
_cell_volume   467.63925602
_cell_formula_units_Z   1
loop_
 _symmetry_equiv_pos_site_id
 _symmetry_equiv_pos_as_xyz
  1  'x, y, z'
loop_
 _atom_site_type_symbol
 _atom_site_label
 _atom_site_symmetry_multiplicity
 _atom_site_fract_x
 _atom_site_fract_y
 _atom_site_fract_z
 _atom_site_occupancy
  Y  Y0  1  0.994153  0.673962  0.250000  1
  Y  Y1  1  0.673962  0.994153  0.250000  1
  Lu  Lu2  1  0.005185  0.327692  0.750000  1
  Lu  Lu3  1  0.327692  0.005185  0.750000  1
  Al  Al4  1  0.870886  0.870886  0.750000  1
  Al  Al5  1  0.001617  0.335483  0.071396  1
  Al  Al6  1  0.999398  0.664302  0.923714  1
  Al  Al7  1  0.999398  0.664302  0.576286  1
  Al  Al8  1  0.335483  0.001617  0.428604  1
  Al  Al9  1  0.001617  0.335483  0.428604  1
  Al  Al10  1  0.664302  0.999398  0.576286  1
  Al  Al11  1  0.664302  0.999398  0.923714  1
  Al  Al12  1  0.335483  0.001617  0.071396  1
  Al  Al13  1  0.332908  0.332908  0.556813  1
  Al  Al14  1  0.665689  0.665689  0.450303  1
  Al  Al15  1  0.665689  0.665689  0.049697  1
  Al  Al16  1  0.332908  0.332908  0.943187  1
  Al  Al17  1  0.338257  0.548690  0.250000  1
  Al  Al18  1  0.660766  0.450217  0.750000  1
  Al  Al19  1  0.548690  0.338257  0.250000  1
  Al  Al20  1  0.450217  0.660766  0.750000  1
  Ga  Ga21  1  0.134356  0.134356  0.250000  1
  Ir  Ir22  1  0.671015  0.327206  0.999134  1
  Ir  Ir23  1  0.327206  0.671015  0.999134  1
  Ir  Ir24  1  0.327206  0.671015  0.500866  1
  Ir  Ir25  1  0.671015  0.327206  0.500866  1
  Ir  Ir26  1  0.000299  0.000299  0.996104  1
  Ir  Ir27  1  0.000299  0.000299  0.503896  1
