# generated using pymatgen
data_Tm2Ga10Tc2Ir
_symmetry_space_group_name_H-M   'P 1'
_cell_length_a   9.04288100
_cell_length_b   9.04288100
_cell_length_c   6.27334500
_cell_angle_alpha   90.00000000
_cell_angle_beta   90.00000000
_cell_angle_gamma   90.00000000
_symmetry_Int_Tables_number   1
_chemical_formula_structural   Tm2Ga10Tc2Ir
_chemical_formula_sum   'Tm4 Ga20 Tc4 Ir2'
_cell_volume   512.99461183
_cell_formula_units_Z   2
loop_
 _symmetry_equiv_pos_site_id
 _symmetry_equiv_pos_as_xyz
  1  'x, y, z'
loop_
 _atom_site_type_symbol
 _atom_site_label
 _atom_site_symmetry_multiplicity
 _atom_site_fract_x
 _atom_site_fract_y
 _atom_site_fract_z
 _atom_site_occupancy
  Tm  Tm0  1  0.183038  0.316962  0.000000  1
  Tm  Tm1  1  0.683038  0.183038  0.000000  1
  Tm  Tm2  1  0.816962  0.683038  0.000000  1
  Tm  Tm3  1  0.316962  0.816962  0.000000  1
  Ga  Ga4  1  0.500000  0.000000  0.283952  1
  Ga  Ga5  1  0.500000  0.000000  0.716048  1
  Ga  Ga6  1  0.292605  0.560644  0.708399  1
  Ga  Ga7  1  0.000000  0.500000  0.283952  1
  Ga  Ga8  1  0.000000  0.500000  0.716048  1
  Ga  Ga9  1  0.060644  0.792605  0.708399  1
  Ga  Ga10  1  0.207395  0.060644  0.291601  1
  Ga  Ga11  1  0.060644  0.792605  0.291601  1
  Ga  Ga12  1  0.707395  0.439356  0.708399  1
  Ga  Ga13  1  0.207395  0.060644  0.708399  1
  Ga  Ga14  1  0.939356  0.207395  0.708399  1
  Ga  Ga15  1  0.707395  0.439356  0.291601  1
  Ga  Ga16  1  0.560644  0.707395  0.291601  1
  Ga  Ga17  1  0.939356  0.207395  0.291601  1
  Ga  Ga18  1  0.560644  0.707395  0.708399  1
  Ga  Ga19  1  0.792605  0.939356  0.291601  1
  Ga  Ga20  1  0.439356  0.292605  0.708399  1
  Ga  Ga21  1  0.792605  0.939356  0.708399  1
  Ga  Ga22  1  0.439356  0.292605  0.291601  1
  Ga  Ga23  1  0.292605  0.560644  0.291601  1
  Tc  Tc24  1  0.179061  0.320939  0.500000  1
  Tc  Tc25  1  0.320939  0.820939  0.500000  1
  Tc  Tc26  1  0.820939  0.679061  0.500000  1
  Tc  Tc27  1  0.679061  0.179061  0.500000  1
  Ir  Ir28  1  0.000000  0.000000  0.000000  1
  Ir  Ir29  1  0.500000  0.500000  0.000000  1
