# generated using pymatgen
data_Ca8Ac9Sm3Sn16
_symmetry_space_group_name_H-M   'P 1'
_cell_length_a   8.24249701
_cell_length_b   8.75966732
_cell_length_c   16.52280400
_cell_angle_alpha   90.01372927
_cell_angle_beta   89.99724035
_cell_angle_gamma   89.99298232
_symmetry_Int_Tables_number   1
_chemical_formula_structural   Ca8Ac9Sm3Sn16
_chemical_formula_sum   'Ca8 Ac9 Sm3 Sn16'
_cell_volume   1192.97171165
_cell_formula_units_Z   1
loop_
 _symmetry_equiv_pos_site_id
 _symmetry_equiv_pos_as_xyz
  1  'x, y, z'
loop_
 _atom_site_type_symbol
 _atom_site_label
 _atom_site_symmetry_multiplicity
 _atom_site_fract_x
 _atom_site_fract_y
 _atom_site_fract_z
 _atom_site_occupancy
  Ca  Ca0  1  0.170473  0.328124  0.124747  1
  Ca  Ca1  1  0.668641  0.171294  0.125366  1
  Ca  Ca2  1  0.169519  0.328437  0.377010  1
  Ca  Ca3  1  0.329126  0.830572  0.622350  1
  Ca  Ca4  1  0.164046  0.498130  0.747863  1
  Ca  Ca5  1  0.661563  0.001878  0.747541  1
  Ca  Ca6  1  0.839275  0.497725  0.249827  1
  Ca  Ca7  1  0.336795  0.002897  0.249455  1
  Ac  Ac8  1  0.830095  0.673151  0.877083  1
  Ac  Ac9  1  0.493385  0.317437  0.904655  1
  Ac  Ac10  1  0.995427  0.181828  0.594729  1
  Ac  Ac11  1  0.505744  0.682405  0.404642  1
  Ac  Ac12  1  0.008498  0.816533  0.097188  1
  Ac  Ac13  1  0.506679  0.680893  0.096454  1
  Ac  Ac14  1  0.007963  0.817083  0.405493  1
  Ac  Ac15  1  0.491791  0.317277  0.594116  1
  Ac  Ac16  1  0.994469  0.182936  0.904731  1
  Sm  Sm17  1  0.329265  0.828591  0.875051  1
  Sm  Sm18  1  0.830135  0.670975  0.623434  1
  Sm  Sm19  1  0.667534  0.173065  0.374939  1
  Sn  Sn20  1  0.330952  0.036342  0.038368  1
  Sn  Sn21  1  0.828264  0.460032  0.462058  1
  Sn  Sn22  1  0.671508  0.960489  0.537058  1
  Sn  Sn23  1  0.177390  0.538147  0.962603  1
  Sn  Sn24  1  0.659470  0.967628  0.962385  1
  Sn  Sn25  1  0.162699  0.537449  0.539781  1
  Sn  Sn26  1  0.336729  0.038264  0.459331  1
  Sn  Sn27  1  0.833890  0.458321  0.043183  1
  Sn  Sn28  1  0.526477  0.612187  0.745946  1
  Sn  Sn29  1  0.033566  0.890120  0.747992  1
  Sn  Sn30  1  0.468813  0.389145  0.252621  1
  Sn  Sn31  1  0.965619  0.110538  0.252801  1
  Sn  Sn32  1  0.290044  0.133420  0.749875  1
  Sn  Sn33  1  0.787875  0.365580  0.747470  1
  Sn  Sn34  1  0.712539  0.868090  0.251348  1
  Sn  Sn35  1  0.213738  0.633017  0.250503  1
