# generated using pymatgen
data_Pr3ErAu2
_symmetry_space_group_name_H-M   'P 1'
_cell_length_a   5.03990200
_cell_length_b   7.38804486
_cell_length_c   9.26849839
_cell_angle_alpha   90.00834849
_cell_angle_beta   90.00000000
_cell_angle_gamma   90.00000000
_symmetry_Int_Tables_number   1
_chemical_formula_structural   Pr3ErAu2
_chemical_formula_sum   'Pr6 Er2 Au4'
_cell_volume   345.11273874
_cell_formula_units_Z   2
loop_
 _symmetry_equiv_pos_site_id
 _symmetry_equiv_pos_as_xyz
  1  'x, y, z'
loop_
 _atom_site_type_symbol
 _atom_site_label
 _atom_site_symmetry_multiplicity
 _atom_site_fract_x
 _atom_site_fract_y
 _atom_site_fract_z
 _atom_site_occupancy
  Pr  Pr0  1  0.250000  0.489388  0.174967  1
  Pr  Pr1  1  0.750000  0.510612  0.825033  1
  Pr  Pr2  1  0.250000  0.991869  0.323802  1
  Pr  Pr3  1  0.750000  0.008131  0.676198  1
  Pr  Pr4  1  0.750000  0.650459  0.411012  1
  Pr  Pr5  1  0.250000  0.349541  0.588988  1
  Er  Er6  1  0.750000  0.147862  0.076999  1
  Er  Er7  1  0.250000  0.852138  0.923001  1
  Au  Au8  1  0.250000  0.240217  0.912619  1
  Au  Au9  1  0.750000  0.759783  0.087381  1
  Au  Au10  1  0.250000  0.758019  0.611431  1
  Au  Au11  1  0.750000  0.241981  0.388569  1
