# generated using pymatgen
data_Cs4NdPuCl10
_symmetry_space_group_name_H-M   'P 1'
_cell_length_a   8.69654324
_cell_length_b   9.10941900
_cell_length_c   14.04513400
_cell_angle_alpha   90.00000000
_cell_angle_beta   89.84890285
_cell_angle_gamma   90.00000000
_symmetry_Int_Tables_number   1
_chemical_formula_structural   Cs4NdPuCl10
_chemical_formula_sum   'Cs8 Nd2 Pu2 Cl20'
_cell_volume   1112.65805422
_cell_formula_units_Z   2
loop_
 _symmetry_equiv_pos_site_id
 _symmetry_equiv_pos_as_xyz
  1  'x, y, z'
loop_
 _atom_site_type_symbol
 _atom_site_label
 _atom_site_symmetry_multiplicity
 _atom_site_fract_x
 _atom_site_fract_y
 _atom_site_fract_z
 _atom_site_occupancy
  Cs  Cs0  1  0.943789  0.004861  0.828674  1
  Cs  Cs1  1  0.056211  0.995139  0.171326  1
  Cs  Cs2  1  0.444682  0.994712  0.669953  1
  Cs  Cs3  1  0.056211  0.504861  0.171326  1
  Cs  Cs4  1  0.555318  0.005288  0.330047  1
  Cs  Cs5  1  0.943789  0.495139  0.828674  1
  Cs  Cs6  1  0.555318  0.494712  0.330047  1
  Cs  Cs7  1  0.444682  0.505288  0.669953  1
  Nd  Nd8  1  0.433801  0.250000  0.996499  1
  Nd  Nd9  1  0.566199  0.750000  0.003501  1
  Pu  Pu10  1  0.942274  0.750000  0.500297  1
  Pu  Pu11  1  0.057726  0.250000  0.499703  1
  Cl  Cl12  1  0.106840  0.750000  0.667088  1
  Cl  Cl13  1  0.893160  0.250000  0.332912  1
  Cl  Cl14  1  0.609940  0.250000  0.831066  1
  Cl  Cl15  1  0.390060  0.750000  0.168934  1
  Cl  Cl16  1  0.846889  0.039465  0.567339  1
  Cl  Cl17  1  0.153111  0.960535  0.432661  1
  Cl  Cl18  1  0.345633  0.958319  0.932724  1
  Cl  Cl19  1  0.153111  0.539465  0.432661  1
  Cl  Cl20  1  0.654367  0.041681  0.067276  1
  Cl  Cl21  1  0.846889  0.460535  0.567339  1
  Cl  Cl22  1  0.654367  0.458319  0.067276  1
  Cl  Cl23  1  0.345633  0.541681  0.932724  1
  Cl  Cl24  1  0.618193  0.750000  0.513974  1
  Cl  Cl25  1  0.381807  0.250000  0.486026  1
  Cl  Cl26  1  0.113363  0.250000  0.985427  1
  Cl  Cl27  1  0.886637  0.750000  0.014573  1
  Cl  Cl28  1  0.646542  0.750000  0.812348  1
  Cl  Cl29  1  0.353458  0.250000  0.187652  1
  Cl  Cl30  1  0.147272  0.250000  0.687042  1
  Cl  Cl31  1  0.852728  0.750000  0.312958  1
