# generated using pymatgen
data_Hf3Ti2BSb3
_symmetry_space_group_name_H-M   'P 1'
_cell_length_a   8.30442800
_cell_length_b   8.30442870
_cell_length_c   5.58393000
_cell_angle_alpha   90.00000000
_cell_angle_beta   90.00000000
_cell_angle_gamma   119.99998924
_symmetry_Int_Tables_number   1
_chemical_formula_structural   Hf3Ti2BSb3
_chemical_formula_sum   'Hf6 Ti4 B2 Sb6'
_cell_volume   333.49561585
_cell_formula_units_Z   2
loop_
 _symmetry_equiv_pos_site_id
 _symmetry_equiv_pos_as_xyz
  1  'x, y, z'
loop_
 _atom_site_type_symbol
 _atom_site_label
 _atom_site_symmetry_multiplicity
 _atom_site_fract_x
 _atom_site_fract_y
 _atom_site_fract_z
 _atom_site_occupancy
  Hf  Hf0  1  0.233997  0.000000  0.750000  1
  Hf  Hf1  1  0.766003  0.000000  0.250000  1
  Hf  Hf2  1  0.000000  0.233997  0.750000  1
  Hf  Hf3  1  0.000000  0.766003  0.250000  1
  Hf  Hf4  1  0.766003  0.766003  0.750000  1
  Hf  Hf5  1  0.233997  0.233997  0.250000  1
  Ti  Ti6  1  0.333333  0.666667  0.500000  1
  Ti  Ti7  1  0.666667  0.333333  0.500000  1
  Ti  Ti8  1  0.666667  0.333333  0.000000  1
  Ti  Ti9  1  0.333333  0.666667  0.000000  1
  B  B10  1  0.000000  0.000000  0.500000  1
  B  B11  1  0.000000  0.000000  0.000000  1
  Sb  Sb12  1  0.595686  0.000000  0.750000  1
  Sb  Sb13  1  0.404314  0.000000  0.250000  1
  Sb  Sb14  1  0.000000  0.595686  0.750000  1
  Sb  Sb15  1  0.000000  0.404314  0.250000  1
  Sb  Sb16  1  0.404314  0.404314  0.750000  1
  Sb  Sb17  1  0.595686  0.595686  0.250000  1
