# generated using pymatgen
data_Rb3FeGe2O7
_symmetry_space_group_name_H-M   'P 1'
_cell_length_a   7.75468705
_cell_length_b   7.84597989
_cell_length_c   9.84885396
_cell_angle_alpha   107.15986648
_cell_angle_beta   106.80935790
_cell_angle_gamma   105.20917603
_symmetry_Int_Tables_number   1
_chemical_formula_structural   Rb3FeGe2O7
_chemical_formula_sum   'Rb6 Fe2 Ge4 O14'
_cell_volume   506.95805176
_cell_formula_units_Z   2
loop_
 _symmetry_equiv_pos_site_id
 _symmetry_equiv_pos_as_xyz
  1  'x, y, z'
loop_
 _atom_site_type_symbol
 _atom_site_label
 _atom_site_symmetry_multiplicity
 _atom_site_fract_x
 _atom_site_fract_y
 _atom_site_fract_z
 _atom_site_occupancy
  Rb  Rb0  1  0.754521  0.004521  0.009041  1
  Rb  Rb1  1  0.671087  0.414465  0.393864  1
  Rb  Rb2  1  0.222777  0.979398  0.393864  1
  Rb  Rb3  1  0.777223  0.020601  0.606136  1
  Rb  Rb4  1  0.328913  0.585534  0.606136  1
  Rb  Rb5  1  0.245480  0.995480  0.990959  1
  Fe  Fe6  1  0.810186  0.560187  0.120373  1
  Fe  Fe7  1  0.189814  0.439813  0.879627  1
  Ge  Ge8  1  0.178257  0.429015  0.207369  1
  Ge  Ge9  1  0.529112  0.778354  0.207369  1
  Ge  Ge10  1  0.470888  0.221646  0.792631  1
  Ge  Ge11  1  0.821743  0.570985  0.792631  1
  O  O12  1  0.592952  0.324167  0.999928  1
  O  O13  1  0.906975  0.675762  0.999928  1
  O  O14  1  0.003184  0.514248  0.259055  1
  O  O15  1  0.755871  0.744807  0.259055  1
  O  O16  1  0.556723  0.016738  0.282842  1
  O  O17  1  0.226117  0.266102  0.282842  1
  O  O18  1  0.397253  0.647253  0.294505  1
  O  O19  1  0.602747  0.352747  0.705496  1
  O  O20  1  0.773883  0.733898  0.717159  1
  O  O21  1  0.443277  0.983262  0.717159  1
  O  O22  1  0.244129  0.255193  0.740945  1
  O  O23  1  0.996816  0.485752  0.740945  1
  O  O24  1  0.093024  0.324238  0.000071  1
  O  O25  1  0.407048  0.675833  0.000071  1
