# generated using pymatgen
data_Zr10Cd2Bi4P
_symmetry_space_group_name_H-M   'P 1'
_cell_length_a   5.91787819
_cell_length_b   8.73739232
_cell_length_c   8.72409500
_cell_angle_alpha   120.05044110
_cell_angle_beta   89.98536110
_cell_angle_gamma   90.02923278
_symmetry_Int_Tables_number   1
_chemical_formula_structural   Zr10Cd2Bi4P
_chemical_formula_sum   'Zr10 Cd2 Bi4 P1'
_cell_volume   390.46117132
_cell_formula_units_Z   1
loop_
 _symmetry_equiv_pos_site_id
 _symmetry_equiv_pos_as_xyz
  1  'x, y, z'
loop_
 _atom_site_type_symbol
 _atom_site_label
 _atom_site_symmetry_multiplicity
 _atom_site_fract_x
 _atom_site_fract_y
 _atom_site_fract_z
 _atom_site_occupancy
  Zr  Zr0  1  0.497063  0.330802  0.663698  1
  Zr  Zr1  1  0.497063  0.667104  0.336302  1
  Zr  Zr2  1  0.005462  0.669534  0.338167  1
  Zr  Zr3  1  0.005462  0.331367  0.661833  1
  Zr  Zr4  1  0.752552  0.246552  0.000000  1
  Zr  Zr5  1  0.759625  0.757949  0.755959  1
  Zr  Zr6  1  0.759625  0.001990  0.244041  1
  Zr  Zr7  1  0.240665  0.755536  0.000000  1
  Zr  Zr8  1  0.245777  0.246435  0.252914  1
  Zr  Zr9  1  0.245777  0.993521  0.747086  1
  Cd  Cd10  1  0.250530  0.606350  0.609443  1
  Cd  Cd11  1  0.250530  0.996908  0.390557  1
  Bi  Bi12  1  0.747665  0.608117  0.000000  1
  Bi  Bi13  1  0.749500  0.398060  0.397937  1
  Bi  Bi14  1  0.749500  0.000124  0.602063  1
  Bi  Bi15  1  0.246819  0.389572  0.000000  1
  P  P16  1  0.496390  0.000078  0.000000  1
