# generated using pymatgen
data_ErTm7Sc8(Ga3Co)2
_symmetry_space_group_name_H-M   'P 1'
_cell_length_a   9.52479504
_cell_length_b   9.52479523
_cell_length_c   6.77863902
_cell_angle_alpha   89.99930321
_cell_angle_beta   90.00069139
_cell_angle_gamma   120.01122533
_symmetry_Int_Tables_number   1
_chemical_formula_structural   ErTm7Sc8(Ga3Co)2
_chemical_formula_sum   'Er1 Tm7 Sc8 Ga6 Co2'
_cell_volume   532.51922272
_cell_formula_units_Z   1
loop_
 _symmetry_equiv_pos_site_id
 _symmetry_equiv_pos_as_xyz
  1  'x, y, z'
loop_
 _atom_site_type_symbol
 _atom_site_label
 _atom_site_symmetry_multiplicity
 _atom_site_fract_x
 _atom_site_fract_y
 _atom_site_fract_z
 _atom_site_occupancy
  Er  Er0  1  0.466038  0.533962  0.289231  1
  Tm  Tm1  1  0.931438  0.465714  0.789554  1
  Tm  Tm2  1  0.534286  0.068562  0.789554  1
  Tm  Tm3  1  0.465687  0.931531  0.289485  1
  Tm  Tm4  1  0.068469  0.534313  0.289485  1
  Tm  Tm5  1  0.534361  0.465639  0.789416  1
  Tm  Tm6  1  0.000006  0.999994  0.270911  1
  Tm  Tm7  1  0.999990  0.000010  0.771019  1
  Sc  Sc8  1  0.174553  0.825447  0.988154  1
  Sc  Sc9  1  0.348916  0.174199  0.488513  1
  Sc  Sc10  1  0.825801  0.651084  0.488513  1
  Sc  Sc11  1  0.174315  0.349055  0.987913  1
  Sc  Sc12  1  0.650945  0.825685  0.987913  1
  Sc  Sc13  1  0.825446  0.174554  0.488249  1
  Sc  Sc14  1  0.333211  0.666789  0.675445  1
  Sc  Sc15  1  0.666817  0.333183  0.175050  1
  Ga  Ga16  1  0.163332  0.836668  0.546669  1
  Ga  Ga17  1  0.326656  0.163334  0.046611  1
  Ga  Ga18  1  0.836666  0.673344  0.046611  1
  Ga  Ga19  1  0.163131  0.326484  0.546908  1
  Ga  Ga20  1  0.673516  0.836869  0.546908  1
  Ga  Ga21  1  0.836628  0.163372  0.046841  1
  Co  Co22  1  0.333112  0.666888  0.042416  1
  Co  Co23  1  0.666681  0.333319  0.542643  1
