# generated using pymatgen
data_Ho3TmRe5Os3
_symmetry_space_group_name_H-M   'P 1'
_cell_length_a   5.36172368
_cell_length_b   5.24852819
_cell_length_c   8.99416001
_cell_angle_alpha   89.99627517
_cell_angle_beta   90.00422395
_cell_angle_gamma   119.43813751
_symmetry_Int_Tables_number   1
_chemical_formula_structural   Ho3TmRe5Os3
_chemical_formula_sum   'Ho3 Tm1 Re5 Os3'
_cell_volume   220.42675576
_cell_formula_units_Z   1
loop_
 _symmetry_equiv_pos_site_id
 _symmetry_equiv_pos_as_xyz
  1  'x, y, z'
loop_
 _atom_site_type_symbol
 _atom_site_label
 _atom_site_symmetry_multiplicity
 _atom_site_fract_x
 _atom_site_fract_y
 _atom_site_fract_z
 _atom_site_occupancy
  Ho  Ho0  1  0.669069  0.334891  0.562290  1
  Ho  Ho1  1  0.328938  0.664229  0.436206  1
  Ho  Ho2  1  0.328927  0.664228  0.063683  1
  Tm  Tm3  1  0.669244  0.334991  0.937700  1
  Re  Re4  1  0.171138  0.341333  0.750308  1
  Re  Re5  1  0.171369  0.832114  0.750289  1
  Re  Re6  1  0.656137  0.827462  0.750339  1
  Re  Re7  1  0.832897  0.663255  0.249762  1
  Re  Re8  1  0.833609  0.170130  0.249760  1
  Os  Os9  1  0.993123  0.995541  0.499312  1
  Os  Os10  1  0.992981  0.995488  0.000611  1
  Os  Os11  1  0.352570  0.176340  0.249741  1
