# generated using pymatgen
data_CeDy4(B3Os)2
_symmetry_space_group_name_H-M   'P 1'
_cell_length_a   5.51443422
_cell_length_b   5.51443365
_cell_length_c   8.38045733
_cell_angle_alpha   70.79157456
_cell_angle_beta   70.79157534
_cell_angle_gamma   59.99998599
_symmetry_Int_Tables_number   1
_chemical_formula_structural   CeDy4(B3Os)2
_chemical_formula_sum   'Ce1 Dy4 B6 Os2'
_cell_volume   204.15230902
_cell_formula_units_Z   1
loop_
 _symmetry_equiv_pos_site_id
 _symmetry_equiv_pos_as_xyz
  1  'x, y, z'
loop_
 _atom_site_type_symbol
 _atom_site_label
 _atom_site_symmetry_multiplicity
 _atom_site_fract_x
 _atom_site_fract_y
 _atom_site_fract_z
 _atom_site_occupancy
  Ce  Ce0  1  0.000000  0.000000  0.000000  1
  Dy  Dy1  1  0.250403  0.250403  0.248791  1
  Dy  Dy2  1  0.749597  0.749597  0.751209  1
  Dy  Dy3  1  0.416118  0.416118  0.751648  1
  Dy  Dy4  1  0.583882  0.583882  0.248352  1
  B  B5  1  0.173560  0.826440  0.500000  1
  B  B6  1  0.826440  0.500000  0.500000  1
  B  B7  1  0.500000  0.173560  0.500000  1
  B  B8  1  0.173560  0.500000  0.500000  1
  B  B9  1  0.500000  0.826440  0.500000  1
  B  B10  1  0.826440  0.173560  0.500000  1
  Os  Os11  1  0.110380  0.110380  0.668860  1
  Os  Os12  1  0.889620  0.889620  0.331140  1
