# generated using pymatgen
data_CaTb3Sn2Sb4Rh7
_symmetry_space_group_name_H-M   'P 1'
_cell_length_a   7.61613157
_cell_length_b   7.63871443
_cell_length_c   7.63179418
_cell_angle_alpha   109.49568700
_cell_angle_beta   109.37577554
_cell_angle_gamma   109.51905039
_symmetry_Int_Tables_number   1
_chemical_formula_structural   CaTb3Sn2Sb4Rh7
_chemical_formula_sum   'Ca1 Tb3 Sn2 Sb4 Rh7'
_cell_volume   341.88724299
_cell_formula_units_Z   1
loop_
 _symmetry_equiv_pos_site_id
 _symmetry_equiv_pos_as_xyz
  1  'x, y, z'
loop_
 _atom_site_type_symbol
 _atom_site_label
 _atom_site_symmetry_multiplicity
 _atom_site_fract_x
 _atom_site_fract_y
 _atom_site_fract_z
 _atom_site_occupancy
  Ca  Ca0  1  0.494883  0.000051  0.000000  1
  Tb  Tb1  1  0.000310  0.505359  0.000000  1
  Tb  Tb2  1  0.999187  0.000588  0.499724  1
  Tb  Tb3  1  0.499463  0.500864  0.500276  1
  Sn  Sn4  1  0.992950  0.311431  0.309030  1
  Sn  Sn5  1  0.683920  0.002401  0.690970  1
  Sb  Sb6  1  0.679603  0.686997  0.000000  1
  Sb  Sb7  1  0.001436  0.678770  0.676688  1
  Sb  Sb8  1  0.324747  0.002081  0.323312  1
  Sb  Sb9  1  0.316586  0.316922  0.000000  1
  Rh  Rh10  1  0.004238  0.994515  0.000000  1
  Rh  Rh11  1  0.501721  0.748129  0.254778  1
  Rh  Rh12  1  0.750451  0.505033  0.248974  1
  Rh  Rh13  1  0.248099  0.745782  0.494114  1
  Rh  Rh14  1  0.246943  0.493351  0.745222  1
  Rh  Rh15  1  0.501477  0.256059  0.751026  1
  Rh  Rh16  1  0.753985  0.251668  0.505886  1
