# generated using pymatgen
data_TbFe5Tc7
_symmetry_space_group_name_H-M   'P 1'
_cell_length_a   6.64706314
_cell_length_b   6.64706235
_cell_length_c   6.64706188
_cell_angle_alpha   138.10247082
_cell_angle_beta   96.10389586
_cell_angle_gamma   98.58797997
_symmetry_Int_Tables_number   1
_chemical_formula_structural   TbFe5Tc7
_chemical_formula_sum   'Tb1 Fe5 Tc7'
_cell_volume   183.10687401
_cell_formula_units_Z   1
loop_
 _symmetry_equiv_pos_site_id
 _symmetry_equiv_pos_as_xyz
  1  'x, y, z'
loop_
 _atom_site_type_symbol
 _atom_site_label
 _atom_site_symmetry_multiplicity
 _atom_site_fract_x
 _atom_site_fract_y
 _atom_site_fract_z
 _atom_site_occupancy
  Tb  Tb0  1  0.006566  0.000000  0.006566  1
  Fe  Fe1  1  0.491608  0.495683  0.499088  1
  Fe  Fe2  1  0.491608  0.992520  0.995924  1
  Fe  Fe3  1  0.003405  0.007480  0.499088  1
  Fe  Fe4  1  0.003405  0.504317  0.995924  1
  Fe  Fe5  1  0.228049  0.500000  0.728049  1
  Tc  Tc6  1  0.641515  0.000000  0.641515  1
  Tc  Tc7  1  0.362626  0.000000  0.362626  1
  Tc  Tc8  1  0.351109  0.355266  0.995843  1
  Tc  Tc9  1  0.640578  0.644734  0.995843  1
  Tc  Tc10  1  0.779358  0.500000  0.279358  1
  Tc  Tc11  1  0.793959  0.293872  0.500088  1
  Tc  Tc12  1  0.206216  0.706128  0.500088  1
