# generated using pymatgen
data_Tb2V3Ni9As7
_symmetry_space_group_name_H-M   'P 1'
_cell_length_a   9.47487700
_cell_length_b   9.47487659
_cell_length_c   3.79938500
_cell_angle_alpha   90.00000000
_cell_angle_beta   90.00000000
_cell_angle_gamma   119.99999792
_symmetry_Int_Tables_number   1
_chemical_formula_structural   Tb2V3Ni9As7
_chemical_formula_sum   'Tb2 V3 Ni9 As7'
_cell_volume   295.38680242
_cell_formula_units_Z   1
loop_
 _symmetry_equiv_pos_site_id
 _symmetry_equiv_pos_as_xyz
  1  'x, y, z'
loop_
 _atom_site_type_symbol
 _atom_site_label
 _atom_site_symmetry_multiplicity
 _atom_site_fract_x
 _atom_site_fract_y
 _atom_site_fract_z
 _atom_site_occupancy
  Tb  Tb0  1  0.333333  0.666667  0.000000  1
  Tb  Tb1  1  0.666667  0.333333  0.500000  1
  V  V2  1  0.216845  0.114354  0.500000  1
  V  V3  1  0.885646  0.102492  0.500000  1
  V  V4  1  0.897508  0.783155  0.500000  1
  Ni  Ni5  1  0.126867  0.280565  0.000000  1
  Ni  Ni6  1  0.719435  0.846303  0.000000  1
  Ni  Ni7  1  0.153697  0.873133  0.000000  1
  Ni  Ni8  1  0.431763  0.371843  0.000000  1
  Ni  Ni9  1  0.628157  0.059919  0.000000  1
  Ni  Ni10  1  0.940081  0.568237  0.000000  1
  Ni  Ni11  1  0.054225  0.434113  0.500000  1
  Ni  Ni12  1  0.565887  0.620112  0.500000  1
  Ni  Ni13  1  0.379888  0.945775  0.500000  1
  As  As14  1  0.292876  0.405831  0.500000  1
  As  As15  1  0.594169  0.887045  0.500000  1
  As  As16  1  0.112955  0.707124  0.500000  1
  As  As17  1  0.409096  0.114783  0.000000  1
  As  As18  1  0.885217  0.294314  0.000000  1
  As  As19  1  0.705686  0.590904  0.000000  1
  As  As20  1  0.000000  0.000000  0.000000  1
