# generated using pymatgen
data_MgAl4GaPt10
_symmetry_space_group_name_H-M   'P 1'
_cell_length_a   4.04521400
_cell_length_b   5.50779585
_cell_length_c   10.81099939
_cell_angle_alpha   90.04829075
_cell_angle_beta   90.00000000
_cell_angle_gamma   90.00000000
_symmetry_Int_Tables_number   1
_chemical_formula_structural   MgAl4GaPt10
_chemical_formula_sum   'Mg1 Al4 Ga1 Pt10'
_cell_volume   240.87128218
_cell_formula_units_Z   1
loop_
 _symmetry_equiv_pos_site_id
 _symmetry_equiv_pos_as_xyz
  1  'x, y, z'
loop_
 _atom_site_type_symbol
 _atom_site_label
 _atom_site_symmetry_multiplicity
 _atom_site_fract_x
 _atom_site_fract_y
 _atom_site_fract_z
 _atom_site_occupancy
  Mg  Mg0  1  0.500000  0.184443  0.638902  1
  Al  Al1  1  0.500000  0.821123  0.359851  1
  Al  Al2  1  0.500000  0.682424  0.856273  1
  Al  Al3  1  0.500000  0.323263  0.139113  1
  Al  Al4  1  0.000000  0.996316  0.998124  1
  Ga  Ga5  1  0.000000  0.481328  0.505031  1
  Pt  Pt6  1  0.500000  0.292524  0.384846  1
  Pt  Pt7  1  0.500000  0.698819  0.608536  1
  Pt  Pt8  1  0.500000  0.798758  0.106620  1
  Pt  Pt9  1  0.500000  0.204177  0.898028  1
  Pt  Pt10  1  0.000000  0.443593  0.746072  1
  Pt  Pt11  1  0.000000  0.577559  0.268095  1
  Pt  Pt12  1  0.000000  0.938558  0.765044  1
  Pt  Pt13  1  0.000000  0.077052  0.229276  1
  Pt  Pt14  1  0.000000  0.498952  0.004763  1
  Pt  Pt15  1  0.000000  0.981112  0.491429  1
