# generated using pymatgen
data_Ca12Nb5Sb11(O6F)8
_symmetry_space_group_name_H-M   'P 1'
_cell_length_a   10.50847367
_cell_length_b   10.51164857
_cell_length_c   10.51164857
_cell_angle_alpha   89.91732566
_cell_angle_beta   90.10996944
_cell_angle_gamma   90.10996944
_symmetry_Int_Tables_number   1
_chemical_formula_structural   Ca12Nb5Sb11(O6F)8
_chemical_formula_sum   'Ca12 Nb5 Sb11 O48 F8'
_cell_volume   1161.12575041
_cell_formula_units_Z   1
loop_
 _symmetry_equiv_pos_site_id
 _symmetry_equiv_pos_as_xyz
  1  'x, y, z'
loop_
 _atom_site_type_symbol
 _atom_site_label
 _atom_site_symmetry_multiplicity
 _atom_site_fract_x
 _atom_site_fract_y
 _atom_site_fract_z
 _atom_site_occupancy
  Ca  Ca0  1  0.875248  0.864212  0.614730  1
  Ca  Ca1  1  0.885446  0.124684  0.363663  1
  Ca  Ca2  1  0.635034  0.385077  0.374959  1
  Ca  Ca3  1  0.864449  0.614602  0.875016  1
  Ca  Ca4  1  0.374752  0.635270  0.385788  1
  Ca  Ca5  1  0.125000  0.364635  0.885365  1
  Ca  Ca6  1  0.364554  0.886337  0.125316  1
  Ca  Ca7  1  0.625000  0.134812  0.115188  1
  Ca  Ca8  1  0.114898  0.625077  0.135103  1
  Ca  Ca9  1  0.614966  0.875041  0.864923  1
  Ca  Ca10  1  0.135102  0.114897  0.624923  1
  Ca  Ca11  1  0.385551  0.374984  0.635398  1
  Nb  Nb12  1  0.876558  0.623597  0.373508  1
  Nb  Nb13  1  0.373442  0.876492  0.626403  1
  Nb  Nb14  1  0.625000  0.374810  0.875190  1
  Nb  Nb15  1  0.625000  0.874823  0.375177  1
  Nb  Nb16  1  0.125000  0.124918  0.125082  1
  Sb  Sb17  1  0.875012  0.122566  0.872170  1
  Sb  Sb18  1  0.872032  0.875452  0.121937  1
  Sb  Sb19  1  0.372401  0.624987  0.877335  1
  Sb  Sb20  1  0.627444  0.125962  0.623118  1
  Sb  Sb21  1  0.374988  0.377830  0.127434  1
  Sb  Sb22  1  0.128207  0.374476  0.377725  1
  Sb  Sb23  1  0.121793  0.872275  0.875524  1
  Sb  Sb24  1  0.125000  0.622565  0.627435  1
  Sb  Sb25  1  0.622556  0.626882  0.124038  1
  Sb  Sb26  1  0.377968  0.128063  0.374548  1
  Sb  Sb27  1  0.877599  0.372665  0.625013  1
  O  O28  1  0.002522  0.495493  0.703592  1
  O  O29  1  0.310519  0.011857  0.508590  1
  O  O30  1  0.490895  0.813530  0.488900  1
  O  O31  1  0.252404  0.453758  0.254559  1
  O  O32  1  0.060512  0.241113  0.262123  1
  O  O33  1  0.988667  0.008744  0.189242  1
  O  O34  1  0.046256  0.745465  0.752346  1
  O  O35  1  0.738360  0.559664  0.258421  1
  O  O36  1  0.991387  0.689531  0.511896  1
  O  O37  1  0.741114  0.237835  0.939264  1
  O  O38  1  0.495528  0.703546  0.001607  1
  O  O39  1  0.004512  0.296615  0.502299  1
  O  O40  1  0.502404  0.006955  0.300144  1
  O  O41  1  0.689788  0.511915  0.990826  1
  O  O42  1  0.995318  0.796176  0.998063  1
  O  O43  1  0.497733  0.504318  0.203222  1
  O  O44  1  0.796639  0.997475  0.994171  1
  O  O45  1  0.241061  0.262424  0.060626  1
  O  O46  1  0.759105  0.761100  0.436470  1
  O  O47  1  0.296281  0.502551  0.004461  1
  O  O48  1  0.254682  0.251937  0.453824  1
  O  O49  1  0.939481  0.741410  0.238143  1
  O  O50  1  0.247478  0.546408  0.754507  1
  O  O51  1  0.504278  0.204606  0.498198  1
  O  O52  1  0.439220  0.759026  0.761672  1
  O  O53  1  0.698792  0.002676  0.497470  1
  O  O54  1  0.997596  0.995441  0.796242  1
  O  O55  1  0.237195  0.939492  0.741639  1
  O  O56  1  0.245488  0.747701  0.953385  1
  O  O57  1  0.745722  0.751802  0.045394  1
  O  O58  1  0.203744  0.497654  0.504535  1
  O  O59  1  0.189488  0.987877  0.008887  1
  O  O60  1  0.560212  0.259174  0.738085  1
  O  O61  1  0.258613  0.738104  0.560469  1
  O  O62  1  0.487738  0.491150  0.810688  1
  O  O63  1  0.752267  0.046778  0.745682  1
  O  O64  1  0.453361  0.255829  0.252525  1
  O  O65  1  0.762262  0.439312  0.758850  1
  O  O66  1  0.754472  0.248393  0.546454  1
  O  O67  1  0.012805  0.508361  0.310508  1
  O  O68  1  0.551208  0.752530  0.247324  1
  O  O69  1  0.953719  0.245539  0.747449  1
  O  O70  1  0.261333  0.060758  0.241256  1
  O  O71  1  0.747596  0.949856  0.243045  1
  O  O72  1  0.511640  0.991579  0.690336  1
  O  O73  1  0.508886  0.310736  0.012165  1
  O  O74  1  0.810780  0.488328  0.490974  1
  O  O75  1  0.008939  0.189374  0.987576  1
  F  F76  1  0.510470  0.989346  0.010767  1
  F  F77  1  0.010460  0.510335  0.989636  1
  F  F78  1  0.489928  0.490298  0.489557  1
  F  F79  1  0.261200  0.739860  0.239765  1
  F  F80  1  0.739530  0.239233  0.260654  1
  F  F81  1  0.988800  0.010235  0.510140  1
  F  F82  1  0.239540  0.260364  0.739665  1
  F  F83  1  0.760072  0.760443  0.759702  1
