# generated using pymatgen
data_YLu7In3Co
_symmetry_space_group_name_H-M   'P 1'
_cell_length_a   10.16496100
_cell_length_b   10.16496222
_cell_length_c   6.91239000
_cell_angle_alpha   90.00000000
_cell_angle_beta   90.00000000
_cell_angle_gamma   120.00000578
_symmetry_Int_Tables_number   1
_chemical_formula_structural   YLu7In3Co
_chemical_formula_sum   'Y2 Lu14 In6 Co2'
_cell_volume   618.54361085
_cell_formula_units_Z   2
loop_
 _symmetry_equiv_pos_site_id
 _symmetry_equiv_pos_as_xyz
  1  'x, y, z'
loop_
 _atom_site_type_symbol
 _atom_site_label
 _atom_site_symmetry_multiplicity
 _atom_site_fract_x
 _atom_site_fract_y
 _atom_site_fract_z
 _atom_site_occupancy
  Y  Y0  1  0.000000  0.000000  0.495875  1
  Y  Y1  1  0.000000  0.000000  0.995875  1
  Lu  Lu2  1  0.464620  0.535380  0.481991  1
  Lu  Lu3  1  0.070761  0.535380  0.481991  1
  Lu  Lu4  1  0.464620  0.929239  0.481991  1
  Lu  Lu5  1  0.535380  0.464620  0.981991  1
  Lu  Lu6  1  0.929239  0.464620  0.981991  1
  Lu  Lu7  1  0.535380  0.070761  0.981991  1
  Lu  Lu8  1  0.820317  0.179683  0.276450  1
  Lu  Lu9  1  0.359366  0.179683  0.276450  1
  Lu  Lu10  1  0.820317  0.640634  0.276450  1
  Lu  Lu11  1  0.179683  0.820317  0.776450  1
  Lu  Lu12  1  0.640634  0.820317  0.776450  1
  Lu  Lu13  1  0.179683  0.359366  0.776450  1
  Lu  Lu14  1  0.333333  0.666667  0.090697  1
  Lu  Lu15  1  0.666667  0.333333  0.590697  1
  In  In16  1  0.163602  0.836398  0.234511  1
  In  In17  1  0.672795  0.836398  0.234511  1
  In  In18  1  0.163602  0.327205  0.234511  1
  In  In19  1  0.836398  0.163602  0.734511  1
  In  In20  1  0.327205  0.163602  0.734511  1
  In  In21  1  0.836398  0.672795  0.734511  1
  Co  Co22  1  0.333333  0.666667  0.706848  1
  Co  Co23  1  0.666667  0.333333  0.206848  1
