# generated using pymatgen
data_Dy5Y5Si5Bi
_symmetry_space_group_name_H-M   'P 1'
_cell_length_a   8.55041512
_cell_length_b   8.60322575
_cell_length_c   6.38389200
_cell_angle_alpha   90.00000000
_cell_angle_beta   90.00000000
_cell_angle_gamma   119.81640385
_symmetry_Int_Tables_number   1
_chemical_formula_structural   Dy5Y5Si5Bi
_chemical_formula_sum   'Dy5 Y5 Si5 Bi1'
_cell_volume   407.44141693
_cell_formula_units_Z   1
loop_
 _symmetry_equiv_pos_site_id
 _symmetry_equiv_pos_as_xyz
  1  'x, y, z'
loop_
 _atom_site_type_symbol
 _atom_site_label
 _atom_site_symmetry_multiplicity
 _atom_site_fract_x
 _atom_site_fract_y
 _atom_site_fract_z
 _atom_site_occupancy
  Dy  Dy0  1  0.240427  0.255501  0.750000  1
  Dy  Dy1  1  0.676753  0.346104  0.005087  1
  Dy  Dy2  1  0.330625  0.653753  0.494948  1
  Dy  Dy3  1  0.330625  0.653753  0.005052  1
  Dy  Dy4  1  0.676753  0.346104  0.494913  1
  Y  Y5  1  0.985341  0.744824  0.750000  1
  Y  Y6  1  0.998206  0.243614  0.250000  1
  Y  Y7  1  0.754477  0.756424  0.250000  1
  Y  Y8  1  0.767357  0.000085  0.750000  1
  Y  Y9  1  0.240915  0.000115  0.250000  1
  Si  Si10  1  0.392863  0.390214  0.250000  1
  Si  Si11  1  0.002575  0.609697  0.250000  1
  Si  Si12  1  0.998634  0.394221  0.750000  1
  Si  Si13  1  0.604186  0.605607  0.750000  1
  Si  Si14  1  0.607076  0.999959  0.250000  1
  Bi  Bi15  1  0.393185  0.000025  0.750000  1
