# generated using pymatgen
data_TbTm3(MoN3)4
_symmetry_space_group_name_H-M   'P 1'
_cell_length_a   7.29731205
_cell_length_b   7.29731098
_cell_length_c   6.23706927
_cell_angle_alpha   73.39206834
_cell_angle_beta   73.39206754
_cell_angle_gamma   81.03851844
_symmetry_Int_Tables_number   1
_chemical_formula_structural   TbTm3(MoN3)4
_chemical_formula_sum   'Tb1 Tm3 Mo4 N12'
_cell_volume   304.00190161
_cell_formula_units_Z   1
loop_
 _symmetry_equiv_pos_site_id
 _symmetry_equiv_pos_as_xyz
  1  'x, y, z'
loop_
 _atom_site_type_symbol
 _atom_site_label
 _atom_site_symmetry_multiplicity
 _atom_site_fract_x
 _atom_site_fract_y
 _atom_site_fract_z
 _atom_site_occupancy
  Tb  Tb0  1  0.292525  0.707475  0.750000  1
  Tm  Tm1  1  0.912391  0.087609  0.750000  1
  Tm  Tm2  1  0.709325  0.290675  0.250000  1
  Tm  Tm3  1  0.085551  0.914449  0.250000  1
  Mo  Mo4  1  0.801225  0.618301  0.772612  1
  Mo  Mo5  1  0.198419  0.380364  0.229613  1
  Mo  Mo6  1  0.619636  0.801581  0.270387  1
  Mo  Mo7  1  0.381699  0.198775  0.727388  1
  N  N8  1  0.215702  0.001632  0.848824  1
  N  N9  1  0.370827  0.346195  0.428355  1
  N  N10  1  0.633482  0.653904  0.568145  1
  N  N11  1  0.627350  0.109003  0.661934  1
  N  N12  1  0.998368  0.784298  0.651176  1
  N  N13  1  0.781846  0.002519  0.151777  1
  N  N14  1  0.109459  0.626182  0.166335  1
  N  N15  1  0.890997  0.372650  0.838066  1
  N  N16  1  0.997481  0.218154  0.348223  1
  N  N17  1  0.346096  0.366518  0.931855  1
  N  N18  1  0.653805  0.629173  0.071645  1
  N  N19  1  0.373818  0.890541  0.333665  1
