# generated using pymatgen
data_Li6Zn5GePd12
_symmetry_space_group_name_H-M   'P 1'
_cell_length_a   4.27431200
_cell_length_b   6.10044800
_cell_length_c   12.81034600
_cell_angle_alpha   90.00000000
_cell_angle_beta   90.00247215
_cell_angle_gamma   90.00000000
_symmetry_Int_Tables_number   1
_chemical_formula_structural   Li6Zn5GePd12
_chemical_formula_sum   'Li6 Zn5 Ge1 Pd12'
_cell_volume   334.03256563
_cell_formula_units_Z   1
loop_
 _symmetry_equiv_pos_site_id
 _symmetry_equiv_pos_as_xyz
  1  'x, y, z'
loop_
 _atom_site_type_symbol
 _atom_site_label
 _atom_site_symmetry_multiplicity
 _atom_site_fract_x
 _atom_site_fract_y
 _atom_site_fract_z
 _atom_site_occupancy
  Li  Li0  1  0.000000  0.000000  0.000000  1
  Li  Li1  1  0.499601  0.500000  0.168020  1
  Li  Li2  1  0.999582  0.000000  0.334084  1
  Li  Li3  1  0.500000  0.500000  0.500000  1
  Li  Li4  1  0.000417  0.000000  0.665916  1
  Li  Li5  1  0.500399  0.500000  0.831980  1
  Zn  Zn6  1  0.499846  0.000000  0.166926  1
  Zn  Zn7  1  0.999826  0.500000  0.333510  1
  Zn  Zn8  1  0.500000  0.000000  0.500000  1
  Zn  Zn9  1  0.000174  0.500000  0.666490  1
  Zn  Zn10  1  0.500154  0.000000  0.833074  1
  Ge  Ge11  1  0.000000  0.500000  0.000000  1
  Pd  Pd12  1  0.500000  0.254978  0.000000  1
  Pd  Pd13  1  0.500000  0.745021  0.000000  1
  Pd  Pd14  1  0.999785  0.251503  0.164155  1
  Pd  Pd15  1  0.999785  0.748496  0.164155  1
  Pd  Pd16  1  0.499783  0.249766  0.332763  1
  Pd  Pd17  1  0.499783  0.750232  0.332763  1
  Pd  Pd18  1  0.000000  0.250014  0.500000  1
  Pd  Pd19  1  0.000000  0.749987  0.500000  1
  Pd  Pd20  1  0.500217  0.249766  0.667237  1
  Pd  Pd21  1  0.500217  0.750232  0.667237  1
  Pd  Pd22  1  0.000215  0.251503  0.835845  1
  Pd  Pd23  1  0.000215  0.748496  0.835845  1
