# generated using pymatgen
data_LuCdCu3Pt
_symmetry_space_group_name_H-M   'P 1'
_cell_length_a   5.19765109
_cell_length_b   5.19765162
_cell_length_c   5.19765191
_cell_angle_alpha   58.75864761
_cell_angle_beta   58.75864263
_cell_angle_gamma   58.75865253
_symmetry_Int_Tables_number   1
_chemical_formula_structural   LuCdCu3Pt
_chemical_formula_sum   'Lu1 Cd1 Cu3 Pt1'
_cell_volume   96.47480987
_cell_formula_units_Z   1
loop_
 _symmetry_equiv_pos_site_id
 _symmetry_equiv_pos_as_xyz
  1  'x, y, z'
loop_
 _atom_site_type_symbol
 _atom_site_label
 _atom_site_symmetry_multiplicity
 _atom_site_fract_x
 _atom_site_fract_y
 _atom_site_fract_z
 _atom_site_occupancy
  Lu  Lu0  1  0.997579  0.997579  0.997579  1
  Cd  Cd1  1  0.248460  0.248460  0.248460  1
  Cu  Cu2  1  0.625685  0.625685  0.126693  1
  Cu  Cu3  1  0.625685  0.126693  0.625685  1
  Cu  Cu4  1  0.126693  0.625685  0.625685  1
  Pt  Pt5  1  0.625898  0.625898  0.625898  1
