# generated using pymatgen
data_TmLu3(Si3Ir)2
_symmetry_space_group_name_H-M   'P 1'
_cell_length_a   8.11155800
_cell_length_b   8.11155775
_cell_length_c   7.71213500
_cell_angle_alpha   90.00000000
_cell_angle_beta   90.00000000
_cell_angle_gamma   120.00000103
_symmetry_Int_Tables_number   1
_chemical_formula_structural   TmLu3(Si3Ir)2
_chemical_formula_sum   'Tm2 Lu6 Si12 Ir4'
_cell_volume   439.45437513
_cell_formula_units_Z   2
loop_
 _symmetry_equiv_pos_site_id
 _symmetry_equiv_pos_as_xyz
  1  'x, y, z'
loop_
 _atom_site_type_symbol
 _atom_site_label
 _atom_site_symmetry_multiplicity
 _atom_site_fract_x
 _atom_site_fract_y
 _atom_site_fract_z
 _atom_site_occupancy
  Tm  Tm0  1  0.000000  0.999997  0.750000  1
  Tm  Tm1  1  0.000000  0.000003  0.250000  1
  Lu  Lu2  1  0.978489  0.489242  0.250000  1
  Lu  Lu3  1  0.510760  0.489237  0.250000  1
  Lu  Lu4  1  0.489234  0.978475  0.750000  1
  Lu  Lu5  1  0.021511  0.510758  0.750000  1
  Lu  Lu6  1  0.489240  0.510763  0.750000  1
  Lu  Lu7  1  0.510766  0.021525  0.250000  1
  Si  Si8  1  0.166709  0.833293  0.498959  1
  Si  Si9  1  0.166724  0.333444  0.498953  1
  Si  Si10  1  0.666577  0.833285  0.498956  1
  Si  Si11  1  0.333423  0.166715  0.998956  1
  Si  Si12  1  0.833276  0.666556  0.501047  1
  Si  Si13  1  0.833291  0.166707  0.998959  1
  Si  Si14  1  0.833276  0.666556  0.998953  1
  Si  Si15  1  0.166724  0.333444  0.001047  1
  Si  Si16  1  0.666577  0.833285  0.001044  1
  Si  Si17  1  0.333423  0.166715  0.501044  1
  Si  Si18  1  0.833291  0.166707  0.501041  1
  Si  Si19  1  0.166709  0.833293  0.001041  1
  Ir  Ir20  1  0.333329  0.666671  0.036774  1
  Ir  Ir21  1  0.666671  0.333329  0.963226  1
  Ir  Ir22  1  0.666671  0.333329  0.536774  1
  Ir  Ir23  1  0.333329  0.666671  0.463226  1
