# generated using pymatgen
data_TbLu3(Ga3Pt)2
_symmetry_space_group_name_H-M   'P 1'
_cell_length_a   8.81957900
_cell_length_b   8.81957949
_cell_length_c   6.94113600
_cell_angle_alpha   90.00000000
_cell_angle_beta   90.00000000
_cell_angle_gamma   120.00108350
_symmetry_Int_Tables_number   1
_chemical_formula_structural   TbLu3(Ga3Pt)2
_chemical_formula_sum   'Tb2 Lu6 Ga12 Pt4'
_cell_volume   467.57596352
_cell_formula_units_Z   2
loop_
 _symmetry_equiv_pos_site_id
 _symmetry_equiv_pos_as_xyz
  1  'x, y, z'
loop_
 _atom_site_type_symbol
 _atom_site_label
 _atom_site_symmetry_multiplicity
 _atom_site_fract_x
 _atom_site_fract_y
 _atom_site_fract_z
 _atom_site_occupancy
  Tb  Tb0  1  0.000109  0.999891  0.250000  1
  Tb  Tb1  1  0.999891  0.000109  0.750000  1
  Lu  Lu2  1  0.520527  0.041142  0.250000  1
  Lu  Lu3  1  0.520404  0.479596  0.250000  1
  Lu  Lu4  1  0.958858  0.479473  0.250000  1
  Lu  Lu5  1  0.479473  0.958858  0.750000  1
  Lu  Lu6  1  0.479596  0.520404  0.750000  1
  Lu  Lu7  1  0.041142  0.520527  0.750000  1
  Ga  Ga8  1  0.167578  0.335284  0.046639  1
  Ga  Ga9  1  0.167781  0.832219  0.453369  1
  Ga  Ga10  1  0.664716  0.832422  0.453361  1
  Ga  Ga11  1  0.664716  0.832422  0.046639  1
  Ga  Ga12  1  0.167781  0.832219  0.046631  1
  Ga  Ga13  1  0.832422  0.664716  0.953361  1
  Ga  Ga14  1  0.832219  0.167781  0.953369  1
  Ga  Ga15  1  0.335284  0.167578  0.953361  1
  Ga  Ga16  1  0.167578  0.335284  0.453361  1
  Ga  Ga17  1  0.335284  0.167578  0.546639  1
  Ga  Ga18  1  0.832422  0.664716  0.546639  1
  Ga  Ga19  1  0.832219  0.167781  0.546631  1
  Pt  Pt20  1  0.333415  0.666585  0.027138  1
  Pt  Pt21  1  0.333415  0.666585  0.472862  1
  Pt  Pt22  1  0.666585  0.333415  0.972862  1
  Pt  Pt23  1  0.666585  0.333415  0.527138  1
