# generated using pymatgen
data_Sr6Fe3IrO14
_symmetry_space_group_name_H-M   'P 1'
_cell_length_a   10.79428088
_cell_length_b   10.79428071
_cell_length_c   5.55446600
_cell_angle_alpha   90.00699330
_cell_angle_beta   90.00698411
_cell_angle_gamma   150.10798190
_symmetry_Int_Tables_number   1
_chemical_formula_structural   Sr6Fe3IrO14
_chemical_formula_sum   'Sr6 Fe3 Ir1 O14'
_cell_volume   322.53654958
_cell_formula_units_Z   1
loop_
 _symmetry_equiv_pos_site_id
 _symmetry_equiv_pos_as_xyz
  1  'x, y, z'
loop_
 _atom_site_type_symbol
 _atom_site_label
 _atom_site_symmetry_multiplicity
 _atom_site_fract_x
 _atom_site_fract_y
 _atom_site_fract_z
 _atom_site_occupancy
  Sr  Sr0  1  0.188264  0.811736  0.000000  1
  Sr  Sr1  1  0.816521  0.183479  0.000000  1
  Sr  Sr2  1  0.318380  0.681620  0.500000  1
  Sr  Sr3  1  0.993369  0.006631  0.000000  1
  Sr  Sr4  1  0.687003  0.312997  0.500000  1
  Sr  Sr5  1  0.493582  0.506418  0.500000  1
  Fe  Fe6  1  0.896749  0.103251  0.500000  1
  Fe  Fe7  1  0.401981  0.598019  0.000000  1
  Fe  Fe8  1  0.596930  0.403070  0.000000  1
  Ir  Ir9  1  0.097364  0.902636  0.500000  1
  O  O10  1  0.154410  0.345038  0.258846  1
  O  O11  1  0.308337  0.113395  0.221058  1
  O  O12  1  0.654962  0.845590  0.741154  1
  O  O13  1  0.374891  0.180641  0.711873  1
  O  O14  1  0.801794  0.198206  0.500000  1
  O  O15  1  0.819359  0.625109  0.288127  1
  O  O16  1  0.194149  0.805851  0.500000  1
  O  O17  1  0.693650  0.306350  0.000000  1
  O  O18  1  0.663255  0.854086  0.250516  1
  O  O19  1  0.306088  0.693912  0.000000  1
  O  O20  1  0.005141  0.994859  0.500000  1
  O  O21  1  0.886605  0.691663  0.778942  1
  O  O22  1  0.501304  0.498696  0.000000  1
  O  O23  1  0.145914  0.336745  0.749484  1
