# generated using pymatgen
data_SmEr4(In2Pd)2
_symmetry_space_group_name_H-M   'P 1'
_cell_length_a   3.60373400
_cell_length_b   8.16387000
_cell_length_c   18.28624600
_cell_angle_alpha   90.00000000
_cell_angle_beta   90.00000000
_cell_angle_gamma   90.00000000
_symmetry_Int_Tables_number   1
_chemical_formula_structural   SmEr4(In2Pd)2
_chemical_formula_sum   'Sm2 Er8 In8 Pd4'
_cell_volume   537.98896240
_cell_formula_units_Z   2
loop_
 _symmetry_equiv_pos_site_id
 _symmetry_equiv_pos_as_xyz
  1  'x, y, z'
loop_
 _atom_site_type_symbol
 _atom_site_label
 _atom_site_symmetry_multiplicity
 _atom_site_fract_x
 _atom_site_fract_y
 _atom_site_fract_z
 _atom_site_occupancy
  Sm  Sm0  1  0.000000  0.500000  0.500000  1
  Sm  Sm1  1  0.000000  0.000000  0.000000  1
  Er  Er2  1  0.000000  0.738955  0.281597  1
  Er  Er3  1  0.000000  0.261045  0.718403  1
  Er  Er4  1  0.000000  0.761045  0.781597  1
  Er  Er5  1  0.000000  0.238955  0.218403  1
  Er  Er6  1  0.000000  0.619941  0.084196  1
  Er  Er7  1  0.000000  0.380059  0.915804  1
  Er  Er8  1  0.000000  0.880059  0.584196  1
  Er  Er9  1  0.000000  0.119941  0.415804  1
  In  In10  1  0.500000  0.702322  0.932324  1
  In  In11  1  0.500000  0.297678  0.067676  1
  In  In12  1  0.500000  0.797678  0.432324  1
  In  In13  1  0.500000  0.202322  0.567676  1
  In  In14  1  0.500000  0.582065  0.652490  1
  In  In15  1  0.500000  0.417935  0.347510  1
  In  In16  1  0.500000  0.917935  0.152490  1
  In  In17  1  0.500000  0.082065  0.847510  1
  Pd  Pd18  1  0.500000  0.523935  0.195610  1
  Pd  Pd19  1  0.500000  0.476065  0.804390  1
  Pd  Pd20  1  0.500000  0.976065  0.695610  1
  Pd  Pd21  1  0.500000  0.023935  0.304390  1
