# generated using pymatgen
data_TbDyYGa8Ag3
_symmetry_space_group_name_H-M   'P 1'
_cell_length_a   4.34106610
_cell_length_b   8.38053361
_cell_length_c   8.38053300
_cell_angle_alpha   69.69931257
_cell_angle_beta   74.98943199
_cell_angle_gamma   74.98944255
_symmetry_Int_Tables_number   1
_chemical_formula_structural   TbDyYGa8Ag3
_chemical_formula_sum   'Tb1 Dy1 Y1 Ga8 Ag3'
_cell_volume   271.33535386
_cell_formula_units_Z   1
loop_
 _symmetry_equiv_pos_site_id
 _symmetry_equiv_pos_as_xyz
  1  'x, y, z'
loop_
 _atom_site_type_symbol
 _atom_site_label
 _atom_site_symmetry_multiplicity
 _atom_site_fract_x
 _atom_site_fract_y
 _atom_site_fract_z
 _atom_site_occupancy
  Tb  Tb0  1  0.500016  0.499984  0.499984  1
  Dy  Dy1  1  0.200137  0.799863  0.799863  1
  Y  Y2  1  0.799809  0.200191  0.200191  1
  Ga  Ga3  1  0.643627  0.073838  0.638907  1
  Ga  Ga4  1  0.356413  0.925866  0.361308  1
  Ga  Ga5  1  0.643627  0.638907  0.073838  1
  Ga  Ga6  1  0.356413  0.361308  0.925866  1
  Ga  Ga7  1  0.841617  0.789496  0.527269  1
  Ga  Ga8  1  0.158261  0.210523  0.472955  1
  Ga  Ga9  1  0.841617  0.527269  0.789496  1
  Ga  Ga10  1  0.158261  0.472955  0.210523  1
  Ag  Ag11  1  0.500052  0.999948  0.999948  1
  Ag  Ag12  1  0.000074  0.805187  0.194665  1
  Ag  Ag13  1  0.000074  0.194665  0.805187  1
