# generated using pymatgen
data_Ca2La2As7Rh8
_symmetry_space_group_name_H-M   'P 1'
_cell_length_a   4.13748600
_cell_length_b   13.26642823
_cell_length_c   13.50243955
_cell_angle_alpha   82.14859432
_cell_angle_beta   90.00000000
_cell_angle_gamma   90.00000000
_symmetry_Int_Tables_number   1
_chemical_formula_structural   Ca2La2As7Rh8
_chemical_formula_sum   'Ca4 La4 As14 Rh16'
_cell_volume   734.19660487
_cell_formula_units_Z   2
loop_
 _symmetry_equiv_pos_site_id
 _symmetry_equiv_pos_as_xyz
  1  'x, y, z'
loop_
 _atom_site_type_symbol
 _atom_site_label
 _atom_site_symmetry_multiplicity
 _atom_site_fract_x
 _atom_site_fract_y
 _atom_site_fract_z
 _atom_site_occupancy
  Ca  Ca0  1  0.250000  0.516098  0.290694  1
  Ca  Ca1  1  0.750000  0.483902  0.709306  1
  Ca  Ca2  1  0.250000  0.211447  0.435342  1
  Ca  Ca3  1  0.750000  0.788553  0.564658  1
  La  La4  1  0.250000  0.102438  0.792506  1
  La  La5  1  0.750000  0.897562  0.207494  1
  La  La6  1  0.250000  0.287327  0.105679  1
  La  La7  1  0.750000  0.712673  0.894321  1
  As  As8  1  0.250000  0.057753  0.099709  1
  As  As9  1  0.750000  0.942247  0.900291  1
  As  As10  1  0.250000  0.313215  0.685951  1
  As  As11  1  0.750000  0.686785  0.314049  1
  As  As12  1  0.250000  0.608676  0.565675  1
  As  As13  1  0.750000  0.391324  0.434325  1
  As  As14  1  0.250000  0.848797  0.717948  1
  As  As15  1  0.750000  0.151203  0.282052  1
  As  As16  1  0.750000  0.256688  0.918804  1
  As  As17  1  0.250000  0.743312  0.081196  1
  As  As18  1  0.750000  0.095136  0.585723  1
  As  As19  1  0.250000  0.904864  0.414277  1
  As  As20  1  0.750000  0.472271  0.129335  1
  As  As21  1  0.250000  0.527729  0.870665  1
  Rh  Rh22  1  0.250000  0.987621  0.573091  1
  Rh  Rh23  1  0.750000  0.012379  0.426909  1
  Rh  Rh24  1  0.250000  0.666503  0.731074  1
  Rh  Rh25  1  0.750000  0.333497  0.268926  1
  Rh  Rh26  1  0.250000  0.553663  0.047894  1
  Rh  Rh27  1  0.750000  0.446337  0.952106  1
  Rh  Rh28  1  0.250000  0.053734  0.280719  1
  Rh  Rh29  1  0.750000  0.946266  0.719281  1
  Rh  Rh30  1  0.250000  0.426690  0.526413  1
  Rh  Rh31  1  0.750000  0.573310  0.473587  1
  Rh  Rh32  1  0.250000  0.918553  0.999102  1
  Rh  Rh33  1  0.750000  0.081447  0.000898  1
  Rh  Rh34  1  0.250000  0.720697  0.401789  1
  Rh  Rh35  1  0.750000  0.279303  0.598211  1
  Rh  Rh36  1  0.250000  0.344027  0.859175  1
  Rh  Rh37  1  0.750000  0.655973  0.140825  1
