# generated using pymatgen
data_Rb2NiMoSe4
_symmetry_space_group_name_H-M   'P 1'
_cell_length_a   14.75025099
_cell_length_b   13.12540134
_cell_length_c   7.80420879
_cell_angle_alpha   85.62951335
_cell_angle_beta   62.53031703
_cell_angle_gamma   31.84015958
_symmetry_Int_Tables_number   1
_chemical_formula_structural   Rb2NiMoSe4
_chemical_formula_sum   'Rb4 Ni2 Mo2 Se8'
_cell_volume   522.19545070
_cell_formula_units_Z   2
loop_
 _symmetry_equiv_pos_site_id
 _symmetry_equiv_pos_as_xyz
  1  'x, y, z'
loop_
 _atom_site_type_symbol
 _atom_site_label
 _atom_site_symmetry_multiplicity
 _atom_site_fract_x
 _atom_site_fract_y
 _atom_site_fract_z
 _atom_site_occupancy
  Rb  Rb0  1  0.572462  0.572462  0.927538  1
  Rb  Rb1  1  0.927538  0.927538  0.572462  1
  Rb  Rb2  1  0.322462  0.322462  0.677538  1
  Rb  Rb3  1  0.677538  0.677538  0.322462  1
  Ni  Ni4  1  0.000000  0.000000  0.000000  1
  Ni  Ni5  1  0.250000  0.250000  0.250000  1
  Mo  Mo6  1  0.750000  0.750000  0.750000  1
  Mo  Mo7  1  0.500000  0.500000  0.500000  1
  Se  Se8  1  0.208747  0.897673  0.603817  1
  Se  Se9  1  0.289764  0.603817  0.897673  1
  Se  Se10  1  0.603817  0.289764  0.208747  1
  Se  Se11  1  0.897673  0.208747  0.289764  1
  Se  Se12  1  0.352327  0.041253  0.960236  1
  Se  Se13  1  0.960236  0.646183  0.352327  1
  Se  Se14  1  0.646183  0.960236  0.041253  1
  Se  Se15  1  0.041253  0.352327  0.646183  1
