# generated using pymatgen
data_Gd5Ru3
_symmetry_space_group_name_H-M   'P 1'
_cell_length_a   8.27578700
_cell_length_b   8.27578611
_cell_length_c   6.41500600
_cell_angle_alpha   90.00000000
_cell_angle_beta   90.00000000
_cell_angle_gamma   119.99597049
_symmetry_Int_Tables_number   1
_chemical_formula_structural   Gd5Ru3
_chemical_formula_sum   'Gd10 Ru6'
_cell_volume   380.50808872
_cell_formula_units_Z   2
loop_
 _symmetry_equiv_pos_site_id
 _symmetry_equiv_pos_as_xyz
  1  'x, y, z'
loop_
 _atom_site_type_symbol
 _atom_site_label
 _atom_site_symmetry_multiplicity
 _atom_site_fract_x
 _atom_site_fract_y
 _atom_site_fract_z
 _atom_site_occupancy
  Gd  Gd0  1  0.666978  0.332865  0.000037  1
  Gd  Gd1  1  0.332864  0.666978  0.000037  1
  Gd  Gd2  1  0.742058  0.742058  0.249786  1
  Gd  Gd3  1  0.255191  0.999589  0.249989  1
  Gd  Gd4  1  0.999589  0.255192  0.249989  1
  Gd  Gd5  1  0.667135  0.333022  0.500037  1
  Gd  Gd6  1  0.333021  0.667135  0.500037  1
  Gd  Gd7  1  0.257943  0.257943  0.749785  1
  Gd  Gd8  1  0.744808  0.000411  0.749989  1
  Gd  Gd9  1  0.000411  0.744808  0.749989  1
  Ru  Ru10  1  0.603256  0.999875  0.249980  1
  Ru  Ru11  1  0.999875  0.603255  0.249980  1
  Ru  Ru12  1  0.395343  0.395343  0.250205  1
  Ru  Ru13  1  0.396744  0.000126  0.749979  1
  Ru  Ru14  1  0.000125  0.396744  0.749979  1
  Ru  Ru15  1  0.604658  0.604657  0.750206  1
