# generated using pymatgen
data_Yb5Y11(ZrIr3)4
_symmetry_space_group_name_H-M   'P 1'
_cell_length_a   10.88304011
_cell_length_b   10.84002890
_cell_length_c   6.28062648
_cell_angle_alpha   90.06397203
_cell_angle_beta   90.04568422
_cell_angle_gamma   89.91157156
_symmetry_Int_Tables_number   1
_chemical_formula_structural   Yb5Y11(ZrIr3)4
_chemical_formula_sum   'Yb5 Y11 Zr4 Ir12'
_cell_volume   740.93943606
_cell_formula_units_Z   1
loop_
 _symmetry_equiv_pos_site_id
 _symmetry_equiv_pos_as_xyz
  1  'x, y, z'
loop_
 _atom_site_type_symbol
 _atom_site_label
 _atom_site_symmetry_multiplicity
 _atom_site_fract_x
 _atom_site_fract_y
 _atom_site_fract_z
 _atom_site_occupancy
  Yb  Yb0  1  0.289333  0.084709  0.372280  1
  Yb  Yb1  1  0.290244  0.914581  0.872502  1
  Yb  Yb2  1  0.711523  0.082264  0.872446  1
  Yb  Yb3  1  0.710839  0.915935  0.371993  1
  Yb  Yb4  1  0.586051  0.791875  0.870439  1
  Y  Y5  1  0.582666  0.205397  0.372896  1
  Y  Y6  1  0.415584  0.794902  0.373058  1
  Y  Y7  1  0.414389  0.206521  0.872979  1
  Y  Y8  1  0.211741  0.414156  0.629286  1
  Y  Y9  1  0.211951  0.586514  0.129341  1
  Y  Y10  1  0.787445  0.413498  0.129984  1
  Y  Y11  1  0.787450  0.586274  0.629032  1
  Y  Y12  1  0.913879  0.712089  0.131420  1
  Y  Y13  1  0.912781  0.287804  0.629666  1
  Y  Y14  1  0.086728  0.712325  0.630108  1
  Y  Y15  1  0.086567  0.288143  0.129869  1
  Zr  Zr16  1  0.000585  0.000138  0.495045  1
  Zr  Zr17  1  0.001042  0.999913  0.995469  1
  Zr  Zr18  1  0.499774  0.501648  0.996435  1
  Zr  Zr19  1  0.499957  0.499365  0.495960  1
  Ir  Ir20  1  0.861479  0.147666  0.250742  1
  Ir  Ir21  1  0.864693  0.852342  0.748788  1
  Ir  Ir22  1  0.138813  0.148345  0.750885  1
  Ir  Ir23  1  0.139493  0.851255  0.250269  1
  Ir  Ir24  1  0.642649  0.359020  0.748236  1
  Ir  Ir25  1  0.642760  0.640912  0.252092  1
  Ir  Ir26  1  0.357143  0.359091  0.245888  1
  Ir  Ir27  1  0.353956  0.639335  0.743895  1
  Ir  Ir28  1  0.499729  0.002094  0.120681  1
  Ir  Ir29  1  0.499866  0.001746  0.624357  1
  Ir  Ir30  1  0.999316  0.500089  0.882010  1
  Ir  Ir31  1  0.999576  0.500055  0.381950  1
