# generated using pymatgen
data_Y2AlSi13Ir6
_symmetry_space_group_name_H-M   'P 1'
_cell_length_a   8.03634248
_cell_length_b   8.03634281
_cell_length_c   8.03634208
_cell_angle_alpha   57.02111667
_cell_angle_beta   57.02111622
_cell_angle_gamma   57.02111495
_symmetry_Int_Tables_number   1
_chemical_formula_structural   Y2AlSi13Ir6
_chemical_formula_sum   'Y2 Al1 Si13 Ir6'
_cell_volume   341.79026037
_cell_formula_units_Z   1
loop_
 _symmetry_equiv_pos_site_id
 _symmetry_equiv_pos_as_xyz
  1  'x, y, z'
loop_
 _atom_site_type_symbol
 _atom_site_label
 _atom_site_symmetry_multiplicity
 _atom_site_fract_x
 _atom_site_fract_y
 _atom_site_fract_z
 _atom_site_occupancy
  Y  Y0  1  0.999389  0.999389  0.999389  1
  Y  Y1  1  0.500611  0.500611  0.500611  1
  Al  Al2  1  0.750000  0.750000  0.750000  1
  Si  Si3  1  0.250000  0.250000  0.250000  1
  Si  Si4  1  0.850181  0.064368  0.671166  1
  Si  Si5  1  0.671166  0.850181  0.064368  1
  Si  Si6  1  0.064368  0.671166  0.850181  1
  Si  Si7  1  0.649819  0.828834  0.435632  1
  Si  Si8  1  0.435632  0.649819  0.828834  1
  Si  Si9  1  0.828834  0.435632  0.649819  1
  Si  Si10  1  0.169949  0.561788  0.355918  1
  Si  Si11  1  0.561788  0.355918  0.169949  1
  Si  Si12  1  0.355918  0.169949  0.561788  1
  Si  Si13  1  0.938212  0.330051  0.144082  1
  Si  Si14  1  0.330051  0.144082  0.938212  1
  Si  Si15  1  0.144082  0.938212  0.330051  1
  Ir  Ir16  1  0.080749  0.419251  0.750000  1
  Ir  Ir17  1  0.250000  0.928634  0.571366  1
  Ir  Ir18  1  0.571366  0.250000  0.928634  1
  Ir  Ir19  1  0.928634  0.571366  0.250000  1
  Ir  Ir20  1  0.419251  0.750000  0.080749  1
  Ir  Ir21  1  0.750000  0.080749  0.419251  1
