# generated using pymatgen
data_Pr6Al24PdRu7
_symmetry_space_group_name_H-M   'P 1'
_cell_length_a   8.93489518
_cell_length_b   8.92583759
_cell_length_c   9.70683500
_cell_angle_alpha   90.00000000
_cell_angle_beta   89.93831092
_cell_angle_gamma   119.96647038
_symmetry_Int_Tables_number   1
_chemical_formula_structural   Pr6Al24PdRu7
_chemical_formula_sum   'Pr6 Al24 Pd1 Ru7'
_cell_volume   670.64550871
_cell_formula_units_Z   1
loop_
 _symmetry_equiv_pos_site_id
 _symmetry_equiv_pos_as_xyz
  1  'x, y, z'
loop_
 _atom_site_type_symbol
 _atom_site_label
 _atom_site_symmetry_multiplicity
 _atom_site_fract_x
 _atom_site_fract_y
 _atom_site_fract_z
 _atom_site_occupancy
  Pr  Pr0  1  0.192611  0.383411  0.250881  1
  Pr  Pr1  1  0.807389  0.616589  0.749119  1
  Pr  Pr2  1  0.615151  0.807575  0.252044  1
  Pr  Pr3  1  0.384849  0.192425  0.747956  1
  Pr  Pr4  1  0.192611  0.809199  0.250881  1
  Pr  Pr5  1  0.807389  0.190801  0.749119  1
  Al  Al6  1  0.340270  0.670136  0.010787  1
  Al  Al7  1  0.659730  0.329864  0.989213  1
  Al  Al8  1  0.666617  0.333308  0.509598  1
  Al  Al9  1  0.333383  0.666692  0.490402  1
  Al  Al10  1  0.163068  0.325347  0.576047  1
  Al  Al11  1  0.836932  0.674653  0.423953  1
  Al  Al12  1  0.674758  0.837379  0.576055  1
  Al  Al13  1  0.833311  0.677016  0.077197  1
  Al  Al14  1  0.325242  0.162621  0.423945  1
  Al  Al15  1  0.166689  0.322984  0.922803  1
  Al  Al16  1  0.163068  0.837720  0.576047  1
  Al  Al17  1  0.325264  0.162632  0.076060  1
  Al  Al18  1  0.836932  0.162280  0.423953  1
  Al  Al19  1  0.674736  0.837368  0.923940  1
  Al  Al20  1  0.833311  0.156295  0.077197  1
  Al  Al21  1  0.166689  0.843705  0.922803  1
  Al  Al22  1  0.563069  0.125655  0.249388  1
  Al  Al23  1  0.436931  0.874345  0.750612  1
  Al  Al24  1  0.871960  0.435979  0.253846  1
  Al  Al25  1  0.128040  0.564021  0.746154  1
  Al  Al26  1  0.563069  0.437415  0.249388  1
  Al  Al27  1  0.436931  0.562585  0.750612  1
  Al  Al28  1  0.000178  0.000090  0.250330  1
  Al  Al29  1  0.999822  0.999910  0.749670  1
  Pd  Pd30  1  0.000000  0.500000  0.000000  1
  Ru  Ru31  1  0.500000  0.000000  0.000000  1
  Ru  Ru32  1  0.500000  0.000000  0.500000  1
  Ru  Ru33  1  0.500000  0.500000  0.000000  1
  Ru  Ru34  1  0.000000  0.500000  0.500000  1
  Ru  Ru35  1  0.500000  0.500000  0.500000  1
  Ru  Ru36  1  0.000000  0.000000  0.000000  1
  Ru  Ru37  1  0.000000  0.000000  0.500000  1
