# generated using pymatgen
data_Nb2B2MoWC2
_symmetry_space_group_name_H-M   'P 1'
_cell_length_a   8.93957213
_cell_length_b   8.93957211
_cell_length_c   3.14785300
_cell_angle_alpha   90.00000000
_cell_angle_beta   90.00000000
_cell_angle_gamma   159.47348813
_symmetry_Int_Tables_number   1
_chemical_formula_structural   Nb2B2MoWC2
_chemical_formula_sum   'Nb2 B2 Mo1 W1 C2'
_cell_volume   88.20847363
_cell_formula_units_Z   1
loop_
 _symmetry_equiv_pos_site_id
 _symmetry_equiv_pos_as_xyz
  1  'x, y, z'
loop_
 _atom_site_type_symbol
 _atom_site_label
 _atom_site_symmetry_multiplicity
 _atom_site_fract_x
 _atom_site_fract_y
 _atom_site_fract_z
 _atom_site_occupancy
  Nb  Nb0  1  0.314650  0.685351  0.250000  1
  Nb  Nb1  1  0.684704  0.315296  0.750000  1
  B  B2  1  0.529506  0.470494  0.750000  1
  B  B3  1  0.470433  0.529567  0.250000  1
  Mo  Mo4  1  0.931166  0.068834  0.750000  1
  W  W5  1  0.069340  0.930660  0.250000  1
  C  C6  1  0.811039  0.188961  0.750000  1
  C  C7  1  0.189162  0.810838  0.250000  1
