# generated using pymatgen
data_Y6Er3Tm7(CdNi)4
_symmetry_space_group_name_H-M   'P 1'
_cell_length_a   9.49142583
_cell_length_b   9.48924707
_cell_length_c   9.48924600
_cell_angle_alpha   60.00000373
_cell_angle_beta   60.00759689
_cell_angle_gamma   60.00759759
_symmetry_Int_Tables_number   1
_chemical_formula_structural   Y6Er3Tm7(CdNi)4
_chemical_formula_sum   'Y6 Er3 Tm7 Cd4 Ni4'
_cell_volume   604.40742910
_cell_formula_units_Z   1
loop_
 _symmetry_equiv_pos_site_id
 _symmetry_equiv_pos_as_xyz
  1  'x, y, z'
loop_
 _atom_site_type_symbol
 _atom_site_label
 _atom_site_symmetry_multiplicity
 _atom_site_fract_x
 _atom_site_fract_y
 _atom_site_fract_z
 _atom_site_occupancy
  Y  Y0  1  0.186953  0.813003  0.813003  1
  Y  Y1  1  0.813163  0.186881  0.186881  1
  Y  Y2  1  0.813163  0.186881  0.813076  1
  Y  Y3  1  0.186953  0.813003  0.187041  1
  Y  Y4  1  0.813163  0.813076  0.186881  1
  Y  Y5  1  0.186953  0.187041  0.813003  1
  Er  Er6  1  0.597986  0.598115  0.598115  1
  Er  Er7  1  0.597986  0.598115  0.205783  1
  Er  Er8  1  0.597986  0.205783  0.598115  1
  Tm  Tm9  1  0.205793  0.598069  0.598069  1
  Tm  Tm10  1  0.063643  0.436469  0.436469  1
  Tm  Tm11  1  0.436415  0.063652  0.063652  1
  Tm  Tm12  1  0.436415  0.063652  0.436280  1
  Tm  Tm13  1  0.063643  0.436469  0.063419  1
  Tm  Tm14  1  0.436415  0.436280  0.063652  1
  Tm  Tm15  1  0.063643  0.063419  0.436469  1
  Cd  Cd16  1  0.831178  0.830756  0.830756  1
  Cd  Cd17  1  0.831178  0.830756  0.507309  1
  Cd  Cd18  1  0.831178  0.507309  0.830756  1
  Cd  Cd19  1  0.507272  0.830909  0.830909  1
  Ni  Ni20  1  0.391518  0.392369  0.392369  1
  Ni  Ni21  1  0.391518  0.392369  0.823746  1
  Ni  Ni22  1  0.391518  0.823746  0.392369  1
  Ni  Ni23  1  0.824368  0.391878  0.391878  1
