# generated using pymatgen
data_Hf12Pa8Si15Au
_symmetry_space_group_name_H-M   'P 1'
_cell_length_a   7.25304511
_cell_length_b   7.28789520
_cell_length_c   13.33754400
_cell_angle_alpha   89.93618597
_cell_angle_beta   89.96825171
_cell_angle_gamma   89.96111962
_symmetry_Int_Tables_number   1
_chemical_formula_structural   Hf12Pa8Si15Au
_chemical_formula_sum   'Hf12 Pa8 Si15 Au1'
_cell_volume   705.01430102
_cell_formula_units_Z   1
loop_
 _symmetry_equiv_pos_site_id
 _symmetry_equiv_pos_as_xyz
  1  'x, y, z'
loop_
 _atom_site_type_symbol
 _atom_site_label
 _atom_site_symmetry_multiplicity
 _atom_site_fract_x
 _atom_site_fract_y
 _atom_site_fract_z
 _atom_site_occupancy
  Hf  Hf0  1  0.171516  0.172513  0.998875  1
  Hf  Hf1  1  0.826939  0.827406  0.500873  1
  Hf  Hf2  1  0.330177  0.681115  0.247743  1
  Hf  Hf3  1  0.672594  0.327073  0.750432  1
  Hf  Hf4  1  0.148580  0.995209  0.377150  1
  Hf  Hf5  1  0.849131  0.998647  0.875038  1
  Hf  Hf6  1  0.498371  0.651046  0.625197  1
  Hf  Hf7  1  0.348740  0.501042  0.874722  1
  Hf  Hf8  1  0.501092  0.350855  0.120694  1
  Hf  Hf9  1  0.656583  0.505508  0.377524  1
  Hf  Hf10  1  0.001138  0.150485  0.625395  1
  Hf  Hf11  1  0.998801  0.848575  0.123264  1
  Pa  Pa12  1  0.993661  0.343098  0.214193  1
  Pa  Pa13  1  0.004720  0.657154  0.716062  1
  Pa  Pa14  1  0.155857  0.499966  0.468944  1
  Pa  Pa15  1  0.504262  0.841557  0.033003  1
  Pa  Pa16  1  0.841659  0.504478  0.965143  1
  Pa  Pa17  1  0.496471  0.154802  0.538690  1
  Pa  Pa18  1  0.341622  0.995642  0.783509  1
  Pa  Pa19  1  0.660123  0.000816  0.281702  1
  Si  Si20  1  0.636251  0.705304  0.817529  1
  Si  Si21  1  0.204592  0.864254  0.568620  1
  Si  Si22  1  0.136359  0.794768  0.931472  1
  Si  Si23  1  0.794002  0.135488  0.067677  1
  Si  Si24  1  0.861909  0.204309  0.433431  1
  Si  Si25  1  0.294019  0.364692  0.682532  1
  Si  Si26  1  0.705006  0.635987  0.182033  1
  Si  Si27  1  0.294414  0.044667  0.182799  1
  Si  Si28  1  0.706480  0.951263  0.686099  1
  Si  Si29  1  0.454577  0.797140  0.435304  1
  Si  Si30  1  0.204234  0.546581  0.064793  1
  Si  Si31  1  0.545079  0.204314  0.933698  1
  Si  Si32  1  0.794569  0.453048  0.566214  1
  Si  Si33  1  0.045589  0.295309  0.814873  1
  Si  Si34  1  0.956310  0.703641  0.314018  1
  Au  Au35  1  0.364574  0.292248  0.320750  1
