# generated using pymatgen
data_Hf16Ir3Pd5C4
_symmetry_space_group_name_H-M   'P 1'
_cell_length_a   8.74960322
_cell_length_b   8.75299667
_cell_length_c   8.75299700
_cell_angle_alpha   60.00000252
_cell_angle_beta   59.98717205
_cell_angle_gamma   59.98717417
_symmetry_Int_Tables_number   1
_chemical_formula_structural   Hf16Ir3Pd5C4
_chemical_formula_sum   'Hf16 Ir3 Pd5 C4'
_cell_volume   473.91743324
_cell_formula_units_Z   1
loop_
 _symmetry_equiv_pos_site_id
 _symmetry_equiv_pos_as_xyz
  1  'x, y, z'
loop_
 _atom_site_type_symbol
 _atom_site_label
 _atom_site_symmetry_multiplicity
 _atom_site_fract_x
 _atom_site_fract_y
 _atom_site_fract_z
 _atom_site_occupancy
  Hf  Hf0  1  0.120528  0.626490  0.626490  1
  Hf  Hf1  1  0.628064  0.121055  0.625440  1
  Hf  Hf2  1  0.628064  0.625440  0.121055  1
  Hf  Hf3  1  0.628064  0.625440  0.625440  1
  Hf  Hf4  1  0.816767  0.817287  0.182973  1
  Hf  Hf5  1  0.177164  0.186739  0.818048  1
  Hf  Hf6  1  0.816767  0.182973  0.817287  1
  Hf  Hf7  1  0.177164  0.818048  0.186739  1
  Hf  Hf8  1  0.177164  0.818048  0.818048  1
  Hf  Hf9  1  0.816767  0.182973  0.182973  1
  Hf  Hf10  1  0.434702  0.432945  0.066177  1
  Hf  Hf11  1  0.064704  0.065002  0.435148  1
  Hf  Hf12  1  0.434702  0.066177  0.432945  1
  Hf  Hf13  1  0.064704  0.435148  0.065002  1
  Hf  Hf14  1  0.064704  0.435148  0.435148  1
  Hf  Hf15  1  0.434702  0.066177  0.066177  1
  Ir  Ir16  1  0.840671  0.482013  0.838658  1
  Ir  Ir17  1  0.840671  0.838658  0.482013  1
  Ir  Ir18  1  0.840671  0.838658  0.838658  1
  Pd  Pd19  1  0.765536  0.411488  0.411488  1
  Pd  Pd20  1  0.412935  0.763936  0.411566  1
  Pd  Pd21  1  0.412935  0.411566  0.763936  1
  Pd  Pd22  1  0.412935  0.411566  0.411566  1
  Pd  Pd23  1  0.485452  0.838182  0.838182  1
  C  C24  1  0.624100  0.125301  0.125301  1
  C  C25  1  0.126455  0.624397  0.124575  1
  C  C26  1  0.126455  0.124575  0.624397  1
  C  C27  1  0.126455  0.124575  0.124575  1
