# generated using pymatgen
data_Tb3Er13(C2Cl3)4
_symmetry_space_group_name_H-M   'P 1'
_cell_length_a   3.62576100
_cell_length_b   10.43792758
_cell_length_c   19.60793406
_cell_angle_alpha   90.06650156
_cell_angle_beta   90.00000000
_cell_angle_gamma   90.00000000
_symmetry_Int_Tables_number   1
_chemical_formula_structural   Tb3Er13(C2Cl3)4
_chemical_formula_sum   'Tb3 Er13 C8 Cl12'
_cell_volume   742.07021019
_cell_formula_units_Z   1
loop_
 _symmetry_equiv_pos_site_id
 _symmetry_equiv_pos_as_xyz
  1  'x, y, z'
loop_
 _atom_site_type_symbol
 _atom_site_label
 _atom_site_symmetry_multiplicity
 _atom_site_fract_x
 _atom_site_fract_y
 _atom_site_fract_z
 _atom_site_occupancy
  Tb  Tb0  1  0.750000  0.105236  0.666708  1
  Tb  Tb1  1  0.750000  0.605076  0.833004  1
  Tb  Tb2  1  0.250000  0.394756  0.167150  1
  Er  Er3  1  0.250000  0.863047  0.574664  1
  Er  Er4  1  0.750000  0.135853  0.424880  1
  Er  Er5  1  0.750000  0.636405  0.075317  1
  Er  Er6  1  0.250000  0.363060  0.925131  1
  Er  Er7  1  0.250000  0.867180  0.743358  1
  Er  Er8  1  0.750000  0.133779  0.256420  1
  Er  Er9  1  0.750000  0.633161  0.244150  1
  Er  Er10  1  0.250000  0.366211  0.756422  1
  Er  Er11  1  0.250000  0.870274  0.166193  1
  Er  Er12  1  0.750000  0.128683  0.834208  1
  Er  Er13  1  0.750000  0.629239  0.665640  1
  Er  Er14  1  0.250000  0.371710  0.334613  1
  Er  Er15  1  0.250000  0.896791  0.331615  1
  C  C16  1  0.250000  0.615739  0.749706  1
  C  C17  1  0.750000  0.383541  0.250843  1
  C  C18  1  0.750000  0.884873  0.250931  1
  C  C19  1  0.250000  0.116306  0.750176  1
  C  C20  1  0.250000  0.634545  0.153373  1
  C  C21  1  0.750000  0.366258  0.847287  1
  C  C22  1  0.750000  0.865561  0.652461  1
  C  C23  1  0.250000  0.132079  0.347121  1
  Cl  Cl24  1  0.250000  0.615232  0.556608  1
  Cl  Cl25  1  0.750000  0.383647  0.443714  1
  Cl  Cl26  1  0.750000  0.884400  0.056994  1
  Cl  Cl27  1  0.250000  0.115306  0.943349  1
  Cl  Cl28  1  0.250000  0.622672  0.955290  1
  Cl  Cl29  1  0.750000  0.377013  0.045030  1
  Cl  Cl30  1  0.750000  0.876731  0.452963  1
  Cl  Cl31  1  0.250000  0.122057  0.544678  1
  Cl  Cl32  1  0.250000  0.636240  0.353977  1
  Cl  Cl33  1  0.750000  0.367432  0.646413  1
  Cl  Cl34  1  0.750000  0.867526  0.853364  1
  Cl  Cl35  1  0.250000  0.132381  0.146251  1
