# generated using pymatgen
data_Lu3Zr(NiAs)4
_symmetry_space_group_name_H-M   'P 1'
_cell_length_a   3.99866600
_cell_length_b   3.99866657
_cell_length_c   14.90318700
_cell_angle_alpha   90.00000000
_cell_angle_beta   90.00000000
_cell_angle_gamma   119.99999525
_symmetry_Int_Tables_number   1
_chemical_formula_structural   Lu3Zr(NiAs)4
_chemical_formula_sum   'Lu3 Zr1 Ni4 As4'
_cell_volume   206.36694051
_cell_formula_units_Z   1
loop_
 _symmetry_equiv_pos_site_id
 _symmetry_equiv_pos_as_xyz
  1  'x, y, z'
loop_
 _atom_site_type_symbol
 _atom_site_label
 _atom_site_symmetry_multiplicity
 _atom_site_fract_x
 _atom_site_fract_y
 _atom_site_fract_z
 _atom_site_occupancy
  Lu  Lu0  1  0.000000  0.000000  0.750000  1
  Lu  Lu1  1  0.000000  0.000000  0.004377  1
  Lu  Lu2  1  0.000000  0.000000  0.495623  1
  Zr  Zr3  1  0.000000  0.000000  0.250000  1
  Ni  Ni4  1  0.333333  0.666667  0.155651  1
  Ni  Ni5  1  0.666667  0.333333  0.868262  1
  Ni  Ni6  1  0.666667  0.333333  0.631738  1
  Ni  Ni7  1  0.333333  0.666667  0.344349  1
  As  As8  1  0.333333  0.666667  0.617977  1
  As  As9  1  0.666667  0.333333  0.379325  1
  As  As10  1  0.666667  0.333333  0.120675  1
  As  As11  1  0.333333  0.666667  0.882023  1
