# generated using pymatgen
data_La3Er(Si5Pt3)2
_symmetry_space_group_name_H-M   'P 1'
_cell_length_a   8.28454873
_cell_length_b   8.28838995
_cell_length_c   8.28838940
_cell_angle_alpha   136.58967061
_cell_angle_beta   105.42571394
_cell_angle_gamma   90.44045033
_symmetry_Int_Tables_number   1
_chemical_formula_structural   La3Er(Si5Pt3)2
_chemical_formula_sum   'La3 Er1 Si10 Pt6'
_cell_volume   359.26717752
_cell_formula_units_Z   1
loop_
 _symmetry_equiv_pos_site_id
 _symmetry_equiv_pos_as_xyz
  1  'x, y, z'
loop_
 _atom_site_type_symbol
 _atom_site_label
 _atom_site_symmetry_multiplicity
 _atom_site_fract_x
 _atom_site_fract_y
 _atom_site_fract_z
 _atom_site_occupancy
  La  La0  1  0.138694  0.371051  0.767643  1
  La  La1  1  0.396428  0.129029  0.267399  1
  La  La2  1  0.604252  0.871020  0.733233  1
  Er  Er3  1  0.858377  0.628688  0.229689  1
  Si  Si4  1  0.501146  0.751585  0.251913  1
  Si  Si5  1  0.501146  0.249233  0.749561  1
  Si  Si6  1  0.228605  0.978169  0.748786  1
  Si  Si7  1  0.770823  0.519296  0.750769  1
  Si  Si8  1  0.770823  0.020054  0.251527  1
  Si  Si9  1  0.228605  0.479818  0.250436  1
  Si  Si10  1  0.031913  0.884184  0.147729  1
  Si  Si11  1  0.965741  0.113837  0.851903  1
  Si  Si12  1  0.740999  0.390506  0.350494  1
  Si  Si13  1  0.262754  0.613602  0.649153  1
  Pt  Pt14  1  0.999654  0.750464  0.748250  1
  Pt  Pt15  1  0.999654  0.251404  0.249190  1
  Pt  Pt16  1  0.248393  0.860466  0.387927  1
  Pt  Pt17  1  0.748369  0.135761  0.612608  1
  Pt  Pt18  1  0.476107  0.366000  0.110108  1
  Pt  Pt19  1  0.527518  0.635836  0.891682  1
