# generated using pymatgen
data_ZrBe3Pt2
_symmetry_space_group_name_H-M   'P 1'
_cell_length_a   4.79378424
_cell_length_b   4.79378455
_cell_length_c   4.74714114
_cell_angle_alpha   59.67444187
_cell_angle_beta   59.67443910
_cell_angle_gamma   60.00000720
_symmetry_Int_Tables_number   1
_chemical_formula_structural   ZrBe3Pt2
_chemical_formula_sum   'Zr1 Be3 Pt2'
_cell_volume   76.75725848
_cell_formula_units_Z   1
loop_
 _symmetry_equiv_pos_site_id
 _symmetry_equiv_pos_as_xyz
  1  'x, y, z'
loop_
 _atom_site_type_symbol
 _atom_site_label
 _atom_site_symmetry_multiplicity
 _atom_site_fract_x
 _atom_site_fract_y
 _atom_site_fract_z
 _atom_site_occupancy
  Zr  Zr0  1  0.000771  0.000771  0.997687  1
  Be  Be1  1  0.864195  0.375113  0.385579  1
  Be  Be2  1  0.375113  0.864195  0.385579  1
  Be  Be3  1  0.375113  0.375113  0.385579  1
  Pt  Pt4  1  0.767388  0.767388  0.697838  1
  Pt  Pt5  1  0.367421  0.367421  0.897738  1
