# generated using pymatgen
data_Tb3Ho8Er9Fe3CoSb8
_symmetry_space_group_name_H-M   'P 1'
_cell_length_a   7.85487553
_cell_length_b   8.75237500
_cell_length_c   12.15676800
_cell_angle_alpha   90.00000000
_cell_angle_beta   89.96427983
_cell_angle_gamma   90.00000000
_symmetry_Int_Tables_number   1
_chemical_formula_structural   Tb3Ho8Er9Fe3CoSb8
_chemical_formula_sum   'Tb3 Ho8 Er9 Fe3 Co1 Sb8'
_cell_volume   835.76324623
_cell_formula_units_Z   1
loop_
 _symmetry_equiv_pos_site_id
 _symmetry_equiv_pos_as_xyz
  1  'x, y, z'
loop_
 _atom_site_type_symbol
 _atom_site_label
 _atom_site_symmetry_multiplicity
 _atom_site_fract_x
 _atom_site_fract_y
 _atom_site_fract_z
 _atom_site_occupancy
  Tb  Tb0  1  0.624330  0.750000  0.307348  1
  Tb  Tb1  1  0.375135  0.250000  0.692163  1
  Tb  Tb2  1  0.877184  0.750000  0.807383  1
  Ho  Ho3  1  0.656808  0.250000  0.294507  1
  Ho  Ho4  1  0.845457  0.250000  0.797374  1
  Ho  Ho5  1  0.344746  0.750000  0.703282  1
  Ho  Ho6  1  0.446322  0.750000  0.995801  1
  Ho  Ho7  1  0.950163  0.250000  0.503614  1
  Ho  Ho8  1  0.549663  0.250000  0.003708  1
  Ho  Ho9  1  0.048956  0.750000  0.495995  1
  Ho  Ho10  1  0.123707  0.250000  0.192682  1
  Er  Er11  1  0.155809  0.750000  0.205072  1
  Er  Er12  1  0.825253  0.965179  0.064317  1
  Er  Er13  1  0.325445  0.033747  0.435226  1
  Er  Er14  1  0.175578  0.462755  0.936563  1
  Er  Er15  1  0.677606  0.538698  0.565607  1
  Er  Er16  1  0.175578  0.037245  0.936563  1
  Er  Er17  1  0.677606  0.961302  0.565607  1
  Er  Er18  1  0.825253  0.534821  0.064317  1
  Er  Er19  1  0.325445  0.466253  0.435226  1
  Fe  Fe20  1  0.430911  0.750000  0.489226  1
  Fe  Fe21  1  0.927316  0.250000  0.012351  1
  Fe  Fe22  1  0.071006  0.750000  0.990124  1
  Co  Co23  1  0.566182  0.250000  0.508024  1
  Sb  Sb24  1  0.931632  0.993532  0.327599  1
  Sb  Sb25  1  0.429414  0.007082  0.171754  1
  Sb  Sb26  1  0.068884  0.492699  0.671974  1
  Sb  Sb27  1  0.569341  0.507036  0.827632  1
  Sb  Sb28  1  0.068884  0.007301  0.671974  1
  Sb  Sb29  1  0.569341  0.992964  0.827632  1
  Sb  Sb30  1  0.931632  0.506468  0.327599  1
  Sb  Sb31  1  0.429414  0.492918  0.171754  1
