# generated using pymatgen
data_Dy2Y2Al18PtRh5
_symmetry_space_group_name_H-M   'P 1'
_cell_length_a   7.57408705
_cell_length_b   7.57457423
_cell_length_c   9.47600500
_cell_angle_alpha   89.99407528
_cell_angle_beta   89.99251498
_cell_angle_gamma   119.52602222
_symmetry_Int_Tables_number   1
_chemical_formula_structural   Dy2Y2Al18PtRh5
_chemical_formula_sum   'Dy2 Y2 Al18 Pt1 Rh5'
_cell_volume   473.04113518
_cell_formula_units_Z   1
loop_
 _symmetry_equiv_pos_site_id
 _symmetry_equiv_pos_as_xyz
  1  'x, y, z'
loop_
 _atom_site_type_symbol
 _atom_site_label
 _atom_site_symmetry_multiplicity
 _atom_site_fract_x
 _atom_site_fract_y
 _atom_site_fract_z
 _atom_site_occupancy
  Dy  Dy0  1  0.670806  0.995787  0.749750  1
  Dy  Dy1  1  0.330561  0.005658  0.249979  1
  Y  Y2  1  0.994338  0.669387  0.750034  1
  Y  Y3  1  0.004259  0.329203  0.250240  1
  Al  Al4  1  0.126821  0.126216  0.750272  1
  Al  Al5  1  0.873940  0.873153  0.249727  1
  Al  Al6  1  0.004519  0.334995  0.576350  1
  Al  Al7  1  0.002705  0.668761  0.423682  1
  Al  Al8  1  0.000337  0.665207  0.074624  1
  Al  Al9  1  0.334925  0.999732  0.925515  1
  Al  Al10  1  0.000960  0.334627  0.925074  1
  Al  Al11  1  0.665251  0.998972  0.074902  1
  Al  Al12  1  0.664886  0.995414  0.423668  1
  Al  Al13  1  0.331365  0.997361  0.576182  1
  Al  Al14  1  0.332610  0.332573  0.051147  1
  Al  Al15  1  0.667372  0.667435  0.948879  1
  Al  Al16  1  0.666420  0.669762  0.553410  1
  Al  Al17  1  0.330287  0.333534  0.446558  1
  Al  Al18  1  0.339995  0.550168  0.750283  1
  Al  Al19  1  0.660388  0.453854  0.246787  1
  Al  Al20  1  0.545991  0.339450  0.753222  1
  Al  Al21  1  0.449826  0.660133  0.249717  1
  Pt  Pt22  1  0.672324  0.327686  0.500040  1
  Rh  Rh23  1  0.328167  0.671848  0.500027  1
  Rh  Rh24  1  0.328395  0.671632  0.999969  1
  Rh  Rh25  1  0.672271  0.327725  0.999961  1
  Rh  Rh26  1  0.000045  0.999957  0.500037  1
  Rh  Rh27  1  0.000237  0.999770  0.999962  1
