# generated using pymatgen
data_Gd16Dy4Ir5Rh7
_symmetry_space_group_name_H-M   'P 1'
_cell_length_a   10.92837610
_cell_length_b   10.92837583
_cell_length_c   6.39636800
_cell_angle_alpha   89.99207282
_cell_angle_beta   89.99207282
_cell_angle_gamma   90.04043697
_symmetry_Int_Tables_number   1
_chemical_formula_structural   Gd16Dy4Ir5Rh7
_chemical_formula_sum   'Gd16 Dy4 Ir5 Rh7'
_cell_volume   763.91419549
_cell_formula_units_Z   1
loop_
 _symmetry_equiv_pos_site_id
 _symmetry_equiv_pos_as_xyz
  1  'x, y, z'
loop_
 _atom_site_type_symbol
 _atom_site_label
 _atom_site_symmetry_multiplicity
 _atom_site_fract_x
 _atom_site_fract_y
 _atom_site_fract_z
 _atom_site_occupancy
  Gd  Gd0  1  0.289803  0.088669  0.378786  1
  Gd  Gd1  1  0.289827  0.909587  0.880046  1
  Gd  Gd2  1  0.709707  0.090065  0.879092  1
  Gd  Gd3  1  0.709541  0.909777  0.378866  1
  Gd  Gd4  1  0.588124  0.788966  0.880018  1
  Gd  Gd5  1  0.587719  0.211056  0.379806  1
  Gd  Gd6  1  0.410605  0.789391  0.379906  1
  Gd  Gd7  1  0.411989  0.210904  0.879871  1
  Gd  Gd8  1  0.211034  0.411876  0.619982  1
  Gd  Gd9  1  0.210609  0.589395  0.120094  1
  Gd  Gd10  1  0.788944  0.412281  0.120194  1
  Gd  Gd11  1  0.789096  0.588011  0.620129  1
  Gd  Gd12  1  0.911331  0.710197  0.121214  1
  Gd  Gd13  1  0.909935  0.290293  0.620908  1
  Gd  Gd14  1  0.090413  0.710173  0.619954  1
  Gd  Gd15  1  0.090223  0.290459  0.121134  1
  Dy  Dy16  1  0.999993  0.999791  0.500206  1
  Dy  Dy17  1  0.000209  0.000007  0.999794  1
  Dy  Dy18  1  0.499896  0.499759  0.000148  1
  Dy  Dy19  1  0.500241  0.500104  0.499852  1
  Ir  Ir20  1  0.152343  0.847657  0.250000  1
  Ir  Ir21  1  0.653817  0.346183  0.750000  1
  Ir  Ir22  1  0.654174  0.653732  0.249530  1
  Ir  Ir23  1  0.346268  0.345826  0.250470  1
  Ir  Ir24  1  0.346839  0.653161  0.750000  1
  Rh  Rh25  1  0.847510  0.152490  0.250000  1
  Rh  Rh26  1  0.846680  0.847387  0.749882  1
  Rh  Rh27  1  0.152613  0.153320  0.750118  1
  Rh  Rh28  1  0.500769  0.000437  0.123848  1
  Rh  Rh29  1  0.500423  0.000242  0.624818  1
  Rh  Rh30  1  0.999758  0.499577  0.875182  1
  Rh  Rh31  1  0.999563  0.499231  0.376152  1
