# generated using pymatgen
data_Nd6PdAu7
_symmetry_space_group_name_H-M   'P 1'
_cell_length_a   8.27439400
_cell_length_b   8.27439409
_cell_length_c   8.27439485
_cell_angle_alpha   113.98564272
_cell_angle_beta   113.98563267
_cell_angle_gamma   113.98564478
_symmetry_Int_Tables_number   1
_chemical_formula_structural   Nd6PdAu7
_chemical_formula_sum   'Nd6 Pd1 Au7'
_cell_volume   344.55117433
_cell_formula_units_Z   1
loop_
 _symmetry_equiv_pos_site_id
 _symmetry_equiv_pos_as_xyz
  1  'x, y, z'
loop_
 _atom_site_type_symbol
 _atom_site_label
 _atom_site_symmetry_multiplicity
 _atom_site_fract_x
 _atom_site_fract_y
 _atom_site_fract_z
 _atom_site_occupancy
  Nd  Nd0  1  0.983400  0.608161  0.730649  1
  Nd  Nd1  1  0.730649  0.983400  0.608161  1
  Nd  Nd2  1  0.608161  0.730649  0.983400  1
  Nd  Nd3  1  0.016600  0.391839  0.269351  1
  Nd  Nd4  1  0.269351  0.016600  0.391839  1
  Nd  Nd5  1  0.391839  0.269351  0.016600  1
  Pd  Pd6  1  0.000000  0.000000  0.000000  1
  Au  Au7  1  0.500000  0.500000  0.500000  1
  Au  Au8  1  0.928195  0.766800  0.433031  1
  Au  Au9  1  0.433031  0.928195  0.766800  1
  Au  Au10  1  0.766800  0.433031  0.928195  1
  Au  Au11  1  0.071805  0.233200  0.566969  1
  Au  Au12  1  0.566969  0.071805  0.233200  1
  Au  Au13  1  0.233200  0.566969  0.071805  1
