# generated using pymatgen
data_Er3Tm4Sn23Rh6
_symmetry_space_group_name_H-M   'P 1'
_cell_length_a   9.83039305
_cell_length_b   9.83210997
_cell_length_c   10.08738300
_cell_angle_alpha   89.99999820
_cell_angle_beta   90.00151876
_cell_angle_gamma   120.00577607
_symmetry_Int_Tables_number   1
_chemical_formula_structural   Er3Tm4Sn23Rh6
_chemical_formula_sum   'Er3 Tm4 Sn23 Rh6'
_cell_volume   844.30910324
_cell_formula_units_Z   1
loop_
 _symmetry_equiv_pos_site_id
 _symmetry_equiv_pos_as_xyz
  1  'x, y, z'
loop_
 _atom_site_type_symbol
 _atom_site_label
 _atom_site_symmetry_multiplicity
 _atom_site_fract_x
 _atom_site_fract_y
 _atom_site_fract_z
 _atom_site_occupancy
  Er  Er0  1  0.039930  0.519966  0.307503  1
  Er  Er1  1  0.960070  0.480034  0.692497  1
  Er  Er2  1  0.000000  0.000000  0.000000  1
  Tm  Tm3  1  0.480119  0.519866  0.307564  1
  Tm  Tm4  1  0.519881  0.480134  0.692436  1
  Tm  Tm5  1  0.480119  0.960255  0.307564  1
  Tm  Tm6  1  0.519881  0.039745  0.692436  1
  Sn  Sn7  1  0.120282  0.879862  0.281863  1
  Sn  Sn8  1  0.879718  0.120138  0.718137  1
  Sn  Sn9  1  0.120282  0.240418  0.281863  1
  Sn  Sn10  1  0.879718  0.759582  0.718137  1
  Sn  Sn11  1  0.759456  0.879727  0.281869  1
  Sn  Sn12  1  0.240544  0.120273  0.718131  1
  Sn  Sn13  1  0.777212  0.222440  0.456143  1
  Sn  Sn14  1  0.222788  0.777560  0.543857  1
  Sn  Sn15  1  0.777212  0.554771  0.456143  1
  Sn  Sn16  1  0.222788  0.445229  0.543857  1
  Sn  Sn17  1  0.445231  0.222615  0.456145  1
  Sn  Sn18  1  0.554769  0.777385  0.543855  1
  Sn  Sn19  1  0.351184  0.000026  0.000002  1
  Sn  Sn20  1  0.648816  0.999974  0.999998  1
  Sn  Sn21  1  0.000000  0.351119  0.000000  1
  Sn  Sn22  1  0.000000  0.648881  0.000000  1
  Sn  Sn23  1  0.648816  0.648842  0.999998  1
  Sn  Sn24  1  0.351184  0.351158  0.000002  1
  Sn  Sn25  1  0.333531  0.666766  0.124671  1
  Sn  Sn26  1  0.666469  0.333234  0.875329  1
  Sn  Sn27  1  0.333364  0.666683  0.820941  1
  Sn  Sn28  1  0.666636  0.333317  0.179059  1
  Sn  Sn29  1  0.000000  0.000000  0.500000  1
  Rh  Rh30  1  0.831071  0.168696  0.198645  1
  Rh  Rh31  1  0.168929  0.831304  0.801355  1
  Rh  Rh32  1  0.831071  0.662376  0.198645  1
  Rh  Rh33  1  0.168929  0.337624  0.801355  1
  Rh  Rh34  1  0.337679  0.168840  0.198704  1
  Rh  Rh35  1  0.662321  0.831160  0.801296  1
