# generated using pymatgen
data_CaYb2Er(Al3Pd)6
_symmetry_space_group_name_H-M   'P 1'
_cell_length_a   7.65235904
_cell_length_b   7.64835414
_cell_length_c   9.48576000
_cell_angle_alpha   90.00000000
_cell_angle_beta   90.00000000
_cell_angle_gamma   119.55742524
_symmetry_Int_Tables_number   1
_chemical_formula_structural   CaYb2Er(Al3Pd)6
_chemical_formula_sum   'Ca1 Yb2 Er1 Al18 Pd6'
_cell_volume   482.93166269
_cell_formula_units_Z   1
loop_
 _symmetry_equiv_pos_site_id
 _symmetry_equiv_pos_as_xyz
  1  'x, y, z'
loop_
 _atom_site_type_symbol
 _atom_site_label
 _atom_site_symmetry_multiplicity
 _atom_site_fract_x
 _atom_site_fract_y
 _atom_site_fract_z
 _atom_site_occupancy
  Ca  Ca0  1  0.994906  0.669598  0.250000  1
  Yb  Yb1  1  0.003598  0.330035  0.750000  1
  Yb  Yb2  1  0.671767  0.996781  0.250000  1
  Er  Er3  1  0.329994  0.003008  0.750000  1
  Al  Al4  1  0.132322  0.132286  0.250000  1
  Al  Al5  1  0.871856  0.869801  0.750000  1
  Al  Al6  1  0.001201  0.334875  0.075393  1
  Al  Al7  1  0.999738  0.665120  0.921419  1
  Al  Al8  1  0.999738  0.665120  0.578581  1
  Al  Al9  1  0.334891  0.000368  0.424667  1
  Al  Al10  1  0.001201  0.334875  0.424607  1
  Al  Al11  1  0.665071  0.999829  0.578130  1
  Al  Al12  1  0.665071  0.999829  0.921870  1
  Al  Al13  1  0.334891  0.000368  0.075333  1
  Al  Al14  1  0.332513  0.331790  0.559093  1
  Al  Al15  1  0.666289  0.666548  0.445875  1
  Al  Al16  1  0.666289  0.666548  0.054125  1
  Al  Al17  1  0.332513  0.331790  0.940907  1
  Al  Al18  1  0.340426  0.546979  0.250000  1
  Al  Al19  1  0.656507  0.451771  0.750000  1
  Al  Al20  1  0.544270  0.339740  0.250000  1
  Al  Al21  1  0.455243  0.663504  0.750000  1
  Pd  Pd22  1  0.671426  0.327425  0.999362  1
  Pd  Pd23  1  0.328043  0.671836  0.998796  1
  Pd  Pd24  1  0.328043  0.671836  0.501204  1
  Pd  Pd25  1  0.671426  0.327425  0.500638  1
  Pd  Pd26  1  0.000385  0.000458  0.999155  1
  Pd  Pd27  1  0.000385  0.000458  0.500845  1
