# generated using pymatgen
data_Tb15Ho(CoHg3)2
_symmetry_space_group_name_H-M   'P 1'
_cell_length_a   10.18353400
_cell_length_b   10.19420777
_cell_length_c   7.12639100
_cell_angle_alpha   90.00213021
_cell_angle_beta   90.00000000
_cell_angle_gamma   119.96537014
_symmetry_Int_Tables_number   1
_chemical_formula_structural   Tb15Ho(CoHg3)2
_chemical_formula_sum   'Tb15 Ho1 Co2 Hg6'
_cell_volume   640.91984585
_cell_formula_units_Z   1
loop_
 _symmetry_equiv_pos_site_id
 _symmetry_equiv_pos_as_xyz
  1  'x, y, z'
loop_
 _atom_site_type_symbol
 _atom_site_label
 _atom_site_symmetry_multiplicity
 _atom_site_fract_x
 _atom_site_fract_y
 _atom_site_fract_z
 _atom_site_occupancy
  Tb  Tb0  1  0.346846  0.173273  0.482991  1
  Tb  Tb1  1  0.826425  0.173273  0.482991  1
  Tb  Tb2  1  0.173393  0.346784  0.982789  1
  Tb  Tb3  1  0.653201  0.826486  0.982327  1
  Tb  Tb4  1  0.173288  0.826486  0.982327  1
  Tb  Tb5  1  0.667198  0.334395  0.187242  1
  Tb  Tb6  1  0.333546  0.667094  0.686635  1
  Tb  Tb7  1  0.539157  0.078314  0.789896  1
  Tb  Tb8  1  0.921581  0.461009  0.789136  1
  Tb  Tb9  1  0.539429  0.461009  0.789136  1
  Tb  Tb10  1  0.460707  0.921414  0.289878  1
  Tb  Tb11  1  0.077839  0.538942  0.290004  1
  Tb  Tb12  1  0.461102  0.538942  0.290004  1
  Tb  Tb13  1  0.999672  0.999343  0.774284  1
  Tb  Tb14  1  0.000132  0.000264  0.274701  1
  Ho  Ho15  1  0.826177  0.652355  0.482673  1
  Co  Co16  1  0.667159  0.334316  0.553817  1
  Co  Co17  1  0.333342  0.666684  0.053974  1
  Hg  Hg18  1  0.832362  0.664724  0.044996  1
  Hg  Hg19  1  0.335335  0.167938  0.043439  1
  Hg  Hg20  1  0.832602  0.167938  0.043439  1
  Hg  Hg21  1  0.167674  0.335347  0.543785  1
  Hg  Hg22  1  0.665600  0.831835  0.542808  1
  Hg  Hg23  1  0.166235  0.831835  0.542808  1
