# generated using pymatgen
data_Tb5(YS4)2
_symmetry_space_group_name_H-M   'P 1'
_cell_length_a   7.82665828
_cell_length_b   7.82432190
_cell_length_c   7.82665828
_cell_angle_alpha   119.99012209
_cell_angle_beta   89.99247063
_cell_angle_gamma   119.99012209
_symmetry_Int_Tables_number   1
_chemical_formula_structural   Tb5(YS4)2
_chemical_formula_sum   'Tb5 Y2 S8'
_cell_volume   339.03347511
_cell_formula_units_Z   1
loop_
 _symmetry_equiv_pos_site_id
 _symmetry_equiv_pos_as_xyz
  1  'x, y, z'
loop_
 _atom_site_type_symbol
 _atom_site_label
 _atom_site_symmetry_multiplicity
 _atom_site_fract_x
 _atom_site_fract_y
 _atom_site_fract_z
 _atom_site_occupancy
  Tb  Tb0  1  0.249985  0.000003  0.249984  1
  Tb  Tb1  1  0.249985  0.499965  0.249984  1
  Tb  Tb2  1  0.750016  0.000000  0.249985  1
  Tb  Tb3  1  0.750016  0.999997  0.750015  1
  Tb  Tb4  1  0.750016  0.500034  0.750015  1
  Y  Y5  1  0.250007  0.500001  0.749996  1
  Y  Y6  1  0.249980  0.000000  0.750021  1
  S  S7  1  0.000158  0.000000  0.999842  1
  S  S8  1  0.499843  0.000000  0.500157  1
  S  S9  1  0.999781  0.999266  0.499784  1
  S  S10  1  0.999781  0.500299  0.499784  1
  S  S11  1  0.500329  0.500001  0.499674  1
  S  S12  1  0.999673  0.500001  0.000329  1
  S  S13  1  0.500217  0.499703  0.000219  1
  S  S14  1  0.500217  0.000733  0.000219  1
