# generated using pymatgen
data_Tb7Lu5InCo4Ni
_symmetry_space_group_name_H-M   'P 1'
_cell_length_a   8.25136212
_cell_length_b   8.25136256
_cell_length_c   8.23564744
_cell_angle_alpha   110.99272487
_cell_angle_beta   110.48790122
_cell_angle_gamma   107.04303057
_symmetry_Int_Tables_number   1
_chemical_formula_structural   Tb7Lu5InCo4Ni
_chemical_formula_sum   'Tb7 Lu5 In1 Co4 Ni1'
_cell_volume   430.60802919
_cell_formula_units_Z   1
loop_
 _symmetry_equiv_pos_site_id
 _symmetry_equiv_pos_as_xyz
  1  'x, y, z'
loop_
 _atom_site_type_symbol
 _atom_site_label
 _atom_site_symmetry_multiplicity
 _atom_site_fract_x
 _atom_site_fract_y
 _atom_site_fract_z
 _atom_site_occupancy
  Tb  Tb0  1  0.410812  0.213431  0.195529  1
  Tb  Tb1  1  0.595432  0.790457  0.806666  1
  Tb  Tb2  1  0.016211  0.211235  0.806666  1
  Tb  Tb3  1  0.982098  0.784717  0.195529  1
  Tb  Tb4  1  0.184103  0.291860  0.475963  1
  Tb  Tb5  1  0.813987  0.705840  0.519828  1
  Tb  Tb6  1  0.186795  0.707035  0.893830  1
  Lu  Lu7  1  0.813708  0.292869  0.106577  1
  Lu  Lu8  1  0.316440  0.624614  0.307297  1
  Lu  Lu9  1  0.683423  0.375013  0.694370  1
  Lu  Lu10  1  0.319358  0.010947  0.694370  1
  Lu  Lu11  1  0.682684  0.990858  0.307297  1
  In  In12  1  0.498968  0.500345  0.999313  1
  Co  Co13  1  0.378482  0.999623  0.378105  1
  Co  Co14  1  0.620904  0.002922  0.623826  1
  Co  Co15  1  0.110972  0.612144  0.495398  1
  Co  Co16  1  0.883254  0.384426  0.495398  1
  Ni  Ni17  1  0.002371  0.001661  0.004032  1
