# generated using pymatgen
data_Cs2NaDySb2
_symmetry_space_group_name_H-M   'P 1'
_cell_length_a   11.67341013
_cell_length_b   11.67340890
_cell_length_c   7.58984800
_cell_angle_alpha   90.00000000
_cell_angle_beta   90.00000000
_cell_angle_gamma   99.81299041
_symmetry_Int_Tables_number   1
_chemical_formula_structural   Cs2NaDySb2
_chemical_formula_sum   'Cs8 Na4 Dy4 Sb8'
_cell_volume   1019.12520043
_cell_formula_units_Z   4
loop_
 _symmetry_equiv_pos_site_id
 _symmetry_equiv_pos_as_xyz
  1  'x, y, z'
loop_
 _atom_site_type_symbol
 _atom_site_label
 _atom_site_symmetry_multiplicity
 _atom_site_fract_x
 _atom_site_fract_y
 _atom_site_fract_z
 _atom_site_occupancy
  Cs  Cs0  1  0.070918  0.429082  0.250000  1
  Cs  Cs1  1  0.429082  0.070918  0.750000  1
  Cs  Cs2  1  0.929082  0.570918  0.750000  1
  Cs  Cs3  1  0.570918  0.929082  0.250000  1
  Cs  Cs4  1  0.676864  0.323136  0.213065  1
  Cs  Cs5  1  0.823136  0.176864  0.713065  1
  Cs  Cs6  1  0.323136  0.676864  0.786935  1
  Cs  Cs7  1  0.176864  0.823136  0.286935  1
  Na  Na8  1  0.381950  0.381950  0.000000  1
  Na  Na9  1  0.118050  0.118050  0.500000  1
  Na  Na10  1  0.618050  0.618050  0.000000  1
  Na  Na11  1  0.881950  0.881950  0.500000  1
  Dy  Dy12  1  0.131176  0.131176  0.000000  1
  Dy  Dy13  1  0.368824  0.368824  0.500000  1
  Dy  Dy14  1  0.868824  0.868824  0.000000  1
  Dy  Dy15  1  0.631176  0.631176  0.500000  1
  Sb  Sb16  1  0.841405  0.658594  0.250000  1
  Sb  Sb17  1  0.658594  0.841405  0.750000  1
  Sb  Sb18  1  0.158594  0.341405  0.750000  1
  Sb  Sb19  1  0.341405  0.158594  0.250000  1
  Sb  Sb20  1  0.905009  0.094991  0.209966  1
  Sb  Sb21  1  0.594991  0.405009  0.709966  1
  Sb  Sb22  1  0.094991  0.905009  0.790034  1
  Sb  Sb23  1  0.405009  0.594991  0.290034  1
