# generated using pymatgen
data_HfZrCuPt2Au
_symmetry_space_group_name_H-M   'P 1'
_cell_length_a   3.51131500
_cell_length_b   6.94985252
_cell_length_c   8.58640283
_cell_angle_alpha   89.67902219
_cell_angle_beta   90.00000000
_cell_angle_gamma   90.00000000
_symmetry_Int_Tables_number   1
_chemical_formula_structural   HfZrCuPt2Au
_chemical_formula_sum   'Hf2 Zr2 Cu2 Pt4 Au2'
_cell_volume   209.53174265
_cell_formula_units_Z   2
loop_
 _symmetry_equiv_pos_site_id
 _symmetry_equiv_pos_as_xyz
  1  'x, y, z'
loop_
 _atom_site_type_symbol
 _atom_site_label
 _atom_site_symmetry_multiplicity
 _atom_site_fract_x
 _atom_site_fract_y
 _atom_site_fract_z
 _atom_site_occupancy
  Hf  Hf0  1  0.250000  0.618544  0.747313  1
  Hf  Hf1  1  0.750000  0.381456  0.252687  1
  Zr  Zr2  1  0.250000  0.124825  0.763527  1
  Zr  Zr3  1  0.750000  0.875175  0.236473  1
  Cu  Cu4  1  0.750000  0.393040  0.927353  1
  Cu  Cu5  1  0.250000  0.606960  0.072647  1
  Pt  Pt6  1  0.250000  0.153072  0.083232  1
  Pt  Pt7  1  0.750000  0.846928  0.916768  1
  Pt  Pt8  1  0.250000  0.627846  0.393633  1
  Pt  Pt9  1  0.750000  0.372154  0.606367  1
  Au  Au10  1  0.750000  0.870414  0.582509  1
  Au  Au11  1  0.250000  0.129586  0.417491  1
