# generated using pymatgen
data_TbHo7(TcB6)4
_symmetry_space_group_name_H-M   'P 1'
_cell_length_a   3.67854300
_cell_length_b   9.14616202
_cell_length_c   11.52609002
_cell_angle_alpha   89.99300984
_cell_angle_beta   90.00000000
_cell_angle_gamma   90.00000000
_symmetry_Int_Tables_number   1
_chemical_formula_structural   TbHo7(TcB6)4
_chemical_formula_sum   'Tb1 Ho7 Tc4 B24'
_cell_volume   387.79011219
_cell_formula_units_Z   1
loop_
 _symmetry_equiv_pos_site_id
 _symmetry_equiv_pos_as_xyz
  1  'x, y, z'
loop_
 _atom_site_type_symbol
 _atom_site_label
 _atom_site_symmetry_multiplicity
 _atom_site_fract_x
 _atom_site_fract_y
 _atom_site_fract_z
 _atom_site_occupancy
  Tb  Tb0  1  0.000000  0.323691  0.414175  1
  Ho  Ho1  1  0.000000  0.676052  0.585926  1
  Ho  Ho2  1  0.000000  0.823977  0.085687  1
  Ho  Ho3  1  0.000000  0.176059  0.914218  1
  Ho  Ho4  1  0.000000  0.942546  0.369127  1
  Ho  Ho5  1  0.000000  0.057252  0.631007  1
  Ho  Ho6  1  0.000000  0.442701  0.130618  1
  Ho  Ho7  1  0.000000  0.557463  0.869357  1
  Tc  Tc8  1  0.000000  0.639358  0.320067  1
  Tc  Tc9  1  0.000000  0.361053  0.680251  1
  Tc  Tc10  1  0.000000  0.138594  0.179103  1
  Tc  Tc11  1  0.000000  0.861048  0.820313  1
  B  B12  1  0.500000  0.553822  0.432891  1
  B  B13  1  0.500000  0.446854  0.567533  1
  B  B14  1  0.500000  0.053194  0.066881  1
  B  B15  1  0.500000  0.946636  0.932937  1
  B  B16  1  0.500000  0.749157  0.418692  1
  B  B17  1  0.500000  0.250982  0.582015  1
  B  B18  1  0.500000  0.248949  0.081121  1
  B  B19  1  0.500000  0.751064  0.918677  1
  B  B20  1  0.500000  0.791986  0.264923  1
  B  B21  1  0.500000  0.208059  0.735270  1
  B  B22  1  0.500000  0.291618  0.234482  1
  B  B23  1  0.500000  0.708133  0.765084  1
  B  B24  1  0.500000  0.630945  0.185193  1
  B  B25  1  0.500000  0.369311  0.814822  1
  B  B26  1  0.500000  0.130352  0.314196  1
  B  B27  1  0.500000  0.869209  0.685427  1
  B  B28  1  0.500000  0.981962  0.211413  1
  B  B29  1  0.500000  0.017823  0.788533  1
  B  B30  1  0.500000  0.482686  0.288096  1
  B  B31  1  0.500000  0.518019  0.711802  1
  B  B32  1  0.500000  0.600171  0.027886  1
  B  B33  1  0.500000  0.399943  0.972054  1
  B  B34  1  0.500000  0.099324  0.472288  1
  B  B35  1  0.500000  0.900007  0.527933  1
