# generated using pymatgen
data_Sc4IrRu2Pt
_symmetry_space_group_name_H-M   'P 1'
_cell_length_a   6.38737200
_cell_length_b   4.59915100
_cell_length_c   9.19477400
_cell_angle_alpha   90.00000000
_cell_angle_beta   90.00000000
_cell_angle_gamma   90.00000000
_symmetry_Int_Tables_number   1
_chemical_formula_structural   Sc4IrRu2Pt
_chemical_formula_sum   'Sc8 Ir2 Ru4 Pt2'
_cell_volume   270.11017103
_cell_formula_units_Z   2
loop_
 _symmetry_equiv_pos_site_id
 _symmetry_equiv_pos_as_xyz
  1  'x, y, z'
loop_
 _atom_site_type_symbol
 _atom_site_label
 _atom_site_symmetry_multiplicity
 _atom_site_fract_x
 _atom_site_fract_y
 _atom_site_fract_z
 _atom_site_occupancy
  Sc  Sc0  1  0.001684  0.750000  0.122023  1
  Sc  Sc1  1  0.498091  0.750000  0.122034  1
  Sc  Sc2  1  0.998090  0.250000  0.377966  1
  Sc  Sc3  1  0.501685  0.250000  0.377976  1
  Sc  Sc4  1  0.501991  0.750000  0.627751  1
  Sc  Sc5  1  0.998245  0.750000  0.627770  1
  Sc  Sc6  1  0.498244  0.250000  0.872230  1
  Sc  Sc7  1  0.001990  0.250000  0.872249  1
  Ir  Ir8  1  0.750080  0.250000  0.624622  1
  Ir  Ir9  1  0.250079  0.750000  0.875377  1
  Ru  Ru10  1  0.249927  0.250000  0.125566  1
  Ru  Ru11  1  0.749926  0.750000  0.374433  1
  Ru  Ru12  1  0.250071  0.250000  0.624540  1
  Ru  Ru13  1  0.750070  0.750000  0.875459  1
  Pt  Pt14  1  0.749915  0.250000  0.125383  1
  Pt  Pt15  1  0.249914  0.750000  0.374617  1
