# generated using pymatgen
data_Dy5P12Ir3(RuRh)8
_symmetry_space_group_name_H-M   'P 1'
_cell_length_a   12.63538884
_cell_length_b   12.61937152
_cell_length_c   3.94763600
_cell_angle_alpha   90.00000000
_cell_angle_beta   90.00000000
_cell_angle_gamma   120.04850067
_symmetry_Int_Tables_number   1
_chemical_formula_structural   Dy5P12Ir3(RuRh)8
_chemical_formula_sum   'Dy5 P12 Ir3 Ru8 Rh8'
_cell_volume   544.85584235
_cell_formula_units_Z   1
loop_
 _symmetry_equiv_pos_site_id
 _symmetry_equiv_pos_as_xyz
  1  'x, y, z'
loop_
 _atom_site_type_symbol
 _atom_site_label
 _atom_site_symmetry_multiplicity
 _atom_site_fract_x
 _atom_site_fract_y
 _atom_site_fract_z
 _atom_site_occupancy
  Dy  Dy0  1  0.666555  0.331045  0.000000  1
  Dy  Dy1  1  0.334085  0.668256  0.000000  1
  Dy  Dy2  1  0.812670  0.001045  0.500000  1
  Dy  Dy3  1  0.184204  0.186059  0.500000  1
  Dy  Dy4  1  0.999470  0.813084  0.500000  1
  P  P5  1  0.633308  0.999161  0.000000  1
  P  P6  1  0.365688  0.365815  0.000000  1
  P  P7  1  0.000304  0.634891  0.000000  1
  P  P8  1  0.686301  0.517854  0.500000  1
  P  P9  1  0.830611  0.308557  0.500000  1
  P  P10  1  0.318739  0.835928  0.500000  1
  P  P11  1  0.519569  0.688701  0.500000  1
  P  P12  1  0.179127  0.999865  0.000000  1
  P  P13  1  0.819731  0.819175  0.000000  1
  P  P14  1  0.996472  0.181031  0.000000  1
  P  P15  1  0.479391  0.165634  0.500000  1
  P  P16  1  0.167189  0.481611  0.500000  1
  Ir  Ir17  1  0.193705  0.818866  0.000000  1
  Ir  Ir18  1  0.804967  0.622314  0.000000  1
  Ir  Ir19  1  0.999316  0.000659  0.000000  1
  Ru  Ru20  1  0.513003  0.871308  0.500000  1
  Ru  Ru21  1  0.714274  0.712923  0.500000  1
  Ru  Ru22  1  0.001781  0.287379  0.500000  1
  Ru  Ru23  1  0.449928  0.000346  0.000000  1
  Ru  Ru24  1  0.549310  0.547430  0.000000  1
  Ru  Ru25  1  0.005014  0.454697  0.000000  1
  Ru  Ru26  1  0.818356  0.197251  0.000000  1
  Ru  Ru27  1  0.284449  0.999676  0.500000  1
  Rh  Rh28  1  0.624686  0.803967  0.000000  1
  Rh  Rh29  1  0.183441  0.377375  0.000000  1
  Rh  Rh30  1  0.375518  0.181518  0.000000  1
  Rh  Rh31  1  0.870435  0.507589  0.500000  1
  Rh  Rh32  1  0.489133  0.359168  0.500000  1
  Rh  Rh33  1  0.636996  0.127939  0.500000  1
  Rh  Rh34  1  0.131518  0.642119  0.500000  1
  Rh  Rh35  1  0.360757  0.489758  0.500000  1
