# generated using pymatgen
data_Pu2Ni9P7Ru3
_symmetry_space_group_name_H-M   'P 1'
_cell_length_a   9.22311591
_cell_length_b   9.23620642
_cell_length_c   3.72699100
_cell_angle_alpha   90.00000000
_cell_angle_beta   90.00000000
_cell_angle_gamma   120.76229658
_symmetry_Int_Tables_number   1
_chemical_formula_structural   Pu2Ni9P7Ru3
_chemical_formula_sum   'Pu2 Ni9 P7 Ru3'
_cell_volume   272.81783926
_cell_formula_units_Z   1
loop_
 _symmetry_equiv_pos_site_id
 _symmetry_equiv_pos_as_xyz
  1  'x, y, z'
loop_
 _atom_site_type_symbol
 _atom_site_label
 _atom_site_symmetry_multiplicity
 _atom_site_fract_x
 _atom_site_fract_y
 _atom_site_fract_z
 _atom_site_occupancy
  Pu  Pu0  1  0.660887  0.331182  0.500000  1
  Pu  Pu1  1  0.334179  0.665666  0.000000  1
  Ni  Ni2  1  0.571043  0.954112  0.500000  1
  Ni  Ni3  1  0.387508  0.434316  0.500000  1
  Ni  Ni4  1  0.901209  0.131026  0.500000  1
  Ni  Ni5  1  0.724467  0.887077  0.000000  1
  Ni  Ni6  1  0.120319  0.840812  0.000000  1
  Ni  Ni7  1  0.154894  0.272389  0.000000  1
  Ni  Ni8  1  0.433210  0.055925  0.000000  1
  Ni  Ni9  1  0.941534  0.369027  0.000000  1
  Ni  Ni10  1  0.626524  0.570830  0.000000  1
  P  P11  1  0.592218  0.710078  0.500000  1
  P  P12  1  0.000470  0.997320  0.000000  1
  P  P13  1  0.297229  0.888460  0.500000  1
  P  P14  1  0.116212  0.398773  0.500000  1
  P  P15  1  0.880825  0.585714  0.000000  1
  P  P16  1  0.407881  0.292982  0.000000  1
  P  P17  1  0.703713  0.115986  0.000000  1
  Ru  Ru18  1  0.217551  0.091336  0.500000  1
  Ru  Ru19  1  0.878446  0.793766  0.500000  1
  Ru  Ru20  1  0.049682  0.613220  0.500000  1
