# generated using pymatgen
data_GdCd(CuPt)2
_symmetry_space_group_name_H-M   'P 1'
_cell_length_a   5.26635677
_cell_length_b   5.26635748
_cell_length_c   5.55882900
_cell_angle_alpha   58.14524100
_cell_angle_beta   58.14523616
_cell_angle_gamma   58.10434341
_symmetry_Int_Tables_number   1
_chemical_formula_structural   GdCd(CuPt)2
_chemical_formula_sum   'Gd1 Cd1 Cu2 Pt2'
_cell_volume   104.34668205
_cell_formula_units_Z   1
loop_
 _symmetry_equiv_pos_site_id
 _symmetry_equiv_pos_as_xyz
  1  'x, y, z'
loop_
 _atom_site_type_symbol
 _atom_site_label
 _atom_site_symmetry_multiplicity
 _atom_site_fract_x
 _atom_site_fract_y
 _atom_site_fract_z
 _atom_site_occupancy
  Gd  Gd0  1  0.996650  0.996650  0.003350  1
  Cd  Cd1  1  0.244463  0.244463  0.255537  1
  Cu  Cu2  1  0.628496  0.127747  0.621878  1
  Cu  Cu3  1  0.127747  0.628496  0.621878  1
  Pt  Pt4  1  0.626322  0.626322  0.623059  1
  Pt  Pt5  1  0.626322  0.626322  0.124299  1
