# generated using pymatgen
data_Tm2TiBe2Ir5
_symmetry_space_group_name_H-M   'P 1'
_cell_length_a   9.64502500
_cell_length_b   9.64502500
_cell_length_c   3.20218000
_cell_angle_alpha   90.00000000
_cell_angle_beta   90.00000000
_cell_angle_gamma   90.00000000
_symmetry_Int_Tables_number   1
_chemical_formula_structural   Tm2TiBe2Ir5
_chemical_formula_sum   'Tm4 Ti2 Be4 Ir10'
_cell_volume   297.88762099
_cell_formula_units_Z   2
loop_
 _symmetry_equiv_pos_site_id
 _symmetry_equiv_pos_as_xyz
  1  'x, y, z'
loop_
 _atom_site_type_symbol
 _atom_site_label
 _atom_site_symmetry_multiplicity
 _atom_site_fract_x
 _atom_site_fract_y
 _atom_site_fract_z
 _atom_site_occupancy
  Tm  Tm0  1  0.675573  0.175573  0.000000  1
  Tm  Tm1  1  0.324427  0.824427  0.000000  1
  Tm  Tm2  1  0.175573  0.324427  0.000000  1
  Tm  Tm3  1  0.824427  0.675573  0.000000  1
  Ti  Ti4  1  0.000000  0.000000  0.000000  1
  Ti  Ti5  1  0.500000  0.500000  0.000000  1
  Be  Be6  1  0.122357  0.622357  0.000000  1
  Be  Be7  1  0.877643  0.377643  0.000000  1
  Be  Be8  1  0.622357  0.877643  0.000000  1
  Be  Be9  1  0.377643  0.122357  0.000000  1
  Ir  Ir10  1  0.211341  0.068090  0.500000  1
  Ir  Ir11  1  0.788659  0.931910  0.500000  1
  Ir  Ir12  1  0.068090  0.788659  0.500000  1
  Ir  Ir13  1  0.711341  0.431910  0.500000  1
  Ir  Ir14  1  0.931910  0.211341  0.500000  1
  Ir  Ir15  1  0.288659  0.568090  0.500000  1
  Ir  Ir16  1  0.568090  0.711341  0.500000  1
  Ir  Ir17  1  0.431910  0.288659  0.500000  1
  Ir  Ir18  1  0.500000  0.000000  0.500000  1
  Ir  Ir19  1  0.000000  0.500000  0.500000  1
