# generated using pymatgen
data_TbNdHo2(Ir2O7)2
_symmetry_space_group_name_H-M   'P 1'
_cell_length_a   7.31755997
_cell_length_b   7.30371342
_cell_length_c   7.30371228
_cell_angle_alpha   59.52666756
_cell_angle_beta   59.58743611
_cell_angle_gamma   59.58744228
_symmetry_Int_Tables_number   1
_chemical_formula_structural   TbNdHo2(Ir2O7)2
_chemical_formula_sum   'Tb1 Nd1 Ho2 Ir4 O14'
_cell_volume   273.30273322
_cell_formula_units_Z   1
loop_
 _symmetry_equiv_pos_site_id
 _symmetry_equiv_pos_as_xyz
  1  'x, y, z'
loop_
 _atom_site_type_symbol
 _atom_site_label
 _atom_site_symmetry_multiplicity
 _atom_site_fract_x
 _atom_site_fract_y
 _atom_site_fract_z
 _atom_site_occupancy
  Tb  Tb0  1  0.625000  0.125000  0.125000  1
  Nd  Nd1  1  0.125000  0.125000  0.125000  1
  Ho  Ho2  1  0.125000  0.625000  0.125000  1
  Ho  Ho3  1  0.125000  0.125000  0.625000  1
  Ir  Ir4  1  0.125000  0.625000  0.625000  1
  Ir  Ir5  1  0.625000  0.125000  0.625000  1
  Ir  Ir6  1  0.625000  0.625000  0.125000  1
  Ir  Ir7  1  0.625000  0.625000  0.625000  1
  O  O8  1  0.712656  0.709759  0.289279  1
  O  O9  1  0.288642  0.288498  0.702569  1
  O  O10  1  0.712656  0.289279  0.709759  1
  O  O11  1  0.288642  0.702569  0.288498  1
  O  O12  1  0.289138  0.711441  0.711441  1
  O  O13  1  0.703826  0.288867  0.288867  1
  O  O14  1  0.537344  0.540241  0.960721  1
  O  O15  1  0.961358  0.961502  0.547431  1
  O  O16  1  0.537344  0.960721  0.540241  1
  O  O17  1  0.961358  0.547431  0.961502  1
  O  O18  1  0.960862  0.538559  0.538559  1
  O  O19  1  0.546174  0.961133  0.961133  1
  O  O20  1  0.250755  0.254578  0.254578  1
  O  O21  1  0.999245  0.995422  0.995422  1
