# generated using pymatgen
data_Er4Zn3Re2Ru3
_symmetry_space_group_name_H-M   'P 1'
_cell_length_a   5.34597294
_cell_length_b   5.34597242
_cell_length_c   9.05535600
_cell_angle_alpha   90.00000000
_cell_angle_beta   90.00000000
_cell_angle_gamma   122.07787660
_symmetry_Int_Tables_number   1
_chemical_formula_structural   Er4Zn3Re2Ru3
_chemical_formula_sum   'Er4 Zn3 Re2 Ru3'
_cell_volume   219.28557650
_cell_formula_units_Z   1
loop_
 _symmetry_equiv_pos_site_id
 _symmetry_equiv_pos_as_xyz
  1  'x, y, z'
loop_
 _atom_site_type_symbol
 _atom_site_label
 _atom_site_symmetry_multiplicity
 _atom_site_fract_x
 _atom_site_fract_y
 _atom_site_fract_z
 _atom_site_occupancy
  Er  Er0  1  0.334433  0.665567  0.434103  1
  Er  Er1  1  0.663785  0.336215  0.554672  1
  Er  Er2  1  0.663785  0.336215  0.945328  1
  Er  Er3  1  0.334433  0.665567  0.065897  1
  Zn  Zn4  1  0.164539  0.328168  0.750000  1
  Zn  Zn5  1  0.163869  0.836131  0.750000  1
  Zn  Zn6  1  0.671832  0.835461  0.750000  1
  Re  Re7  1  0.332980  0.171367  0.250000  1
  Re  Re8  1  0.828633  0.667020  0.250000  1
  Ru  Ru9  1  0.008719  0.991281  0.002658  1
  Ru  Ru10  1  0.824275  0.175725  0.250000  1
  Ru  Ru11  1  0.008719  0.991281  0.497342  1
