# generated using pymatgen
data_ZrSc7TaNb10Si16Ru
_symmetry_space_group_name_H-M   'P 1'
_cell_length_a   6.66548800
_cell_length_b   6.91051356
_cell_length_c   13.10712800
_cell_angle_alpha   90.00000000
_cell_angle_beta   90.00000000
_cell_angle_gamma   90.18890483
_symmetry_Int_Tables_number   1
_chemical_formula_structural   ZrSc7TaNb10Si16Ru
_chemical_formula_sum   'Zr1 Sc7 Ta1 Nb10 Si16 Ru1'
_cell_volume   603.73653033
_cell_formula_units_Z   1
loop_
 _symmetry_equiv_pos_site_id
 _symmetry_equiv_pos_as_xyz
  1  'x, y, z'
loop_
 _atom_site_type_symbol
 _atom_site_label
 _atom_site_symmetry_multiplicity
 _atom_site_fract_x
 _atom_site_fract_y
 _atom_site_fract_z
 _atom_site_occupancy
  Zr  Zr0  1  0.495420  0.676563  0.593470  1
  Sc  Sc1  1  0.001811  0.827443  0.906758  1
  Sc  Sc2  1  0.498882  0.326338  0.095019  1
  Sc  Sc3  1  0.998873  0.173932  0.404346  1
  Sc  Sc4  1  0.499123  0.326490  0.405015  1
  Sc  Sc5  1  0.998700  0.173992  0.095441  1
  Sc  Sc6  1  0.496241  0.675545  0.906595  1
  Sc  Sc7  1  0.000799  0.827584  0.593159  1
  Ta  Ta8  1  0.340337  0.000318  0.749179  1
  Nb  Nb9  1  0.666480  0.169034  0.626715  1
  Nb  Nb10  1  0.165492  0.325744  0.872601  1
  Nb  Nb11  1  0.335978  0.826553  0.124614  1
  Nb  Nb12  1  0.835789  0.672424  0.377254  1
  Nb  Nb13  1  0.336359  0.825862  0.375646  1
  Nb  Nb14  1  0.835828  0.672416  0.122864  1
  Nb  Nb15  1  0.667416  0.168162  0.872696  1
  Nb  Nb16  1  0.166834  0.327059  0.627053  1
  Nb  Nb17  1  0.162505  0.506178  0.250015  1
  Nb  Nb18  1  0.661255  0.994405  0.250206  1
  Si  Si19  1  0.669864  0.967056  0.460329  1
  Si  Si20  1  0.168410  0.533076  0.038124  1
  Si  Si21  1  0.332056  0.034121  0.959343  1
  Si  Si22  1  0.831742  0.465124  0.543956  1
  Si  Si23  1  0.331235  0.035819  0.539964  1
  Si  Si24  1  0.831394  0.466105  0.955693  1
  Si  Si25  1  0.669600  0.966869  0.039562  1
  Si  Si26  1  0.169009  0.533452  0.461920  1
  Si  Si27  1  0.473146  0.391217  0.750742  1
  Si  Si28  1  0.962217  0.109222  0.749851  1
  Si  Si29  1  0.539045  0.612593  0.249756  1
  Si  Si30  1  0.037578  0.886686  0.249979  1
  Si  Si31  1  0.709158  0.852034  0.750731  1
  Si  Si32  1  0.193415  0.635662  0.751113  1
  Si  Si33  1  0.293935  0.138544  0.249974  1
  Si  Si34  1  0.793638  0.362613  0.250024  1
  Ru  Ru35  1  0.830438  0.513763  0.750292  1
