# generated using pymatgen
data_YHo3V2(ReN6)2
_symmetry_space_group_name_H-M   'P 1'
_cell_length_a   7.30318005
_cell_length_b   7.30317923
_cell_length_c   6.20737736
_cell_angle_alpha   73.20825896
_cell_angle_beta   73.20826101
_cell_angle_gamma   82.57958886
_symmetry_Int_Tables_number   1
_chemical_formula_structural   YHo3V2(ReN6)2
_chemical_formula_sum   'Y1 Ho3 V2 Re2 N12'
_cell_volume   303.07034194
_cell_formula_units_Z   1
loop_
 _symmetry_equiv_pos_site_id
 _symmetry_equiv_pos_as_xyz
  1  'x, y, z'
loop_
 _atom_site_type_symbol
 _atom_site_label
 _atom_site_symmetry_multiplicity
 _atom_site_fract_x
 _atom_site_fract_y
 _atom_site_fract_z
 _atom_site_occupancy
  Y  Y0  1  0.294520  0.705480  0.750000  1
  Ho  Ho1  1  0.910665  0.089335  0.750000  1
  Ho  Ho2  1  0.093486  0.906514  0.250000  1
  Ho  Ho3  1  0.715868  0.284132  0.250000  1
  V  V4  1  0.621242  0.802878  0.280866  1
  V  V5  1  0.197122  0.378758  0.219134  1
  Re  Re6  1  0.377699  0.206813  0.717860  1
  Re  Re7  1  0.793187  0.622301  0.782140  1
  N  N8  1  0.663875  0.633750  0.077589  1
  N  N9  1  0.384881  0.874665  0.336420  1
  N  N10  1  0.366250  0.336125  0.422411  1
  N  N11  1  0.125335  0.615119  0.163580  1
  N  N12  1  0.003805  0.218339  0.344176  1
  N  N13  1  0.781661  0.996195  0.155824  1
  N  N14  1  0.218097  0.006519  0.840973  1
  N  N15  1  0.621621  0.123568  0.666884  1
  N  N16  1  0.329028  0.368257  0.915042  1
  N  N17  1  0.876432  0.378379  0.833116  1
  N  N18  1  0.631743  0.670972  0.584958  1
  N  N19  1  0.993481  0.781903  0.659027  1
