# generated using pymatgen
data_Ho5Zr3(P3Rh4)4
_symmetry_space_group_name_H-M   'P 1'
_cell_length_a   12.89158200
_cell_length_b   12.89158206
_cell_length_c   3.92077300
_cell_angle_alpha   90.00000000
_cell_angle_beta   90.00000000
_cell_angle_gamma   120.00000498
_symmetry_Int_Tables_number   1
_chemical_formula_structural   Ho5Zr3(P3Rh4)4
_chemical_formula_sum   'Ho5 Zr3 P12 Rh16'
_cell_volume   564.30609564
_cell_formula_units_Z   1
loop_
 _symmetry_equiv_pos_site_id
 _symmetry_equiv_pos_as_xyz
  1  'x, y, z'
loop_
 _atom_site_type_symbol
 _atom_site_label
 _atom_site_symmetry_multiplicity
 _atom_site_fract_x
 _atom_site_fract_y
 _atom_site_fract_z
 _atom_site_occupancy
  Ho  Ho0  1  0.666667  0.333333  0.000000  1
  Ho  Ho1  1  0.333333  0.666667  0.000000  1
  Ho  Ho2  1  0.814137  0.814137  0.500000  1
  Ho  Ho3  1  0.185863  0.000000  0.500000  1
  Ho  Ho4  1  0.000000  0.185863  0.500000  1
  Zr  Zr5  1  0.445741  0.445741  0.000000  1
  Zr  Zr6  1  0.554259  0.000000  0.000000  1
  Zr  Zr7  1  0.000000  0.554259  0.000000  1
  P  P8  1  0.686823  0.169605  0.500000  1
  P  P9  1  0.830395  0.517219  0.500000  1
  P  P10  1  0.482781  0.313177  0.500000  1
  P  P11  1  0.169605  0.686823  0.500000  1
  P  P12  1  0.517219  0.830395  0.500000  1
  P  P13  1  0.313177  0.482781  0.500000  1
  P  P14  1  0.175033  0.175033  0.000000  1
  P  P15  1  0.824967  0.000000  0.000000  1
  P  P16  1  0.000000  0.824967  0.000000  1
  P  P17  1  0.648202  0.648202  0.000000  1
  P  P18  1  0.351798  0.000000  0.000000  1
  P  P19  1  0.000000  0.351798  0.000000  1
  Rh  Rh20  1  0.867911  0.355846  0.500000  1
  Rh  Rh21  1  0.644154  0.512065  0.500000  1
  Rh  Rh22  1  0.487935  0.132089  0.500000  1
  Rh  Rh23  1  0.355846  0.867911  0.500000  1
  Rh  Rh24  1  0.512065  0.644154  0.500000  1
  Rh  Rh25  1  0.132089  0.487935  0.500000  1
  Rh  Rh26  1  0.805532  0.177796  0.000000  1
  Rh  Rh27  1  0.822204  0.627735  0.000000  1
  Rh  Rh28  1  0.372265  0.194468  0.000000  1
  Rh  Rh29  1  0.177796  0.805532  0.000000  1
  Rh  Rh30  1  0.627735  0.822204  0.000000  1
  Rh  Rh31  1  0.194468  0.372265  0.000000  1
  Rh  Rh32  1  0.277114  0.277114  0.500000  1
  Rh  Rh33  1  0.722886  0.000000  0.500000  1
  Rh  Rh34  1  0.000000  0.722886  0.500000  1
  Rh  Rh35  1  0.000000  0.000000  0.000000  1
