# generated using pymatgen
data_Na2BiPt2Pb3
_symmetry_space_group_name_H-M   'P 1'
_cell_length_a   4.50364980
_cell_length_b   8.20133598
_cell_length_c   6.08782028
_cell_angle_alpha   89.85877807
_cell_angle_beta   111.86906034
_cell_angle_gamma   89.88097705
_symmetry_Int_Tables_number   1
_chemical_formula_structural   Na2BiPt2Pb3
_chemical_formula_sum   'Na2 Bi1 Pt2 Pb3'
_cell_volume   208.67623804
_cell_formula_units_Z   1
loop_
 _symmetry_equiv_pos_site_id
 _symmetry_equiv_pos_as_xyz
  1  'x, y, z'
loop_
 _atom_site_type_symbol
 _atom_site_label
 _atom_site_symmetry_multiplicity
 _atom_site_fract_x
 _atom_site_fract_y
 _atom_site_fract_z
 _atom_site_occupancy
  Na  Na0  1  0.432902  0.248732  0.367841  1
  Na  Na1  1  0.567669  0.750811  0.633306  1
  Bi  Bi2  1  0.853548  0.548522  0.206775  1
  Pt  Pt3  1  0.287876  0.749935  0.078952  1
  Pt  Pt4  1  0.715167  0.251838  0.927258  1
  Pb  Pb5  1  0.853191  0.954224  0.210073  1
  Pb  Pb6  1  0.145624  0.044647  0.787687  1
  Pb  Pb7  1  0.144024  0.451287  0.788108  1
