# generated using pymatgen
data_Dy2Y3Lu3(CdIr)2
_symmetry_space_group_name_H-M   'P 1'
_cell_length_a   9.58324061
_cell_length_b   9.58324051
_cell_length_c   9.58324000
_cell_angle_alpha   60.00000176
_cell_angle_beta   60.00000212
_cell_angle_gamma   59.99999707
_symmetry_Int_Tables_number   1
_chemical_formula_structural   Dy2Y3Lu3(CdIr)2
_chemical_formula_sum   'Dy4 Y6 Lu6 Cd4 Ir4'
_cell_volume   622.33202494
_cell_formula_units_Z   2
loop_
 _symmetry_equiv_pos_site_id
 _symmetry_equiv_pos_as_xyz
  1  'x, y, z'
loop_
 _atom_site_type_symbol
 _atom_site_label
 _atom_site_symmetry_multiplicity
 _atom_site_fract_x
 _atom_site_fract_y
 _atom_site_fract_z
 _atom_site_occupancy
  Dy  Dy0  1  0.349566  0.349566  0.349566  1
  Dy  Dy1  1  0.349566  0.349566  0.951302  1
  Dy  Dy2  1  0.349566  0.951302  0.349566  1
  Dy  Dy3  1  0.951302  0.349566  0.349566  1
  Y  Y4  1  0.938873  0.561127  0.561127  1
  Y  Y5  1  0.561127  0.938873  0.938873  1
  Y  Y6  1  0.561127  0.938873  0.561127  1
  Y  Y7  1  0.938873  0.561127  0.938873  1
  Y  Y8  1  0.561127  0.561127  0.938873  1
  Y  Y9  1  0.938873  0.938873  0.561127  1
  Lu  Lu10  1  0.813004  0.186996  0.186996  1
  Lu  Lu11  1  0.186996  0.813004  0.813004  1
  Lu  Lu12  1  0.186996  0.813004  0.186996  1
  Lu  Lu13  1  0.813004  0.186996  0.813004  1
  Lu  Lu14  1  0.186996  0.186996  0.813004  1
  Lu  Lu15  1  0.813004  0.813004  0.186996  1
  Cd  Cd16  1  0.580631  0.580631  0.580631  1
  Cd  Cd17  1  0.580631  0.580631  0.258109  1
  Cd  Cd18  1  0.580631  0.258109  0.580631  1
  Cd  Cd19  1  0.258109  0.580631  0.580631  1
  Ir  Ir20  1  0.140623  0.140623  0.140623  1
  Ir  Ir21  1  0.140623  0.140623  0.578130  1
  Ir  Ir22  1  0.140623  0.578130  0.140623  1
  Ir  Ir23  1  0.578130  0.140623  0.140623  1
