# generated using pymatgen
data_ZrSc2TaRu4
_symmetry_space_group_name_H-M   'P 1'
_cell_length_a   6.39786900
_cell_length_b   4.54781200
_cell_length_c   9.12467700
_cell_angle_alpha   90.00000000
_cell_angle_beta   89.99850989
_cell_angle_gamma   90.00000000
_symmetry_Int_Tables_number   1
_chemical_formula_structural   ZrSc2TaRu4
_chemical_formula_sum   'Zr2 Sc4 Ta2 Ru8'
_cell_volume   265.49438874
_cell_formula_units_Z   2
loop_
 _symmetry_equiv_pos_site_id
 _symmetry_equiv_pos_as_xyz
  1  'x, y, z'
loop_
 _atom_site_type_symbol
 _atom_site_label
 _atom_site_symmetry_multiplicity
 _atom_site_fract_x
 _atom_site_fract_y
 _atom_site_fract_z
 _atom_site_occupancy
  Zr  Zr0  1  0.250034  0.250000  0.124606  1
  Zr  Zr1  1  0.750031  0.750000  0.375394  1
  Sc  Sc2  1  0.750058  0.250000  0.123135  1
  Sc  Sc3  1  0.250033  0.750000  0.376865  1
  Sc  Sc4  1  0.749894  0.250000  0.626372  1
  Sc  Sc5  1  0.250013  0.750000  0.873629  1
  Ta  Ta6  1  0.249921  0.250000  0.625253  1
  Ta  Ta7  1  0.750003  0.750000  0.874748  1
  Ru  Ru8  1  0.504517  0.750000  0.119200  1
  Ru  Ru9  1  0.995570  0.750000  0.119215  1
  Ru  Ru10  1  0.495552  0.250000  0.380787  1
  Ru  Ru11  1  0.004499  0.250000  0.380796  1
  Ru  Ru12  1  0.003765  0.750000  0.630208  1
  Ru  Ru13  1  0.496168  0.750000  0.630220  1
  Ru  Ru14  1  0.996173  0.250000  0.869777  1
  Ru  Ru15  1  0.503769  0.250000  0.869794  1
