# generated using pymatgen
data_TbDyEr2(SbO4)4
_symmetry_space_group_name_H-M   'P 1'
_cell_length_a   5.39038208
_cell_length_b   7.65952839
_cell_length_c   7.54867645
_cell_angle_alpha   81.15235371
_cell_angle_beta   90.33727667
_cell_angle_gamma   92.31669860
_symmetry_Int_Tables_number   1
_chemical_formula_structural   TbDyEr2(SbO4)4
_chemical_formula_sum   'Tb1 Dy1 Er2 Sb4 O16'
_cell_volume   307.70780568
_cell_formula_units_Z   1
loop_
 _symmetry_equiv_pos_site_id
 _symmetry_equiv_pos_as_xyz
  1  'x, y, z'
loop_
 _atom_site_type_symbol
 _atom_site_label
 _atom_site_symmetry_multiplicity
 _atom_site_fract_x
 _atom_site_fract_y
 _atom_site_fract_z
 _atom_site_occupancy
  Tb  Tb0  1  0.261611  0.132341  0.614296  1
  Dy  Dy1  1  0.738160  0.867752  0.384886  1
  Er  Er2  1  0.211504  0.158400  0.109791  1
  Er  Er3  1  0.788177  0.841205  0.890340  1
  Sb  Sb4  1  0.240185  0.663856  0.193479  1
  Sb  Sb5  1  0.759716  0.336441  0.806865  1
  Sb  Sb6  1  0.724367  0.335851  0.307715  1
  Sb  Sb7  1  0.275492  0.664235  0.691842  1
  O  O8  1  0.087240  0.434112  0.689666  1
  O  O9  1  0.912912  0.565962  0.310468  1
  O  O10  1  0.610354  0.325497  0.561031  1
  O  O11  1  0.391136  0.675133  0.438788  1
  O  O12  1  0.875469  0.331633  0.061805  1
  O  O13  1  0.124994  0.669074  0.938147  1
  O  O14  1  0.399154  0.429924  0.195721  1
  O  O15  1  0.600390  0.569931  0.804692  1
  O  O16  1  0.044294  0.886853  0.172266  1
  O  O17  1  0.954846  0.112916  0.828874  1
  O  O18  1  0.507246  0.111048  0.320543  1
  O  O19  1  0.493442  0.888253  0.679281  1
  O  O20  1  0.462556  0.189502  0.881042  1
  O  O21  1  0.537724  0.810758  0.119720  1
  O  O22  1  0.990465  0.167480  0.379478  1
  O  O23  1  0.008566  0.831843  0.619263  1
