# generated using pymatgen
data_Ho15Lu(ScBi3)4
_symmetry_space_group_name_H-M   'P 1'
_cell_length_a   8.09874571
_cell_length_b   9.39421409
_cell_length_c   11.92571696
_cell_angle_alpha   90.00668723
_cell_angle_beta   89.95422766
_cell_angle_gamma   89.98600379
_symmetry_Int_Tables_number   1
_chemical_formula_structural   Ho15Lu(ScBi3)4
_chemical_formula_sum   'Ho15 Lu1 Sc4 Bi12'
_cell_volume   907.32433600
_cell_formula_units_Z   1
loop_
 _symmetry_equiv_pos_site_id
 _symmetry_equiv_pos_as_xyz
  1  'x, y, z'
loop_
 _atom_site_type_symbol
 _atom_site_label
 _atom_site_symmetry_multiplicity
 _atom_site_fract_x
 _atom_site_fract_y
 _atom_site_fract_z
 _atom_site_occupancy
  Ho  Ho0  1  0.355304  0.249776  0.283923  1
  Ho  Ho1  1  0.644323  0.749434  0.715736  1
  Ho  Ho2  1  0.145506  0.749479  0.783761  1
  Ho  Ho3  1  0.855236  0.249999  0.216032  1
  Ho  Ho4  1  0.185638  0.249943  0.780936  1
  Ho  Ho5  1  0.814212  0.749959  0.219043  1
  Ho  Ho6  1  0.314326  0.749715  0.281179  1
  Ho  Ho7  1  0.686002  0.250032  0.718951  1
  Ho  Ho8  1  0.195229  0.065235  0.058255  1
  Ho  Ho9  1  0.804827  0.934641  0.941684  1
  Ho  Ho10  1  0.304591  0.934257  0.558265  1
  Ho  Ho11  1  0.804703  0.565351  0.941684  1
  Ho  Ho12  1  0.695106  0.065334  0.441769  1
  Ho  Ho13  1  0.195379  0.434901  0.058322  1
  Ho  Ho14  1  0.695679  0.434854  0.441679  1
  Lu  Lu15  1  0.304061  0.567019  0.558375  1
  Sc  Sc16  1  0.024782  0.249828  0.512351  1
  Sc  Sc17  1  0.976312  0.749707  0.487821  1
  Sc  Sc18  1  0.475455  0.750174  0.012307  1
  Sc  Sc19  1  0.524495  0.249649  0.987626  1
  Bi  Bi20  1  0.400465  0.252078  0.543185  1
  Bi  Bi21  1  0.598306  0.749456  0.457325  1
  Bi  Bi22  1  0.098920  0.750072  0.042820  1
  Bi  Bi23  1  0.901076  0.250038  0.957091  1
  Bi  Bi24  1  0.065723  0.003635  0.330230  1
  Bi  Bi25  1  0.934410  0.996104  0.669728  1
  Bi  Bi26  1  0.434279  0.996052  0.830084  1
  Bi  Bi27  1  0.934885  0.503711  0.669567  1
  Bi  Bi28  1  0.565547  0.003667  0.169845  1
  Bi  Bi29  1  0.065596  0.495981  0.330469  1
  Bi  Bi30  1  0.565491  0.496131  0.170007  1
  Bi  Bi31  1  0.434139  0.503788  0.829948  1
