# generated using pymatgen
data_La2Ga2PPt6
_symmetry_space_group_name_H-M   'P 1'
_cell_length_a   9.51546755
_cell_length_b   9.51546843
_cell_length_c   4.02477900
_cell_angle_alpha   90.00000000
_cell_angle_beta   90.00000000
_cell_angle_gamma   145.62422902
_symmetry_Int_Tables_number   1
_chemical_formula_structural   La2Ga2PPt6
_chemical_formula_sum   'La2 Ga2 P1 Pt6'
_cell_volume   205.75816951
_cell_formula_units_Z   1
loop_
 _symmetry_equiv_pos_site_id
 _symmetry_equiv_pos_as_xyz
  1  'x, y, z'
loop_
 _atom_site_type_symbol
 _atom_site_label
 _atom_site_symmetry_multiplicity
 _atom_site_fract_x
 _atom_site_fract_y
 _atom_site_fract_z
 _atom_site_occupancy
  La  La0  1  0.608291  0.378006  0.500000  1
  La  La1  1  0.378006  0.608291  0.500000  1
  Ga  Ga2  1  0.194122  0.792610  0.500000  1
  Ga  Ga3  1  0.792610  0.194122  0.500000  1
  P  P4  1  0.229595  0.229595  0.000000  1
  Pt  Pt5  1  0.107438  0.884149  0.000000  1
  Pt  Pt6  1  0.884149  0.107438  0.000000  1
  Pt  Pt7  1  0.492994  0.989211  0.000000  1
  Pt  Pt8  1  0.989211  0.492994  0.000000  1
  Pt  Pt9  1  0.997632  0.997632  0.500000  1
  Pt  Pt10  1  0.639550  0.639550  0.000000  1
