# generated using pymatgen
data_Ba2LiPrO4
_symmetry_space_group_name_H-M   'P 1'
_cell_length_a   12.35199000
_cell_length_b   3.69593100
_cell_length_c   12.16910200
_cell_angle_alpha   90.00000000
_cell_angle_beta   90.00000000
_cell_angle_gamma   90.00000000
_symmetry_Int_Tables_number   1
_chemical_formula_structural   Ba2LiPrO4
_chemical_formula_sum   'Ba8 Li4 Pr4 O16'
_cell_volume   555.54509491
_cell_formula_units_Z   4
loop_
 _symmetry_equiv_pos_site_id
 _symmetry_equiv_pos_as_xyz
  1  'x, y, z'
loop_
 _atom_site_type_symbol
 _atom_site_label
 _atom_site_symmetry_multiplicity
 _atom_site_fract_x
 _atom_site_fract_y
 _atom_site_fract_z
 _atom_site_occupancy
  Ba  Ba0  1  0.638078  0.499999  0.072865  1
  Ba  Ba1  1  0.095500  0.000000  0.117441  1
  Ba  Ba2  1  0.595500  0.000000  0.382559  1
  Ba  Ba3  1  0.138079  0.499999  0.427135  1
  Ba  Ba4  1  0.861921  0.000000  0.572865  1
  Ba  Ba5  1  0.404499  0.499999  0.617440  1
  Ba  Ba6  1  0.904499  0.499999  0.882559  1
  Ba  Ba7  1  0.361920  0.000000  0.927134  1
  Li  Li8  1  0.843299  0.000000  0.090304  1
  Li  Li9  1  0.343299  0.000000  0.409696  1
  Li  Li10  1  0.656701  0.499999  0.590303  1
  Li  Li11  1  0.156700  0.499999  0.909696  1
  Pr  Pr12  1  0.358000  0.499999  0.206917  1
  Pr  Pr13  1  0.858001  0.499999  0.293082  1
  Pr  Pr14  1  0.141999  0.000000  0.706918  1
  Pr  Pr15  1  0.641999  0.000000  0.793081  1
  O  O16  1  0.243568  0.499999  0.046406  1
  O  O17  1  0.928948  0.499999  0.108421  1
  O  O18  1  0.468820  0.000000  0.135754  1
  O  O19  1  0.747045  0.000000  0.218294  1
  O  O20  1  0.247045  0.000000  0.281705  1
  O  O21  1  0.968820  0.000000  0.364245  1
  O  O22  1  0.428947  0.499999  0.391578  1
  O  O23  1  0.743568  0.499999  0.453593  1
  O  O24  1  0.256431  0.000000  0.546406  1
  O  O25  1  0.571052  0.000000  0.608422  1
  O  O26  1  0.031179  0.499999  0.635754  1
  O  O27  1  0.752954  0.499999  0.718295  1
  O  O28  1  0.252955  0.499999  0.781705  1
  O  O29  1  0.531178  0.499999  0.864245  1
  O  O30  1  0.071052  0.000000  0.891578  1
  O  O31  1  0.756431  0.000000  0.953593  1
