# generated using pymatgen
data_Lu3Zr(BiRh5)2
_symmetry_space_group_name_H-M   'P 1'
_cell_length_a   5.75318171
_cell_length_b   5.75318108
_cell_length_c   8.42879601
_cell_angle_alpha   89.99678344
_cell_angle_beta   89.99678307
_cell_angle_gamma   97.13257276
_symmetry_Int_Tables_number   1
_chemical_formula_structural   Lu3Zr(BiRh5)2
_chemical_formula_sum   'Lu3 Zr1 Bi2 Rh10'
_cell_volume   276.82660166
_cell_formula_units_Z   1
loop_
 _symmetry_equiv_pos_site_id
 _symmetry_equiv_pos_as_xyz
  1  'x, y, z'
loop_
 _atom_site_type_symbol
 _atom_site_label
 _atom_site_symmetry_multiplicity
 _atom_site_fract_x
 _atom_site_fract_y
 _atom_site_fract_z
 _atom_site_occupancy
  Lu  Lu0  1  0.784259  0.215741  0.500000  1
  Lu  Lu1  1  0.215844  0.784156  0.000000  1
  Lu  Lu2  1  0.215820  0.784180  0.500000  1
  Zr  Zr3  1  0.789137  0.210863  0.000000  1
  Bi  Bi4  1  0.501553  0.500887  0.750205  1
  Bi  Bi5  1  0.499113  0.498447  0.249795  1
  Rh  Rh6  1  0.730622  0.732845  0.000655  1
  Rh  Rh7  1  0.731605  0.731369  0.499280  1
  Rh  Rh8  1  0.267155  0.269378  0.999345  1
  Rh  Rh9  1  0.268631  0.268395  0.500720  1
  Rh  Rh10  1  0.502316  0.002216  0.752944  1
  Rh  Rh11  1  0.502312  0.001704  0.247101  1
  Rh  Rh12  1  0.997982  0.002428  0.246862  1
  Rh  Rh13  1  0.997572  0.002018  0.753138  1
  Rh  Rh14  1  0.998296  0.497688  0.752899  1
  Rh  Rh15  1  0.997784  0.497684  0.247056  1
