# generated using pymatgen
data_La2Sc2ReB12Ru
_symmetry_space_group_name_H-M   'P 1'
_cell_length_a   3.67079200
_cell_length_b   9.12780408
_cell_length_c   11.62293166
_cell_angle_alpha   90.07739768
_cell_angle_beta   90.00000000
_cell_angle_gamma   90.00000000
_symmetry_Int_Tables_number   1
_chemical_formula_structural   La2Sc2ReB12Ru
_chemical_formula_sum   'La4 Sc4 Re2 B24 Ru2'
_cell_volume   389.44073312
_cell_formula_units_Z   2
loop_
 _symmetry_equiv_pos_site_id
 _symmetry_equiv_pos_as_xyz
  1  'x, y, z'
loop_
 _atom_site_type_symbol
 _atom_site_label
 _atom_site_symmetry_multiplicity
 _atom_site_fract_x
 _atom_site_fract_y
 _atom_site_fract_z
 _atom_site_occupancy
  La  La0  1  0.000000  0.321826  0.415254  1
  La  La1  1  0.000000  0.678174  0.584746  1
  La  La2  1  0.000000  0.822638  0.084288  1
  La  La3  1  0.000000  0.177362  0.915712  1
  Sc  Sc4  1  0.000000  0.946278  0.370373  1
  Sc  Sc5  1  0.000000  0.053722  0.629627  1
  Sc  Sc6  1  0.000000  0.442945  0.128981  1
  Sc  Sc7  1  0.000000  0.557055  0.871019  1
  Re  Re8  1  0.000000  0.142800  0.184650  1
  Re  Re9  1  0.000000  0.857200  0.815350  1
  B  B10  1  0.500000  0.559431  0.426673  1
  B  B11  1  0.500000  0.440569  0.573327  1
  B  B12  1  0.500000  0.058133  0.072735  1
  B  B13  1  0.500000  0.941867  0.927265  1
  B  B14  1  0.500000  0.754619  0.413814  1
  B  B15  1  0.500000  0.245381  0.586186  1
  B  B16  1  0.500000  0.254775  0.085844  1
  B  B17  1  0.500000  0.745225  0.914156  1
  B  B18  1  0.500000  0.793519  0.265601  1
  B  B19  1  0.500000  0.206481  0.734399  1
  B  B20  1  0.500000  0.294717  0.234818  1
  B  B21  1  0.500000  0.705283  0.765182  1
  B  B22  1  0.500000  0.628150  0.184134  1
  B  B23  1  0.500000  0.371850  0.815866  1
  B  B24  1  0.500000  0.128918  0.316901  1
  B  B25  1  0.500000  0.871082  0.683099  1
  B  B26  1  0.500000  0.984596  0.216449  1
  B  B27  1  0.500000  0.015404  0.783551  1
  B  B28  1  0.500000  0.485422  0.284542  1
  B  B29  1  0.500000  0.514578  0.715458  1
  B  B30  1  0.500000  0.593933  0.024984  1
  B  B31  1  0.500000  0.406067  0.975016  1
  B  B32  1  0.500000  0.094504  0.475520  1
  B  B33  1  0.500000  0.905496  0.524480  1
  Ru  Ru34  1  0.000000  0.642327  0.315975  1
  Ru  Ru35  1  0.000000  0.357673  0.684025  1
