# generated using pymatgen
data_Yb5Ho11(HfIr3)4
_symmetry_space_group_name_H-M   'P 1'
_cell_length_a   10.82381418
_cell_length_b   10.74260923
_cell_length_c   6.26607299
_cell_angle_alpha   90.11163289
_cell_angle_beta   90.01228398
_cell_angle_gamma   89.98360268
_symmetry_Int_Tables_number   1
_chemical_formula_structural   Yb5Ho11(HfIr3)4
_chemical_formula_sum   'Yb5 Ho11 Hf4 Ir12'
_cell_volume   728.59251211
_cell_formula_units_Z   1
loop_
 _symmetry_equiv_pos_site_id
 _symmetry_equiv_pos_as_xyz
  1  'x, y, z'
loop_
 _atom_site_type_symbol
 _atom_site_label
 _atom_site_symmetry_multiplicity
 _atom_site_fract_x
 _atom_site_fract_y
 _atom_site_fract_z
 _atom_site_occupancy
  Yb  Yb0  1  0.288271  0.085272  0.371334  1
  Yb  Yb1  1  0.289568  0.914460  0.871482  1
  Yb  Yb2  1  0.712152  0.082621  0.871580  1
  Yb  Yb3  1  0.711606  0.915983  0.371166  1
  Yb  Yb4  1  0.586038  0.791374  0.869644  1
  Ho  Ho5  1  0.581997  0.205773  0.372997  1
  Ho  Ho6  1  0.416465  0.795192  0.373442  1
  Ho  Ho7  1  0.415271  0.206595  0.873630  1
  Ho  Ho8  1  0.211492  0.415170  0.628145  1
  Ho  Ho9  1  0.211630  0.585096  0.129006  1
  Ho  Ho10  1  0.787585  0.414972  0.129191  1
  Ho  Ho11  1  0.788144  0.584380  0.627996  1
  Ho  Ho12  1  0.915926  0.711780  0.130861  1
  Ho  Ho13  1  0.914676  0.288050  0.629058  1
  Ho  Ho14  1  0.085131  0.711576  0.629034  1
  Ho  Ho15  1  0.084685  0.288559  0.129059  1
  Hf  Hf16  1  0.000728  0.000131  0.497052  1
  Hf  Hf17  1  0.000997  0.000045  0.997886  1
  Hf  Hf18  1  0.499570  0.501207  0.997793  1
  Hf  Hf19  1  0.499824  0.499270  0.497370  1
  Ir  Ir20  1  0.863165  0.147833  0.251102  1
  Ir  Ir21  1  0.867193  0.852099  0.748569  1
  Ir  Ir22  1  0.137168  0.148434  0.751876  1
  Ir  Ir23  1  0.138042  0.851179  0.250653  1
  Ir  Ir24  1  0.641918  0.360181  0.748284  1
  Ir  Ir25  1  0.641823  0.639254  0.252869  1
  Ir  Ir26  1  0.357707  0.360388  0.245195  1
  Ir  Ir27  1  0.353636  0.637315  0.742719  1
  Ir  Ir28  1  0.499186  0.003158  0.122209  1
  Ir  Ir29  1  0.499448  0.002654  0.624060  1
  Ir  Ir30  1  0.999569  0.500069  0.882525  1
  Ir  Ir31  1  0.999388  0.499932  0.382211  1
