# generated using pymatgen
data_Tb4TlZn4In3
_symmetry_space_group_name_H-M   'P 1'
_cell_length_a   4.65311000
_cell_length_b   4.65311083
_cell_length_c   14.89658500
_cell_angle_alpha   90.00000000
_cell_angle_beta   90.00000000
_cell_angle_gamma   119.99997990
_symmetry_Int_Tables_number   1
_chemical_formula_structural   Tb4TlZn4In3
_chemical_formula_sum   'Tb4 Tl1 Zn4 In3'
_cell_volume   279.32136444
_cell_formula_units_Z   1
loop_
 _symmetry_equiv_pos_site_id
 _symmetry_equiv_pos_as_xyz
  1  'x, y, z'
loop_
 _atom_site_type_symbol
 _atom_site_label
 _atom_site_symmetry_multiplicity
 _atom_site_fract_x
 _atom_site_fract_y
 _atom_site_fract_z
 _atom_site_occupancy
  Tb  Tb0  1  0.000000  0.000000  0.751775  1
  Tb  Tb1  1  0.000000  0.000000  0.248973  1
  Tb  Tb2  1  0.000000  0.000000  0.499593  1
  Tb  Tb3  1  0.000000  0.000000  0.000687  1
  Tl  Tl4  1  0.333333  0.666667  0.608796  1
  Zn  Zn5  1  0.666667  0.333333  0.847754  1
  Zn  Zn6  1  0.666667  0.333333  0.657474  1
  Zn  Zn7  1  0.333333  0.666667  0.098190  1
  Zn  Zn8  1  0.333333  0.666667  0.398157  1
  In  In9  1  0.666667  0.333333  0.137316  1
  In  In10  1  0.666667  0.333333  0.359922  1
  In  In11  1  0.333333  0.666667  0.891362  1
