# generated using pymatgen
data_Cs2Ti(AgSe2)2
_symmetry_space_group_name_H-M   'P 1'
_cell_length_a   6.29974100
_cell_length_b   6.29974100
_cell_length_c   14.50656300
_cell_angle_alpha   90.00000000
_cell_angle_beta   90.00000000
_cell_angle_gamma   90.00000000
_symmetry_Int_Tables_number   1
_chemical_formula_structural   Cs2Ti(AgSe2)2
_chemical_formula_sum   'Cs4 Ti2 Ag4 Se8'
_cell_volume   575.71814573
_cell_formula_units_Z   2
loop_
 _symmetry_equiv_pos_site_id
 _symmetry_equiv_pos_as_xyz
  1  'x, y, z'
loop_
 _atom_site_type_symbol
 _atom_site_label
 _atom_site_symmetry_multiplicity
 _atom_site_fract_x
 _atom_site_fract_y
 _atom_site_fract_z
 _atom_site_occupancy
  Cs  Cs0  1  0.764239  0.764239  0.000000  1
  Cs  Cs1  1  0.235761  0.764239  0.500000  1
  Cs  Cs2  1  0.764239  0.235761  0.500000  1
  Cs  Cs3  1  0.235761  0.235761  0.000000  1
  Ti  Ti4  1  0.500000  0.500000  0.750000  1
  Ti  Ti5  1  0.500000  0.500000  0.250000  1
  Ag  Ag6  1  0.000000  0.500000  0.750000  1
  Ag  Ag7  1  0.500000  0.000000  0.750000  1
  Ag  Ag8  1  0.000000  0.500000  0.250000  1
  Ag  Ag9  1  0.500000  0.000000  0.250000  1
  Se  Se10  1  0.718143  0.718143  0.648690  1
  Se  Se11  1  0.281857  0.281857  0.648690  1
  Se  Se12  1  0.718143  0.718143  0.351310  1
  Se  Se13  1  0.718143  0.281857  0.148690  1
  Se  Se14  1  0.281857  0.718143  0.851310  1
  Se  Se15  1  0.281857  0.281857  0.351310  1
  Se  Se16  1  0.281857  0.718143  0.148690  1
  Se  Se17  1  0.718143  0.281857  0.851310  1
