# generated using pymatgen
data_Y4FeSi4Ir
_symmetry_space_group_name_H-M   'P 1'
_cell_length_a   5.68899244
_cell_length_b   5.68899220
_cell_length_c   10.03391868
_cell_angle_alpha   63.12717413
_cell_angle_beta   63.12717693
_cell_angle_gamma   43.14678648
_symmetry_Int_Tables_number   1
_chemical_formula_structural   Y4FeSi4Ir
_chemical_formula_sum   'Y4 Fe1 Si4 Ir1'
_cell_volume   194.08350601
_cell_formula_units_Z   1
loop_
 _symmetry_equiv_pos_site_id
 _symmetry_equiv_pos_as_xyz
  1  'x, y, z'
loop_
 _atom_site_type_symbol
 _atom_site_label
 _atom_site_symmetry_multiplicity
 _atom_site_fract_x
 _atom_site_fract_y
 _atom_site_fract_z
 _atom_site_occupancy
  Y  Y0  1  0.005195  0.005195  0.323154  1
  Y  Y1  1  0.996619  0.996619  0.674145  1
  Y  Y2  1  0.813931  0.813931  0.107383  1
  Y  Y3  1  0.186337  0.186337  0.890919  1
  Fe  Fe4  1  0.272899  0.272899  0.377954  1
  Si  Si5  1  0.652204  0.652204  0.431123  1
  Si  Si6  1  0.356611  0.356611  0.559366  1
  Si  Si7  1  0.499678  0.499678  0.128413  1
  Si  Si8  1  0.489968  0.489968  0.878973  1
  Ir  Ir9  1  0.726558  0.726558  0.628570  1
