# generated using pymatgen
data_Li2AcDySi2
_symmetry_space_group_name_H-M   'P 1'
_cell_length_a   4.49947000
_cell_length_b   4.49947109
_cell_length_c   7.65418500
_cell_angle_alpha   90.00000000
_cell_angle_beta   90.00000000
_cell_angle_gamma   120.00000672
_symmetry_Int_Tables_number   1
_chemical_formula_structural   Li2AcDySi2
_chemical_formula_sum   'Li2 Ac1 Dy1 Si2'
_cell_volume   134.19995894
_cell_formula_units_Z   1
loop_
 _symmetry_equiv_pos_site_id
 _symmetry_equiv_pos_as_xyz
  1  'x, y, z'
loop_
 _atom_site_type_symbol
 _atom_site_label
 _atom_site_symmetry_multiplicity
 _atom_site_fract_x
 _atom_site_fract_y
 _atom_site_fract_z
 _atom_site_occupancy
  Li  Li0  1  0.666667  0.333333  0.186792  1
  Li  Li1  1  0.333333  0.666667  0.813208  1
  Ac  Ac2  1  0.000000  0.000000  0.500000  1
  Dy  Dy3  1  0.000000  0.000000  0.000000  1
  Si  Si4  1  0.333333  0.666667  0.218304  1
  Si  Si5  1  0.666667  0.333333  0.781696  1
