# generated using pymatgen
data_Dy5Y11(CdNi)4
_symmetry_space_group_name_H-M   'P 1'
_cell_length_a   9.57121942
_cell_length_b   9.57374885
_cell_length_c   9.57374839
_cell_angle_alpha   60.08039533
_cell_angle_beta   60.00873753
_cell_angle_gamma   60.00873961
_symmetry_Int_Tables_number   1
_chemical_formula_structural   Dy5Y11(CdNi)4
_chemical_formula_sum   'Dy5 Y11 Cd4 Ni4'
_cell_volume   620.77885041
_cell_formula_units_Z   1
loop_
 _symmetry_equiv_pos_site_id
 _symmetry_equiv_pos_as_xyz
  1  'x, y, z'
loop_
 _atom_site_type_symbol
 _atom_site_label
 _atom_site_symmetry_multiplicity
 _atom_site_fract_x
 _atom_site_fract_y
 _atom_site_fract_z
 _atom_site_occupancy
  Dy  Dy0  1  0.597619  0.598104  0.598104  1
  Dy  Dy1  1  0.598978  0.599736  0.202307  1
  Dy  Dy2  1  0.598978  0.202307  0.599736  1
  Dy  Dy3  1  0.206172  0.598104  0.598104  1
  Dy  Dy4  1  0.060050  0.439950  0.439950  1
  Y  Y5  1  0.438217  0.061783  0.061783  1
  Y  Y6  1  0.439169  0.061157  0.439452  1
  Y  Y7  1  0.060222  0.439452  0.061157  1
  Y  Y8  1  0.439169  0.439452  0.061157  1
  Y  Y9  1  0.060222  0.061157  0.439452  1
  Y  Y10  1  0.186086  0.813914  0.813914  1
  Y  Y11  1  0.812889  0.187111  0.187111  1
  Y  Y12  1  0.813850  0.187272  0.812461  1
  Y  Y13  1  0.186417  0.812461  0.187272  1
  Y  Y14  1  0.813850  0.812461  0.187272  1
  Y  Y15  1  0.186417  0.187272  0.812461  1
  Cd  Cd16  1  0.831253  0.830609  0.830609  1
  Cd  Cd17  1  0.831303  0.830829  0.506564  1
  Cd  Cd18  1  0.831303  0.506564  0.830829  1
  Cd  Cd19  1  0.507527  0.830609  0.830609  1
  Ni  Ni20  1  0.392938  0.393197  0.393197  1
  Ni  Ni21  1  0.393351  0.392793  0.820507  1
  Ni  Ni22  1  0.393351  0.820507  0.392793  1
  Ni  Ni23  1  0.820669  0.393197  0.393197  1
