# generated using pymatgen
data_Y8Tl3CdAu8
_symmetry_space_group_name_H-M   'P 1'
_cell_length_a   8.04744800
_cell_length_b   8.04744800
_cell_length_c   7.37495300
_cell_angle_alpha   90.00000000
_cell_angle_beta   90.00000000
_cell_angle_gamma   90.00000000
_symmetry_Int_Tables_number   1
_chemical_formula_structural   Y8Tl3CdAu8
_chemical_formula_sum   'Y8 Tl3 Cd1 Au8'
_cell_volume   477.61242364
_cell_formula_units_Z   1
loop_
 _symmetry_equiv_pos_site_id
 _symmetry_equiv_pos_as_xyz
  1  'x, y, z'
loop_
 _atom_site_type_symbol
 _atom_site_label
 _atom_site_symmetry_multiplicity
 _atom_site_fract_x
 _atom_site_fract_y
 _atom_site_fract_z
 _atom_site_occupancy
  Y  Y0  1  0.161123  0.161480  0.000102  1
  Y  Y1  1  0.838877  0.838520  0.000102  1
  Y  Y2  1  0.661480  0.338877  0.499898  1
  Y  Y3  1  0.338520  0.661123  0.499898  1
  Y  Y4  1  0.678644  0.321193  0.000031  1
  Y  Y5  1  0.321356  0.678807  0.000031  1
  Y  Y6  1  0.821193  0.821356  0.499969  1
  Y  Y7  1  0.178807  0.178644  0.499969  1
  Tl  Tl8  1  0.500000  0.000000  0.750000  1
  Tl  Tl9  1  0.000000  0.500000  0.250000  1
  Tl  Tl10  1  0.000000  0.500000  0.750000  1
  Cd  Cd11  1  0.500000  0.000000  0.250000  1
  Au  Au12  1  0.375732  0.368660  0.232523  1
  Au  Au13  1  0.626686  0.627052  0.768007  1
  Au  Au14  1  0.624268  0.631340  0.232523  1
  Au  Au15  1  0.872948  0.126686  0.731993  1
  Au  Au16  1  0.868660  0.124268  0.267477  1
  Au  Au17  1  0.373314  0.372948  0.768007  1
  Au  Au18  1  0.131340  0.875732  0.267477  1
  Au  Au19  1  0.127052  0.873314  0.731993  1
