# generated using pymatgen
data_Er4TiPd15
_symmetry_space_group_name_H-M   'P 1'
_cell_length_a   4.07298500
_cell_length_b   4.07298500
_cell_length_c   20.33461400
_cell_angle_alpha   90.00000000
_cell_angle_beta   90.00000000
_cell_angle_gamma   90.00000000
_symmetry_Int_Tables_number   1
_chemical_formula_structural   Er4TiPd15
_chemical_formula_sum   'Er4 Ti1 Pd15'
_cell_volume   337.33511705
_cell_formula_units_Z   1
loop_
 _symmetry_equiv_pos_site_id
 _symmetry_equiv_pos_as_xyz
  1  'x, y, z'
loop_
 _atom_site_type_symbol
 _atom_site_label
 _atom_site_symmetry_multiplicity
 _atom_site_fract_x
 _atom_site_fract_y
 _atom_site_fract_z
 _atom_site_occupancy
  Er  Er0  1  0.000000  0.000000  0.195467  1
  Er  Er1  1  0.000000  0.000000  0.397992  1
  Er  Er2  1  0.000000  0.000000  0.602008  1
  Er  Er3  1  0.000000  0.000000  0.804533  1
  Ti  Ti4  1  0.000000  0.000000  0.000000  1
  Pd  Pd5  1  0.500000  0.500000  0.000000  1
  Pd  Pd6  1  0.500000  0.500000  0.194198  1
  Pd  Pd7  1  0.500000  0.500000  0.398569  1
  Pd  Pd8  1  0.500000  0.500000  0.601431  1
  Pd  Pd9  1  0.500000  0.500000  0.805802  1
  Pd  Pd10  1  0.500000  0.000000  0.091258  1
  Pd  Pd11  1  0.500000  0.000000  0.296555  1
  Pd  Pd12  1  0.500000  0.000000  0.500000  1
  Pd  Pd13  1  0.500000  0.000000  0.703445  1
  Pd  Pd14  1  0.500000  0.000000  0.908742  1
  Pd  Pd15  1  0.000000  0.500000  0.091258  1
  Pd  Pd16  1  0.000000  0.500000  0.296555  1
  Pd  Pd17  1  0.000000  0.500000  0.500000  1
  Pd  Pd18  1  0.000000  0.500000  0.703445  1
  Pd  Pd19  1  0.000000  0.500000  0.908742  1
