# generated using pymatgen
data_Nd3Cd2Mo3O14
_symmetry_space_group_name_H-M   'P 1'
_cell_length_a   7.32594804
_cell_length_b   7.32594189
_cell_length_c   7.32594225
_cell_angle_alpha   116.52202273
_cell_angle_beta   63.47799377
_cell_angle_gamma   116.52197521
_symmetry_Int_Tables_number   1
_chemical_formula_structural   Nd3Cd2Mo3O14
_chemical_formula_sum   'Nd3 Cd2 Mo3 O14'
_cell_volume   299.40615337
_cell_formula_units_Z   1
loop_
 _symmetry_equiv_pos_site_id
 _symmetry_equiv_pos_as_xyz
  1  'x, y, z'
loop_
 _atom_site_type_symbol
 _atom_site_label
 _atom_site_symmetry_multiplicity
 _atom_site_fract_x
 _atom_site_fract_y
 _atom_site_fract_z
 _atom_site_occupancy
  Nd  Nd0  1  0.999965  0.500043  0.000026  1
  Nd  Nd1  1  0.500007  0.000008  0.000023  1
  Nd  Nd2  1  0.500034  0.500012  0.499964  1
  Cd  Cd3  1  0.499894  0.499893  0.999974  1
  Cd  Cd4  1  0.000034  0.999973  0.500017  1
  Mo  Mo5  1  0.500005  0.000019  0.499967  1
  Mo  Mo6  1  0.999957  0.500018  0.499946  1
  Mo  Mo7  1  0.999989  0.000014  0.000020  1
  O  O8  1  0.622640  0.377349  0.122638  1
  O  O9  1  0.377332  0.622657  0.877331  1
  O  O10  1  0.077347  0.315442  0.184564  1
  O  O11  1  0.684563  0.922671  0.184557  1
  O  O12  1  0.684572  0.315439  0.577327  1
  O  O13  1  0.922692  0.684558  0.815449  1
  O  O14  1  0.315443  0.077317  0.815439  1
  O  O15  1  0.315453  0.684554  0.422676  1
  O  O16  1  0.635407  0.902475  0.597550  1
  O  O17  1  0.097554  0.364599  0.597556  1
  O  O18  1  0.097539  0.902483  0.135398  1
  O  O19  1  0.364652  0.097557  0.402466  1
  O  O20  1  0.902467  0.635354  0.402470  1
  O  O21  1  0.902455  0.097569  0.864642  1
