# generated using pymatgen
data_Sr5(BiSb)2
_symmetry_space_group_name_H-M   'P 1'
_cell_length_a   8.76723900
_cell_length_b   8.77020800
_cell_length_c   17.27512700
_cell_angle_alpha   90.00000000
_cell_angle_beta   90.00000000
_cell_angle_gamma   90.00000000
_symmetry_Int_Tables_number   1
_chemical_formula_structural   Sr5(BiSb)2
_chemical_formula_sum   'Sr20 Bi8 Sb8'
_cell_volume   1328.29331871
_cell_formula_units_Z   4
loop_
 _symmetry_equiv_pos_site_id
 _symmetry_equiv_pos_as_xyz
  1  'x, y, z'
loop_
 _atom_site_type_symbol
 _atom_site_label
 _atom_site_symmetry_multiplicity
 _atom_site_fract_x
 _atom_site_fract_y
 _atom_site_fract_z
 _atom_site_occupancy
  Sr  Sr0  1  0.880759  0.651286  0.108967  1
  Sr  Sr1  1  0.380759  0.848714  0.391033  1
  Sr  Sr2  1  0.619241  0.151286  0.891033  1
  Sr  Sr3  1  0.119241  0.348714  0.608967  1
  Sr  Sr4  1  0.119241  0.348714  0.891033  1
  Sr  Sr5  1  0.619241  0.151286  0.608967  1
  Sr  Sr6  1  0.380759  0.848714  0.108967  1
  Sr  Sr7  1  0.880759  0.651286  0.391033  1
  Sr  Sr8  1  0.035848  0.178352  0.090794  1
  Sr  Sr9  1  0.535848  0.321648  0.409206  1
  Sr  Sr10  1  0.464152  0.678352  0.909206  1
  Sr  Sr11  1  0.964152  0.821648  0.590794  1
  Sr  Sr12  1  0.964152  0.821648  0.909206  1
  Sr  Sr13  1  0.464152  0.678352  0.590794  1
  Sr  Sr14  1  0.535848  0.321648  0.090794  1
  Sr  Sr15  1  0.035848  0.178352  0.409206  1
  Sr  Sr16  1  0.715208  0.993278  0.250000  1
  Sr  Sr17  1  0.215208  0.506722  0.250000  1
  Sr  Sr18  1  0.784792  0.493278  0.750000  1
  Sr  Sr19  1  0.284792  0.006722  0.750000  1
  Bi  Bi20  1  0.090796  0.893680  0.250000  1
  Bi  Bi21  1  0.590796  0.606320  0.250000  1
  Bi  Bi22  1  0.409204  0.393680  0.750000  1
  Bi  Bi23  1  0.909204  0.106320  0.750000  1
  Bi  Bi24  1  0.842410  0.359626  0.250000  1
  Bi  Bi25  1  0.342410  0.140374  0.250000  1
  Bi  Bi26  1  0.657590  0.859626  0.750000  1
  Bi  Bi27  1  0.157590  0.640374  0.750000  1
  Sb  Sb28  1  0.775475  0.470687  0.950622  1
  Sb  Sb29  1  0.275475  0.029313  0.549378  1
  Sb  Sb30  1  0.724525  0.970687  0.049378  1
  Sb  Sb31  1  0.224525  0.529313  0.450622  1
  Sb  Sb32  1  0.224525  0.529313  0.049378  1
  Sb  Sb33  1  0.724525  0.970687  0.450622  1
  Sb  Sb34  1  0.275475  0.029313  0.950622  1
  Sb  Sb35  1  0.775475  0.470687  0.549378  1
