# generated using pymatgen
data_SmY5Sb7Pd16Se
_symmetry_space_group_name_H-M   'P 1'
_cell_length_a   9.35411816
_cell_length_b   9.35413403
_cell_length_c   9.35412600
_cell_angle_alpha   59.99981908
_cell_angle_beta   60.00003731
_cell_angle_gamma   60.00004685
_symmetry_Int_Tables_number   1
_chemical_formula_structural   SmY5Sb7Pd16Se
_chemical_formula_sum   'Sm1 Y5 Sb7 Pd16 Se1'
_cell_volume   578.75444581
_cell_formula_units_Z   1
loop_
 _symmetry_equiv_pos_site_id
 _symmetry_equiv_pos_as_xyz
  1  'x, y, z'
loop_
 _atom_site_type_symbol
 _atom_site_label
 _atom_site_symmetry_multiplicity
 _atom_site_fract_x
 _atom_site_fract_y
 _atom_site_fract_z
 _atom_site_occupancy
  Sm  Sm0  1  0.718517  0.281483  0.281483  1
  Y  Y1  1  0.281403  0.718597  0.718597  1
  Y  Y2  1  0.281317  0.718683  0.281378  1
  Y  Y3  1  0.718622  0.281378  0.718684  1
  Y  Y4  1  0.281317  0.281379  0.718683  1
  Y  Y5  1  0.718622  0.718683  0.281379  1
  Sb  Sb6  1  0.000084  0.999916  0.999916  1
  Sb  Sb7  1  0.499960  0.000040  0.000040  1
  Sb  Sb8  1  0.999960  0.500040  0.500040  1
  Sb  Sb9  1  0.000611  0.500680  0.999389  1
  Sb  Sb10  1  0.499320  0.999389  0.500680  1
  Sb  Sb11  1  0.000611  0.999389  0.500680  1
  Sb  Sb12  1  0.499320  0.500680  0.999389  1
  Pd  Pd13  1  0.119484  0.117419  0.117419  1
  Pd  Pd14  1  0.882056  0.882080  0.882080  1
  Pd  Pd15  1  0.117920  0.117944  0.646214  1
  Pd  Pd16  1  0.117920  0.646214  0.117944  1
  Pd  Pd17  1  0.882581  0.880516  0.354322  1
  Pd  Pd18  1  0.882581  0.354322  0.880516  1
  Pd  Pd19  1  0.645678  0.117419  0.117419  1
  Pd  Pd20  1  0.353786  0.882080  0.882079  1
  Pd  Pd21  1  0.332415  0.333367  0.333367  1
  Pd  Pd22  1  0.666810  0.666625  0.666625  1
  Pd  Pd23  1  0.333375  0.333190  0.000059  1
  Pd  Pd24  1  0.333375  0.000059  0.333190  1
  Pd  Pd25  1  0.666634  0.667585  0.999149  1
  Pd  Pd26  1  0.666633  0.999149  0.667585  1
  Pd  Pd27  1  0.000851  0.333367  0.333367  1
  Pd  Pd28  1  0.999941  0.666625  0.666625  1
  Se  Se29  1  0.498296  0.501703  0.501704  1
