# generated using pymatgen
data_TbHo2Fe7B2
_symmetry_space_group_name_H-M   'P 1'
_cell_length_a   7.79464011
_cell_length_b   7.79464073
_cell_length_c   7.79463937
_cell_angle_alpha   38.39699327
_cell_angle_beta   38.39699082
_cell_angle_gamma   38.39698894
_symmetry_Int_Tables_number   1
_chemical_formula_structural   TbHo2Fe7B2
_chemical_formula_sum   'Tb1 Ho2 Fe7 B2'
_cell_volume   164.11320771
_cell_formula_units_Z   1
loop_
 _symmetry_equiv_pos_site_id
 _symmetry_equiv_pos_as_xyz
  1  'x, y, z'
loop_
 _atom_site_type_symbol
 _atom_site_label
 _atom_site_symmetry_multiplicity
 _atom_site_fract_x
 _atom_site_fract_y
 _atom_site_fract_z
 _atom_site_occupancy
  Tb  Tb0  1  0.500000  0.500000  0.500000  1
  Ho  Ho1  1  0.356291  0.356291  0.356291  1
  Ho  Ho2  1  0.643709  0.643709  0.643709  1
  Fe  Fe3  1  0.000000  0.000000  0.000000  1
  Fe  Fe4  1  0.573273  0.067021  0.067023  1
  Fe  Fe5  1  0.067021  0.573273  0.067023  1
  Fe  Fe6  1  0.932978  0.932978  0.426725  1
  Fe  Fe7  1  0.067022  0.067022  0.573274  1
  Fe  Fe8  1  0.932978  0.426726  0.932977  1
  Fe  Fe9  1  0.426726  0.932978  0.932977  1
  B  B10  1  0.167914  0.167914  0.167914  1
  B  B11  1  0.832086  0.832086  0.832086  1
