# generated using pymatgen
data_Er16Tm3ThSn16
_symmetry_space_group_name_H-M   'P 1'
_cell_length_a   7.98731778
_cell_length_b   8.10418239
_cell_length_c   15.32290228
_cell_angle_alpha   90.03483274
_cell_angle_beta   89.70816322
_cell_angle_gamma   89.85941762
_symmetry_Int_Tables_number   1
_chemical_formula_structural   Er16Tm3ThSn16
_chemical_formula_sum   'Er16 Tm3 Th1 Sn16'
_cell_volume   991.84584303
_cell_formula_units_Z   1
loop_
 _symmetry_equiv_pos_site_id
 _symmetry_equiv_pos_as_xyz
  1  'x, y, z'
loop_
 _atom_site_type_symbol
 _atom_site_label
 _atom_site_symmetry_multiplicity
 _atom_site_fract_x
 _atom_site_fract_y
 _atom_site_fract_z
 _atom_site_occupancy
  Er  Er0  1  0.366877  0.836700  0.876957  1
  Er  Er1  1  0.868943  0.663780  0.621566  1
  Er  Er2  1  0.630571  0.162495  0.377242  1
  Er  Er3  1  0.132695  0.337799  0.123525  1
  Er  Er4  1  0.633315  0.162667  0.123442  1
  Er  Er5  1  0.131148  0.337726  0.377484  1
  Er  Er6  1  0.369773  0.837034  0.622339  1
  Er  Er7  1  0.867895  0.662028  0.877342  1
  Er  Er8  1  0.523973  0.322225  0.902706  1
  Er  Er9  1  0.024865  0.178977  0.598394  1
  Er  Er10  1  0.476732  0.678519  0.402237  1
  Er  Er11  1  0.978358  0.821132  0.098012  1
  Er  Er12  1  0.478298  0.678635  0.097875  1
  Er  Er13  1  0.977035  0.821227  0.402286  1
  Er  Er14  1  0.522936  0.322903  0.596123  1
  Er  Er15  1  0.197884  0.501814  0.748957  1
  Tm  Tm16  1  0.697776  0.996039  0.748662  1
  Tm  Tm17  1  0.801860  0.496985  0.250881  1
  Tm  Tm18  1  0.302307  0.003043  0.250367  1
  Th  Th19  1  0.017985  0.180111  0.904113  1
  Sn  Sn20  1  0.294709  0.034423  0.043214  1
  Sn  Sn21  1  0.790710  0.464016  0.458023  1
  Sn  Sn22  1  0.709887  0.966085  0.541551  1
  Sn  Sn23  1  0.209993  0.536905  0.958621  1
  Sn  Sn24  1  0.702359  0.959045  0.959614  1
  Sn  Sn25  1  0.208785  0.536703  0.541246  1
  Sn  Sn26  1  0.291046  0.035713  0.458373  1
  Sn  Sn27  1  0.792421  0.462851  0.041624  1
  Sn  Sn28  1  0.564393  0.620421  0.749858  1
  Sn  Sn29  1  0.064489  0.878671  0.750365  1
  Sn  Sn30  1  0.435509  0.381042  0.250060  1
  Sn  Sn31  1  0.935673  0.119048  0.250435  1
  Sn  Sn32  1  0.334220  0.149398  0.749498  1
  Sn  Sn33  1  0.827809  0.353927  0.747237  1
  Sn  Sn34  1  0.668733  0.850188  0.249826  1
  Sn  Sn35  1  0.168040  0.649725  0.249948  1
