# generated using pymatgen
data_Lu4Fe2(OsRu)3
_symmetry_space_group_name_H-M   'P 1'
_cell_length_a   5.19345249
_cell_length_b   5.20141365
_cell_length_c   8.81732100
_cell_angle_alpha   90.00000000
_cell_angle_beta   90.00000000
_cell_angle_gamma   121.03393239
_symmetry_Int_Tables_number   1
_chemical_formula_structural   Lu4Fe2(OsRu)3
_chemical_formula_sum   'Lu4 Fe2 Os3 Ru3'
_cell_volume   204.09161241
_cell_formula_units_Z   1
loop_
 _symmetry_equiv_pos_site_id
 _symmetry_equiv_pos_as_xyz
  1  'x, y, z'
loop_
 _atom_site_type_symbol
 _atom_site_label
 _atom_site_symmetry_multiplicity
 _atom_site_fract_x
 _atom_site_fract_y
 _atom_site_fract_z
 _atom_site_occupancy
  Lu  Lu0  1  0.333647  0.663949  0.434950  1
  Lu  Lu1  1  0.664711  0.333023  0.565498  1
  Lu  Lu2  1  0.664711  0.333023  0.934502  1
  Lu  Lu3  1  0.333647  0.663949  0.065050  1
  Fe  Fe4  1  0.168152  0.337225  0.750000  1
  Fe  Fe5  1  0.336758  0.172593  0.250000  1
  Os  Os6  1  0.175530  0.829345  0.750000  1
  Os  Os7  1  0.832150  0.664632  0.250000  1
  Os  Os8  1  0.660201  0.831716  0.750000  1
  Ru  Ru9  1  0.001689  0.995824  0.000741  1
  Ru  Ru10  1  0.827117  0.178896  0.250000  1
  Ru  Ru11  1  0.001689  0.995824  0.499259  1
