# generated using pymatgen
data_NdY6MnI12
_symmetry_space_group_name_H-M   'P 1'
_cell_length_a   9.72283753
_cell_length_b   9.83547499
_cell_length_c   9.86184466
_cell_angle_alpha   107.11906454
_cell_angle_beta   107.30756068
_cell_angle_gamma   106.62740103
_symmetry_Int_Tables_number   1
_chemical_formula_structural   NdY6MnI12
_chemical_formula_sum   'Nd1 Y6 Mn1 I12'
_cell_volume   784.99347598
_cell_formula_units_Z   1
loop_
 _symmetry_equiv_pos_site_id
 _symmetry_equiv_pos_as_xyz
  1  'x, y, z'
loop_
 _atom_site_type_symbol
 _atom_site_label
 _atom_site_symmetry_multiplicity
 _atom_site_fract_x
 _atom_site_fract_y
 _atom_site_fract_z
 _atom_site_occupancy
  Nd  Nd0  1  0.724901  0.977964  0.911396  1
  Y  Y1  1  0.976800  0.904089  0.701683  1
  Y  Y2  1  0.501213  0.500029  0.500619  1
  Y  Y3  1  0.096347  0.298747  0.024077  1
  Y  Y4  1  0.274952  0.022153  0.088539  1
  Y  Y5  1  0.905751  0.702201  0.976422  1
  Y  Y6  1  0.022536  0.096022  0.299014  1
  Mn  Mn7  1  0.987970  0.999709  0.996247  1
  I  I8  1  0.072655  0.225151  0.679951  1
  I  I9  1  0.385801  0.159061  0.458311  1
  I  I10  1  0.613069  0.834835  0.531620  1
  I  I11  1  0.228895  0.685133  0.073591  1
  I  I12  1  0.778174  0.325969  0.929241  1
  I  I13  1  0.683179  0.073593  0.230913  1
  I  I14  1  0.536416  0.608852  0.836984  1
  I  I15  1  0.841618  0.536235  0.614000  1
  I  I16  1  0.929819  0.775455  0.320979  1
  I  I17  1  0.316788  0.929663  0.779606  1
  I  I18  1  0.462356  0.381173  0.160784  1
  I  I19  1  0.160760  0.463967  0.386025  1
