# generated using pymatgen
data_Sr4HgPd4Pb
_symmetry_space_group_name_H-M   'P 1'
_cell_length_a   6.10293291
_cell_length_b   6.10293138
_cell_length_c   8.55295484
_cell_angle_alpha   77.64719998
_cell_angle_beta   77.64720168
_cell_angle_gamma   59.07461769
_symmetry_Int_Tables_number   1
_chemical_formula_structural   Sr4HgPd4Pb
_chemical_formula_sum   'Sr4 Hg1 Pd4 Pb1'
_cell_volume   264.88397586
_cell_formula_units_Z   1
loop_
 _symmetry_equiv_pos_site_id
 _symmetry_equiv_pos_as_xyz
  1  'x, y, z'
loop_
 _atom_site_type_symbol
 _atom_site_label
 _atom_site_symmetry_multiplicity
 _atom_site_fract_x
 _atom_site_fract_y
 _atom_site_fract_z
 _atom_site_occupancy
  Sr  Sr0  1  0.502227  0.794579  0.352421  1
  Sr  Sr1  1  0.205421  0.497773  0.147579  1
  Sr  Sr2  1  0.495259  0.208371  0.648688  1
  Sr  Sr3  1  0.791629  0.504741  0.851312  1
  Hg  Hg4  1  0.851167  0.148833  0.250000  1
  Pd  Pd5  1  0.725899  0.000016  0.003575  1
  Pd  Pd6  1  0.999984  0.274101  0.496425  1
  Pd  Pd7  1  0.277590  0.996837  0.999936  1
  Pd  Pd8  1  0.003163  0.722410  0.500064  1
  Pb  Pb9  1  0.147662  0.852338  0.750000  1
