# generated using pymatgen
data_Ti2MnFe5B2
_symmetry_space_group_name_H-M   'P 1'
_cell_length_a   8.55338800
_cell_length_b   2.85028200
_cell_length_c   8.55338800
_cell_angle_alpha   90.00000000
_cell_angle_beta   90.00000000
_cell_angle_gamma   90.00000000
_symmetry_Int_Tables_number   1
_chemical_formula_structural   Ti2MnFe5B2
_chemical_formula_sum   'Ti4 Mn2 Fe10 B4'
_cell_volume   208.52790314
_cell_formula_units_Z   2
loop_
 _symmetry_equiv_pos_site_id
 _symmetry_equiv_pos_as_xyz
  1  'x, y, z'
loop_
 _atom_site_type_symbol
 _atom_site_label
 _atom_site_symmetry_multiplicity
 _atom_site_fract_x
 _atom_site_fract_y
 _atom_site_fract_z
 _atom_site_occupancy
  Ti  Ti0  1  0.675372  0.000000  0.175372  1
  Ti  Ti1  1  0.175372  0.000000  0.324628  1
  Ti  Ti2  1  0.824627  0.000000  0.675372  1
  Ti  Ti3  1  0.324628  0.000000  0.824627  1
  Mn  Mn4  1  0.000000  0.000000  0.000000  1
  Mn  Mn5  1  0.500000  0.000000  0.500000  1
  Fe  Fe6  1  0.500000  0.500000  0.000000  1
  Fe  Fe7  1  0.214657  0.500000  0.069805  1
  Fe  Fe8  1  0.930194  0.500000  0.214657  1
  Fe  Fe9  1  0.430194  0.500000  0.285343  1
  Fe  Fe10  1  0.714657  0.500000  0.430194  1
  Fe  Fe11  1  0.000000  0.500000  0.500000  1
  Fe  Fe12  1  0.285343  0.500000  0.569805  1
  Fe  Fe13  1  0.569805  0.500000  0.714657  1
  Fe  Fe14  1  0.069805  0.500000  0.785345  1
  Fe  Fe15  1  0.785345  0.500000  0.930194  1
  B  B16  1  0.377553  0.000000  0.122445  1
  B  B17  1  0.877554  0.000000  0.377553  1
  B  B18  1  0.122445  0.000000  0.622445  1
  B  B19  1  0.622445  0.000000  0.877554  1
