# generated using pymatgen
data_Tb11In(Hg2Pd)4
_symmetry_space_group_name_H-M   'P 1'
_cell_length_a   13.12913689
_cell_length_b   13.12913669
_cell_length_c   3.71350500
_cell_angle_alpha   90.00000000
_cell_angle_beta   90.00000000
_cell_angle_gamma   112.22887694
_symmetry_Int_Tables_number   1
_chemical_formula_structural   Tb11In(Hg2Pd)4
_chemical_formula_sum   'Tb11 In1 Hg8 Pd4'
_cell_volume   592.53943223
_cell_formula_units_Z   1
loop_
 _symmetry_equiv_pos_site_id
 _symmetry_equiv_pos_as_xyz
  1  'x, y, z'
loop_
 _atom_site_type_symbol
 _atom_site_label
 _atom_site_symmetry_multiplicity
 _atom_site_fract_x
 _atom_site_fract_y
 _atom_site_fract_z
 _atom_site_occupancy
  Tb  Tb0  1  0.415294  0.075837  0.000000  1
  Tb  Tb1  1  0.584706  0.924163  0.000000  1
  Tb  Tb2  1  0.075837  0.415294  0.000000  1
  Tb  Tb3  1  0.924163  0.584706  0.000000  1
  Tb  Tb4  1  0.166554  0.833446  0.000000  1
  Tb  Tb5  1  0.833446  0.166554  0.000000  1
  Tb  Tb6  1  0.371188  0.628812  0.000000  1
  Tb  Tb7  1  0.628812  0.371188  0.000000  1
  Tb  Tb8  1  0.298799  0.298799  0.000000  1
  Tb  Tb9  1  0.701201  0.701201  0.000000  1
  Tb  Tb10  1  0.000000  0.000000  0.000000  1
  In  In11  1  0.500000  0.500000  0.500000  1
  Hg  Hg12  1  0.369142  0.844705  0.500000  1
  Hg  Hg13  1  0.630858  0.155295  0.500000  1
  Hg  Hg14  1  0.844707  0.369142  0.500000  1
  Hg  Hg15  1  0.155293  0.630858  0.500000  1
  Hg  Hg16  1  0.213574  0.064643  0.500000  1
  Hg  Hg17  1  0.786426  0.935357  0.500000  1
  Hg  Hg18  1  0.064642  0.213573  0.500000  1
  Hg  Hg19  1  0.935358  0.786427  0.500000  1
  Pd  Pd20  1  0.448482  0.250651  0.500000  1
  Pd  Pd21  1  0.551518  0.749349  0.500000  1
  Pd  Pd22  1  0.250652  0.448482  0.500000  1
  Pd  Pd23  1  0.749348  0.551518  0.500000  1
