# generated using pymatgen
data_Y6Ta4Al12Ir6Ru
_symmetry_space_group_name_H-M   'P 1'
_cell_length_a   9.00897010
_cell_length_b   9.00897076
_cell_length_c   9.00897000
_cell_angle_alpha   60.00000279
_cell_angle_beta   60.00000038
_cell_angle_gamma   60.00000054
_symmetry_Int_Tables_number   1
_chemical_formula_structural   Y6Ta4Al12Ir6Ru
_chemical_formula_sum   'Y6 Ta4 Al12 Ir6 Ru1'
_cell_volume   517.02373173
_cell_formula_units_Z   1
loop_
 _symmetry_equiv_pos_site_id
 _symmetry_equiv_pos_as_xyz
  1  'x, y, z'
loop_
 _atom_site_type_symbol
 _atom_site_label
 _atom_site_symmetry_multiplicity
 _atom_site_fract_x
 _atom_site_fract_y
 _atom_site_fract_z
 _atom_site_occupancy
  Y  Y0  1  0.700125  0.700125  0.299875  1
  Y  Y1  1  0.299875  0.700125  0.299875  1
  Y  Y2  1  0.700125  0.299875  0.299875  1
  Y  Y3  1  0.299875  0.299875  0.700125  1
  Y  Y4  1  0.700125  0.299875  0.700125  1
  Y  Y5  1  0.299875  0.700125  0.700125  1
  Ta  Ta6  1  0.879840  0.879840  0.360482  1
  Ta  Ta7  1  0.879840  0.360482  0.879840  1
  Ta  Ta8  1  0.360482  0.879840  0.879840  1
  Ta  Ta9  1  0.879840  0.879840  0.879840  1
  Al  Al10  1  0.119431  0.119431  0.641707  1
  Al  Al11  1  0.119431  0.641707  0.119431  1
  Al  Al12  1  0.641707  0.119431  0.119431  1
  Al  Al13  1  0.119431  0.119431  0.119431  1
  Al  Al14  1  0.665370  0.665370  0.003891  1
  Al  Al15  1  0.665370  0.003891  0.665370  1
  Al  Al16  1  0.003891  0.665370  0.665370  1
  Al  Al17  1  0.665370  0.665370  0.665370  1
  Al  Al18  1  0.327896  0.327896  0.016313  1
  Al  Al19  1  0.327896  0.016313  0.327896  1
  Al  Al20  1  0.016313  0.327896  0.327896  1
  Al  Al21  1  0.327896  0.327896  0.327896  1
  Ir  Ir22  1  0.997491  0.997491  0.502509  1
  Ir  Ir23  1  0.502509  0.997491  0.502509  1
  Ir  Ir24  1  0.997491  0.502509  0.502509  1
  Ir  Ir25  1  0.502509  0.502509  0.997491  1
  Ir  Ir26  1  0.997491  0.502509  0.997491  1
  Ir  Ir27  1  0.502509  0.997491  0.997491  1
  Ru  Ru28  1  0.000000  0.000000  0.000000  1
