# generated using pymatgen
data_Tb3HoMoOs7
_symmetry_space_group_name_H-M   'P 1'
_cell_length_a   5.30206396
_cell_length_b   5.30206360
_cell_length_c   8.91679511
_cell_angle_alpha   89.98489825
_cell_angle_beta   90.01509984
_cell_angle_gamma   117.92748006
_symmetry_Int_Tables_number   1
_chemical_formula_structural   Tb3HoMoOs7
_chemical_formula_sum   'Tb3 Ho1 Mo1 Os7'
_cell_volume   221.47536136
_cell_formula_units_Z   1
loop_
 _symmetry_equiv_pos_site_id
 _symmetry_equiv_pos_as_xyz
  1  'x, y, z'
loop_
 _atom_site_type_symbol
 _atom_site_label
 _atom_site_symmetry_multiplicity
 _atom_site_fract_x
 _atom_site_fract_y
 _atom_site_fract_z
 _atom_site_occupancy
  Tb  Tb0  1  0.330028  0.669972  0.437876  1
  Tb  Tb1  1  0.666190  0.333810  0.566035  1
  Tb  Tb2  1  0.666206  0.333794  0.934133  1
  Ho  Ho3  1  0.329756  0.670244  0.062164  1
  Mo  Mo4  1  0.833069  0.166931  0.249552  1
  Os  Os5  1  0.993106  0.006894  0.501820  1
  Os  Os6  1  0.993382  0.006618  0.998291  1
  Os  Os7  1  0.826593  0.653056  0.249131  1
  Os  Os8  1  0.346944  0.173407  0.249131  1
  Os  Os9  1  0.178998  0.821002  0.750801  1
  Os  Os10  1  0.172186  0.336459  0.750533  1
  Os  Os11  1  0.663541  0.827814  0.750533  1
