# generated using pymatgen
data_Sr2Pa2Al24Pt8Rh
_symmetry_space_group_name_H-M   'P 1'
_cell_length_a   7.58469832
_cell_length_b   7.59168894
_cell_length_c   13.24139924
_cell_angle_alpha   84.52001957
_cell_angle_beta   78.99768020
_cell_angle_gamma   59.90002491
_symmetry_Int_Tables_number   1
_chemical_formula_structural   Sr2Pa2Al24Pt8Rh
_chemical_formula_sum   'Sr2 Pa2 Al24 Pt8 Rh1'
_cell_volume   647.50924824
_cell_formula_units_Z   1
loop_
 _symmetry_equiv_pos_site_id
 _symmetry_equiv_pos_as_xyz
  1  'x, y, z'
loop_
 _atom_site_type_symbol
 _atom_site_label
 _atom_site_symmetry_multiplicity
 _atom_site_fract_x
 _atom_site_fract_y
 _atom_site_fract_z
 _atom_site_occupancy
  Sr  Sr0  1  0.731841  0.498340  0.809370  1
  Sr  Sr1  1  0.268159  0.501660  0.190630  1
  Pa  Pa2  1  0.395418  0.168817  0.804705  1
  Pa  Pa3  1  0.604582  0.831183  0.195295  1
  Al  Al4  1  0.686825  0.831752  0.947541  1
  Al  Al5  1  0.313175  0.168248  0.052459  1
  Al  Al6  1  0.146562  0.831988  0.559940  1
  Al  Al7  1  0.853438  0.168012  0.440060  1
  Al  Al8  1  0.480872  0.167311  0.557584  1
  Al  Al9  1  0.519128  0.832689  0.442416  1
  Al  Al10  1  0.213058  0.168120  0.332046  1
  Al  Al11  1  0.786942  0.831880  0.667954  1
  Al  Al12  1  0.436134  0.510544  0.669483  1
  Al  Al13  1  0.563866  0.489456  0.330517  1
  Al  Al14  1  0.108342  0.159149  0.667028  1
  Al  Al15  1  0.891658  0.840851  0.332972  1
  Al  Al16  1  0.346500  0.500150  0.946836  1
  Al  Al17  1  0.653500  0.499850  0.053164  1
  Al  Al18  1  0.015817  0.169695  0.956827  1
  Al  Al19  1  0.984183  0.830305  0.043173  1
  Al  Al20  1  0.185189  0.500093  0.442396  1
  Al  Al21  1  0.814811  0.499907  0.557604  1
  Al  Al22  1  0.742412  0.154513  0.182355  1
  Al  Al23  1  0.257588  0.845487  0.817645  1
  Al  Al24  1  0.067423  0.626906  0.818476  1
  Al  Al25  1  0.932577  0.373094  0.181524  1
  Al  Al26  1  0.854189  0.034273  0.817284  1
  Al  Al27  1  0.145811  0.965727  0.182716  1
  Pt  Pt28  1  0.123357  0.491438  0.638491  1
  Pt  Pt29  1  0.876643  0.508562  0.361509  1
  Pt  Pt30  1  0.657376  0.170201  0.000180  1
  Pt  Pt31  1  0.342624  0.829799  0.999820  1
  Pt  Pt32  1  0.539145  0.164112  0.362182  1
  Pt  Pt33  1  0.460855  0.835888  0.637818  1
  Pt  Pt34  1  0.778496  0.172872  0.637290  1
  Pt  Pt35  1  0.221504  0.827128  0.362710  1
  Rh  Rh36  1  0.000000  0.500000  0.000000  1
