# generated using pymatgen
data_Tm4Cd2Pt3Au
_symmetry_space_group_name_H-M   'P 1'
_cell_length_a   7.74205098
_cell_length_b   7.74205068
_cell_length_c   3.67624800
_cell_angle_alpha   90.00000000
_cell_angle_beta   90.00000000
_cell_angle_gamma   90.40983187
_symmetry_Int_Tables_number   1
_chemical_formula_structural   Tm4Cd2Pt3Au
_chemical_formula_sum   'Tm4 Cd2 Pt3 Au1'
_cell_volume   220.34628247
_cell_formula_units_Z   1
loop_
 _symmetry_equiv_pos_site_id
 _symmetry_equiv_pos_as_xyz
  1  'x, y, z'
loop_
 _atom_site_type_symbol
 _atom_site_label
 _atom_site_symmetry_multiplicity
 _atom_site_fract_x
 _atom_site_fract_y
 _atom_site_fract_z
 _atom_site_occupancy
  Tm  Tm0  1  0.167837  0.332163  0.500000  1
  Tm  Tm1  1  0.319911  0.839685  0.500000  1
  Tm  Tm2  1  0.846495  0.653505  0.500000  1
  Tm  Tm3  1  0.660315  0.180089  0.500000  1
  Cd  Cd4  1  0.498461  0.502253  0.000000  1
  Cd  Cd5  1  0.997747  0.001539  0.000000  1
  Pt  Pt6  1  0.136213  0.630473  0.000000  1
  Pt  Pt7  1  0.869527  0.363787  0.000000  1
  Pt  Pt8  1  0.369284  0.130716  0.000000  1
  Au  Au9  1  0.634208  0.865792  0.000000  1
