# generated using pymatgen
data_Ce2Ho3Sn3Au
_symmetry_space_group_name_H-M   'P 1'
_cell_length_a   9.45518760
_cell_length_b   9.45004998
_cell_length_c   6.47440054
_cell_angle_alpha   89.99572154
_cell_angle_beta   89.99785639
_cell_angle_gamma   120.01163634
_symmetry_Int_Tables_number   1
_chemical_formula_structural   Ce2Ho3Sn3Au
_chemical_formula_sum   'Ce4 Ho6 Sn6 Au2'
_cell_volume   500.93746344
_cell_formula_units_Z   2
loop_
 _symmetry_equiv_pos_site_id
 _symmetry_equiv_pos_as_xyz
  1  'x, y, z'
loop_
 _atom_site_type_symbol
 _atom_site_label
 _atom_site_symmetry_multiplicity
 _atom_site_fract_x
 _atom_site_fract_y
 _atom_site_fract_z
 _atom_site_occupancy
  Ce  Ce0  1  0.333317  0.666754  0.517520  1
  Ce  Ce1  1  0.666622  0.333291  0.497526  1
  Ce  Ce2  1  0.666663  0.333335  0.001645  1
  Ce  Ce3  1  0.333248  0.666685  0.984963  1
  Ho  Ho4  1  0.270702  0.999687  0.749818  1
  Ho  Ho5  1  0.731285  0.001478  0.249828  1
  Ho  Ho6  1  0.000320  0.270994  0.749840  1
  Ho  Ho7  1  0.998038  0.729440  0.249858  1
  Ho  Ho8  1  0.729141  0.729158  0.749822  1
  Ho  Ho9  1  0.270395  0.269027  0.249833  1
  Sn  Sn10  1  0.622248  0.002166  0.750191  1
  Sn  Sn11  1  0.379264  0.996089  0.249702  1
  Sn  Sn12  1  0.997644  0.620098  0.750252  1
  Sn  Sn13  1  0.003881  0.383038  0.249796  1
  Sn  Sn14  1  0.380030  0.377862  0.750304  1
  Sn  Sn15  1  0.616913  0.620737  0.249764  1
  Au  Au16  1  0.000152  0.000116  0.501028  1
  Au  Au17  1  0.000137  0.000046  0.998310  1
