# generated using pymatgen
data_Eu2Ho4NbO12
_symmetry_space_group_name_H-M   'P 1'
_cell_length_a   6.50063983
_cell_length_b   6.49285290
_cell_length_c   6.54517005
_cell_angle_alpha   98.75257878
_cell_angle_beta   98.90700813
_cell_angle_gamma   98.59168131
_symmetry_Int_Tables_number   1
_chemical_formula_structural   Eu2Ho4NbO12
_chemical_formula_sum   'Eu2 Ho4 Nb1 O12'
_cell_volume   265.48167706
_cell_formula_units_Z   1
loop_
 _symmetry_equiv_pos_site_id
 _symmetry_equiv_pos_as_xyz
  1  'x, y, z'
loop_
 _atom_site_type_symbol
 _atom_site_label
 _atom_site_symmetry_multiplicity
 _atom_site_fract_x
 _atom_site_fract_y
 _atom_site_fract_z
 _atom_site_occupancy
  Eu  Eu0  1  0.599036  0.140885  0.306422  1
  Eu  Eu1  1  0.863019  0.696480  0.398383  1
  Ho  Ho2  1  0.142494  0.303447  0.617005  1
  Ho  Ho3  1  0.385606  0.860029  0.702081  1
  Ho  Ho4  1  0.692164  0.389222  0.858365  1
  Ho  Ho5  1  0.297906  0.609190  0.132740  1
  Nb  Nb6  1  0.994563  0.002485  0.003028  1
  O  O7  1  0.074605  0.306437  0.958154  1
  O  O8  1  0.051673  0.937843  0.694962  1
  O  O9  1  0.412269  0.563270  0.823156  1
  O  O10  1  0.179165  0.587902  0.434936  1
  O  O11  1  0.697105  0.040713  0.919726  1
  O  O12  1  0.436011  0.176071  0.595296  1
  O  O13  1  0.561702  0.820081  0.410504  1
  O  O14  1  0.305678  0.946971  0.063001  1
  O  O15  1  0.824803  0.409830  0.570660  1
  O  O16  1  0.585807  0.433533  0.177099  1
  O  O17  1  0.970296  0.079685  0.301112  1
  O  O18  1  0.926099  0.695928  0.033370  1
