# generated using pymatgen
data_La2B2Pd5Pt3
_symmetry_space_group_name_H-M   'P 1'
_cell_length_a   5.52125533
_cell_length_b   5.51851092
_cell_length_c   7.73233500
_cell_angle_alpha   90.00000000
_cell_angle_beta   90.00000000
_cell_angle_gamma   120.05610102
_symmetry_Int_Tables_number   1
_chemical_formula_structural   La2B2Pd5Pt3
_chemical_formula_sum   'La2 B2 Pd5 Pt3'
_cell_volume   203.91784929
_cell_formula_units_Z   1
loop_
 _symmetry_equiv_pos_site_id
 _symmetry_equiv_pos_as_xyz
  1  'x, y, z'
loop_
 _atom_site_type_symbol
 _atom_site_label
 _atom_site_symmetry_multiplicity
 _atom_site_fract_x
 _atom_site_fract_y
 _atom_site_fract_z
 _atom_site_occupancy
  La  La0  1  0.000000  0.000000  0.502110  1
  La  La1  1  0.000000  0.000000  0.001425  1
  B  B2  1  0.333438  0.674261  0.998852  1
  B  B3  1  0.666562  0.325739  0.998852  1
  Pd  Pd4  1  0.333261  0.667562  0.499333  1
  Pd  Pd5  1  0.666739  0.332438  0.499333  1
  Pd  Pd6  1  0.000000  0.500000  0.199118  1
  Pd  Pd7  1  0.500000  0.500000  0.194747  1
  Pd  Pd8  1  0.500000  0.500000  0.803347  1
  Pt  Pt9  1  0.500000  0.000000  0.197540  1
  Pt  Pt10  1  0.500000  0.000000  0.800038  1
  Pt  Pt11  1  0.000000  0.500000  0.805305  1
