# generated using pymatgen
data_Ho4Zn2(ReRu)3
_symmetry_space_group_name_H-M   'P 1'
_cell_length_a   5.34432071
_cell_length_b   5.27162627
_cell_length_c   8.97025400
_cell_angle_alpha   90.00000000
_cell_angle_beta   90.00000000
_cell_angle_gamma   119.83800995
_symmetry_Int_Tables_number   1
_chemical_formula_structural   Ho4Zn2(ReRu)3
_chemical_formula_sum   'Ho4 Zn2 Re3 Ru3'
_cell_volume   219.21945486
_cell_formula_units_Z   1
loop_
 _symmetry_equiv_pos_site_id
 _symmetry_equiv_pos_as_xyz
  1  'x, y, z'
loop_
 _atom_site_type_symbol
 _atom_site_label
 _atom_site_symmetry_multiplicity
 _atom_site_fract_x
 _atom_site_fract_y
 _atom_site_fract_z
 _atom_site_occupancy
  Ho  Ho0  1  0.673443  0.335993  0.562715  1
  Ho  Ho1  1  0.339844  0.670233  0.441053  1
  Ho  Ho2  1  0.339844  0.670233  0.058947  1
  Ho  Ho3  1  0.673443  0.335993  0.937285  1
  Zn  Zn4  1  0.815754  0.656254  0.250000  1
  Zn  Zn5  1  0.812988  0.161350  0.250000  1
  Re  Re6  1  0.172092  0.337935  0.750000  1
  Re  Re7  1  0.170440  0.830053  0.750000  1
  Re  Re8  1  0.656354  0.826930  0.750000  1
  Ru  Ru9  1  0.015522  0.008333  0.495460  1
  Ru  Ru10  1  0.015522  0.008333  0.004540  1
  Ru  Ru11  1  0.314754  0.158360  0.250000  1
