# generated using pymatgen
data_SmLu3(GaRh)4
_symmetry_space_group_name_H-M   'P 1'
_cell_length_a   4.18956400
_cell_length_b   6.85515729
_cell_length_c   7.87497533
_cell_angle_alpha   90.94017633
_cell_angle_beta   90.00000000
_cell_angle_gamma   90.00000000
_symmetry_Int_Tables_number   1
_chemical_formula_structural   SmLu3(GaRh)4
_chemical_formula_sum   'Sm1 Lu3 Ga4 Rh4'
_cell_volume   226.13978937
_cell_formula_units_Z   1
loop_
 _symmetry_equiv_pos_site_id
 _symmetry_equiv_pos_as_xyz
  1  'x, y, z'
loop_
 _atom_site_type_symbol
 _atom_site_label
 _atom_site_symmetry_multiplicity
 _atom_site_fract_x
 _atom_site_fract_y
 _atom_site_fract_z
 _atom_site_occupancy
  Sm  Sm0  1  0.250000  0.032065  0.317207  1
  Lu  Lu1  1  0.250000  0.533634  0.180864  1
  Lu  Lu2  1  0.750000  0.467713  0.815572  1
  Lu  Lu3  1  0.750000  0.965016  0.687228  1
  Ga  Ga4  1  0.250000  0.641853  0.564877  1
  Ga  Ga5  1  0.750000  0.357305  0.437272  1
  Ga  Ga6  1  0.750000  0.851928  0.063163  1
  Ga  Ga7  1  0.250000  0.147466  0.933697  1
  Rh  Rh8  1  0.250000  0.762595  0.881217  1
  Rh  Rh9  1  0.750000  0.246201  0.113709  1
  Rh  Rh10  1  0.750000  0.730599  0.380410  1
  Rh  Rh11  1  0.250000  0.263628  0.624782  1
