# generated using pymatgen
data_LiNbP7Ru12
_symmetry_space_group_name_H-M   'P 1'
_cell_length_a   9.36208900
_cell_length_b   9.36208920
_cell_length_c   3.90161100
_cell_angle_alpha   90.00000000
_cell_angle_beta   90.00000000
_cell_angle_gamma   120.00000094
_symmetry_Int_Tables_number   1
_chemical_formula_structural   LiNbP7Ru12
_chemical_formula_sum   'Li1 Nb1 P7 Ru12'
_cell_volume   296.15572643
_cell_formula_units_Z   1
loop_
 _symmetry_equiv_pos_site_id
 _symmetry_equiv_pos_as_xyz
  1  'x, y, z'
loop_
 _atom_site_type_symbol
 _atom_site_label
 _atom_site_symmetry_multiplicity
 _atom_site_fract_x
 _atom_site_fract_y
 _atom_site_fract_z
 _atom_site_occupancy
  Li  Li0  1  0.333333  0.666667  0.000000  1
  Nb  Nb1  1  0.666667  0.333333  0.500000  1
  P  P2  1  0.598836  0.721304  0.500000  1
  P  P3  1  0.000000  0.000000  0.000000  1
  P  P4  1  0.278696  0.877532  0.500000  1
  P  P5  1  0.122468  0.401164  0.500000  1
  P  P6  1  0.889399  0.571931  0.000000  1
  P  P7  1  0.428069  0.317467  0.000000  1
  P  P8  1  0.682533  0.110601  0.000000  1
  Ru  Ru9  1  0.556360  0.958832  0.500000  1
  Ru  Ru10  1  0.402473  0.443640  0.500000  1
  Ru  Ru11  1  0.914981  0.121632  0.500000  1
  Ru  Ru12  1  0.206651  0.085019  0.500000  1
  Ru  Ru13  1  0.878368  0.793349  0.500000  1
  Ru  Ru14  1  0.724447  0.887051  0.000000  1
  Ru  Ru15  1  0.112949  0.837394  0.000000  1
  Ru  Ru16  1  0.162606  0.275553  0.000000  1
  Ru  Ru17  1  0.426980  0.079424  0.000000  1
  Ru  Ru18  1  0.920576  0.347557  0.000000  1
  Ru  Ru19  1  0.652443  0.573020  0.000000  1
  Ru  Ru20  1  0.041168  0.597527  0.500000  1
