# generated using pymatgen
data_Tb16Cd4Ni3Os
_symmetry_space_group_name_H-M   'P 1'
_cell_length_a   9.64686156
_cell_length_b   9.64686092
_cell_length_c   9.64686091
_cell_angle_alpha   59.49037789
_cell_angle_beta   59.49038294
_cell_angle_gamma   59.49037753
_symmetry_Int_Tables_number   1
_chemical_formula_structural   Tb16Cd4Ni3Os
_chemical_formula_sum   'Tb16 Cd4 Ni3 Os1'
_cell_volume   627.45105655
_cell_formula_units_Z   1
loop_
 _symmetry_equiv_pos_site_id
 _symmetry_equiv_pos_as_xyz
  1  'x, y, z'
loop_
 _atom_site_type_symbol
 _atom_site_label
 _atom_site_symmetry_multiplicity
 _atom_site_fract_x
 _atom_site_fract_y
 _atom_site_fract_z
 _atom_site_occupancy
  Tb  Tb0  1  0.347382  0.347382  0.347382  1
  Tb  Tb1  1  0.350673  0.350673  0.953724  1
  Tb  Tb2  1  0.350673  0.953724  0.350673  1
  Tb  Tb3  1  0.953724  0.350673  0.350673  1
  Tb  Tb4  1  0.809835  0.188674  0.188674  1
  Tb  Tb5  1  0.186551  0.811360  0.811360  1
  Tb  Tb6  1  0.188674  0.809835  0.188674  1
  Tb  Tb7  1  0.811360  0.186551  0.811360  1
  Tb  Tb8  1  0.188674  0.188674  0.809835  1
  Tb  Tb9  1  0.811360  0.811360  0.186551  1
  Tb  Tb10  1  0.936257  0.565681  0.565681  1
  Tb  Tb11  1  0.556823  0.938990  0.938990  1
  Tb  Tb12  1  0.565681  0.936257  0.565681  1
  Tb  Tb13  1  0.938990  0.556823  0.938990  1
  Tb  Tb14  1  0.565681  0.565681  0.936257  1
  Tb  Tb15  1  0.938990  0.938990  0.556823  1
  Cd  Cd16  1  0.580076  0.580076  0.580076  1
  Cd  Cd17  1  0.580103  0.580103  0.256044  1
  Cd  Cd18  1  0.580103  0.256044  0.580103  1
  Cd  Cd19  1  0.256044  0.580103  0.580103  1
  Ni  Ni20  1  0.142266  0.142266  0.574891  1
  Ni  Ni21  1  0.142266  0.574891  0.142266  1
  Ni  Ni22  1  0.574891  0.142266  0.142266  1
  Os  Os23  1  0.142923  0.142923  0.142923  1
