# generated using pymatgen
data_Nd3Eu5(CdIr)2
_symmetry_space_group_name_H-M   'P 1'
_cell_length_a   10.13773384
_cell_length_b   10.17349003
_cell_length_c   10.17348961
_cell_angle_alpha   59.76761449
_cell_angle_beta   60.11619110
_cell_angle_gamma   60.11619688
_symmetry_Int_Tables_number   1
_chemical_formula_structural   Nd3Eu5(CdIr)2
_chemical_formula_sum   'Nd6 Eu10 Cd4 Ir4'
_cell_volume   741.91664312
_cell_formula_units_Z   2
loop_
 _symmetry_equiv_pos_site_id
 _symmetry_equiv_pos_as_xyz
  1  'x, y, z'
loop_
 _atom_site_type_symbol
 _atom_site_label
 _atom_site_symmetry_multiplicity
 _atom_site_fract_x
 _atom_site_fract_y
 _atom_site_fract_z
 _atom_site_occupancy
  Nd  Nd0  1  0.343675  0.343401  0.343401  1
  Nd  Nd1  1  0.343401  0.343675  0.969521  1
  Nd  Nd2  1  0.343401  0.969521  0.343675  1
  Nd  Nd3  1  0.969521  0.343401  0.343401  1
  Nd  Nd4  1  0.805278  0.194722  0.194722  1
  Nd  Nd5  1  0.194722  0.805278  0.805278  1
  Eu  Eu6  1  0.193338  0.806662  0.193338  1
  Eu  Eu7  1  0.806662  0.193338  0.806662  1
  Eu  Eu8  1  0.193338  0.193338  0.806662  1
  Eu  Eu9  1  0.806662  0.806662  0.193338  1
  Eu  Eu10  1  0.943234  0.556766  0.556766  1
  Eu  Eu11  1  0.556766  0.943234  0.943234  1
  Eu  Eu12  1  0.556633  0.943367  0.556633  1
  Eu  Eu13  1  0.943367  0.556633  0.943367  1
  Eu  Eu14  1  0.556633  0.556633  0.943367  1
  Eu  Eu15  1  0.943367  0.943367  0.556633  1
  Cd  Cd16  1  0.575744  0.578885  0.578885  1
  Cd  Cd17  1  0.578885  0.575744  0.266487  1
  Cd  Cd18  1  0.578885  0.266487  0.575744  1
  Cd  Cd19  1  0.266487  0.578885  0.578885  1
  Ir  Ir20  1  0.134419  0.144161  0.144161  1
  Ir  Ir21  1  0.144161  0.134419  0.577261  1
  Ir  Ir22  1  0.144161  0.577261  0.134419  1
  Ir  Ir23  1  0.577261  0.144161  0.144161  1
