# generated using pymatgen
data_Sm2PuRu3
_symmetry_space_group_name_H-M   'P 1'
_cell_length_a   5.28821779
_cell_length_b   5.28821750
_cell_length_c   5.28821780
_cell_angle_alpha   67.43064835
_cell_angle_beta   67.43065263
_cell_angle_gamma   67.43064259
_symmetry_Int_Tables_number   1
_chemical_formula_structural   Sm2PuRu3
_chemical_formula_sum   'Sm2 Pu1 Ru3'
_cell_volume   121.15490647
_cell_formula_units_Z   1
loop_
 _symmetry_equiv_pos_site_id
 _symmetry_equiv_pos_as_xyz
  1  'x, y, z'
loop_
 _atom_site_type_symbol
 _atom_site_label
 _atom_site_symmetry_multiplicity
 _atom_site_fract_x
 _atom_site_fract_y
 _atom_site_fract_z
 _atom_site_occupancy
  Sm  Sm0  1  0.626394  0.626394  0.626394  1
  Sm  Sm1  1  0.373606  0.373606  0.373606  1
  Pu  Pu2  1  0.000000  0.000000  0.000000  1
  Ru  Ru3  1  0.000000  0.500000  0.000000  1
  Ru  Ru4  1  0.500000  0.000000  0.000000  1
  Ru  Ru5  1  0.000000  0.000000  0.500000  1
