# generated using pymatgen
data_YEr9(TlBi2)2
_symmetry_space_group_name_H-M   'P 1'
_cell_length_a   9.02644600
_cell_length_b   9.02644634
_cell_length_c   6.47365200
_cell_angle_alpha   90.00000000
_cell_angle_beta   90.00000000
_cell_angle_gamma   119.67014529
_symmetry_Int_Tables_number   1
_chemical_formula_structural   YEr9(TlBi2)2
_chemical_formula_sum   'Y1 Er9 Tl2 Bi4'
_cell_volume   458.29753607
_cell_formula_units_Z   1
loop_
 _symmetry_equiv_pos_site_id
 _symmetry_equiv_pos_as_xyz
  1  'x, y, z'
loop_
 _atom_site_type_symbol
 _atom_site_label
 _atom_site_symmetry_multiplicity
 _atom_site_fract_x
 _atom_site_fract_y
 _atom_site_fract_z
 _atom_site_occupancy
  Y  Y0  1  0.762325  0.762325  0.750000  1
  Er  Er1  1  0.669039  0.329194  0.003598  1
  Er  Er2  1  0.329194  0.669039  0.003598  1
  Er  Er3  1  0.329194  0.669039  0.496402  1
  Er  Er4  1  0.669039  0.329194  0.496402  1
  Er  Er5  1  0.234066  0.997674  0.750000  1
  Er  Er6  1  0.997674  0.234066  0.750000  1
  Er  Er7  1  0.233739  0.233739  0.250000  1
  Er  Er8  1  0.766597  0.009157  0.250000  1
  Er  Er9  1  0.009157  0.766597  0.250000  1
  Tl  Tl10  1  0.395960  0.002086  0.250000  1
  Tl  Tl11  1  0.002086  0.395960  0.250000  1
  Bi  Bi12  1  0.392985  0.392985  0.750000  1
  Bi  Bi13  1  0.602375  0.997338  0.750000  1
  Bi  Bi14  1  0.997338  0.602375  0.750000  1
  Bi  Bi15  1  0.609229  0.609229  0.250000  1
