# generated using pymatgen
data_Ce2ErTm(Al3Ir)6
_symmetry_space_group_name_H-M   'P 1'
_cell_length_a   7.57228369
_cell_length_b   7.57505023
_cell_length_c   9.43433500
_cell_angle_alpha   90.00000000
_cell_angle_beta   90.00000000
_cell_angle_gamma   119.52538092
_symmetry_Int_Tables_number   1
_chemical_formula_structural   Ce2ErTm(Al3Ir)6
_chemical_formula_sum   'Ce2 Er1 Tm1 Al18 Ir6'
_cell_volume   470.88142655
_cell_formula_units_Z   1
loop_
 _symmetry_equiv_pos_site_id
 _symmetry_equiv_pos_as_xyz
  1  'x, y, z'
loop_
 _atom_site_type_symbol
 _atom_site_label
 _atom_site_symmetry_multiplicity
 _atom_site_fract_x
 _atom_site_fract_y
 _atom_site_fract_z
 _atom_site_occupancy
  Ce  Ce0  1  0.004704  0.328369  0.750000  1
  Ce  Ce1  1  0.328565  0.005090  0.750000  1
  Er  Er2  1  0.996069  0.671585  0.250000  1
  Tm  Tm3  1  0.671523  0.995478  0.250000  1
  Al  Al4  1  0.125571  0.125663  0.250000  1
  Al  Al5  1  0.867237  0.867395  0.750000  1
  Al  Al6  1  0.999871  0.335385  0.079269  1
  Al  Al7  1  0.996978  0.664417  0.927301  1
  Al  Al8  1  0.996978  0.664417  0.572699  1
  Al  Al9  1  0.335850  0.000144  0.420728  1
  Al  Al10  1  0.999871  0.335385  0.420731  1
  Al  Al11  1  0.664356  0.996939  0.572345  1
  Al  Al12  1  0.664356  0.996939  0.927655  1
  Al  Al13  1  0.335850  0.000144  0.079272  1
  Al  Al14  1  0.335346  0.335429  0.545619  1
  Al  Al15  1  0.668078  0.668144  0.441863  1
  Al  Al16  1  0.668078  0.668144  0.058137  1
  Al  Al17  1  0.335346  0.335429  0.954381  1
  Al  Al18  1  0.340651  0.551690  0.250000  1
  Al  Al19  1  0.658688  0.453682  0.750000  1
  Al  Al20  1  0.551644  0.340281  0.250000  1
  Al  Al21  1  0.453405  0.658914  0.750000  1
  Ir  Ir22  1  0.672446  0.327959  0.000011  1
  Ir  Ir23  1  0.328086  0.672501  0.000175  1
  Ir  Ir24  1  0.328086  0.672501  0.499825  1
  Ir  Ir25  1  0.672446  0.327959  0.499989  1
  Ir  Ir26  1  0.999959  0.000010  0.999849  1
  Ir  Ir27  1  0.999959  0.000010  0.500151  1
