# generated using pymatgen
data_PrY(Si7Rh3)2
_symmetry_space_group_name_H-M   'P 1'
_cell_length_a   8.04845977
_cell_length_b   8.04845933
_cell_length_c   8.04846116
_cell_angle_alpha   56.94369351
_cell_angle_beta   56.94369490
_cell_angle_gamma   56.94368703
_symmetry_Int_Tables_number   1
_chemical_formula_structural   PrY(Si7Rh3)2
_chemical_formula_sum   'Pr1 Y1 Si14 Rh6'
_cell_volume   342.67069631
_cell_formula_units_Z   1
loop_
 _symmetry_equiv_pos_site_id
 _symmetry_equiv_pos_as_xyz
  1  'x, y, z'
loop_
 _atom_site_type_symbol
 _atom_site_label
 _atom_site_symmetry_multiplicity
 _atom_site_fract_x
 _atom_site_fract_y
 _atom_site_fract_z
 _atom_site_occupancy
  Pr  Pr0  1  0.500000  0.500000  0.500000  1
  Y  Y1  1  0.000000  0.000000  0.000000  1
  Si  Si2  1  0.750011  0.750011  0.750011  1
  Si  Si3  1  0.249989  0.249989  0.249989  1
  Si  Si4  1  0.852609  0.062992  0.673094  1
  Si  Si5  1  0.673094  0.852609  0.062992  1
  Si  Si6  1  0.062992  0.673094  0.852609  1
  Si  Si7  1  0.649465  0.828404  0.435324  1
  Si  Si8  1  0.435324  0.649465  0.828404  1
  Si  Si9  1  0.828404  0.435324  0.649465  1
  Si  Si10  1  0.171596  0.564676  0.350535  1
  Si  Si11  1  0.564676  0.350535  0.171596  1
  Si  Si12  1  0.350535  0.171596  0.564676  1
  Si  Si13  1  0.937008  0.326906  0.147391  1
  Si  Si14  1  0.326906  0.147391  0.937008  1
  Si  Si15  1  0.147391  0.937008  0.326906  1
  Rh  Rh16  1  0.067029  0.429963  0.751956  1
  Rh  Rh17  1  0.248044  0.932971  0.570037  1
  Rh  Rh18  1  0.570037  0.248044  0.932971  1
  Rh  Rh19  1  0.932971  0.570037  0.248044  1
  Rh  Rh20  1  0.429963  0.751956  0.067029  1
  Rh  Rh21  1  0.751956  0.067029  0.429963  1
