# generated using pymatgen
data_Y6Lu10Cd4Ni3Ir
_symmetry_space_group_name_H-M   'P 1'
_cell_length_a   9.49740652
_cell_length_b   9.49740644
_cell_length_c   9.49740771
_cell_angle_alpha   59.67183308
_cell_angle_beta   59.67182961
_cell_angle_gamma   59.67183267
_symmetry_Int_Tables_number   1
_chemical_formula_structural   Y6Lu10Cd4Ni3Ir
_chemical_formula_sum   'Y6 Lu10 Cd4 Ni3 Ir1'
_cell_volume   601.24306417
_cell_formula_units_Z   1
loop_
 _symmetry_equiv_pos_site_id
 _symmetry_equiv_pos_as_xyz
  1  'x, y, z'
loop_
 _atom_site_type_symbol
 _atom_site_label
 _atom_site_symmetry_multiplicity
 _atom_site_fract_x
 _atom_site_fract_y
 _atom_site_fract_z
 _atom_site_occupancy
  Y  Y0  1  0.186492  0.814146  0.814146  1
  Y  Y1  1  0.808926  0.190259  0.190259  1
  Y  Y2  1  0.814146  0.186492  0.814146  1
  Y  Y3  1  0.190259  0.808926  0.190259  1
  Y  Y4  1  0.814146  0.814146  0.186492  1
  Y  Y5  1  0.190259  0.190259  0.808926  1
  Lu  Lu6  1  0.596631  0.596631  0.596631  1
  Lu  Lu7  1  0.600623  0.600623  0.205461  1
  Lu  Lu8  1  0.600623  0.205461  0.600623  1
  Lu  Lu9  1  0.205461  0.600623  0.600623  1
  Lu  Lu10  1  0.059707  0.437644  0.437644  1
  Lu  Lu11  1  0.435323  0.062825  0.062825  1
  Lu  Lu12  1  0.437644  0.059707  0.437644  1
  Lu  Lu13  1  0.062825  0.435323  0.062825  1
  Lu  Lu14  1  0.437644  0.437644  0.059707  1
  Lu  Lu15  1  0.062825  0.062825  0.435323  1
  Cd  Cd16  1  0.829727  0.829727  0.829727  1
  Cd  Cd17  1  0.829669  0.829669  0.507636  1
  Cd  Cd18  1  0.829669  0.507636  0.829669  1
  Cd  Cd19  1  0.507636  0.829669  0.829669  1
  Ni  Ni20  1  0.391260  0.391260  0.824477  1
  Ni  Ni21  1  0.391260  0.824477  0.391260  1
  Ni  Ni22  1  0.824477  0.391260  0.391260  1
  Ir  Ir23  1  0.392769  0.392769  0.392769  1
