# generated using pymatgen
data_Sr4FePtO8
_symmetry_space_group_name_H-M   'P 1'
_cell_length_a   6.91933538
_cell_length_b   6.91933534
_cell_length_c   5.61979300
_cell_angle_alpha   90.00000000
_cell_angle_beta   90.00000000
_cell_angle_gamma   132.05157757
_symmetry_Int_Tables_number   1
_chemical_formula_structural   Sr4FePtO8
_chemical_formula_sum   'Sr4 Fe1 Pt1 O8'
_cell_volume   199.78837024
_cell_formula_units_Z   1
loop_
 _symmetry_equiv_pos_site_id
 _symmetry_equiv_pos_as_xyz
  1  'x, y, z'
loop_
 _atom_site_type_symbol
 _atom_site_label
 _atom_site_symmetry_multiplicity
 _atom_site_fract_x
 _atom_site_fract_y
 _atom_site_fract_z
 _atom_site_occupancy
  Sr  Sr0  1  0.644754  0.355246  0.000000  1
  Sr  Sr1  1  0.143657  0.856343  0.500000  1
  Sr  Sr2  1  0.856343  0.143657  0.500000  1
  Sr  Sr3  1  0.355246  0.644754  0.000000  1
  Fe  Fe4  1  0.000000  0.000000  0.000000  1
  Pt  Pt5  1  0.500000  0.500000  0.500000  1
  O  O6  1  0.750347  0.750347  0.251322  1
  O  O7  1  0.249653  0.249653  0.748678  1
  O  O8  1  0.249653  0.249653  0.251322  1
  O  O9  1  0.750347  0.750347  0.748678  1
  O  O10  1  0.838848  0.161152  0.000000  1
  O  O11  1  0.337650  0.662350  0.500000  1
  O  O12  1  0.662350  0.337650  0.500000  1
  O  O13  1  0.161152  0.838848  0.000000  1
