# generated using pymatgen
data_Sr2PuSi5PPd20
_symmetry_space_group_name_H-M   'P 1'
_cell_length_a   8.80266424
_cell_length_b   8.81681343
_cell_length_c   8.81681279
_cell_angle_alpha   59.89385717
_cell_angle_beta   60.05307424
_cell_angle_gamma   60.05306917
_symmetry_Int_Tables_number   1
_chemical_formula_structural   Sr2PuSi5PPd20
_chemical_formula_sum   'Sr2 Pu1 Si5 P1 Pd20'
_cell_volume   483.86050933
_cell_formula_units_Z   1
loop_
 _symmetry_equiv_pos_site_id
 _symmetry_equiv_pos_as_xyz
  1  'x, y, z'
loop_
 _atom_site_type_symbol
 _atom_site_label
 _atom_site_symmetry_multiplicity
 _atom_site_fract_x
 _atom_site_fract_y
 _atom_site_fract_z
 _atom_site_occupancy
  Sr  Sr0  1  0.249587  0.250413  0.250413  1
  Sr  Sr1  1  0.749587  0.750413  0.750413  1
  Pu  Pu2  1  0.001387  0.998613  0.998613  1
  Si  Si3  1  0.268694  0.731306  0.731306  1
  Si  Si4  1  0.267245  0.732755  0.268828  1
  Si  Si5  1  0.731172  0.268828  0.732755  1
  Si  Si6  1  0.267245  0.268828  0.732755  1
  Si  Si7  1  0.731172  0.732755  0.268828  1
  P  P8  1  0.732323  0.267677  0.267677  1
  Pd  Pd9  1  0.345099  0.999099  0.999099  1
  Pd  Pd10  1  0.656703  0.999099  0.999099  1
  Pd  Pd11  1  0.000901  0.343297  0.654901  1
  Pd  Pd12  1  0.000901  0.654901  0.343297  1
  Pd  Pd13  1  0.998561  0.343310  0.001439  1
  Pd  Pd14  1  0.656690  0.001439  0.343310  1
  Pd  Pd15  1  0.999692  0.655871  0.000308  1
  Pd  Pd16  1  0.344129  0.000308  0.655871  1
  Pd  Pd17  1  0.998561  0.001439  0.343310  1
  Pd  Pd18  1  0.999692  0.000308  0.655871  1
  Pd  Pd19  1  0.656690  0.343310  0.001439  1
  Pd  Pd20  1  0.344129  0.655871  0.000308  1
  Pd  Pd21  1  0.388211  0.386759  0.386759  1
  Pd  Pd22  1  0.613469  0.613279  0.613279  1
  Pd  Pd23  1  0.386721  0.386531  0.840027  1
  Pd  Pd24  1  0.386721  0.840027  0.386531  1
  Pd  Pd25  1  0.613241  0.611789  0.161730  1
  Pd  Pd26  1  0.613241  0.161730  0.611789  1
  Pd  Pd27  1  0.838270  0.386759  0.386759  1
  Pd  Pd28  1  0.159973  0.613279  0.613279  1
