# generated using pymatgen
data_Ce6MgZr(BiSb4)2
_symmetry_space_group_name_H-M   'P 1'
_cell_length_a   9.48024100
_cell_length_b   9.48024028
_cell_length_c   6.42144800
_cell_angle_alpha   90.00000000
_cell_angle_beta   90.00000000
_cell_angle_gamma   119.99999901
_symmetry_Int_Tables_number   1
_chemical_formula_structural   Ce6MgZr(BiSb4)2
_chemical_formula_sum   'Ce6 Mg1 Zr1 Bi2 Sb8'
_cell_volume   499.80699366
_cell_formula_units_Z   1
loop_
 _symmetry_equiv_pos_site_id
 _symmetry_equiv_pos_as_xyz
  1  'x, y, z'
loop_
 _atom_site_type_symbol
 _atom_site_label
 _atom_site_symmetry_multiplicity
 _atom_site_fract_x
 _atom_site_fract_y
 _atom_site_fract_z
 _atom_site_occupancy
  Ce  Ce0  1  0.618972  0.000000  0.256184  1
  Ce  Ce1  1  0.381028  0.000000  0.743816  1
  Ce  Ce2  1  0.000000  0.618972  0.256184  1
  Ce  Ce3  1  0.000000  0.381028  0.743816  1
  Ce  Ce4  1  0.381028  0.381028  0.256184  1
  Ce  Ce5  1  0.618972  0.618972  0.743816  1
  Mg  Mg6  1  0.000000  0.000000  0.500000  1
  Zr  Zr7  1  0.000000  0.000000  0.000000  1
  Bi  Bi8  1  0.333333  0.666667  0.000000  1
  Bi  Bi9  1  0.666667  0.333333  0.000000  1
  Sb  Sb10  1  0.265073  0.000000  0.247792  1
  Sb  Sb11  1  0.734927  0.000000  0.752208  1
  Sb  Sb12  1  0.000000  0.265073  0.247792  1
  Sb  Sb13  1  0.000000  0.734927  0.752208  1
  Sb  Sb14  1  0.734927  0.734927  0.247792  1
  Sb  Sb15  1  0.265073  0.265073  0.752208  1
  Sb  Sb16  1  0.666667  0.333333  0.500000  1
  Sb  Sb17  1  0.333333  0.666667  0.500000  1
