# generated using pymatgen
data_Cs3NaLiNbP3
_symmetry_space_group_name_H-M   'P 1'
_cell_length_a   10.33625614
_cell_length_b   10.33625678
_cell_length_c   17.03724300
_cell_angle_alpha   90.00000000
_cell_angle_beta   90.00000000
_cell_angle_gamma   143.15550931
_symmetry_Int_Tables_number   1
_chemical_formula_structural   Cs3NaLiNbP3
_chemical_formula_sum   'Cs12 Na4 Li4 Nb4 P12'
_cell_volume   1091.49117170
_cell_formula_units_Z   4
loop_
 _symmetry_equiv_pos_site_id
 _symmetry_equiv_pos_as_xyz
  1  'x, y, z'
loop_
 _atom_site_type_symbol
 _atom_site_label
 _atom_site_symmetry_multiplicity
 _atom_site_fract_x
 _atom_site_fract_y
 _atom_site_fract_z
 _atom_site_occupancy
  Cs  Cs0  1  0.945162  0.613683  0.828491  1
  Cs  Cs1  1  0.554838  0.886317  0.328491  1
  Cs  Cs2  1  0.386317  0.054838  0.171509  1
  Cs  Cs3  1  0.054838  0.386317  0.171509  1
  Cs  Cs4  1  0.886317  0.554838  0.328491  1
  Cs  Cs5  1  0.445162  0.113683  0.671509  1
  Cs  Cs6  1  0.613683  0.945162  0.828491  1
  Cs  Cs7  1  0.284710  0.284710  0.316259  1
  Cs  Cs8  1  0.784710  0.784710  0.183741  1
  Cs  Cs9  1  0.215290  0.215290  0.816259  1
  Cs  Cs10  1  0.715290  0.715290  0.683741  1
  Cs  Cs11  1  0.113683  0.445162  0.671509  1
  Na  Na12  1  0.756503  0.243497  0.000000  1
  Na  Na13  1  0.743497  0.256503  0.500000  1
  Na  Na14  1  0.243497  0.756503  0.000000  1
  Na  Na15  1  0.256503  0.743497  0.500000  1
  Li  Li16  1  0.922892  0.077108  0.000000  1
  Li  Li17  1  0.577108  0.422892  0.500000  1
  Li  Li18  1  0.077108  0.922892  0.000000  1
  Li  Li19  1  0.422892  0.577108  0.500000  1
  Nb  Nb20  1  0.580639  0.419361  0.000000  1
  Nb  Nb21  1  0.919361  0.080639  0.500000  1
  Nb  Nb22  1  0.419361  0.580639  0.000000  1
  Nb  Nb23  1  0.080639  0.919361  0.500000  1
  P  P24  1  0.870946  0.571153  0.083190  1
  P  P25  1  0.428847  0.129054  0.916810  1
  P  P26  1  0.629054  0.928847  0.583190  1
  P  P27  1  0.928847  0.629054  0.583190  1
  P  P28  1  0.129054  0.428847  0.916810  1
  P  P29  1  0.571153  0.870946  0.083190  1
  P  P30  1  0.370946  0.071153  0.416810  1
  P  P31  1  0.216458  0.216458  0.577286  1
  P  P32  1  0.716458  0.716458  0.922714  1
  P  P33  1  0.283542  0.283542  0.077286  1
  P  P34  1  0.071153  0.370946  0.416810  1
  P  P35  1  0.783542  0.783542  0.422714  1
