# generated using pymatgen
data_HfNpCrB6
_symmetry_space_group_name_H-M   'P 1'
_cell_length_a   3.48777300
_cell_length_b   8.95469700
_cell_length_c   11.30384600
_cell_angle_alpha   90.00000000
_cell_angle_beta   90.00000000
_cell_angle_gamma   90.00000000
_symmetry_Int_Tables_number   1
_chemical_formula_structural   HfNpCrB6
_chemical_formula_sum   'Hf4 Np4 Cr4 B24'
_cell_volume   353.04115782
_cell_formula_units_Z   4
loop_
 _symmetry_equiv_pos_site_id
 _symmetry_equiv_pos_as_xyz
  1  'x, y, z'
loop_
 _atom_site_type_symbol
 _atom_site_label
 _atom_site_symmetry_multiplicity
 _atom_site_fract_x
 _atom_site_fract_y
 _atom_site_fract_z
 _atom_site_occupancy
  Hf  Hf0  1  0.000000  0.444113  0.128304  1
  Hf  Hf1  1  0.000000  0.555887  0.871696  1
  Hf  Hf2  1  0.000000  0.944113  0.371696  1
  Hf  Hf3  1  0.000000  0.055887  0.628304  1
  Np  Np4  1  0.000000  0.823831  0.084541  1
  Np  Np5  1  0.000000  0.176169  0.915459  1
  Np  Np6  1  0.000000  0.323831  0.415459  1
  Np  Np7  1  0.000000  0.676169  0.584541  1
  Cr  Cr8  1  0.000000  0.140110  0.180575  1
  Cr  Cr9  1  0.000000  0.859890  0.819425  1
  Cr  Cr10  1  0.000000  0.640110  0.319425  1
  Cr  Cr11  1  0.000000  0.359890  0.680575  1
  B  B12  1  0.500000  0.053519  0.067223  1
  B  B13  1  0.500000  0.946481  0.932777  1
  B  B14  1  0.500000  0.553519  0.432777  1
  B  B15  1  0.500000  0.446481  0.567223  1
  B  B16  1  0.500000  0.251380  0.081822  1
  B  B17  1  0.500000  0.748620  0.918178  1
  B  B18  1  0.500000  0.751380  0.418178  1
  B  B19  1  0.500000  0.248620  0.581822  1
  B  B20  1  0.500000  0.294417  0.235734  1
  B  B21  1  0.500000  0.705583  0.764266  1
  B  B22  1  0.500000  0.794417  0.264266  1
  B  B23  1  0.500000  0.205583  0.735734  1
  B  B24  1  0.500000  0.131257  0.316579  1
  B  B25  1  0.500000  0.868743  0.683421  1
  B  B26  1  0.500000  0.631257  0.183421  1
  B  B27  1  0.500000  0.368743  0.816579  1
  B  B28  1  0.500000  0.482223  0.286961  1
  B  B29  1  0.500000  0.517777  0.713039  1
  B  B30  1  0.500000  0.982223  0.213039  1
  B  B31  1  0.500000  0.017777  0.786961  1
  B  B32  1  0.500000  0.101278  0.472521  1
  B  B33  1  0.500000  0.898722  0.527479  1
  B  B34  1  0.500000  0.601278  0.027479  1
  B  B35  1  0.500000  0.398722  0.972521  1
