# generated using pymatgen
data_Lu7Sc13ZnBi11
_symmetry_space_group_name_H-M   'P 1'
_cell_length_a   7.85586978
_cell_length_b   9.08098821
_cell_length_c   11.53055143
_cell_angle_alpha   90.05710881
_cell_angle_beta   89.72645324
_cell_angle_gamma   89.98539514
_symmetry_Int_Tables_number   1
_chemical_formula_structural   Lu7Sc13ZnBi11
_chemical_formula_sum   'Lu7 Sc13 Zn1 Bi11'
_cell_volume   822.56889920
_cell_formula_units_Z   1
loop_
 _symmetry_equiv_pos_site_id
 _symmetry_equiv_pos_as_xyz
  1  'x, y, z'
loop_
 _atom_site_type_symbol
 _atom_site_label
 _atom_site_symmetry_multiplicity
 _atom_site_fract_x
 _atom_site_fract_y
 _atom_site_fract_z
 _atom_site_occupancy
  Lu  Lu0  1  0.352514  0.250322  0.295576  1
  Lu  Lu1  1  0.846992  0.249671  0.217120  1
  Lu  Lu2  1  0.193969  0.249179  0.776077  1
  Lu  Lu3  1  0.812200  0.750597  0.216614  1
  Lu  Lu4  1  0.315186  0.750416  0.281065  1
  Lu  Lu5  1  0.673305  0.250122  0.709666  1
  Lu  Lu6  1  0.310546  0.548127  0.559342  1
  Sc  Sc7  1  0.029483  0.249109  0.510915  1
  Sc  Sc8  1  0.983349  0.751644  0.491844  1
  Sc  Sc9  1  0.480594  0.750318  0.009160  1
  Sc  Sc10  1  0.519228  0.249793  0.988323  1
  Sc  Sc11  1  0.656577  0.749768  0.720018  1
  Sc  Sc12  1  0.151381  0.751506  0.780398  1
  Sc  Sc13  1  0.192446  0.067644  0.060059  1
  Sc  Sc14  1  0.806048  0.932475  0.939200  1
  Sc  Sc15  1  0.308132  0.949431  0.559543  1
  Sc  Sc16  1  0.805756  0.567604  0.939430  1
  Sc  Sc17  1  0.684473  0.074771  0.446588  1
  Sc  Sc18  1  0.192532  0.432454  0.060263  1
  Sc  Sc19  1  0.685557  0.425886  0.446436  1
  Zn  Zn20  1  0.404762  0.245095  0.539463  1
  Bi  Bi21  1  0.600069  0.752506  0.463510  1
  Bi  Bi22  1  0.097848  0.749914  0.035520  1
  Bi  Bi23  1  0.903815  0.250287  0.955417  1
  Bi  Bi24  1  0.060747  0.003539  0.328101  1
  Bi  Bi25  1  0.938072  0.993962  0.674342  1
  Bi  Bi26  1  0.438798  0.991621  0.825273  1
  Bi  Bi27  1  0.935692  0.506792  0.674851  1
  Bi  Bi28  1  0.561284  0.004871  0.170123  1
  Bi  Bi29  1  0.058679  0.496949  0.327406  1
  Bi  Bi30  1  0.561422  0.495621  0.170628  1
  Bi  Bi31  1  0.438541  0.508006  0.827728  1
