# generated using pymatgen
data_Dy2Y2HfZr3Ir4
_symmetry_space_group_name_H-M   'P 1'
_cell_length_a   4.55653100
_cell_length_b   7.11685829
_cell_length_c   8.33302082
_cell_angle_alpha   89.71394802
_cell_angle_beta   90.00000000
_cell_angle_gamma   90.00000000
_symmetry_Int_Tables_number   1
_chemical_formula_structural   Dy2Y2HfZr3Ir4
_chemical_formula_sum   'Dy2 Y2 Hf1 Zr3 Ir4'
_cell_volume   270.22137677
_cell_formula_units_Z   1
loop_
 _symmetry_equiv_pos_site_id
 _symmetry_equiv_pos_as_xyz
  1  'x, y, z'
loop_
 _atom_site_type_symbol
 _atom_site_label
 _atom_site_symmetry_multiplicity
 _atom_site_fract_x
 _atom_site_fract_y
 _atom_site_fract_z
 _atom_site_occupancy
  Dy  Dy0  1  0.250000  0.983277  0.324098  1
  Dy  Dy1  1  0.250000  0.484931  0.176403  1
  Y  Y2  1  0.750000  0.014702  0.676329  1
  Y  Y3  1  0.750000  0.515084  0.823085  1
  Hf  Hf4  1  0.750000  0.641859  0.425496  1
  Zr  Zr5  1  0.250000  0.358192  0.573425  1
  Zr  Zr6  1  0.250000  0.856957  0.926109  1
  Zr  Zr7  1  0.750000  0.142490  0.075328  1
  Ir  Ir8  1  0.250000  0.232224  0.908686  1
  Ir  Ir9  1  0.250000  0.732169  0.588926  1
  Ir  Ir10  1  0.750000  0.767146  0.095862  1
  Ir  Ir11  1  0.750000  0.270965  0.406253  1
