# generated using pymatgen
data_Y12Ho4MgCd3Ir4
_symmetry_space_group_name_H-M   'P 1'
_cell_length_a   9.69371009
_cell_length_b   9.69370924
_cell_length_c   9.69370953
_cell_angle_alpha   59.70998899
_cell_angle_beta   59.70999143
_cell_angle_gamma   59.70998661
_symmetry_Int_Tables_number   1
_chemical_formula_structural   Y12Ho4MgCd3Ir4
_chemical_formula_sum   'Y12 Ho4 Mg1 Cd3 Ir4'
_cell_volume   639.85974330
_cell_formula_units_Z   1
loop_
 _symmetry_equiv_pos_site_id
 _symmetry_equiv_pos_as_xyz
  1  'x, y, z'
loop_
 _atom_site_type_symbol
 _atom_site_label
 _atom_site_symmetry_multiplicity
 _atom_site_fract_x
 _atom_site_fract_y
 _atom_site_fract_z
 _atom_site_occupancy
  Y  Y0  1  0.808318  0.190853  0.190853  1
  Y  Y1  1  0.187260  0.810602  0.810602  1
  Y  Y2  1  0.190853  0.808318  0.190853  1
  Y  Y3  1  0.810602  0.187260  0.810602  1
  Y  Y4  1  0.190853  0.190853  0.808318  1
  Y  Y5  1  0.810602  0.810602  0.187260  1
  Y  Y6  1  0.940840  0.561650  0.561650  1
  Y  Y7  1  0.561386  0.938789  0.938789  1
  Y  Y8  1  0.561650  0.940840  0.561650  1
  Y  Y9  1  0.938789  0.561386  0.938789  1
  Y  Y10  1  0.561650  0.561650  0.940840  1
  Y  Y11  1  0.938789  0.938789  0.561386  1
  Ho  Ho12  1  0.348638  0.348638  0.348638  1
  Ho  Ho13  1  0.347950  0.347950  0.957611  1
  Ho  Ho14  1  0.347950  0.957611  0.347950  1
  Ho  Ho15  1  0.957611  0.347950  0.347950  1
  Mg  Mg16  1  0.575295  0.575295  0.575295  1
  Cd  Cd17  1  0.580996  0.580996  0.256296  1
  Cd  Cd18  1  0.580996  0.256296  0.580996  1
  Cd  Cd19  1  0.256296  0.580996  0.580996  1
  Ir  Ir20  1  0.142564  0.142564  0.142564  1
  Ir  Ir21  1  0.143316  0.143316  0.573481  1
  Ir  Ir22  1  0.143316  0.573481  0.143316  1
  Ir  Ir23  1  0.573481  0.143316  0.143316  1
