# generated using pymatgen
data_Yb2Ag3RuO6
_symmetry_space_group_name_H-M   'P 1'
_cell_length_a   5.76156000
_cell_length_b   5.76156232
_cell_length_c   18.87748200
_cell_angle_alpha   90.00000000
_cell_angle_beta   90.00000000
_cell_angle_gamma   119.99998670
_symmetry_Int_Tables_number   1
_chemical_formula_structural   Yb2Ag3RuO6
_chemical_formula_sum   'Yb6 Ag9 Ru3 O18'
_cell_volume   542.69410883
_cell_formula_units_Z   3
loop_
 _symmetry_equiv_pos_site_id
 _symmetry_equiv_pos_as_xyz
  1  'x, y, z'
loop_
 _atom_site_type_symbol
 _atom_site_label
 _atom_site_symmetry_multiplicity
 _atom_site_fract_x
 _atom_site_fract_y
 _atom_site_fract_z
 _atom_site_occupancy
  Yb  Yb0  1  0.107179  0.892821  0.333333  1
  Yb  Yb1  1  0.107179  0.214359  0.666667  1
  Yb  Yb2  1  0.785641  0.892821  0.000000  1
  Yb  Yb3  1  0.773733  0.226267  0.333333  1
  Yb  Yb4  1  0.773733  0.547466  0.666667  1
  Yb  Yb5  1  0.452534  0.226267  0.000000  1
  Ag  Ag6  1  0.442418  0.221209  0.500000  1
  Ag  Ag7  1  0.778791  0.221209  0.833333  1
  Ag  Ag8  1  0.778791  0.557582  0.166667  1
  Ag  Ag9  1  0.139811  0.569905  0.500000  1
  Ag  Ag10  1  0.430095  0.569905  0.833333  1
  Ag  Ag11  1  0.430095  0.860189  0.166667  1
  Ag  Ag12  1  0.740235  0.870117  0.500000  1
  Ag  Ag13  1  0.129883  0.870117  0.833333  1
  Ag  Ag14  1  0.129883  0.259765  0.166667  1
  Ru  Ru15  1  0.440862  0.559138  0.333333  1
  Ru  Ru16  1  0.440862  0.881724  0.666667  1
  Ru  Ru17  1  0.118276  0.559138  0.000000  1
  O  O18  1  0.732920  0.559308  0.276635  1
  O  O19  1  0.440692  0.173612  0.609968  1
  O  O20  1  0.826388  0.267080  0.943302  1
  O  O21  1  0.732920  0.173612  0.723365  1
  O  O22  1  0.440692  0.267080  0.390032  1
  O  O23  1  0.826388  0.559308  0.056698  1
  O  O24  1  0.441219  0.852588  0.277076  1
  O  O25  1  0.147412  0.588631  0.610409  1
  O  O26  1  0.411369  0.558781  0.943743  1
  O  O27  1  0.441219  0.588631  0.722924  1
  O  O28  1  0.147412  0.558781  0.389591  1
  O  O29  1  0.411369  0.852588  0.056257  1
  O  O30  1  0.147956  0.266160  0.277044  1
  O  O31  1  0.733840  0.881795  0.610377  1
  O  O32  1  0.118205  0.852044  0.943710  1
  O  O33  1  0.147956  0.881795  0.722956  1
  O  O34  1  0.733840  0.852044  0.389623  1
  O  O35  1  0.118205  0.266160  0.056290  1
