# generated using pymatgen
data_Ac5La3Np4O24
_symmetry_space_group_name_H-M   'P 1'
_cell_length_a   5.82711600
_cell_length_b   8.19920591
_cell_length_c   12.27600000
_cell_angle_alpha   74.48511513
_cell_angle_beta   90.00000000
_cell_angle_gamma   90.00000000
_symmetry_Int_Tables_number   1
_chemical_formula_structural   Ac5La3Np4O24
_chemical_formula_sum   'Ac5 La3 Np4 O24'
_cell_volume   565.14715768
_cell_formula_units_Z   1
loop_
 _symmetry_equiv_pos_site_id
 _symmetry_equiv_pos_as_xyz
  1  'x, y, z'
loop_
 _atom_site_type_symbol
 _atom_site_label
 _atom_site_symmetry_multiplicity
 _atom_site_fract_x
 _atom_site_fract_y
 _atom_site_fract_z
 _atom_site_occupancy
  Ac  Ac0  1  0.259951  0.000000  0.250000  1
  Ac  Ac1  1  0.199224  0.795431  0.578912  1
  Ac  Ac2  1  0.799294  0.798491  0.076734  1
  Ac  Ac3  1  0.199224  0.204569  0.921088  1
  Ac  Ac4  1  0.799294  0.201509  0.423266  1
  La  La5  1  0.737940  0.000000  0.750000  1
  La  La6  1  0.697101  0.500000  0.750000  1
  La  La7  1  0.303790  0.500000  0.250000  1
  Np  Np8  1  0.254061  0.721269  0.887059  1
  Np  Np9  1  0.746785  0.714481  0.389698  1
  Np  Np10  1  0.254061  0.278731  0.612941  1
  Np  Np11  1  0.746785  0.285519  0.110302  1
  O  O12  1  0.042160  0.932880  0.892466  1
  O  O13  1  0.517075  0.866406  0.927548  1
  O  O14  1  0.950980  0.927433  0.397095  1
  O  O15  1  0.455148  0.787853  0.737779  1
  O  O16  1  0.483473  0.858412  0.430963  1
  O  O17  1  0.979515  0.705943  0.771784  1
  O  O18  1  0.550750  0.781939  0.239036  1
  O  O19  1  0.864320  0.625365  0.550035  1
  O  O20  1  0.390298  0.492992  0.888232  1
  O  O21  1  0.021469  0.704045  0.272327  1
  O  O22  1  0.390298  0.507008  0.611768  1
  O  O23  1  0.864320  0.374635  0.949965  1
  O  O24  1  0.138205  0.633369  0.048029  1
  O  O25  1  0.607853  0.487547  0.390568  1
  O  O26  1  0.979515  0.294057  0.728216  1
  O  O27  1  0.607853  0.512453  0.109432  1
  O  O28  1  0.138205  0.366631  0.451971  1
  O  O29  1  0.455148  0.212147  0.762221  1
  O  O30  1  0.021469  0.295955  0.227673  1
  O  O31  1  0.517075  0.133594  0.572452  1
  O  O32  1  0.550750  0.218061  0.260964  1
  O  O33  1  0.042160  0.067120  0.607534  1
  O  O34  1  0.483473  0.141588  0.069037  1
  O  O35  1  0.950980  0.072567  0.102905  1
