# generated using pymatgen
data_TbSmHo4Ta2O14
_symmetry_space_group_name_H-M   'P 1'
_cell_length_a   6.45804117
_cell_length_b   6.45804119
_cell_length_c   7.53602437
_cell_angle_alpha   90.02909213
_cell_angle_beta   89.97090865
_cell_angle_gamma   109.38220173
_symmetry_Int_Tables_number   1
_chemical_formula_structural   TbSmHo4Ta2O14
_chemical_formula_sum   'Tb1 Sm1 Ho4 Ta2 O14'
_cell_volume   296.48692095
_cell_formula_units_Z   1
loop_
 _symmetry_equiv_pos_site_id
 _symmetry_equiv_pos_as_xyz
  1  'x, y, z'
loop_
 _atom_site_type_symbol
 _atom_site_label
 _atom_site_symmetry_multiplicity
 _atom_site_fract_x
 _atom_site_fract_y
 _atom_site_fract_z
 _atom_site_occupancy
  Tb  Tb0  1  0.500000  0.500000  0.500000  1
  Sm  Sm1  1  0.500000  0.500000  0.000000  1
  Ho  Ho2  1  0.534049  0.000918  0.748762  1
  Ho  Ho3  1  0.000918  0.534049  0.251238  1
  Ho  Ho4  1  0.465951  0.999082  0.251238  1
  Ho  Ho5  1  0.999082  0.465951  0.748762  1
  Ta  Ta6  1  0.000000  0.000000  0.500000  1
  Ta  Ta7  1  0.000000  0.000000  0.000000  1
  O  O8  1  0.678163  0.928508  0.467526  1
  O  O9  1  0.928508  0.678163  0.532474  1
  O  O10  1  0.677927  0.929286  0.032689  1
  O  O11  1  0.929286  0.677927  0.967311  1
  O  O12  1  0.321837  0.071492  0.532474  1
  O  O13  1  0.071492  0.321837  0.467526  1
  O  O14  1  0.322073  0.070714  0.967311  1
  O  O15  1  0.070714  0.322073  0.032689  1
  O  O16  1  0.933567  0.066433  0.750111  1
  O  O17  1  0.066433  0.933567  0.249889  1
  O  O18  1  0.367145  0.632854  0.745967  1
  O  O19  1  0.632854  0.367145  0.254033  1
  O  O20  1  0.639950  0.360050  0.746460  1
  O  O21  1  0.360050  0.639950  0.253540  1
