# generated using pymatgen
data_Er10ZnIn8Ir3
_symmetry_space_group_name_H-M   'P 1'
_cell_length_a   3.61143700
_cell_length_b   8.05071431
_cell_length_c   18.20252770
_cell_angle_alpha   90.10464445
_cell_angle_beta   90.00000000
_cell_angle_gamma   90.00000000
_symmetry_Int_Tables_number   1
_chemical_formula_structural   Er10ZnIn8Ir3
_chemical_formula_sum   'Er10 Zn1 In8 Ir3'
_cell_volume   529.23119435
_cell_formula_units_Z   1
loop_
 _symmetry_equiv_pos_site_id
 _symmetry_equiv_pos_as_xyz
  1  'x, y, z'
loop_
 _atom_site_type_symbol
 _atom_site_label
 _atom_site_symmetry_multiplicity
 _atom_site_fract_x
 _atom_site_fract_y
 _atom_site_fract_z
 _atom_site_occupancy
  Er  Er0  1  0.000000  0.499534  0.501093  1
  Er  Er1  1  0.000000  0.998447  0.998781  1
  Er  Er2  1  0.000000  0.769511  0.282609  1
  Er  Er3  1  0.000000  0.246441  0.722016  1
  Er  Er4  1  0.000000  0.747444  0.778213  1
  Er  Er5  1  0.000000  0.231339  0.222263  1
  Er  Er6  1  0.000000  0.626872  0.081322  1
  Er  Er7  1  0.000000  0.380078  0.910714  1
  Er  Er8  1  0.000000  0.878351  0.589168  1
  Er  Er9  1  0.000000  0.120717  0.413434  1
  Zn  Zn10  1  0.500000  0.532563  0.199353  1
  In  In11  1  0.500000  0.703786  0.931580  1
  In  In12  1  0.500000  0.298307  0.066145  1
  In  In13  1  0.500000  0.796499  0.433963  1
  In  In14  1  0.500000  0.202388  0.566844  1
  In  In15  1  0.500000  0.566074  0.649459  1
  In  In16  1  0.500000  0.430797  0.350501  1
  In  In17  1  0.500000  0.930004  0.147912  1
  In  In18  1  0.500000  0.066409  0.851026  1
  Ir  Ir19  1  0.500000  0.471499  0.803603  1
  Ir  Ir20  1  0.500000  0.970700  0.696200  1
  Ir  Ir21  1  0.500000  0.032242  0.303799  1
