# generated using pymatgen
data_Nd2YCBr5
_symmetry_space_group_name_H-M   'P 1'
_cell_length_a   7.50684017
_cell_length_b   9.15545978
_cell_length_c   9.21312413
_cell_angle_alpha   107.47934336
_cell_angle_beta   95.67675421
_cell_angle_gamma   104.64969934
_symmetry_Int_Tables_number   1
_chemical_formula_structural   Nd2YCBr5
_chemical_formula_sum   'Nd4 Y2 C2 Br10'
_cell_volume   573.74350589
_cell_formula_units_Z   2
loop_
 _symmetry_equiv_pos_site_id
 _symmetry_equiv_pos_as_xyz
  1  'x, y, z'
loop_
 _atom_site_type_symbol
 _atom_site_label
 _atom_site_symmetry_multiplicity
 _atom_site_fract_x
 _atom_site_fract_y
 _atom_site_fract_z
 _atom_site_occupancy
  Nd  Nd0  1  0.884635  0.956402  0.233105  1
  Nd  Nd1  1  0.115365  0.043598  0.766895  1
  Nd  Nd2  1  0.030306  0.722244  0.916510  1
  Nd  Nd3  1  0.969694  0.277756  0.083490  1
  Y  Y4  1  0.621890  0.860597  0.813398  1
  Y  Y5  1  0.378110  0.139403  0.186602  1
  C  C6  1  0.907736  0.968959  0.956841  1
  C  C7  1  0.092264  0.031041  0.043159  1
  Br  Br8  1  0.746796  0.915593  0.545628  1
  Br  Br9  1  0.253204  0.084407  0.454372  1
  Br  Br10  1  0.457280  0.821693  0.085784  1
  Br  Br11  1  0.542720  0.178307  0.914216  1
  Br  Br12  1  0.789220  0.259709  0.351535  1
  Br  Br13  1  0.210780  0.740291  0.648465  1
  Br  Br14  1  0.909943  0.629256  0.178108  1
  Br  Br15  1  0.090057  0.370744  0.821892  1
  Br  Br16  1  0.652972  0.551424  0.727357  1
  Br  Br17  1  0.347028  0.448576  0.272643  1
