# generated using pymatgen
data_Tb5(Tm5Bi4)3
_symmetry_space_group_name_H-M   'P 1'
_cell_length_a   8.21044147
_cell_length_b   9.45017812
_cell_length_c   11.93680827
_cell_angle_alpha   89.98214369
_cell_angle_beta   90.06838309
_cell_angle_gamma   90.00434706
_symmetry_Int_Tables_number   1
_chemical_formula_structural   Tb5(Tm5Bi4)3
_chemical_formula_sum   'Tb5 Tm15 Bi12'
_cell_volume   926.17784986
_cell_formula_units_Z   1
loop_
 _symmetry_equiv_pos_site_id
 _symmetry_equiv_pos_as_xyz
  1  'x, y, z'
loop_
 _atom_site_type_symbol
 _atom_site_label
 _atom_site_symmetry_multiplicity
 _atom_site_fract_x
 _atom_site_fract_y
 _atom_site_fract_z
 _atom_site_occupancy
  Tb  Tb0  1  0.193095  0.564055  0.440510  1
  Tb  Tb1  1  0.312295  0.249982  0.218945  1
  Tb  Tb2  1  0.812608  0.249956  0.281002  1
  Tb  Tb3  1  0.687704  0.750084  0.781216  1
  Tb  Tb4  1  0.187719  0.750482  0.719348  1
  Tm  Tm5  1  0.353427  0.750693  0.216953  1
  Tm  Tm6  1  0.852229  0.750440  0.282457  1
  Tm  Tm7  1  0.647341  0.250094  0.782684  1
  Tm  Tm8  1  0.147525  0.250344  0.717257  1
  Tm  Tm9  1  0.693602  0.565937  0.059376  1
  Tm  Tm10  1  0.193447  0.934299  0.440421  1
  Tm  Tm11  1  0.306330  0.065887  0.940671  1
  Tm  Tm12  1  0.806777  0.434080  0.559350  1
  Tm  Tm13  1  0.306480  0.434031  0.940522  1
  Tm  Tm14  1  0.805973  0.065752  0.559641  1
  Tm  Tm15  1  0.693623  0.934075  0.059360  1
  Tm  Tm16  1  0.476269  0.249943  0.489178  1
  Tm  Tm17  1  0.975936  0.250187  0.010674  1
  Tm  Tm18  1  0.524852  0.750425  0.511001  1
  Tm  Tm19  1  0.024084  0.750040  0.989108  1
  Bi  Bi20  1  0.405839  0.749945  0.959032  1
  Bi  Bi21  1  0.905025  0.750968  0.541345  1
  Bi  Bi22  1  0.594258  0.250022  0.040885  1
  Bi  Bi23  1  0.093329  0.247077  0.459503  1
  Bi  Bi24  1  0.565378  0.994280  0.325896  1
  Bi  Bi25  1  0.064987  0.506120  0.173468  1
  Bi  Bi26  1  0.434724  0.494185  0.674386  1
  Bi  Bi27  1  0.934611  0.006187  0.826095  1
  Bi  Bi28  1  0.434838  0.006161  0.674057  1
  Bi  Bi29  1  0.934443  0.494063  0.826187  1
  Bi  Bi30  1  0.566063  0.506078  0.325729  1
  Bi  Bi31  1  0.065187  0.994127  0.173742  1
