# generated using pymatgen
data_Gd4MgPbAu4
_symmetry_space_group_name_H-M   'P 1'
_cell_length_a   8.07431300
_cell_length_b   8.07431300
_cell_length_c   7.38767600
_cell_angle_alpha   90.00000000
_cell_angle_beta   90.00000000
_cell_angle_gamma   90.00000000
_symmetry_Int_Tables_number   1
_chemical_formula_structural   Gd4MgPbAu4
_chemical_formula_sum   'Gd8 Mg2 Pb2 Au8'
_cell_volume   481.63606773
_cell_formula_units_Z   2
loop_
 _symmetry_equiv_pos_site_id
 _symmetry_equiv_pos_as_xyz
  1  'x, y, z'
loop_
 _atom_site_type_symbol
 _atom_site_label
 _atom_site_symmetry_multiplicity
 _atom_site_fract_x
 _atom_site_fract_y
 _atom_site_fract_z
 _atom_site_occupancy
  Gd  Gd0  1  0.839800  0.160200  0.500000  1
  Gd  Gd1  1  0.160200  0.839800  0.500000  1
  Gd  Gd2  1  0.339800  0.339800  0.000000  1
  Gd  Gd3  1  0.660200  0.660200  0.000000  1
  Gd  Gd4  1  0.680102  0.680102  0.500000  1
  Gd  Gd5  1  0.319898  0.319898  0.500000  1
  Gd  Gd6  1  0.180102  0.819898  0.000000  1
  Gd  Gd7  1  0.819898  0.180102  0.000000  1
  Mg  Mg8  1  0.500000  0.000000  0.250000  1
  Mg  Mg9  1  0.000000  0.500000  0.750000  1
  Pb  Pb10  1  0.500000  0.000000  0.750000  1
  Pb  Pb11  1  0.000000  0.500000  0.250000  1
  Au  Au12  1  0.619221  0.361446  0.269637  1
  Au  Au13  1  0.380779  0.638554  0.269637  1
  Au  Au14  1  0.119221  0.138554  0.769637  1
  Au  Au15  1  0.880779  0.861446  0.769637  1
  Au  Au16  1  0.361446  0.619221  0.730363  1
  Au  Au17  1  0.638554  0.380779  0.730363  1
  Au  Au18  1  0.861446  0.880779  0.230363  1
  Au  Au19  1  0.138554  0.119221  0.230363  1
