# generated using pymatgen
data_Tb4Ho(CoO6)2
_symmetry_space_group_name_H-M   'P 1'
_cell_length_a   6.76429881
_cell_length_b   6.76429932
_cell_length_c   7.21807362
_cell_angle_alpha   74.61197215
_cell_angle_beta   74.61197058
_cell_angle_gamma   50.50687452
_symmetry_Int_Tables_number   1
_chemical_formula_structural   Tb4Ho(CoO6)2
_chemical_formula_sum   'Tb4 Ho1 Co2 O12'
_cell_volume   243.65196712
_cell_formula_units_Z   1
loop_
 _symmetry_equiv_pos_site_id
 _symmetry_equiv_pos_as_xyz
  1  'x, y, z'
loop_
 _atom_site_type_symbol
 _atom_site_label
 _atom_site_symmetry_multiplicity
 _atom_site_fract_x
 _atom_site_fract_y
 _atom_site_fract_z
 _atom_site_occupancy
  Tb  Tb0  1  0.306086  0.306086  0.354773  1
  Tb  Tb1  1  0.693916  0.693916  0.643932  1
  Tb  Tb2  1  0.307703  0.307703  0.836053  1
  Tb  Tb3  1  0.000132  0.000132  0.499711  1
  Ho  Ho4  1  0.692092  0.692092  0.164388  1
  Co  Co5  1  0.756003  0.243957  0.000397  1
  Co  Co6  1  0.243957  0.756003  0.000397  1
  O  O7  1  0.899622  0.417621  0.923122  1
  O  O8  1  0.417621  0.899622  0.923122  1
  O  O9  1  0.097241  0.584813  0.078988  1
  O  O10  1  0.584813  0.097241  0.078988  1
  O  O11  1  0.096915  0.597910  0.576107  1
  O  O12  1  0.597910  0.096915  0.576107  1
  O  O13  1  0.901828  0.403358  0.421456  1
  O  O14  1  0.403358  0.901828  0.421456  1
  O  O15  1  0.000610  0.000610  0.830034  1
  O  O16  1  0.999756  0.999756  0.170614  1
  O  O17  1  0.499896  0.499896  0.826683  1
  O  O18  1  0.500544  0.500544  0.173674  1
