# generated using pymatgen
data_Li4Ca2LaDySi8
_symmetry_space_group_name_H-M   'P 1'
_cell_length_a   3.83116000
_cell_length_b   7.84061930
_cell_length_c   10.54573119
_cell_angle_alpha   89.88720830
_cell_angle_beta   90.00000000
_cell_angle_gamma   90.00000000
_symmetry_Int_Tables_number   1
_chemical_formula_structural   Li4Ca2LaDySi8
_chemical_formula_sum   'Li4 Ca2 La1 Dy1 Si8'
_cell_volume   316.77909410
_cell_formula_units_Z   1
loop_
 _symmetry_equiv_pos_site_id
 _symmetry_equiv_pos_as_xyz
  1  'x, y, z'
loop_
 _atom_site_type_symbol
 _atom_site_label
 _atom_site_symmetry_multiplicity
 _atom_site_fract_x
 _atom_site_fract_y
 _atom_site_fract_z
 _atom_site_occupancy
  Li  Li0  1  0.250000  0.997327  0.387882  1
  Li  Li1  1  0.750000  0.002625  0.610205  1
  Li  Li2  1  0.250000  0.497158  0.109212  1
  Li  Li3  1  0.750000  0.507820  0.890740  1
  Ca  Ca4  1  0.750000  0.866911  0.134396  1
  Ca  Ca5  1  0.750000  0.362858  0.365046  1
  La  La6  1  0.250000  0.633888  0.636451  1
  Dy  Dy7  1  0.250000  0.129533  0.866035  1
  Si  Si8  1  0.750000  0.267047  0.061576  1
  Si  Si9  1  0.250000  0.739953  0.933354  1
  Si  Si10  1  0.750000  0.768377  0.429898  1
  Si  Si11  1  0.250000  0.226934  0.573593  1
  Si  Si12  1  0.750000  0.843636  0.823297  1
  Si  Si13  1  0.250000  0.163966  0.169992  1
  Si  Si14  1  0.750000  0.328966  0.684200  1
  Si  Si15  1  0.250000  0.663003  0.324122  1
