# generated using pymatgen
data_CaBe3InF9
_symmetry_space_group_name_H-M   'P 1'
_cell_length_a   6.93207500
_cell_length_b   6.93207607
_cell_length_c   10.18375100
_cell_angle_alpha   90.00000000
_cell_angle_beta   90.00000000
_cell_angle_gamma   119.99999966
_symmetry_Int_Tables_number   1
_chemical_formula_structural   CaBe3InF9
_chemical_formula_sum   'Ca2 Be6 In2 F18'
_cell_volume   423.80392832
_cell_formula_units_Z   2
loop_
 _symmetry_equiv_pos_site_id
 _symmetry_equiv_pos_as_xyz
  1  'x, y, z'
loop_
 _atom_site_type_symbol
 _atom_site_label
 _atom_site_symmetry_multiplicity
 _atom_site_fract_x
 _atom_site_fract_y
 _atom_site_fract_z
 _atom_site_occupancy
  Ca  Ca0  1  0.333333  0.666667  0.000000  1
  Ca  Ca1  1  0.333333  0.666667  0.500000  1
  Be  Be2  1  0.222641  0.962774  0.250000  1
  Be  Be3  1  0.222641  0.259867  0.750000  1
  Be  Be4  1  0.740133  0.962774  0.750000  1
  Be  Be5  1  0.037226  0.777359  0.750000  1
  Be  Be6  1  0.037226  0.259867  0.250000  1
  Be  Be7  1  0.740133  0.777359  0.250000  1
  In  In8  1  0.666667  0.333333  0.000000  1
  In  In9  1  0.666667  0.333333  0.500000  1
  F  F10  1  0.057404  0.662083  0.624550  1
  F  F11  1  0.604680  0.942596  0.624550  1
  F  F12  1  0.337917  0.395320  0.624550  1
  F  F13  1  0.337917  0.942596  0.375450  1
  F  F14  1  0.226831  0.193768  0.250000  1
  F  F15  1  0.966936  0.773169  0.250000  1
  F  F16  1  0.806232  0.033064  0.250000  1
  F  F17  1  0.806232  0.773169  0.750000  1
  F  F18  1  0.966936  0.193768  0.750000  1
  F  F19  1  0.226831  0.033064  0.750000  1
  F  F20  1  0.337917  0.942596  0.124549  1
  F  F21  1  0.604680  0.662083  0.375450  1
  F  F22  1  0.057404  0.395320  0.375450  1
  F  F23  1  0.057404  0.395320  0.124549  1
  F  F24  1  0.604680  0.662083  0.124549  1
  F  F25  1  0.057404  0.662083  0.875450  1
  F  F26  1  0.604680  0.942596  0.875450  1
  F  F27  1  0.337917  0.395320  0.875450  1
