# generated using pymatgen
data_Pr9NdCuGeBi6
_symmetry_space_group_name_H-M   'P 1'
_cell_length_a   9.73743948
_cell_length_b   9.73323292
_cell_length_c   6.67868749
_cell_angle_alpha   89.95628718
_cell_angle_beta   90.02184832
_cell_angle_gamma   119.98570186
_symmetry_Int_Tables_number   1
_chemical_formula_structural   Pr9NdCuGeBi6
_chemical_formula_sum   'Pr9 Nd1 Cu1 Ge1 Bi6'
_cell_volume   548.25937851
_cell_formula_units_Z   1
loop_
 _symmetry_equiv_pos_site_id
 _symmetry_equiv_pos_as_xyz
  1  'x, y, z'
loop_
 _atom_site_type_symbol
 _atom_site_label
 _atom_site_symmetry_multiplicity
 _atom_site_fract_x
 _atom_site_fract_y
 _atom_site_fract_z
 _atom_site_occupancy
  Pr  Pr0  1  0.666405  0.333271  0.000129  1
  Pr  Pr1  1  0.333595  0.666867  0.000129  1
  Pr  Pr2  1  0.333091  0.666542  0.499993  1
  Pr  Pr3  1  0.666909  0.333451  0.499993  1
  Pr  Pr4  1  0.747964  0.747725  0.751831  1
  Pr  Pr5  1  0.252036  0.999762  0.751831  1
  Pr  Pr6  1  0.000000  0.251767  0.751922  1
  Pr  Pr7  1  0.252692  0.253006  0.248464  1
  Pr  Pr8  1  0.747308  0.000313  0.248464  1
  Nd  Nd9  1  0.000000  0.747956  0.247752  1
  Cu  Cu10  1  0.000000  0.999114  0.497719  1
  Ge  Ge11  1  0.000000  0.999485  0.001611  1
  Bi  Bi12  1  0.386926  0.386912  0.749022  1
  Bi  Bi13  1  0.613074  0.999986  0.749022  1
  Bi  Bi14  1  0.000000  0.613056  0.749002  1
  Bi  Bi15  1  0.614273  0.613677  0.251105  1
  Bi  Bi16  1  0.385727  0.999404  0.251105  1
  Bi  Bi17  1  0.000000  0.387706  0.250906  1
