# generated using pymatgen
data_GdGeF7
_symmetry_space_group_name_H-M   'P 1'
_cell_length_a   5.48575800
_cell_length_b   8.84016589
_cell_length_c   11.81600798
_cell_angle_alpha   62.11288140
_cell_angle_beta   90.00000000
_cell_angle_gamma   90.00000000
_symmetry_Int_Tables_number   1
_chemical_formula_structural   GdGeF7
_chemical_formula_sum   'Gd4 Ge4 F28'
_cell_volume   506.47338266
_cell_formula_units_Z   4
loop_
 _symmetry_equiv_pos_site_id
 _symmetry_equiv_pos_as_xyz
  1  'x, y, z'
loop_
 _atom_site_type_symbol
 _atom_site_label
 _atom_site_symmetry_multiplicity
 _atom_site_fract_x
 _atom_site_fract_y
 _atom_site_fract_z
 _atom_site_occupancy
  Gd  Gd0  1  0.760222  0.809496  0.764507  1
  Gd  Gd1  1  0.260222  0.190504  0.735493  1
  Gd  Gd2  1  0.239778  0.190504  0.235493  1
  Gd  Gd3  1  0.739778  0.809496  0.264507  1
  Ge  Ge4  1  0.757466  0.273828  0.957095  1
  Ge  Ge5  1  0.257466  0.726172  0.542905  1
  Ge  Ge6  1  0.242534  0.726172  0.042905  1
  Ge  Ge7  1  0.742534  0.273828  0.457095  1
  F  F8  1  0.429014  0.706644  0.922573  1
  F  F9  1  0.929014  0.293356  0.577427  1
  F  F10  1  0.570986  0.293356  0.077427  1
  F  F11  1  0.070986  0.706644  0.422573  1
  F  F12  1  0.459136  0.280198  0.538556  1
  F  F13  1  0.959136  0.719802  0.961444  1
  F  F14  1  0.540864  0.719802  0.461444  1
  F  F15  1  0.040864  0.280198  0.038556  1
  F  F16  1  0.773075  0.506861  0.864520  1
  F  F17  1  0.273075  0.493139  0.635480  1
  F  F18  1  0.226925  0.493139  0.135480  1
  F  F19  1  0.726925  0.506861  0.364520  1
  F  F20  1  0.758457  0.041153  0.046633  1
  F  F21  1  0.258457  0.958847  0.453367  1
  F  F22  1  0.241543  0.958847  0.953367  1
  F  F23  1  0.741543  0.041153  0.546633  1
  F  F24  1  0.983536  0.727131  0.630987  1
  F  F25  1  0.483536  0.272869  0.869013  1
  F  F26  1  0.016464  0.272869  0.369013  1
  F  F27  1  0.516464  0.727131  0.130987  1
  F  F28  1  0.058713  0.740979  0.167884  1
  F  F29  1  0.558713  0.259021  0.332116  1
  F  F30  1  0.941287  0.259021  0.832116  1
  F  F31  1  0.441287  0.740979  0.667884  1
  F  F32  1  0.403362  0.968039  0.227187  1
  F  F33  1  0.903362  0.031961  0.272813  1
  F  F34  1  0.596638  0.031961  0.772813  1
  F  F35  1  0.096638  0.968039  0.727187  1
