# generated using pymatgen
data_Tb5YTcSb2
_symmetry_space_group_name_H-M   'P 1'
_cell_length_a   8.24165500
_cell_length_b   8.23086332
_cell_length_c   4.26326000
_cell_angle_alpha   90.00000000
_cell_angle_beta   90.00000000
_cell_angle_gamma   120.04337711
_symmetry_Int_Tables_number   1
_chemical_formula_structural   Tb5YTcSb2
_chemical_formula_sum   'Tb5 Y1 Tc1 Sb2'
_cell_volume   250.34693402
_cell_formula_units_Z   1
loop_
 _symmetry_equiv_pos_site_id
 _symmetry_equiv_pos_as_xyz
  1  'x, y, z'
loop_
 _atom_site_type_symbol
 _atom_site_label
 _atom_site_symmetry_multiplicity
 _atom_site_fract_x
 _atom_site_fract_y
 _atom_site_fract_z
 _atom_site_occupancy
  Tb  Tb0  1  0.236636  0.000000  0.000000  1
  Tb  Tb1  1  0.000072  0.600615  0.500000  1
  Tb  Tb2  1  0.399457  0.399385  0.500000  1
  Tb  Tb3  1  0.763174  0.763131  0.000000  1
  Tb  Tb4  1  0.000043  0.236869  0.000000  1
  Y  Y5  1  0.600504  0.000000  0.500000  1
  Tc  Tc6  1  0.000018  0.000000  0.500000  1
  Sb  Sb7  1  0.333489  0.666883  0.000000  1
  Sb  Sb8  1  0.666607  0.333117  0.000000  1
