# generated using pymatgen
data_CsRb2TiF7
_symmetry_space_group_name_H-M   'P 1'
_cell_length_a   8.45227000
_cell_length_b   8.45227000
_cell_length_c   6.08435100
_cell_angle_alpha   90.00000000
_cell_angle_beta   90.00000000
_cell_angle_gamma   90.00000000
_symmetry_Int_Tables_number   1
_chemical_formula_structural   CsRb2TiF7
_chemical_formula_sum   'Cs2 Rb4 Ti2 F14'
_cell_volume   434.67131759
_cell_formula_units_Z   2
loop_
 _symmetry_equiv_pos_site_id
 _symmetry_equiv_pos_as_xyz
  1  'x, y, z'
loop_
 _atom_site_type_symbol
 _atom_site_label
 _atom_site_symmetry_multiplicity
 _atom_site_fract_x
 _atom_site_fract_y
 _atom_site_fract_z
 _atom_site_occupancy
  Cs  Cs0  1  0.500000  0.500000  0.000000  1
  Cs  Cs1  1  0.000000  0.000000  0.000000  1
  Rb  Rb2  1  0.196435  0.696435  0.500000  1
  Rb  Rb3  1  0.803565  0.303565  0.500000  1
  Rb  Rb4  1  0.696435  0.803565  0.500000  1
  Rb  Rb5  1  0.303565  0.196435  0.500000  1
  Ti  Ti6  1  0.000000  0.500000  0.000000  1
  Ti  Ti7  1  0.500000  0.000000  0.000000  1
  F  F8  1  0.389795  0.889795  0.775848  1
  F  F9  1  0.610205  0.110205  0.775848  1
  F  F10  1  0.110205  0.389795  0.775848  1
  F  F11  1  0.889795  0.610205  0.775848  1
  F  F12  1  0.389795  0.889795  0.224152  1
  F  F13  1  0.889795  0.610205  0.224152  1
  F  F14  1  0.110205  0.389795  0.224152  1
  F  F15  1  0.610205  0.110205  0.224152  1
  F  F16  1  0.000000  0.000000  0.500000  1
  F  F17  1  0.500000  0.500000  0.500000  1
  F  F18  1  0.841689  0.341689  0.000000  1
  F  F19  1  0.341689  0.158311  0.000000  1
  F  F20  1  0.658311  0.841689  0.000000  1
  F  F21  1  0.158311  0.658311  0.000000  1
