# generated using pymatgen
data_Tb3Dy(As4O9)2
_symmetry_space_group_name_H-M   'P 1'
_cell_length_a   6.77357386
_cell_length_b   7.57392191
_cell_length_c   9.84479458
_cell_angle_alpha   94.96831506
_cell_angle_beta   104.16782046
_cell_angle_gamma   104.72502993
_symmetry_Int_Tables_number   1
_chemical_formula_structural   Tb3Dy(As4O9)2
_chemical_formula_sum   'Tb3 Dy1 As8 O18'
_cell_volume   467.61474753
_cell_formula_units_Z   1
loop_
 _symmetry_equiv_pos_site_id
 _symmetry_equiv_pos_as_xyz
  1  'x, y, z'
loop_
 _atom_site_type_symbol
 _atom_site_label
 _atom_site_symmetry_multiplicity
 _atom_site_fract_x
 _atom_site_fract_y
 _atom_site_fract_z
 _atom_site_occupancy
  Tb  Tb0  1  0.244531  0.939786  0.615686  1
  Tb  Tb1  1  0.755669  0.060420  0.384300  1
  Tb  Tb2  1  0.721094  0.530619  0.409529  1
  Dy  Dy3  1  0.279358  0.470138  0.590854  1
  As  As4  1  0.681130  0.775243  0.077460  1
  As  As5  1  0.318800  0.225028  0.922135  1
  As  As6  1  0.172235  0.752833  0.912584  1
  As  As7  1  0.827751  0.246987  0.087170  1
  As  As8  1  0.743882  0.915718  0.709345  1
  As  As9  1  0.255747  0.083985  0.290635  1
  As  As10  1  0.809189  0.350513  0.701306  1
  As  As11  1  0.190721  0.649489  0.298787  1
  O  O12  1  0.722106  0.749855  0.257664  1
  O  O13  1  0.277986  0.250966  0.741991  1
  O  O14  1  0.315905  0.978690  0.870442  1
  O  O15  1  0.684044  0.021358  0.129370  1
  O  O16  1  0.607473  0.323397  0.985642  1
  O  O17  1  0.392488  0.676635  0.014355  1
  O  O18  1  0.129079  0.646631  0.738031  1
  O  O19  1  0.871202  0.353035  0.261769  1
  O  O20  1  0.846138  0.874271  0.559460  1
  O  O21  1  0.153999  0.125938  0.440634  1
  O  O22  1  0.484354  0.768204  0.666308  1
  O  O23  1  0.515311  0.230994  0.333433  1
  O  O24  1  0.371688  0.534064  0.379640  1
  O  O25  1  0.626920  0.465243  0.620970  1
  O  O26  1  0.090266  0.669447  0.453535  1
  O  O27  1  0.911009  0.330755  0.546998  1
  O  O28  1  0.375686  0.898991  0.359073  1
  O  O29  1  0.624242  0.100768  0.640896  1
