# generated using pymatgen
data_Nd2Y2GaBr6
_symmetry_space_group_name_H-M   'P 1'
_cell_length_a   4.11344900
_cell_length_b   13.72003200
_cell_length_c   14.45189700
_cell_angle_alpha   90.00000000
_cell_angle_beta   90.00000000
_cell_angle_gamma   90.00000000
_symmetry_Int_Tables_number   1
_chemical_formula_structural   Nd2Y2GaBr6
_chemical_formula_sum   'Nd4 Y4 Ga2 Br12'
_cell_volume   815.61668043
_cell_formula_units_Z   2
loop_
 _symmetry_equiv_pos_site_id
 _symmetry_equiv_pos_as_xyz
  1  'x, y, z'
loop_
 _atom_site_type_symbol
 _atom_site_label
 _atom_site_symmetry_multiplicity
 _atom_site_fract_x
 _atom_site_fract_y
 _atom_site_fract_z
 _atom_site_occupancy
  Nd  Nd0  1  0.000000  0.124937  0.583274  1
  Nd  Nd1  1  0.000000  0.875063  0.416726  1
  Nd  Nd2  1  0.000000  0.624937  0.916726  1
  Nd  Nd3  1  0.000000  0.375063  0.083274  1
  Y  Y4  1  0.500000  0.117334  0.341002  1
  Y  Y5  1  0.500000  0.882666  0.658998  1
  Y  Y6  1  0.500000  0.617334  0.158998  1
  Y  Y7  1  0.500000  0.382666  0.841002  1
  Ga  Ga8  1  0.500000  0.000000  0.500000  1
  Ga  Ga9  1  0.500000  0.500000  0.000000  1
  Br  Br10  1  0.500000  0.240113  0.169609  1
  Br  Br11  1  0.500000  0.759887  0.830391  1
  Br  Br12  1  0.500000  0.740113  0.330391  1
  Br  Br13  1  0.500000  0.259887  0.669609  1
  Br  Br14  1  0.000000  0.250972  0.406567  1
  Br  Br15  1  0.000000  0.749028  0.593433  1
  Br  Br16  1  0.000000  0.750972  0.093433  1
  Br  Br17  1  0.000000  0.249028  0.906567  1
  Br  Br18  1  0.000000  0.007324  0.244324  1
  Br  Br19  1  0.000000  0.992676  0.755676  1
  Br  Br20  1  0.000000  0.507324  0.255676  1
  Br  Br21  1  0.000000  0.492676  0.744324  1
