# generated using pymatgen
data_Nd4CuGe2Pd27
_symmetry_space_group_name_H-M   'P 1'
_cell_length_a   8.96837805
_cell_length_b   8.96837805
_cell_length_c   7.20541967
_cell_angle_alpha   90.11117331
_cell_angle_beta   90.11117331
_cell_angle_gamma   89.34876086
_symmetry_Int_Tables_number   1
_chemical_formula_structural   Nd4CuGe2Pd27
_chemical_formula_sum   'Nd4 Cu1 Ge2 Pd27'
_cell_volume   579.50531548
_cell_formula_units_Z   1
loop_
 _symmetry_equiv_pos_site_id
 _symmetry_equiv_pos_as_xyz
  1  'x, y, z'
loop_
 _atom_site_type_symbol
 _atom_site_label
 _atom_site_symmetry_multiplicity
 _atom_site_fract_x
 _atom_site_fract_y
 _atom_site_fract_z
 _atom_site_occupancy
  Nd  Nd0  1  0.502768  0.002768  0.935296  1
  Nd  Nd1  1  0.997232  0.497232  0.064704  1
  Nd  Nd2  1  0.001011  0.998989  0.500000  1
  Nd  Nd3  1  0.498989  0.501011  0.500000  1
  Cu  Cu4  1  0.250000  0.750000  0.000000  1
  Ge  Ge5  1  0.500160  0.000160  0.449988  1
  Ge  Ge6  1  0.999840  0.499840  0.550012  1
  Pd  Pd7  1  0.330049  0.830049  0.620374  1
  Pd  Pd8  1  0.329092  0.169668  0.623852  1
  Pd  Pd9  1  0.669668  0.829092  0.623852  1
  Pd  Pd10  1  0.669585  0.169585  0.621089  1
  Pd  Pd11  1  0.169951  0.669951  0.379626  1
  Pd  Pd12  1  0.170908  0.330332  0.376148  1
  Pd  Pd13  1  0.830332  0.670908  0.376148  1
  Pd  Pd14  1  0.830415  0.330415  0.378911  1
  Pd  Pd15  1  0.497715  0.767289  0.250994  1
  Pd  Pd16  1  0.497993  0.234247  0.253203  1
  Pd  Pd17  1  0.267289  0.997715  0.250994  1
  Pd  Pd18  1  0.734247  0.997993  0.253203  1
  Pd  Pd19  1  0.002285  0.732711  0.749006  1
  Pd  Pd20  1  0.002007  0.265753  0.746797  1
  Pd  Pd21  1  0.232711  0.502285  0.749006  1
  Pd  Pd22  1  0.765753  0.502007  0.746797  1
  Pd  Pd23  1  0.498809  0.351486  0.856515  1
  Pd  Pd24  1  0.493833  0.657128  0.862340  1
  Pd  Pd25  1  0.851486  0.998809  0.856515  1
  Pd  Pd26  1  0.157128  0.993833  0.862340  1
  Pd  Pd27  1  0.001191  0.148514  0.143485  1
  Pd  Pd28  1  0.006167  0.842872  0.137660  1
  Pd  Pd29  1  0.648514  0.501191  0.143485  1
  Pd  Pd30  1  0.342872  0.506167  0.137660  1
  Pd  Pd31  1  0.250000  0.250000  0.000000  1
  Pd  Pd32  1  0.750000  0.750000  0.000000  1
  Pd  Pd33  1  0.750000  0.250000  0.000000  1
