# generated using pymatgen
data_LaY4(B3Ru)2
_symmetry_space_group_name_H-M   'P 1'
_cell_length_a   5.54336209
_cell_length_b   5.54336221
_cell_length_c   8.52180335
_cell_angle_alpha   71.01952979
_cell_angle_beta   71.01952677
_cell_angle_gamma   60.00002429
_symmetry_Int_Tables_number   1
_chemical_formula_structural   LaY4(B3Ru)2
_chemical_formula_sum   'La1 Y4 B6 Ru2'
_cell_volume   210.18105536
_cell_formula_units_Z   1
loop_
 _symmetry_equiv_pos_site_id
 _symmetry_equiv_pos_as_xyz
  1  'x, y, z'
loop_
 _atom_site_type_symbol
 _atom_site_label
 _atom_site_symmetry_multiplicity
 _atom_site_fract_x
 _atom_site_fract_y
 _atom_site_fract_z
 _atom_site_occupancy
  La  La0  1  0.000000  0.000000  0.000000  1
  Y  Y1  1  0.248012  0.248012  0.255963  1
  Y  Y2  1  0.751988  0.751988  0.744037  1
  Y  Y3  1  0.418686  0.418686  0.743941  1
  Y  Y4  1  0.581314  0.581314  0.256059  1
  B  B5  1  0.172244  0.827756  0.500000  1
  B  B6  1  0.827756  0.500000  0.500000  1
  B  B7  1  0.500000  0.172244  0.500000  1
  B  B8  1  0.172244  0.500000  0.500000  1
  B  B9  1  0.500000  0.827756  0.500000  1
  B  B10  1  0.827756  0.172244  0.500000  1
  Ru  Ru11  1  0.112185  0.112185  0.663445  1
  Ru  Ru12  1  0.887815  0.887815  0.336555  1
