# generated using pymatgen
data_Zn2FeNi2PdO8
_symmetry_space_group_name_H-M   'P 1'
_cell_length_a   6.07781852
_cell_length_b   6.03694180
_cell_length_c   6.07781850
_cell_angle_alpha   59.06551358
_cell_angle_beta   58.59084010
_cell_angle_gamma   59.06550727
_symmetry_Int_Tables_number   1
_chemical_formula_structural   Zn2FeNi2PdO8
_chemical_formula_sum   'Zn2 Fe1 Ni2 Pd1 O8'
_cell_volume   153.74778438
_cell_formula_units_Z   1
loop_
 _symmetry_equiv_pos_site_id
 _symmetry_equiv_pos_as_xyz
  1  'x, y, z'
loop_
 _atom_site_type_symbol
 _atom_site_label
 _atom_site_symmetry_multiplicity
 _atom_site_fract_x
 _atom_site_fract_y
 _atom_site_fract_z
 _atom_site_occupancy
  Zn  Zn0  1  0.490303  0.493395  0.490303  1
  Zn  Zn1  1  0.759697  0.756605  0.759697  1
  Fe  Fe2  1  0.125000  0.625000  0.125000  1
  Ni  Ni3  1  0.625000  0.125000  0.125000  1
  Ni  Ni4  1  0.125000  0.125000  0.625000  1
  Pd  Pd5  1  0.125000  0.125000  0.125000  1
  O  O6  1  0.890867  0.887780  0.890867  1
  O  O7  1  0.899849  0.369257  0.360291  1
  O  O8  1  0.360980  0.904437  0.360980  1
  O  O9  1  0.360291  0.369257  0.899849  1
  O  O10  1  0.889020  0.345563  0.889020  1
  O  O11  1  0.889709  0.880743  0.350151  1
  O  O12  1  0.350151  0.880743  0.889709  1
  O  O13  1  0.359133  0.362220  0.359133  1
