# generated using pymatgen
data_ScMn4MoP3
_symmetry_space_group_name_H-M   'P 1'
_cell_length_a   3.56202900
_cell_length_b   10.68580200
_cell_length_c   12.26514500
_cell_angle_alpha   90.00000000
_cell_angle_beta   90.00000000
_cell_angle_gamma   90.00000000
_symmetry_Int_Tables_number   1
_chemical_formula_structural   ScMn4MoP3
_chemical_formula_sum   'Sc4 Mn16 Mo4 P12'
_cell_volume   466.84988970
_cell_formula_units_Z   4
loop_
 _symmetry_equiv_pos_site_id
 _symmetry_equiv_pos_as_xyz
  1  'x, y, z'
loop_
 _atom_site_type_symbol
 _atom_site_label
 _atom_site_symmetry_multiplicity
 _atom_site_fract_x
 _atom_site_fract_y
 _atom_site_fract_z
 _atom_site_occupancy
  Sc  Sc0  1  0.250000  0.585119  0.706502  1
  Sc  Sc1  1  0.250000  0.914881  0.206502  1
  Sc  Sc2  1  0.750000  0.414881  0.293498  1
  Sc  Sc3  1  0.750000  0.085119  0.793498  1
  Mn  Mn4  1  0.250000  0.411812  0.492308  1
  Mn  Mn5  1  0.250000  0.088188  0.992308  1
  Mn  Mn6  1  0.750000  0.588188  0.507692  1
  Mn  Mn7  1  0.750000  0.911812  0.007692  1
  Mn  Mn8  1  0.250000  0.212661  0.182655  1
  Mn  Mn9  1  0.250000  0.287340  0.682655  1
  Mn  Mn10  1  0.750000  0.787340  0.817345  1
  Mn  Mn11  1  0.750000  0.712660  0.317345  1
  Mn  Mn12  1  0.250000  0.883838  0.695455  1
  Mn  Mn13  1  0.250000  0.616162  0.195455  1
  Mn  Mn14  1  0.750000  0.116162  0.304545  1
  Mn  Mn15  1  0.750000  0.383838  0.804545  1
  Mn  Mn16  1  0.250000  0.464370  0.933679  1
  Mn  Mn17  1  0.250000  0.035630  0.433679  1
  Mn  Mn18  1  0.750000  0.535630  0.066321  1
  Mn  Mn19  1  0.750000  0.964370  0.566321  1
  Mo  Mo20  1  0.250000  0.711882  0.983814  1
  Mo  Mo21  1  0.250000  0.788118  0.483814  1
  Mo  Mo22  1  0.750000  0.288118  0.016186  1
  Mo  Mo23  1  0.750000  0.211882  0.516186  1
  P  P24  1  0.250000  0.414196  0.121289  1
  P  P25  1  0.250000  0.085804  0.621289  1
  P  P26  1  0.750000  0.585804  0.878711  1
  P  P27  1  0.750000  0.914196  0.378711  1
  P  P28  1  0.250000  0.259169  0.869724  1
  P  P29  1  0.250000  0.240831  0.369724  1
  P  P30  1  0.750000  0.740831  0.130276  1
  P  P31  1  0.750000  0.759169  0.630276  1
  P  P32  1  0.250000  0.587346  0.381734  1
  P  P33  1  0.250000  0.912654  0.881734  1
  P  P34  1  0.750000  0.412654  0.618266  1
  P  P35  1  0.750000  0.087346  0.118266  1
