# generated using pymatgen
data_YHo3(SiPd)4
_symmetry_space_group_name_H-M   'P 1'
_cell_length_a   4.33074000
_cell_length_b   7.49511800
_cell_length_c   13.88462000
_cell_angle_alpha   90.00000000
_cell_angle_beta   90.00000000
_cell_angle_gamma   90.00000000
_symmetry_Int_Tables_number   1
_chemical_formula_structural   YHo3(SiPd)4
_chemical_formula_sum   'Y2 Ho6 Si8 Pd8'
_cell_volume   450.68653617
_cell_formula_units_Z   2
loop_
 _symmetry_equiv_pos_site_id
 _symmetry_equiv_pos_as_xyz
  1  'x, y, z'
loop_
 _atom_site_type_symbol
 _atom_site_label
 _atom_site_symmetry_multiplicity
 _atom_site_fract_x
 _atom_site_fract_y
 _atom_site_fract_z
 _atom_site_occupancy
  Y  Y0  1  0.500000  0.700366  0.500000  1
  Y  Y1  1  0.000000  0.299634  0.000000  1
  Ho  Ho2  1  0.500000  0.789798  0.748918  1
  Ho  Ho3  1  0.000000  0.210202  0.751082  1
  Ho  Ho4  1  0.500000  0.789798  0.251082  1
  Ho  Ho5  1  0.000000  0.210202  0.248918  1
  Ho  Ho6  1  0.500000  0.709608  0.000000  1
  Ho  Ho7  1  0.000000  0.290392  0.500000  1
  Si  Si8  1  0.500000  0.408201  0.644355  1
  Si  Si9  1  0.000000  0.591799  0.855645  1
  Si  Si10  1  0.500000  0.408201  0.355645  1
  Si  Si11  1  0.000000  0.591799  0.144355  1
  Si  Si12  1  0.500000  0.090202  0.093932  1
  Si  Si13  1  0.000000  0.909798  0.406068  1
  Si  Si14  1  0.500000  0.090202  0.906068  1
  Si  Si15  1  0.000000  0.909798  0.593932  1
  Pd  Pd16  1  0.500000  0.076902  0.608859  1
  Pd  Pd17  1  0.000000  0.923098  0.891141  1
  Pd  Pd18  1  0.500000  0.076902  0.391141  1
  Pd  Pd19  1  0.000000  0.923098  0.108859  1
  Pd  Pd20  1  0.500000  0.420686  0.156865  1
  Pd  Pd21  1  0.000000  0.579314  0.343135  1
  Pd  Pd22  1  0.500000  0.420686  0.843135  1
  Pd  Pd23  1  0.000000  0.579314  0.656865  1
