# generated using pymatgen
data_Tb6YbHo3Ru4
_symmetry_space_group_name_H-M   'P 1'
_cell_length_a   6.39232644
_cell_length_b   7.26719974
_cell_length_c   8.51943061
_cell_angle_alpha   96.67920713
_cell_angle_beta   112.12002787
_cell_angle_gamma   89.69555001
_symmetry_Int_Tables_number   1
_chemical_formula_structural   Tb6YbHo3Ru4
_chemical_formula_sum   'Tb6 Yb1 Ho3 Ru4'
_cell_volume   363.82787127
_cell_formula_units_Z   1
loop_
 _symmetry_equiv_pos_site_id
 _symmetry_equiv_pos_as_xyz
  1  'x, y, z'
loop_
 _atom_site_type_symbol
 _atom_site_label
 _atom_site_symmetry_multiplicity
 _atom_site_fract_x
 _atom_site_fract_y
 _atom_site_fract_z
 _atom_site_occupancy
  Tb  Tb0  1  0.794473  0.583444  0.814862  1
  Tb  Tb1  1  0.020524  0.085080  0.814493  1
  Tb  Tb2  1  0.208113  0.415498  0.187439  1
  Tb  Tb3  1  0.640327  0.814336  0.434762  1
  Tb  Tb4  1  0.205025  0.685172  0.566380  1
  Tb  Tb5  1  0.362770  0.186262  0.566631  1
  Yb  Yb6  1  0.978656  0.918435  0.185348  1
  Ho  Ho7  1  0.792483  0.316380  0.432367  1
  Ho  Ho8  1  0.425431  0.749500  0.000429  1
  Ho  Ho9  1  0.577523  0.250646  0.001743  1
  Ru  Ru10  1  0.820052  0.569695  0.220801  1
  Ru  Ru11  1  0.598139  0.924513  0.774978  1
  Ru  Ru12  1  0.175514  0.424158  0.780147  1
  Ru  Ru13  1  0.400969  0.076881  0.219617  1
