# generated using pymatgen
data_K3Rb2Tl(TcH9)3
_symmetry_space_group_name_H-M   'P 1'
_cell_length_a   9.69945200
_cell_length_b   9.70258769
_cell_length_c   5.71948700
_cell_angle_alpha   90.00000000
_cell_angle_beta   90.00000000
_cell_angle_gamma   119.98930302
_symmetry_Int_Tables_number   1
_chemical_formula_structural   K3Rb2Tl(TcH9)3
_chemical_formula_sum   'K3 Rb2 Tl1 Tc3 H27'
_cell_volume   466.19679769
_cell_formula_units_Z   1
loop_
 _symmetry_equiv_pos_site_id
 _symmetry_equiv_pos_as_xyz
  1  'x, y, z'
loop_
 _atom_site_type_symbol
 _atom_site_label
 _atom_site_symmetry_multiplicity
 _atom_site_fract_x
 _atom_site_fract_y
 _atom_site_fract_z
 _atom_site_occupancy
  K  K0  1  0.263375  0.000000  0.500000  1
  K  K1  1  0.998809  0.260783  0.500000  1
  K  K2  1  0.738026  0.739217  0.500000  1
  Rb  Rb3  1  0.000245  0.590046  0.000000  1
  Rb  Rb4  1  0.410199  0.409954  0.000000  1
  Tl  Tl5  1  0.590062  0.000000  0.000000  1
  Tc  Tc6  1  0.998897  0.000000  0.000000  1
  Tc  Tc7  1  0.333902  0.667218  0.500000  1
  Tc  Tc8  1  0.666685  0.332782  0.500000  1
  H  H9  1  0.874593  0.000000  0.208231  1
  H  H10  1  0.999684  0.876393  0.207507  1
  H  H11  1  0.874593  0.000000  0.791769  1
  H  H12  1  0.999684  0.876393  0.792493  1
  H  H13  1  0.123290  0.123607  0.207507  1
  H  H14  1  0.123290  0.123607  0.792493  1
  H  H15  1  0.170445  0.000000  0.000000  1
  H  H16  1  0.001177  0.172851  0.000000  1
  H  H17  1  0.828325  0.827149  0.000000  1
  H  H18  1  0.226910  0.534484  0.287835  1
  H  H19  1  0.466256  0.692964  0.286781  1
  H  H20  1  0.226910  0.534484  0.712165  1
  H  H21  1  0.534449  0.225901  0.713332  1
  H  H22  1  0.308549  0.774099  0.286668  1
  H  H23  1  0.466256  0.692964  0.713219  1
  H  H24  1  0.692426  0.465516  0.712165  1
  H  H25  1  0.534449  0.225901  0.286668  1
  H  H26  1  0.308549  0.774099  0.713332  1
  H  H27  1  0.692426  0.465516  0.287835  1
  H  H28  1  0.773291  0.307036  0.713219  1
  H  H29  1  0.773291  0.307036  0.286781  1
  H  H30  1  0.369102  0.516085  0.500000  1
  H  H31  1  0.484867  0.853735  0.500000  1
  H  H32  1  0.515368  0.367897  0.500000  1
  H  H33  1  0.147471  0.632103  0.500000  1
  H  H34  1  0.853017  0.483915  0.500000  1
  H  H35  1  0.631132  0.146265  0.500000  1
