# generated using pymatgen
data_TbTh2(InRu)3
_symmetry_space_group_name_H-M   'P 1'
_cell_length_a   7.67128195
_cell_length_b   7.67128095
_cell_length_c   4.05744100
_cell_angle_alpha   90.00000000
_cell_angle_beta   90.00000000
_cell_angle_gamma   122.81679114
_symmetry_Int_Tables_number   1
_chemical_formula_structural   TbTh2(InRu)3
_chemical_formula_sum   'Tb1 Th2 In3 Ru3'
_cell_volume   200.66800313
_cell_formula_units_Z   1
loop_
 _symmetry_equiv_pos_site_id
 _symmetry_equiv_pos_as_xyz
  1  'x, y, z'
loop_
 _atom_site_type_symbol
 _atom_site_label
 _atom_site_symmetry_multiplicity
 _atom_site_fract_x
 _atom_site_fract_y
 _atom_site_fract_z
 _atom_site_occupancy
  Tb  Tb0  1  0.591806  0.591806  0.000000  1
  Th  Th1  1  0.414891  0.001773  0.000000  1
  Th  Th2  1  0.001773  0.414891  0.000000  1
  In  In3  1  0.268399  0.268399  0.500000  1
  In  In4  1  0.983522  0.749027  0.500000  1
  In  In5  1  0.749027  0.983522  0.500000  1
  Ru  Ru6  1  0.014347  0.014347  0.000000  1
  Ru  Ru7  1  0.670046  0.306190  0.500000  1
  Ru  Ru8  1  0.306190  0.670046  0.500000  1
