# generated using pymatgen
data_Zr8Ti11Si16Rh
_symmetry_space_group_name_H-M   'P 1'
_cell_length_a   6.83695870
_cell_length_b   6.83695809
_cell_length_c   12.48409275
_cell_angle_alpha   90.20053231
_cell_angle_beta   89.79947053
_cell_angle_gamma   89.87480962
_symmetry_Int_Tables_number   1
_chemical_formula_structural   Zr8Ti11Si16Rh
_chemical_formula_sum   'Zr8 Ti11 Si16 Rh1'
_cell_volume   583.54787569
_cell_formula_units_Z   1
loop_
 _symmetry_equiv_pos_site_id
 _symmetry_equiv_pos_as_xyz
  1  'x, y, z'
loop_
 _atom_site_type_symbol
 _atom_site_label
 _atom_site_symmetry_multiplicity
 _atom_site_fract_x
 _atom_site_fract_y
 _atom_site_fract_z
 _atom_site_occupancy
  Zr  Zr0  1  0.343377  0.999944  0.467659  1
  Zr  Zr1  1  0.499941  0.843457  0.719189  1
  Zr  Zr2  1  0.499924  0.155128  0.218139  1
  Zr  Zr3  1  0.843457  0.499941  0.280811  1
  Zr  Zr4  1  0.155128  0.499924  0.781861  1
  Zr  Zr5  1  0.658231  0.999332  0.968733  1
  Zr  Zr6  1  0.999944  0.343377  0.532341  1
  Zr  Zr7  1  0.999332  0.658231  0.031267  1
  Ti  Ti8  1  0.172678  0.828212  0.247920  1
  Ti  Ti9  1  0.828212  0.172678  0.752080  1
  Ti  Ti10  1  0.671664  0.671664  0.500000  1
  Ti  Ti11  1  0.149218  0.001279  0.872079  1
  Ti  Ti12  1  0.496692  0.654239  0.122604  1
  Ti  Ti13  1  0.504230  0.349084  0.625291  1
  Ti  Ti14  1  0.654239  0.496692  0.877396  1
  Ti  Ti15  1  0.349084  0.504230  0.374709  1
  Ti  Ti16  1  0.847962  0.995912  0.372322  1
  Ti  Ti17  1  0.001279  0.149218  0.127921  1
  Ti  Ti18  1  0.995912  0.847962  0.627678  1
  Si  Si19  1  0.206366  0.135531  0.678262  1
  Si  Si20  1  0.366564  0.708153  0.927145  1
  Si  Si21  1  0.634747  0.294260  0.428220  1
  Si  Si22  1  0.708153  0.366564  0.072855  1
  Si  Si23  1  0.294260  0.634747  0.571780  1
  Si  Si24  1  0.794353  0.863046  0.177955  1
  Si  Si25  1  0.135531  0.206366  0.321738  1
  Si  Si26  1  0.863046  0.794353  0.822045  1
  Si  Si27  1  0.291477  0.954862  0.062193  1
  Si  Si28  1  0.545886  0.793781  0.314119  1
  Si  Si29  1  0.450353  0.208740  0.816583  1
  Si  Si30  1  0.793781  0.545886  0.685881  1
  Si  Si31  1  0.208740  0.450353  0.183417  1
  Si  Si32  1  0.707004  0.046643  0.564185  1
  Si  Si33  1  0.954862  0.291477  0.937807  1
  Si  Si34  1  0.046643  0.707004  0.435815  1
  Rh  Rh35  1  0.327726  0.327726  0.000000  1
