# generated using pymatgen
data_Tb16Y4Cd3Ag3Ru2
_symmetry_space_group_name_H-M   'P 1'
_cell_length_a   9.64804247
_cell_length_b   9.65326139
_cell_length_c   9.71499200
_cell_angle_alpha   90.00000000
_cell_angle_beta   90.00000000
_cell_angle_gamma   120.01789413
_symmetry_Int_Tables_number   1
_chemical_formula_structural   Tb16Y4Cd3Ag3Ru2
_chemical_formula_sum   'Tb16 Y4 Cd3 Ag3 Ru2'
_cell_volume   783.44410067
_cell_formula_units_Z   1
loop_
 _symmetry_equiv_pos_site_id
 _symmetry_equiv_pos_as_xyz
  1  'x, y, z'
loop_
 _atom_site_type_symbol
 _atom_site_label
 _atom_site_symmetry_multiplicity
 _atom_site_fract_x
 _atom_site_fract_y
 _atom_site_fract_z
 _atom_site_occupancy
  Tb  Tb0  1  0.000020  0.000010  0.477121  1
  Tb  Tb1  1  0.000020  0.000010  0.022879  1
  Tb  Tb2  1  0.210188  0.789716  0.440709  1
  Tb  Tb3  1  0.210188  0.420473  0.440709  1
  Tb  Tb4  1  0.579643  0.789822  0.440727  1
  Tb  Tb5  1  0.790939  0.209071  0.560240  1
  Tb  Tb6  1  0.790939  0.581868  0.560240  1
  Tb  Tb7  1  0.418087  0.209043  0.560160  1
  Tb  Tb8  1  0.790939  0.209071  0.939760  1
  Tb  Tb9  1  0.790939  0.581868  0.939760  1
  Tb  Tb10  1  0.418087  0.209043  0.939840  1
  Tb  Tb11  1  0.210188  0.789716  0.059291  1
  Tb  Tb12  1  0.210188  0.420473  0.059291  1
  Tb  Tb13  1  0.579643  0.789822  0.059273  1
  Tb  Tb14  1  0.540960  0.459075  0.250000  1
  Tb  Tb15  1  0.540960  0.081885  0.250000  1
  Y  Y16  1  0.918092  0.459046  0.250000  1
  Y  Y17  1  0.459011  0.541035  0.750000  1
  Y  Y18  1  0.459011  0.917975  0.750000  1
  Y  Y19  1  0.081996  0.540998  0.750000  1
  Cd  Cd20  1  0.111611  0.888304  0.750000  1
  Cd  Cd21  1  0.111611  0.223306  0.750000  1
  Cd  Cd22  1  0.776553  0.888276  0.750000  1
  Ag  Ag23  1  0.876209  0.123780  0.250000  1
  Ag  Ag24  1  0.876209  0.752431  0.250000  1
  Ag  Ag25  1  0.247662  0.123832  0.250000  1
  Ru  Ru26  1  0.333429  0.666715  0.250000  1
  Ru  Ru27  1  0.666679  0.333339  0.750000  1
