# generated using pymatgen
data_Dy9(Si5Os)4
_symmetry_space_group_name_H-M   'P 1'
_cell_length_a   7.90539400
_cell_length_b   8.06182666
_cell_length_c   19.64344600
_cell_angle_alpha   95.70654525
_cell_angle_beta   90.00000000
_cell_angle_gamma   90.00000000
_symmetry_Int_Tables_number   1
_chemical_formula_structural   Dy9(Si5Os)4
_chemical_formula_sum   'Dy18 Si40 Os8'
_cell_volume   1245.71023671
_cell_formula_units_Z   2
loop_
 _symmetry_equiv_pos_site_id
 _symmetry_equiv_pos_as_xyz
  1  'x, y, z'
loop_
 _atom_site_type_symbol
 _atom_site_label
 _atom_site_symmetry_multiplicity
 _atom_site_fract_x
 _atom_site_fract_y
 _atom_site_fract_z
 _atom_site_occupancy
  Dy  Dy0  1  0.248300  0.694734  0.763421  1
  Dy  Dy1  1  0.748300  0.805266  0.236579  1
  Dy  Dy2  1  0.751700  0.305266  0.236579  1
  Dy  Dy3  1  0.251700  0.194734  0.763421  1
  Dy  Dy4  1  0.502469  0.648103  0.588405  1
  Dy  Dy5  1  0.002469  0.851897  0.411595  1
  Dy  Dy6  1  0.497531  0.351897  0.411595  1
  Dy  Dy7  1  0.997531  0.148103  0.588405  1
  Dy  Dy8  1  0.248520  0.810996  0.236354  1
  Dy  Dy9  1  0.748520  0.689004  0.763646  1
  Dy  Dy10  1  0.751480  0.189004  0.763646  1
  Dy  Dy11  1  0.251480  0.310996  0.236354  1
  Dy  Dy12  1  0.500000  0.000000  0.000000  1
  Dy  Dy13  1  0.000000  0.500000  0.000000  1
  Dy  Dy14  1  0.497139  0.849066  0.411756  1
  Dy  Dy15  1  0.997139  0.650934  0.588244  1
  Dy  Dy16  1  0.502861  0.150934  0.588244  1
  Dy  Dy17  1  0.002861  0.349066  0.411756  1
  Si  Si18  1  0.165914  0.831901  0.000043  1
  Si  Si19  1  0.665914  0.668099  0.999957  1
  Si  Si20  1  0.834086  0.168099  0.999957  1
  Si  Si21  1  0.334086  0.331901  0.000043  1
  Si  Si22  1  0.994527  0.806778  0.116076  1
  Si  Si23  1  0.494527  0.693222  0.883924  1
  Si  Si24  1  0.005473  0.193222  0.883924  1
  Si  Si25  1  0.505473  0.306778  0.116076  1
  Si  Si26  1  0.503588  0.570810  0.289792  1
  Si  Si27  1  0.003588  0.929190  0.710208  1
  Si  Si28  1  0.496412  0.429190  0.710208  1
  Si  Si29  1  0.996412  0.070810  0.289792  1
  Si  Si30  1  0.253637  0.912058  0.638600  1
  Si  Si31  1  0.753637  0.587942  0.361400  1
  Si  Si32  1  0.746363  0.087942  0.361400  1
  Si  Si33  1  0.246363  0.412058  0.638600  1
  Si  Si34  1  0.494131  0.749740  0.115931  1
  Si  Si35  1  0.994131  0.750260  0.884069  1
  Si  Si36  1  0.505869  0.250260  0.884069  1
  Si  Si37  1  0.005869  0.249740  0.115931  1
  Si  Si38  1  0.719272  0.522774  0.116239  1
  Si  Si39  1  0.219272  0.977226  0.883761  1
  Si  Si40  1  0.280728  0.477226  0.883761  1
  Si  Si41  1  0.780728  0.022774  0.116239  1
  Si  Si42  1  0.281221  0.534575  0.116053  1
  Si  Si43  1  0.781221  0.965425  0.883947  1
  Si  Si44  1  0.718779  0.465425  0.883947  1
  Si  Si45  1  0.218779  0.034575  0.116053  1
  Si  Si46  1  0.994885  0.570852  0.286315  1
  Si  Si47  1  0.494885  0.929148  0.713685  1
  Si  Si48  1  0.005115  0.429148  0.713685  1
  Si  Si49  1  0.505115  0.070852  0.286315  1
  Si  Si50  1  0.247135  0.586695  0.355646  1
  Si  Si51  1  0.747135  0.913305  0.644354  1
  Si  Si52  1  0.752865  0.413305  0.644354  1
  Si  Si53  1  0.252865  0.086695  0.355646  1
  Si  Si54  1  0.248006  0.614340  0.474725  1
  Si  Si55  1  0.748006  0.885660  0.525275  1
  Si  Si56  1  0.751994  0.385660  0.525275  1
  Si  Si57  1  0.251994  0.114340  0.474725  1
  Os  Os58  1  0.000051  0.540039  0.164540  1
  Os  Os59  1  0.500051  0.959961  0.835460  1
  Os  Os60  1  0.999949  0.459961  0.835460  1
  Os  Os61  1  0.499949  0.040039  0.164540  1
  Os  Os62  1  0.370206  0.625467  0.999738  1
  Os  Os63  1  0.870206  0.874533  0.000262  1
  Os  Os64  1  0.629794  0.374532  0.000262  1
  Os  Os65  1  0.129794  0.125467  0.999738  1
