# generated using pymatgen
data_Ce5HoZr2(Co4P3)4
_symmetry_space_group_name_H-M   'P 1'
_cell_length_a   3.76900300
_cell_length_b   10.76325114
_cell_length_c   12.45780327
_cell_angle_alpha   90.13590037
_cell_angle_beta   90.00000000
_cell_angle_gamma   90.00000000
_symmetry_Int_Tables_number   1
_chemical_formula_structural   Ce5HoZr2(Co4P3)4
_chemical_formula_sum   'Ce5 Ho1 Zr2 Co16 P12'
_cell_volume   505.37086827
_cell_formula_units_Z   1
loop_
 _symmetry_equiv_pos_site_id
 _symmetry_equiv_pos_as_xyz
  1  'x, y, z'
loop_
 _atom_site_type_symbol
 _atom_site_label
 _atom_site_symmetry_multiplicity
 _atom_site_fract_x
 _atom_site_fract_y
 _atom_site_fract_z
 _atom_site_occupancy
  Ce  Ce0  1  0.000000  0.499031  0.534061  1
  Ce  Ce1  1  0.500000  0.000457  0.467637  1
  Ce  Ce2  1  0.500000  0.823288  0.205875  1
  Ce  Ce3  1  0.500000  0.177549  0.207053  1
  Ce  Ce4  1  0.000000  0.674775  0.793123  1
  Ho  Ho5  1  0.000000  0.319540  0.796518  1
  Zr  Zr6  1  0.500000  0.499989  0.156327  1
  Zr  Zr7  1  0.000000  0.000061  0.843267  1
  Co  Co8  1  0.000000  0.499020  0.985765  1
  Co  Co9  1  0.500000  0.000842  0.012147  1
  Co  Co10  1  0.500000  0.297708  0.435650  1
  Co  Co11  1  0.500000  0.702608  0.432988  1
  Co  Co12  1  0.000000  0.203503  0.568485  1
  Co  Co13  1  0.000000  0.797857  0.566369  1
  Co  Co14  1  0.500000  0.878205  0.702997  1
  Co  Co15  1  0.500000  0.122258  0.703881  1
  Co  Co16  1  0.000000  0.622668  0.296078  1
  Co  Co17  1  0.000000  0.378424  0.297865  1
  Co  Co18  1  0.500000  0.331207  0.992842  1
  Co  Co19  1  0.500000  0.666428  0.992454  1
  Co  Co20  1  0.000000  0.167751  0.006018  1
  Co  Co21  1  0.000000  0.831749  0.006005  1
  Co  Co22  1  0.500000  0.503121  0.701870  1
  Co  Co23  1  0.000000  0.000796  0.296679  1
  P  P24  1  0.500000  0.307991  0.618895  1
  P  P25  1  0.500000  0.694741  0.613412  1
  P  P26  1  0.000000  0.195197  0.387920  1
  P  P27  1  0.000000  0.806158  0.385937  1
  P  P28  1  0.500000  0.496511  0.884388  1
  P  P29  1  0.000000  0.000443  0.112009  1
  P  P30  1  0.500000  0.838119  0.895889  1
  P  P31  1  0.500000  0.162216  0.893902  1
  P  P32  1  0.000000  0.660466  0.102147  1
  P  P33  1  0.000000  0.338753  0.103161  1
  P  P34  1  0.500000  0.499889  0.362180  1
  P  P35  1  0.000000  0.000683  0.638207  1
