# generated using pymatgen
data_LiLa2Nd6Zn7Rh8
_symmetry_space_group_name_H-M   'P 1'
_cell_length_a   4.07383000
_cell_length_b   7.28695935
_cell_length_c   16.50900199
_cell_angle_alpha   90.21418397
_cell_angle_beta   90.00000000
_cell_angle_gamma   90.00000000
_symmetry_Int_Tables_number   1
_chemical_formula_structural   LiLa2Nd6Zn7Rh8
_chemical_formula_sum   'Li1 La2 Nd6 Zn7 Rh8'
_cell_volume   490.08006202
_cell_formula_units_Z   1
loop_
 _symmetry_equiv_pos_site_id
 _symmetry_equiv_pos_as_xyz
  1  'x, y, z'
loop_
 _atom_site_type_symbol
 _atom_site_label
 _atom_site_symmetry_multiplicity
 _atom_site_fract_x
 _atom_site_fract_y
 _atom_site_fract_z
 _atom_site_occupancy
  Li  Li0  1  0.750000  0.005922  0.560986  1
  La  La1  1  0.750000  0.331718  0.440496  1
  La  La2  1  0.750000  0.953747  0.282810  1
  Nd  Nd3  1  0.250000  0.166631  0.939669  1
  Nd  Nd4  1  0.250000  0.665658  0.560426  1
  Nd  Nd5  1  0.750000  0.832241  0.059714  1
  Nd  Nd6  1  0.750000  0.453339  0.215813  1
  Nd  Nd7  1  0.250000  0.046021  0.717378  1
  Nd  Nd8  1  0.250000  0.546693  0.783013  1
  Zn  Zn9  1  0.250000  0.624651  0.349691  1
  Zn  Zn10  1  0.750000  0.371718  0.650244  1
  Zn  Zn11  1  0.250000  0.498366  0.060210  1
  Zn  Zn12  1  0.750000  0.501236  0.939359  1
  Zn  Zn13  1  0.250000  0.994623  0.442303  1
  Zn  Zn14  1  0.250000  0.125947  0.148458  1
  Zn  Zn15  1  0.750000  0.875075  0.849788  1
  Rh  Rh16  1  0.750000  0.754706  0.433929  1
  Rh  Rh17  1  0.250000  0.245925  0.313702  1
  Rh  Rh18  1  0.750000  0.253605  0.812685  1
  Rh  Rh19  1  0.750000  0.750820  0.688363  1
  Rh  Rh20  1  0.250000  0.253459  0.563292  1
  Rh  Rh21  1  0.250000  0.745788  0.187594  1
  Rh  Rh22  1  0.750000  0.257480  0.064759  1
  Rh  Rh23  1  0.250000  0.744632  0.935319  1
