# generated using pymatgen
data_Y5(CoB3)2
_symmetry_space_group_name_H-M   'P 1'
_cell_length_a   5.41339421
_cell_length_b   5.41339470
_cell_length_c   8.43151707
_cell_angle_alpha   71.27529547
_cell_angle_beta   71.27529597
_cell_angle_gamma   59.99999041
_symmetry_Int_Tables_number   1
_chemical_formula_structural   Y5(CoB3)2
_chemical_formula_sum   'Y5 Co2 B6'
_cell_volume   198.73703519
_cell_formula_units_Z   1
loop_
 _symmetry_equiv_pos_site_id
 _symmetry_equiv_pos_as_xyz
  1  'x, y, z'
loop_
 _atom_site_type_symbol
 _atom_site_label
 _atom_site_symmetry_multiplicity
 _atom_site_fract_x
 _atom_site_fract_y
 _atom_site_fract_z
 _atom_site_occupancy
  Y  Y0  1  0.000000  0.000000  0.000000  1
  Y  Y1  1  0.250704  0.250704  0.247889  1
  Y  Y2  1  0.749296  0.749296  0.752111  1
  Y  Y3  1  0.416998  0.416998  0.749006  1
  Y  Y4  1  0.583002  0.583002  0.250994  1
  Co  Co5  1  0.120045  0.120045  0.639865  1
  Co  Co6  1  0.879955  0.879955  0.360135  1
  B  B7  1  0.168287  0.831713  0.500000  1
  B  B8  1  0.831713  0.500000  0.500000  1
  B  B9  1  0.500000  0.168287  0.500000  1
  B  B10  1  0.168287  0.500000  0.500000  1
  B  B11  1  0.500000  0.831713  0.500000  1
  B  B12  1  0.831713  0.168287  0.500000  1
