# generated using pymatgen
data_Lu16In6OsAu
_symmetry_space_group_name_H-M   'P 1'
_cell_length_a   10.30922100
_cell_length_b   10.30922051
_cell_length_c   6.84161600
_cell_angle_alpha   90.00000000
_cell_angle_beta   90.00000000
_cell_angle_gamma   119.99999837
_symmetry_Int_Tables_number   1
_chemical_formula_structural   Lu16In6OsAu
_chemical_formula_sum   'Lu16 In6 Os1 Au1'
_cell_volume   629.71061241
_cell_formula_units_Z   1
loop_
 _symmetry_equiv_pos_site_id
 _symmetry_equiv_pos_as_xyz
  1  'x, y, z'
loop_
 _atom_site_type_symbol
 _atom_site_label
 _atom_site_symmetry_multiplicity
 _atom_site_fract_x
 _atom_site_fract_y
 _atom_site_fract_z
 _atom_site_occupancy
  Lu  Lu0  1  0.524025  0.048050  0.528780  1
  Lu  Lu1  1  0.951950  0.475975  0.528780  1
  Lu  Lu2  1  0.524025  0.475975  0.528780  1
  Lu  Lu3  1  0.466514  0.933029  0.023209  1
  Lu  Lu4  1  0.066971  0.533486  0.023209  1
  Lu  Lu5  1  0.466514  0.533486  0.023209  1
  Lu  Lu6  1  0.176738  0.353476  0.733693  1
  Lu  Lu7  1  0.646524  0.823262  0.733693  1
  Lu  Lu8  1  0.176738  0.823262  0.733693  1
  Lu  Lu9  1  0.826231  0.652463  0.233388  1
  Lu  Lu10  1  0.347537  0.173769  0.233388  1
  Lu  Lu11  1  0.826231  0.173769  0.233388  1
  Lu  Lu12  1  0.666667  0.333333  0.889684  1
  Lu  Lu13  1  0.333333  0.666667  0.397723  1
  Lu  Lu14  1  0.000000  0.000000  0.505899  1
  Lu  Lu15  1  0.000000  0.000000  0.009233  1
  In  In16  1  0.836173  0.672346  0.765655  1
  In  In17  1  0.327654  0.163827  0.765655  1
  In  In18  1  0.836173  0.163827  0.765655  1
  In  In19  1  0.162437  0.324874  0.267252  1
  In  In20  1  0.675126  0.837563  0.267252  1
  In  In21  1  0.162437  0.837563  0.267252  1
  Os  Os22  1  0.333333  0.666667  0.796608  1
  Au  Au23  1  0.666667  0.333333  0.300597  1
