# generated using pymatgen
data_TiMn(Be4Ir)2
_symmetry_space_group_name_H-M   'P 1'
_cell_length_a   4.33075200
_cell_length_b   4.33075042
_cell_length_c   7.06677500
_cell_angle_alpha   90.00000000
_cell_angle_beta   90.00000000
_cell_angle_gamma   119.99999681
_symmetry_Int_Tables_number   1
_chemical_formula_structural   TiMn(Be4Ir)2
_chemical_formula_sum   'Ti1 Mn1 Be8 Ir2'
_cell_volume   114.78321377
_cell_formula_units_Z   1
loop_
 _symmetry_equiv_pos_site_id
 _symmetry_equiv_pos_as_xyz
  1  'x, y, z'
loop_
 _atom_site_type_symbol
 _atom_site_label
 _atom_site_symmetry_multiplicity
 _atom_site_fract_x
 _atom_site_fract_y
 _atom_site_fract_z
 _atom_site_occupancy
  Ti  Ti0  1  0.666667  0.333333  0.938568  1
  Mn  Mn1  1  0.333333  0.666667  0.442142  1
  Be  Be2  1  0.000000  0.000000  0.001610  1
  Be  Be3  1  0.000000  0.000000  0.496623  1
  Be  Be4  1  0.831888  0.663775  0.259553  1
  Be  Be5  1  0.170299  0.829701  0.738913  1
  Be  Be6  1  0.659403  0.829701  0.738913  1
  Be  Be7  1  0.336225  0.168112  0.259553  1
  Be  Be8  1  0.831888  0.168112  0.259553  1
  Be  Be9  1  0.170299  0.340597  0.738913  1
  Ir  Ir10  1  0.333333  0.666667  0.058805  1
  Ir  Ir11  1  0.666667  0.333333  0.566851  1
