# generated using pymatgen
data_Nd2Sn(PRh2)6
_symmetry_space_group_name_H-M   'P 1'
_cell_length_a   9.84254800
_cell_length_b   9.84254848
_cell_length_c   3.88995500
_cell_angle_alpha   90.00000000
_cell_angle_beta   90.00000000
_cell_angle_gamma   120.00001185
_symmetry_Int_Tables_number   1
_chemical_formula_structural   Nd2Sn(PRh2)6
_chemical_formula_sum   'Nd2 Sn1 P6 Rh12'
_cell_volume   326.35499264
_cell_formula_units_Z   1
loop_
 _symmetry_equiv_pos_site_id
 _symmetry_equiv_pos_as_xyz
  1  'x, y, z'
loop_
 _atom_site_type_symbol
 _atom_site_label
 _atom_site_symmetry_multiplicity
 _atom_site_fract_x
 _atom_site_fract_y
 _atom_site_fract_z
 _atom_site_occupancy
  Nd  Nd0  1  0.333333  0.666667  0.753112  1
  Nd  Nd1  1  0.666667  0.333333  0.246888  1
  Sn  Sn2  1  0.000000  0.000000  0.500000  1
  P  P3  1  0.885942  0.597140  0.747232  1
  P  P4  1  0.402860  0.288801  0.747232  1
  P  P5  1  0.711199  0.114058  0.747232  1
  P  P6  1  0.114058  0.402860  0.252768  1
  P  P7  1  0.597140  0.711199  0.252768  1
  P  P8  1  0.288801  0.885942  0.252768  1
  Rh  Rh9  1  0.614102  0.549493  0.748089  1
  Rh  Rh10  1  0.450507  0.064610  0.748089  1
  Rh  Rh11  1  0.935390  0.385898  0.748089  1
  Rh  Rh12  1  0.385898  0.450507  0.251911  1
  Rh  Rh13  1  0.549493  0.935390  0.251911  1
  Rh  Rh14  1  0.064610  0.614102  0.251911  1
  Rh  Rh15  1  0.125819  0.839733  0.759101  1
  Rh  Rh16  1  0.160267  0.286085  0.759101  1
  Rh  Rh17  1  0.713915  0.874181  0.759101  1
  Rh  Rh18  1  0.874181  0.160267  0.240899  1
  Rh  Rh19  1  0.839733  0.713915  0.240899  1
  Rh  Rh20  1  0.286085  0.125819  0.240899  1
