# generated using pymatgen
data_Nd4HoUSe10
_symmetry_space_group_name_H-M   'P 1'
_cell_length_a   7.87880700
_cell_length_b   8.37071800
_cell_length_c   12.49399800
_cell_angle_alpha   90.00000000
_cell_angle_beta   90.00000000
_cell_angle_gamma   90.00000000
_symmetry_Int_Tables_number   1
_chemical_formula_structural   Nd4HoUSe10
_chemical_formula_sum   'Nd8 Ho2 U2 Se20'
_cell_volume   823.99505514
_cell_formula_units_Z   2
loop_
 _symmetry_equiv_pos_site_id
 _symmetry_equiv_pos_as_xyz
  1  'x, y, z'
loop_
 _atom_site_type_symbol
 _atom_site_label
 _atom_site_symmetry_multiplicity
 _atom_site_fract_x
 _atom_site_fract_y
 _atom_site_fract_z
 _atom_site_occupancy
  Nd  Nd0  1  0.527785  0.501028  0.322010  1
  Nd  Nd1  1  0.972215  0.998972  0.822010  1
  Nd  Nd2  1  0.476584  0.996195  0.677960  1
  Nd  Nd3  1  0.023416  0.503805  0.177960  1
  Nd  Nd4  1  0.476584  0.503805  0.677960  1
  Nd  Nd5  1  0.023416  0.996195  0.177960  1
  Nd  Nd6  1  0.527785  0.998972  0.322010  1
  Nd  Nd7  1  0.972215  0.501028  0.822010  1
  Ho  Ho8  1  0.073810  0.750000  0.494406  1
  Ho  Ho9  1  0.426190  0.750000  0.994406  1
  U  U10  1  0.939765  0.250000  0.506427  1
  U  U11  1  0.560235  0.250000  0.006427  1
  Se  Se12  1  0.833988  0.964295  0.595916  1
  Se  Se13  1  0.666012  0.535705  0.095916  1
  Se  Se14  1  0.164106  0.454781  0.404834  1
  Se  Se15  1  0.335894  0.045219  0.904834  1
  Se  Se16  1  0.164106  0.045219  0.404834  1
  Se  Se17  1  0.335894  0.454781  0.904834  1
  Se  Se18  1  0.833988  0.535705  0.595916  1
  Se  Se19  1  0.666012  0.964295  0.095916  1
  Se  Se20  1  0.830415  0.750000  0.314895  1
  Se  Se21  1  0.669585  0.750000  0.814895  1
  Se  Se22  1  0.168820  0.250000  0.683493  1
  Se  Se23  1  0.331180  0.250000  0.183493  1
  Se  Se24  1  0.454678  0.750000  0.497747  1
  Se  Se25  1  0.045322  0.750000  0.997747  1
  Se  Se26  1  0.549049  0.250000  0.499205  1
  Se  Se27  1  0.950951  0.250000  0.999205  1
  Se  Se28  1  0.191980  0.750000  0.713278  1
  Se  Se29  1  0.308020  0.750000  0.213278  1
  Se  Se30  1  0.808808  0.250000  0.289112  1
  Se  Se31  1  0.691192  0.250000  0.789112  1
