# generated using pymatgen
data_TbDyGa2(SiIr2)2
_symmetry_space_group_name_H-M   'P 1'
_cell_length_a   4.11176200
_cell_length_b   4.11176200
_cell_length_c   10.36059800
_cell_angle_alpha   90.00000000
_cell_angle_beta   90.00000000
_cell_angle_gamma   90.00000000
_symmetry_Int_Tables_number   1
_chemical_formula_structural   TbDyGa2(SiIr2)2
_chemical_formula_sum   'Tb1 Dy1 Ga2 Si2 Ir4'
_cell_volume   175.16234881
_cell_formula_units_Z   1
loop_
 _symmetry_equiv_pos_site_id
 _symmetry_equiv_pos_as_xyz
  1  'x, y, z'
loop_
 _atom_site_type_symbol
 _atom_site_label
 _atom_site_symmetry_multiplicity
 _atom_site_fract_x
 _atom_site_fract_y
 _atom_site_fract_z
 _atom_site_occupancy
  Tb  Tb0  1  0.000000  0.500000  0.246358  1
  Dy  Dy1  1  0.500000  0.000000  0.753731  1
  Ga  Ga2  1  0.000000  0.000000  0.500117  1
  Ga  Ga3  1  0.500000  0.500000  0.500117  1
  Si  Si4  1  0.000000  0.500000  0.875738  1
  Si  Si5  1  0.500000  0.000000  0.124131  1
  Ir  Ir6  1  0.000000  0.000000  0.999820  1
  Ir  Ir7  1  0.500000  0.500000  0.999820  1
  Ir  Ir8  1  0.000000  0.500000  0.648482  1
  Ir  Ir9  1  0.500000  0.000000  0.351685  1
