# generated using pymatgen
data_CeHo5Co2
_symmetry_space_group_name_H-M   'P 1'
_cell_length_a   6.23045514
_cell_length_b   6.85714122
_cell_length_c   9.45945000
_cell_angle_alpha   90.00000000
_cell_angle_beta   90.00000000
_cell_angle_gamma   86.05462081
_symmetry_Int_Tables_number   1
_chemical_formula_structural   CeHo5Co2
_chemical_formula_sum   'Ce2 Ho10 Co4'
_cell_volume   403.17936447
_cell_formula_units_Z   2
loop_
 _symmetry_equiv_pos_site_id
 _symmetry_equiv_pos_as_xyz
  1  'x, y, z'
loop_
 _atom_site_type_symbol
 _atom_site_label
 _atom_site_symmetry_multiplicity
 _atom_site_fract_x
 _atom_site_fract_y
 _atom_site_fract_z
 _atom_site_occupancy
  Ce  Ce0  1  0.846570  0.942720  0.750000  1
  Ce  Ce1  1  0.153430  0.057280  0.250000  1
  Ho  Ho2  1  0.676084  0.173189  0.064791  1
  Ho  Ho3  1  0.362515  0.542321  0.250000  1
  Ho  Ho4  1  0.828052  0.672050  0.070910  1
  Ho  Ho5  1  0.171948  0.327950  0.929090  1
  Ho  Ho6  1  0.323916  0.826811  0.935209  1
  Ho  Ho7  1  0.637485  0.457679  0.750000  1
  Ho  Ho8  1  0.323916  0.826811  0.564791  1
  Ho  Ho9  1  0.171948  0.327950  0.570910  1
  Ho  Ho10  1  0.828052  0.672050  0.429090  1
  Ho  Ho11  1  0.676084  0.173189  0.435209  1
  Co  Co12  1  0.968758  0.356447  0.250000  1
  Co  Co13  1  0.482997  0.104121  0.750000  1
  Co  Co14  1  0.517003  0.895879  0.250000  1
  Co  Co15  1  0.031242  0.643553  0.750000  1
