# generated using pymatgen
data_Lu10Sc2Ru3Rh
_symmetry_space_group_name_H-M   'P 1'
_cell_length_a   6.12796158
_cell_length_b   7.10888524
_cell_length_c   8.91228000
_cell_angle_alpha   90.00000000
_cell_angle_beta   90.00000000
_cell_angle_gamma   90.01017040
_symmetry_Int_Tables_number   1
_chemical_formula_structural   Lu10Sc2Ru3Rh
_chemical_formula_sum   'Lu10 Sc2 Ru3 Rh1'
_cell_volume   388.24543038
_cell_formula_units_Z   1
loop_
 _symmetry_equiv_pos_site_id
 _symmetry_equiv_pos_as_xyz
  1  'x, y, z'
loop_
 _atom_site_type_symbol
 _atom_site_label
 _atom_site_symmetry_multiplicity
 _atom_site_fract_x
 _atom_site_fract_y
 _atom_site_fract_z
 _atom_site_occupancy
  Lu  Lu0  1  0.331219  0.674911  0.058216  1
  Lu  Lu1  1  0.170932  0.179555  0.441799  1
  Lu  Lu2  1  0.670060  0.322603  0.564718  1
  Lu  Lu3  1  0.827950  0.821754  0.932997  1
  Lu  Lu4  1  0.670060  0.322603  0.935282  1
  Lu  Lu5  1  0.827950  0.821754  0.567003  1
  Lu  Lu6  1  0.331219  0.674911  0.441784  1
  Lu  Lu7  1  0.170932  0.179555  0.058201  1
  Lu  Lu8  1  0.871795  0.537764  0.250000  1
  Lu  Lu9  1  0.629051  0.038204  0.250000  1
  Sc  Sc10  1  0.126824  0.458817  0.750000  1
  Sc  Sc11  1  0.370473  0.959347  0.750000  1
  Ru  Ru12  1  0.463308  0.385635  0.250000  1
  Ru  Ru13  1  0.973475  0.117347  0.750000  1
  Ru  Ru14  1  0.523454  0.618254  0.750000  1
  Rh  Rh15  1  0.041299  0.886988  0.250000  1
