# generated using pymatgen
data_K5Rb(InI4)6
_symmetry_space_group_name_H-M   'P 1'
_cell_length_a   9.80797133
_cell_length_b   15.06488958
_cell_length_c   15.07919266
_cell_angle_alpha   115.14893043
_cell_angle_beta   102.52123637
_cell_angle_gamma   102.62495877
_symmetry_Int_Tables_number   1
_chemical_formula_structural   K5Rb(InI4)6
_chemical_formula_sum   'K5 Rb1 In6 I24'
_cell_volume   1843.15423033
_cell_formula_units_Z   1
loop_
 _symmetry_equiv_pos_site_id
 _symmetry_equiv_pos_as_xyz
  1  'x, y, z'
loop_
 _atom_site_type_symbol
 _atom_site_label
 _atom_site_symmetry_multiplicity
 _atom_site_fract_x
 _atom_site_fract_y
 _atom_site_fract_z
 _atom_site_occupancy
  K  K0  1  0.308650  0.400474  0.181963  1
  K  K1  1  0.127138  0.818218  0.218827  1
  K  K2  1  0.808749  0.181221  0.399903  1
  K  K3  1  0.907257  0.779899  0.598384  1
  K  K4  1  0.407044  0.599199  0.780906  1
  Rb  Rb5  1  0.622941  0.217180  0.814106  1
  In  In6  1  0.818486  0.392938  0.183295  1
  In  In7  1  0.637354  0.820550  0.212046  1
  In  In8  1  0.317551  0.180166  0.391867  1
  In  In9  1  0.424395  0.786332  0.607020  1
  In  In10  1  0.925657  0.609516  0.788420  1
  In  In11  1  0.136179  0.212180  0.819083  1
  I  I12  1  0.711148  0.685367  0.053387  1
  I  I13  1  0.587599  0.203848  0.052325  1
  I  I14  1  0.956550  0.460400  0.069543  1
  I  I15  1  0.542614  0.955482  0.157116  1
  I  I16  1  0.088152  0.045808  0.202959  1
  I  I17  1  0.416537  0.709531  0.252167  1
  I  I18  1  0.707429  0.544058  0.290758  1
  I  I19  1  0.029421  0.367159  0.315632  1
  I  I20  1  0.527209  0.314959  0.367456  1
  I  I21  1  0.887882  0.934036  0.391872  1
  I  I22  1  0.164006  0.748332  0.457531  1
  I  I23  1  0.453917  0.065231  0.458036  1
  I  I24  1  0.493841  0.605658  0.542324  1
  I  I25  1  0.208647  0.290180  0.542912  1
  I  I26  1  0.994970  0.542453  0.607376  1
  I  I27  1  0.660838  0.943460  0.629603  1
  I  I28  1  0.202736  0.049004  0.683625  1
  I  I29  1  0.921412  0.254698  0.706070  1
  I  I30  1  0.663213  0.458011  0.746574  1
  I  I31  1  0.386298  0.843096  0.797197  1
  I  I32  1  0.885649  0.798695  0.842339  1
  I  I33  1  0.386753  0.392629  0.935966  1
  I  I34  1  0.041924  0.157630  0.954471  1
  I  I35  1  0.159053  0.632402  0.946937  1
