# generated using pymatgen
data_Tb6Tm10MgCd3Ir4
_symmetry_space_group_name_H-M   'P 1'
_cell_length_a   9.61490215
_cell_length_b   9.61490324
_cell_length_c   9.61490265
_cell_angle_alpha   59.71475350
_cell_angle_beta   59.71475232
_cell_angle_gamma   59.71475881
_symmetry_Int_Tables_number   1
_chemical_formula_structural   Tb6Tm10MgCd3Ir4
_chemical_formula_sum   'Tb6 Tm10 Mg1 Cd3 Ir4'
_cell_volume   624.44882438
_cell_formula_units_Z   1
loop_
 _symmetry_equiv_pos_site_id
 _symmetry_equiv_pos_as_xyz
  1  'x, y, z'
loop_
 _atom_site_type_symbol
 _atom_site_label
 _atom_site_symmetry_multiplicity
 _atom_site_fract_x
 _atom_site_fract_y
 _atom_site_fract_z
 _atom_site_occupancy
  Tb  Tb0  1  0.190222  0.811237  0.811237  1
  Tb  Tb1  1  0.810077  0.189676  0.189676  1
  Tb  Tb2  1  0.811237  0.190222  0.811237  1
  Tb  Tb3  1  0.189676  0.810077  0.189676  1
  Tb  Tb4  1  0.811237  0.811237  0.190222  1
  Tb  Tb5  1  0.189676  0.189676  0.810077  1
  Tm  Tm6  1  0.598833  0.598833  0.598833  1
  Tm  Tm7  1  0.598037  0.598037  0.208039  1
  Tm  Tm8  1  0.598037  0.208039  0.598037  1
  Tm  Tm9  1  0.208039  0.598037  0.598037  1
  Tm  Tm10  1  0.060297  0.438873  0.438873  1
  Tm  Tm11  1  0.435115  0.062527  0.062527  1
  Tm  Tm12  1  0.438873  0.060297  0.438873  1
  Tm  Tm13  1  0.062527  0.435115  0.062527  1
  Tm  Tm14  1  0.438873  0.438873  0.060297  1
  Tm  Tm15  1  0.062527  0.062527  0.435115  1
  Mg  Mg16  1  0.824902  0.824902  0.824902  1
  Cd  Cd17  1  0.831072  0.831072  0.506309  1
  Cd  Cd18  1  0.831072  0.506309  0.831072  1
  Cd  Cd19  1  0.506309  0.831072  0.831072  1
  Ir  Ir20  1  0.391715  0.391715  0.391715  1
  Ir  Ir21  1  0.392935  0.392935  0.825777  1
  Ir  Ir22  1  0.392935  0.825777  0.392935  1
  Ir  Ir23  1  0.825777  0.392935  0.392935  1
