# generated using pymatgen
data_Zr2V3Ni9As7
_symmetry_space_group_name_H-M   'P 1'
_cell_length_a   9.42074300
_cell_length_b   9.42074296
_cell_length_c   3.71751000
_cell_angle_alpha   90.00000000
_cell_angle_beta   90.00000000
_cell_angle_gamma   120.00000272
_symmetry_Int_Tables_number   1
_chemical_formula_structural   Zr2V3Ni9As7
_chemical_formula_sum   'Zr2 V3 Ni9 As7'
_cell_volume   285.72818065
_cell_formula_units_Z   1
loop_
 _symmetry_equiv_pos_site_id
 _symmetry_equiv_pos_as_xyz
  1  'x, y, z'
loop_
 _atom_site_type_symbol
 _atom_site_label
 _atom_site_symmetry_multiplicity
 _atom_site_fract_x
 _atom_site_fract_y
 _atom_site_fract_z
 _atom_site_occupancy
  Zr  Zr0  1  0.333333  0.666667  0.000000  1
  Zr  Zr1  1  0.000000  0.000000  0.500000  1
  V  V2  1  0.766093  0.553765  0.500000  1
  V  V3  1  0.446235  0.212327  0.500000  1
  V  V4  1  0.787673  0.233907  0.500000  1
  Ni  Ni5  1  0.284310  0.388529  0.500000  1
  Ni  Ni6  1  0.611471  0.895781  0.500000  1
  Ni  Ni7  1  0.104219  0.715690  0.500000  1
  Ni  Ni8  1  0.506098  0.456585  0.000000  1
  Ni  Ni9  1  0.543415  0.049513  0.000000  1
  Ni  Ni10  1  0.950487  0.493902  0.000000  1
  Ni  Ni11  1  0.724235  0.767723  0.000000  1
  Ni  Ni12  1  0.232277  0.956512  0.000000  1
  Ni  Ni13  1  0.043488  0.275765  0.000000  1
  As  As14  1  0.958370  0.748374  0.000000  1
  As  As15  1  0.251626  0.209996  0.000000  1
  As  As16  1  0.790004  0.041630  0.000000  1
  As  As17  1  0.666667  0.333333  0.000000  1
  As  As18  1  0.546651  0.625220  0.500000  1
  As  As19  1  0.374780  0.921431  0.500000  1
  As  As20  1  0.078569  0.453349  0.500000  1
