# generated using pymatgen
data_DyHo9(RuPb3)2
_symmetry_space_group_name_H-M   'P 1'
_cell_length_a   9.29994900
_cell_length_b   9.29994867
_cell_length_c   6.55820300
_cell_angle_alpha   90.00000000
_cell_angle_beta   90.00000000
_cell_angle_gamma   119.99999760
_symmetry_Int_Tables_number   1
_chemical_formula_structural   DyHo9(RuPb3)2
_chemical_formula_sum   'Dy1 Ho9 Ru2 Pb6'
_cell_volume   491.22065101
_cell_formula_units_Z   1
loop_
 _symmetry_equiv_pos_site_id
 _symmetry_equiv_pos_as_xyz
  1  'x, y, z'
loop_
 _atom_site_type_symbol
 _atom_site_label
 _atom_site_symmetry_multiplicity
 _atom_site_fract_x
 _atom_site_fract_y
 _atom_site_fract_z
 _atom_site_occupancy
  Dy  Dy0  1  0.333333  0.666667  0.500000  1
  Ho  Ho1  1  0.999962  0.763618  0.749997  1
  Ho  Ho2  1  0.763657  0.763618  0.250003  1
  Ho  Ho3  1  0.763657  0.000038  0.749997  1
  Ho  Ho4  1  0.236382  0.000038  0.250003  1
  Ho  Ho5  1  0.666667  0.333333  0.500000  1
  Ho  Ho6  1  0.236382  0.236343  0.749997  1
  Ho  Ho7  1  0.333333  0.666667  0.000000  1
  Ho  Ho8  1  0.999962  0.236343  0.250003  1
  Ho  Ho9  1  0.666667  0.333333  0.000000  1
  Ru  Ru10  1  0.000000  0.000000  0.000000  1
  Ru  Ru11  1  0.000000  0.000000  0.500000  1
  Pb  Pb12  1  0.402391  0.402218  0.249856  1
  Pb  Pb13  1  0.597782  0.597609  0.750144  1
  Pb  Pb14  1  0.597782  0.000173  0.249856  1
  Pb  Pb15  1  0.402391  0.000173  0.750144  1
  Pb  Pb16  1  0.999827  0.597609  0.249856  1
  Pb  Pb17  1  0.999827  0.402218  0.750144  1
