# generated using pymatgen
data_HoScP7Ru11Rh
_symmetry_space_group_name_H-M   'P 1'
_cell_length_a   9.36082100
_cell_length_b   9.41016526
_cell_length_c   3.92562400
_cell_angle_alpha   90.00000000
_cell_angle_beta   90.00000000
_cell_angle_gamma   119.66727779
_symmetry_Int_Tables_number   1
_chemical_formula_structural   HoScP7Ru11Rh
_chemical_formula_sum   'Ho1 Sc1 P7 Ru11 Rh1'
_cell_volume   300.46705002
_cell_formula_units_Z   1
loop_
 _symmetry_equiv_pos_site_id
 _symmetry_equiv_pos_as_xyz
  1  'x, y, z'
loop_
 _atom_site_type_symbol
 _atom_site_label
 _atom_site_symmetry_multiplicity
 _atom_site_fract_x
 _atom_site_fract_y
 _atom_site_fract_z
 _atom_site_occupancy
  Ho  Ho0  1  0.331052  0.662215  0.000000  1
  Sc  Sc1  1  0.669084  0.335658  0.500000  1
  P  P2  1  0.599568  0.713583  0.500000  1
  P  P3  1  0.997523  0.999753  0.000000  1
  P  P4  1  0.278478  0.880525  0.500000  1
  P  P5  1  0.118373  0.400404  0.500000  1
  P  P6  1  0.884087  0.574373  0.000000  1
  P  P7  1  0.428939  0.309853  0.000000  1
  P  P8  1  0.695150  0.122472  0.000000  1
  Ru  Ru9  1  0.393185  0.441463  0.500000  1
  Ru  Ru10  1  0.912811  0.124110  0.500000  1
  Ru  Ru11  1  0.210070  0.086895  0.500000  1
  Ru  Ru12  1  0.877710  0.793710  0.500000  1
  Ru  Ru13  1  0.723439  0.891080  0.000000  1
  Ru  Ru14  1  0.109494  0.837363  0.000000  1
  Ru  Ru15  1  0.164177  0.271088  0.000000  1
  Ru  Ru16  1  0.430240  0.069628  0.000000  1
  Ru  Ru17  1  0.932700  0.360321  0.000000  1
  Ru  Ru18  1  0.642505  0.573121  0.000000  1
  Ru  Ru19  1  0.049952  0.606922  0.500000  1
  Rh  Rh20  1  0.551463  0.945462  0.500000  1
