# generated using pymatgen
data_LiTi2Ag3F12
_symmetry_space_group_name_H-M   'P 1'
_cell_length_a   5.37515000
_cell_length_b   5.37515000
_cell_length_c   19.06834100
_cell_angle_alpha   90.00000000
_cell_angle_beta   90.00000000
_cell_angle_gamma   90.00000000
_symmetry_Int_Tables_number   1
_chemical_formula_structural   LiTi2Ag3F12
_chemical_formula_sum   'Li2 Ti4 Ag6 F24'
_cell_volume   550.92703733
_cell_formula_units_Z   2
loop_
 _symmetry_equiv_pos_site_id
 _symmetry_equiv_pos_as_xyz
  1  'x, y, z'
loop_
 _atom_site_type_symbol
 _atom_site_label
 _atom_site_symmetry_multiplicity
 _atom_site_fract_x
 _atom_site_fract_y
 _atom_site_fract_z
 _atom_site_occupancy
  Li  Li0  1  0.000000  0.000000  0.000000  1
  Li  Li1  1  0.500000  0.500000  0.500000  1
  Ti  Ti2  1  0.000000  0.500000  0.122730  1
  Ti  Ti3  1  0.500000  0.000000  0.877270  1
  Ti  Ti4  1  0.500000  0.000000  0.377270  1
  Ti  Ti5  1  0.000000  0.500000  0.622730  1
  Ag  Ag6  1  0.000000  0.500000  0.312472  1
  Ag  Ag7  1  0.500000  0.000000  0.687528  1
  Ag  Ag8  1  0.500000  0.000000  0.187528  1
  Ag  Ag9  1  0.000000  0.500000  0.812472  1
  Ag  Ag10  1  0.000000  0.000000  0.500000  1
  Ag  Ag11  1  0.500000  0.500000  0.000000  1
  F  F12  1  0.207722  0.193009  0.384565  1
  F  F13  1  0.792278  0.806991  0.384565  1
  F  F14  1  0.193009  0.792278  0.615435  1
  F  F15  1  0.292278  0.693009  0.115435  1
  F  F16  1  0.806991  0.207722  0.615435  1
  F  F17  1  0.707722  0.306991  0.115435  1
  F  F18  1  0.306991  0.292278  0.884565  1
  F  F19  1  0.693009  0.707722  0.884565  1
  F  F20  1  0.141498  0.301907  0.193597  1
  F  F21  1  0.858502  0.698093  0.193597  1
  F  F22  1  0.301907  0.858502  0.806403  1
  F  F23  1  0.358502  0.801907  0.306403  1
  F  F24  1  0.698093  0.141498  0.806403  1
  F  F25  1  0.641498  0.198093  0.306403  1
  F  F26  1  0.198093  0.358502  0.693597  1
  F  F27  1  0.801907  0.641498  0.693597  1
  F  F28  1  0.132059  0.278714  0.051897  1
  F  F29  1  0.867941  0.721286  0.051897  1
  F  F30  1  0.278714  0.867941  0.948103  1
  F  F31  1  0.367941  0.778714  0.448103  1
  F  F32  1  0.721286  0.132059  0.948103  1
  F  F33  1  0.632059  0.221286  0.448103  1
  F  F34  1  0.221286  0.367941  0.551897  1
  F  F35  1  0.778714  0.632059  0.551897  1
