# generated using pymatgen
data_Cs3SeO4F
_symmetry_space_group_name_H-M   'P 1'
_cell_length_a   8.60251639
_cell_length_b   8.60251709
_cell_length_c   8.60251717
_cell_angle_alpha   122.62670751
_cell_angle_beta   122.62670834
_cell_angle_gamma   85.50760276
_symmetry_Int_Tables_number   1
_chemical_formula_structural   Cs3SeO4F
_chemical_formula_sum   'Cs6 Se2 O8 F2'
_cell_volume   430.83773837
_cell_formula_units_Z   2
loop_
 _symmetry_equiv_pos_site_id
 _symmetry_equiv_pos_as_xyz
  1  'x, y, z'
loop_
 _atom_site_type_symbol
 _atom_site_label
 _atom_site_symmetry_multiplicity
 _atom_site_fract_x
 _atom_site_fract_y
 _atom_site_fract_z
 _atom_site_occupancy
  Cs  Cs0  1  0.750000  0.750000  0.000000  1
  Cs  Cs1  1  0.250000  0.250000  0.000000  1
  Cs  Cs2  1  0.810136  0.310136  0.120272  1
  Cs  Cs3  1  0.310136  0.189864  0.500000  1
  Cs  Cs4  1  0.689864  0.810136  0.500000  1
  Cs  Cs5  1  0.189864  0.689864  0.879728  1
  Se  Se6  1  0.250000  0.750000  0.500000  1
  Se  Se7  1  0.750000  0.250000  0.500000  1
  O  O8  1  0.555194  0.055194  0.266241  1
  O  O9  1  0.211047  0.711047  0.266241  1
  O  O10  1  0.444806  0.944806  0.733759  1
  O  O11  1  0.944806  0.211047  0.500000  1
  O  O12  1  0.711047  0.444806  0.500000  1
  O  O13  1  0.055194  0.788953  0.500000  1
  O  O14  1  0.288953  0.555194  0.500000  1
  O  O15  1  0.788953  0.288953  0.733759  1
  F  F16  1  0.500000  0.500000  0.000000  1
  F  F17  1  0.000000  0.000000  0.000000  1
