# generated using pymatgen
data_Ti9Nb8Si16Mo3
_symmetry_space_group_name_H-M   'P 1'
_cell_length_a   6.47549992
_cell_length_b   6.58044036
_cell_length_c   12.84669700
_cell_angle_alpha   90.00000000
_cell_angle_beta   90.00000000
_cell_angle_gamma   89.92093323
_symmetry_Int_Tables_number   1
_chemical_formula_structural   Ti9Nb8Si16Mo3
_chemical_formula_sum   'Ti9 Nb8 Si16 Mo3'
_cell_volume   547.41831984
_cell_formula_units_Z   1
loop_
 _symmetry_equiv_pos_site_id
 _symmetry_equiv_pos_as_xyz
  1  'x, y, z'
loop_
 _atom_site_type_symbol
 _atom_site_label
 _atom_site_symmetry_multiplicity
 _atom_site_fract_x
 _atom_site_fract_y
 _atom_site_fract_z
 _atom_site_occupancy
  Ti  Ti0  1  0.162297  0.493126  0.750000  1
  Ti  Ti1  1  0.335835  0.168534  0.625171  1
  Ti  Ti2  1  0.662189  0.833550  0.374522  1
  Ti  Ti3  1  0.163735  0.666790  0.374229  1
  Ti  Ti4  1  0.662189  0.833550  0.125478  1
  Ti  Ti5  1  0.838987  0.332350  0.625035  1
  Ti  Ti6  1  0.335835  0.168534  0.874829  1
  Ti  Ti7  1  0.838987  0.332350  0.874965  1
  Ti  Ti8  1  0.163735  0.666790  0.125771  1
  Nb  Nb9  1  0.992139  0.173651  0.087451  1
  Nb  Nb10  1  0.008424  0.825615  0.910507  1
  Nb  Nb11  1  0.504956  0.673417  0.911527  1
  Nb  Nb12  1  0.008424  0.825615  0.589493  1
  Nb  Nb13  1  0.493956  0.326386  0.086605  1
  Nb  Nb14  1  0.992139  0.173651  0.412549  1
  Nb  Nb15  1  0.493956  0.326386  0.413395  1
  Nb  Nb16  1  0.504956  0.673417  0.588473  1
  Si  Si17  1  0.037106  0.108476  0.750000  1
  Si  Si18  1  0.962989  0.893897  0.250000  1
  Si  Si19  1  0.463837  0.605688  0.250000  1
  Si  Si20  1  0.537100  0.390759  0.750000  1
  Si  Si21  1  0.300859  0.852647  0.750000  1
  Si  Si22  1  0.698360  0.151980  0.250000  1
  Si  Si23  1  0.199606  0.348699  0.250000  1
  Si  Si24  1  0.800065  0.647873  0.750000  1
  Si  Si25  1  0.173902  0.462255  0.538297  1
  Si  Si26  1  0.825814  0.538497  0.461242  1
  Si  Si27  1  0.325021  0.962137  0.461716  1
  Si  Si28  1  0.825814  0.538497  0.038758  1
  Si  Si29  1  0.674214  0.037491  0.539775  1
  Si  Si30  1  0.173902  0.462255  0.961703  1
  Si  Si31  1  0.674214  0.037491  0.960225  1
  Si  Si32  1  0.325021  0.962137  0.038284  1
  Mo  Mo33  1  0.838280  0.507682  0.250000  1
  Mo  Mo34  1  0.337567  0.991929  0.250000  1
  Mo  Mo35  1  0.663591  0.005903  0.750000  1
