# generated using pymatgen
data_Y2Tc2OsRu
_symmetry_space_group_name_H-M   'P 1'
_cell_length_a   5.31074300
_cell_length_b   5.27168246
_cell_length_c   9.11711900
_cell_angle_alpha   90.00000000
_cell_angle_beta   90.00000000
_cell_angle_gamma   120.24541480
_symmetry_Int_Tables_number   1
_chemical_formula_structural   Y2Tc2OsRu
_chemical_formula_sum   'Y4 Tc4 Os2 Ru2'
_cell_volume   220.50247517
_cell_formula_units_Z   2
loop_
 _symmetry_equiv_pos_site_id
 _symmetry_equiv_pos_as_xyz
  1  'x, y, z'
loop_
 _atom_site_type_symbol
 _atom_site_label
 _atom_site_symmetry_multiplicity
 _atom_site_fract_x
 _atom_site_fract_y
 _atom_site_fract_z
 _atom_site_occupancy
  Y  Y0  1  0.334376  0.666228  0.433905  1
  Y  Y1  1  0.668149  0.333772  0.566095  1
  Y  Y2  1  0.668149  0.333772  0.933905  1
  Y  Y3  1  0.334376  0.666228  0.066095  1
  Tc  Tc4  1  0.168128  0.339692  0.750000  1
  Tc  Tc5  1  0.167814  0.830274  0.750000  1
  Tc  Tc6  1  0.337540  0.169726  0.250000  1
  Tc  Tc7  1  0.828436  0.660308  0.250000  1
  Os  Os8  1  0.654081  0.827740  0.750000  1
  Os  Os9  1  0.826342  0.172260  0.250000  1
  Ru  Ru10  1  0.006304  0.000000  0.000000  1
  Ru  Ru11  1  0.006304  0.000000  0.500000  1
