# generated using pymatgen
data_Na(Nb3Se4)4
_symmetry_space_group_name_H-M   'P 1'
_cell_length_a   6.98602475
_cell_length_b   10.16632514
_cell_length_c   10.77100339
_cell_angle_alpha   118.27108768
_cell_angle_beta   108.92443422
_cell_angle_gamma   89.99134975
_symmetry_Int_Tables_number   1
_chemical_formula_structural   Na(Nb3Se4)4
_chemical_formula_sum   'Na1 Nb12 Se16'
_cell_volume   626.40814096
_cell_formula_units_Z   1
loop_
 _symmetry_equiv_pos_site_id
 _symmetry_equiv_pos_as_xyz
  1  'x, y, z'
loop_
 _atom_site_type_symbol
 _atom_site_label
 _atom_site_symmetry_multiplicity
 _atom_site_fract_x
 _atom_site_fract_y
 _atom_site_fract_z
 _atom_site_occupancy
  Na  Na0  1  0.500000  0.000000  0.000000  1
  Nb  Nb1  1  0.929318  0.488626  0.107493  1
  Nb  Nb2  1  0.427781  0.488759  0.106506  1
  Nb  Nb3  1  0.129373  0.618968  0.511675  1
  Nb  Nb4  1  0.632688  0.619192  0.511541  1
  Nb  Nb5  1  0.067503  0.892502  0.381112  1
  Nb  Nb6  1  0.564255  0.893059  0.381601  1
  Nb  Nb7  1  0.572219  0.511241  0.893494  1
  Nb  Nb8  1  0.070682  0.511374  0.892507  1
  Nb  Nb9  1  0.367312  0.380808  0.488459  1
  Nb  Nb10  1  0.870627  0.381032  0.488325  1
  Nb  Nb11  1  0.435745  0.106941  0.618399  1
  Nb  Nb12  1  0.932497  0.107498  0.618888  1
  Se  Se13  1  0.514280  0.339517  0.280527  1
  Se  Se14  1  0.015580  0.340909  0.280544  1
  Se  Se15  1  0.704938  0.939132  0.658852  1
  Se  Se16  1  0.204318  0.940958  0.660265  1
  Se  Se17  1  0.403445  0.720061  0.058840  1
  Se  Se18  1  0.905307  0.719438  0.060267  1
  Se  Se19  1  0.984420  0.659091  0.719456  1
  Se  Se20  1  0.485720  0.660483  0.719473  1
  Se  Se21  1  0.795682  0.059042  0.339735  1
  Se  Se22  1  0.295062  0.060868  0.341148  1
  Se  Se23  1  0.094693  0.280562  0.939733  1
  Se  Se24  1  0.596555  0.279939  0.941160  1
  Se  Se25  1  0.707805  0.333617  0.666523  1
  Se  Se26  1  0.208720  0.333150  0.666944  1
  Se  Se27  1  0.791280  0.666850  0.333056  1
  Se  Se28  1  0.292195  0.666383  0.333477  1
