# generated using pymatgen
data_La4NdIrOs
_symmetry_space_group_name_H-M   'P 1'
_cell_length_a   9.16465400
_cell_length_b   9.16465303
_cell_length_c   7.41227199
_cell_angle_alpha   84.82106260
_cell_angle_beta   84.82106263
_cell_angle_gamma   43.00092152
_symmetry_Int_Tables_number   1
_chemical_formula_structural   La4NdIrOs
_chemical_formula_sum   'La8 Nd2 Ir2 Os2'
_cell_volume   422.59145828
_cell_formula_units_Z   2
loop_
 _symmetry_equiv_pos_site_id
 _symmetry_equiv_pos_as_xyz
  1  'x, y, z'
loop_
 _atom_site_type_symbol
 _atom_site_label
 _atom_site_symmetry_multiplicity
 _atom_site_fract_x
 _atom_site_fract_y
 _atom_site_fract_z
 _atom_site_occupancy
  La  La0  1  0.017126  0.801490  0.909767  1
  La  La1  1  0.198510  0.982874  0.590233  1
  La  La2  1  0.990413  0.192132  0.086513  1
  La  La3  1  0.807868  0.009587  0.413487  1
  La  La4  1  0.355018  0.214059  0.816945  1
  La  La5  1  0.785941  0.644982  0.683055  1
  La  La6  1  0.638459  0.787348  0.179714  1
  La  La7  1  0.212652  0.361541  0.320286  1
  Nd  Nd8  1  0.568926  0.431074  0.750000  1
  Nd  Nd9  1  0.432200  0.567800  0.250000  1
  Ir  Ir10  1  0.823275  0.402137  0.421338  1
  Ir  Ir11  1  0.597863  0.176725  0.078662  1
  Os  Os12  1  0.174202  0.602451  0.576917  1
  Os  Os13  1  0.397549  0.825798  0.923083  1
