# generated using pymatgen
data_Nd5Dy2Ho(Si3Rh)4
_symmetry_space_group_name_H-M   'P 1'
_cell_length_a   8.24298605
_cell_length_b   8.24298622
_cell_length_c   8.17751200
_cell_angle_alpha   90.00000000
_cell_angle_beta   90.00000000
_cell_angle_gamma   119.98775859
_symmetry_Int_Tables_number   1
_chemical_formula_structural   Nd5Dy2Ho(Si3Rh)4
_chemical_formula_sum   'Nd5 Dy2 Ho1 Si12 Rh4'
_cell_volume   481.25418435
_cell_formula_units_Z   1
loop_
 _symmetry_equiv_pos_site_id
 _symmetry_equiv_pos_as_xyz
  1  'x, y, z'
loop_
 _atom_site_type_symbol
 _atom_site_label
 _atom_site_symmetry_multiplicity
 _atom_site_fract_x
 _atom_site_fract_y
 _atom_site_fract_z
 _atom_site_occupancy
  Nd  Nd0  1  0.000030  0.999970  0.250000  1
  Nd  Nd1  1  0.999991  0.000009  0.750000  1
  Nd  Nd2  1  0.504426  0.495574  0.250000  1
  Nd  Nd3  1  0.504436  0.008911  0.250000  1
  Nd  Nd4  1  0.991089  0.495564  0.250000  1
  Dy  Dy5  1  0.492808  0.985520  0.750000  1
  Dy  Dy6  1  0.014480  0.507192  0.750000  1
  Ho  Ho7  1  0.492865  0.507135  0.750000  1
  Si  Si8  1  0.166638  0.833362  0.506046  1
  Si  Si9  1  0.166829  0.333379  0.506243  1
  Si  Si10  1  0.666621  0.833171  0.506243  1
  Si  Si11  1  0.831773  0.168227  0.503345  1
  Si  Si12  1  0.831658  0.663512  0.503414  1
  Si  Si13  1  0.336488  0.168342  0.503414  1
  Si  Si14  1  0.831773  0.168227  0.996655  1
  Si  Si15  1  0.831658  0.663512  0.996586  1
  Si  Si16  1  0.336488  0.168342  0.996586  1
  Si  Si17  1  0.166638  0.833362  0.993954  1
  Si  Si18  1  0.166829  0.333379  0.993757  1
  Si  Si19  1  0.666621  0.833171  0.993757  1
  Rh  Rh20  1  0.333459  0.666541  0.491716  1
  Rh  Rh21  1  0.666473  0.333527  0.543132  1
  Rh  Rh22  1  0.666473  0.333527  0.956868  1
  Rh  Rh23  1  0.333459  0.666541  0.008284  1
