# generated using pymatgen
data_NaSr2Ca(CrN3)2
_symmetry_space_group_name_H-M   'P 1'
_cell_length_a   6.05937543
_cell_length_b   6.05937141
_cell_length_c   12.10220045
_cell_angle_alpha   88.94728726
_cell_angle_beta   91.05279045
_cell_angle_gamma   124.85992814
_symmetry_Int_Tables_number   1
_chemical_formula_structural   NaSr2Ca(CrN3)2
_chemical_formula_sum   'Na2 Sr4 Ca2 Cr4 N12'
_cell_volume   364.52933938
_cell_formula_units_Z   2
loop_
 _symmetry_equiv_pos_site_id
 _symmetry_equiv_pos_as_xyz
  1  'x, y, z'
loop_
 _atom_site_type_symbol
 _atom_site_label
 _atom_site_symmetry_multiplicity
 _atom_site_fract_x
 _atom_site_fract_y
 _atom_site_fract_z
 _atom_site_occupancy
  Na  Na0  1  0.553783  0.446216  0.632728  1
  Na  Na1  1  0.446217  0.553784  0.367272  1
  Sr  Sr2  1  0.953282  0.046717  0.147978  1
  Sr  Sr3  1  0.046718  0.953283  0.852022  1
  Sr  Sr4  1  0.854056  0.145943  0.582671  1
  Sr  Sr5  1  0.145944  0.854057  0.417329  1
  Ca  Ca6  1  0.644529  0.355469  0.080166  1
  Ca  Ca7  1  0.355471  0.644531  0.919834  1
  Cr  Cr8  1  0.735336  0.264665  0.844501  1
  Cr  Cr9  1  0.264664  0.735335  0.155499  1
  Cr  Cr10  1  0.757518  0.242483  0.331189  1
  Cr  Cr11  1  0.242482  0.757517  0.668811  1
  N  N12  1  0.834391  0.165609  0.961321  1
  N  N13  1  0.165609  0.834391  0.038679  1
  N  N14  1  0.663439  0.336560  0.443326  1
  N  N15  1  0.336561  0.663440  0.556674  1
  N  N16  1  0.580441  0.419559  0.878402  1
  N  N17  1  0.419559  0.580441  0.121598  1
  N  N18  1  0.911256  0.088743  0.369212  1
  N  N19  1  0.088744  0.911257  0.630788  1
  N  N20  1  0.524356  0.974804  0.761039  1
  N  N21  1  0.974804  0.524356  0.238961  1
  N  N22  1  0.475644  0.025196  0.238961  1
  N  N23  1  0.025196  0.475644  0.761039  1
