# generated using pymatgen
data_Tb3Nd2Bi3C
_symmetry_space_group_name_H-M   'P 1'
_cell_length_a   9.36531300
_cell_length_b   9.36531314
_cell_length_c   6.55930800
_cell_angle_alpha   90.00000000
_cell_angle_beta   90.00000000
_cell_angle_gamma   119.99998891
_symmetry_Int_Tables_number   1
_chemical_formula_structural   Tb3Nd2Bi3C
_chemical_formula_sum   'Tb6 Nd4 Bi6 C2'
_cell_volume   498.23393482
_cell_formula_units_Z   2
loop_
 _symmetry_equiv_pos_site_id
 _symmetry_equiv_pos_as_xyz
  1  'x, y, z'
loop_
 _atom_site_type_symbol
 _atom_site_label
 _atom_site_symmetry_multiplicity
 _atom_site_fract_x
 _atom_site_fract_y
 _atom_site_fract_z
 _atom_site_occupancy
  Tb  Tb0  1  0.795000  0.795000  0.750000  1
  Tb  Tb1  1  0.205000  0.000000  0.750000  1
  Tb  Tb2  1  0.000000  0.205000  0.750000  1
  Tb  Tb3  1  0.205000  0.205000  0.250000  1
  Tb  Tb4  1  0.795000  0.000000  0.250000  1
  Tb  Tb5  1  0.000000  0.795000  0.250000  1
  Nd  Nd6  1  0.666667  0.333333  0.000000  1
  Nd  Nd7  1  0.333333  0.666667  0.000000  1
  Nd  Nd8  1  0.333333  0.666667  0.500000  1
  Nd  Nd9  1  0.666667  0.333333  0.500000  1
  Bi  Bi10  1  0.395480  0.395480  0.750000  1
  Bi  Bi11  1  0.604520  0.000000  0.750000  1
  Bi  Bi12  1  0.000000  0.604520  0.750000  1
  Bi  Bi13  1  0.604520  0.604520  0.250000  1
  Bi  Bi14  1  0.395480  0.000000  0.250000  1
  Bi  Bi15  1  0.000000  0.395480  0.250000  1
  C  C16  1  0.000000  0.000000  0.000000  1
  C  C17  1  0.000000  0.000000  0.500000  1
