# generated using pymatgen
data_MnCoMo3AsN
_symmetry_space_group_name_H-M   'P 1'
_cell_length_a   7.90003226
_cell_length_b   7.89929097
_cell_length_c   7.90015806
_cell_angle_alpha   60.01228028
_cell_angle_beta   60.00838614
_cell_angle_gamma   60.01944368
_symmetry_Int_Tables_number   1
_chemical_formula_structural   MnCoMo3AsN
_chemical_formula_sum   'Mn4 Co4 Mo12 As4 N4'
_cell_volume   348.71398704
_cell_formula_units_Z   4
loop_
 _symmetry_equiv_pos_site_id
 _symmetry_equiv_pos_as_xyz
  1  'x, y, z'
loop_
 _atom_site_type_symbol
 _atom_site_label
 _atom_site_symmetry_multiplicity
 _atom_site_fract_x
 _atom_site_fract_y
 _atom_site_fract_z
 _atom_site_occupancy
  Mn  Mn0  1  0.237579  0.920790  0.920730  1
  Mn  Mn1  1  0.920616  0.237713  0.920706  1
  Mn  Mn2  1  0.920651  0.920867  0.920755  1
  Mn  Mn3  1  0.920639  0.920791  0.237647  1
  Co  Co4  1  0.987891  0.337365  0.337374  1
  Co  Co5  1  0.337444  0.337459  0.987660  1
  Co  Co6  1  0.337554  0.987408  0.337570  1
  Co  Co7  1  0.337655  0.337572  0.337648  1
  Mo  Mo8  1  0.701491  0.298635  0.701270  1
  Mo  Mo9  1  0.562749  0.563001  0.937117  1
  Mo  Mo10  1  0.562807  0.937107  0.562963  1
  Mo  Mo11  1  0.937206  0.937146  0.562867  1
  Mo  Mo12  1  0.937184  0.562889  0.562796  1
  Mo  Mo13  1  0.937185  0.562937  0.937116  1
  Mo  Mo14  1  0.701573  0.298506  0.298630  1
  Mo  Mo15  1  0.298474  0.701592  0.298365  1
  Mo  Mo16  1  0.298622  0.298395  0.701527  1
  Mo  Mo17  1  0.298686  0.701410  0.701463  1
  Mo  Mo18  1  0.701512  0.701250  0.298693  1
  Mo  Mo19  1  0.562777  0.937189  0.937178  1
  As  As20  1  0.606090  0.131280  0.131217  1
  As  As21  1  0.131148  0.131245  0.606236  1
  As  As22  1  0.131175  0.606218  0.131229  1
  As  As23  1  0.131201  0.131294  0.131244  1
  N  N24  1  0.622406  0.622378  0.622377  1
  N  N25  1  0.132851  0.622387  0.622389  1
  N  N26  1  0.622422  0.132764  0.622431  1
  N  N27  1  0.622412  0.622416  0.132804  1
