# generated using pymatgen
data_Er12Ga2Ni3Ru
_symmetry_space_group_name_H-M   'P 1'
_cell_length_a   8.24697819
_cell_length_b   8.24697897
_cell_length_c   8.24697908
_cell_angle_alpha   112.65875865
_cell_angle_beta   109.65610244
_cell_angle_gamma   106.16379850
_symmetry_Int_Tables_number   1
_chemical_formula_structural   Er12Ga2Ni3Ru
_chemical_formula_sum   'Er12 Ga2 Ni3 Ru1'
_cell_volume   430.39427482
_cell_formula_units_Z   1
loop_
 _symmetry_equiv_pos_site_id
 _symmetry_equiv_pos_as_xyz
  1  'x, y, z'
loop_
 _atom_site_type_symbol
 _atom_site_label
 _atom_site_symmetry_multiplicity
 _atom_site_fract_x
 _atom_site_fract_y
 _atom_site_fract_z
 _atom_site_occupancy
  Er  Er0  1  0.052199  0.745934  0.306264  1
  Er  Er1  1  0.959579  0.265093  0.694486  1
  Er  Er2  1  0.560330  0.254066  0.306264  1
  Er  Er3  1  0.429394  0.734907  0.694486  1
  Er  Er4  1  0.674389  0.863913  0.192190  1
  Er  Er5  1  0.328278  0.517801  0.192190  1
  Er  Er6  1  0.328278  0.136087  0.810477  1
  Er  Er7  1  0.674389  0.482199  0.810477  1
  Er  Er8  1  0.175810  0.221703  0.397514  1
  Er  Er9  1  0.816433  0.221384  0.037817  1
  Er  Er10  1  0.175810  0.778297  0.954108  1
  Er  Er11  1  0.816433  0.778616  0.595049  1
  Ga  Ga12  1  0.990115  0.500000  0.490115  1
  Ga  Ga13  1  0.502266  0.000000  0.502266  1
  Ni  Ni14  1  0.346275  0.500000  0.846275  1
  Ni  Ni15  1  0.883357  0.882346  0.001011  1
  Ni  Ni16  1  0.118665  0.117654  0.001011  1
  Ru  Ru17  1  0.667998  0.500000  0.167998  1
