# generated using pymatgen
data_TlFe2Sb2(PO4)6
_symmetry_space_group_name_H-M   'P 1'
_cell_length_a   8.44267933
_cell_length_b   8.44278800
_cell_length_c   9.05746472
_cell_angle_alpha   117.78122538
_cell_angle_beta   62.21710885
_cell_angle_gamma   120.00068042
_symmetry_Int_Tables_number   1
_chemical_formula_structural   TlFe2Sb2(PO4)6
_chemical_formula_sum   'Tl1 Fe2 Sb2 P6 O24'
_cell_volume   471.22557749
_cell_formula_units_Z   1
loop_
 _symmetry_equiv_pos_site_id
 _symmetry_equiv_pos_as_xyz
  1  'x, y, z'
loop_
 _atom_site_type_symbol
 _atom_site_label
 _atom_site_symmetry_multiplicity
 _atom_site_fract_x
 _atom_site_fract_y
 _atom_site_fract_z
 _atom_site_occupancy
  Tl  Tl0  1  0.999971  0.000022  0.000068  1
  Fe  Fe1  1  0.852197  0.147924  0.443669  1
  Fe  Fe2  1  0.147837  0.852127  0.556389  1
  Sb  Sb3  1  0.649085  0.350910  0.052701  1
  Sb  Sb4  1  0.350910  0.649082  0.947295  1
  P  P5  1  0.250017  0.038799  0.249919  1
  P  P6  1  0.961180  0.461137  0.249926  1
  P  P7  1  0.538874  0.750005  0.249945  1
  P  P8  1  0.461125  0.250008  0.750053  1
  P  P9  1  0.038839  0.538882  0.750089  1
  P  P10  1  0.749964  0.961171  0.750080  1
  O  O11  1  0.153718  0.472391  0.091415  1
  O  O12  1  0.527617  0.772742  0.091410  1
  O  O13  1  0.227261  0.846258  0.091422  1
  O  O14  1  0.461347  0.184600  0.205422  1
  O  O15  1  0.815400  0.482197  0.205419  1
  O  O16  1  0.517789  0.538648  0.205430  1
  O  O17  1  0.108134  0.112519  0.263990  1
  O  O18  1  0.887490  0.259619  0.264010  1
  O  O19  1  0.740408  0.891882  0.264003  1
  O  O20  1  0.209735  0.008123  0.417262  1
  O  O21  1  0.991866  0.618891  0.417256  1
  O  O22  1  0.381080  0.790249  0.417263  1
  O  O23  1  0.618873  0.209740  0.582746  1
  O  O24  1  0.008183  0.381179  0.582769  1
  O  O25  1  0.790259  0.991841  0.582756  1
  O  O26  1  0.259579  0.108131  0.736001  1
  O  O27  1  0.112530  0.740399  0.735994  1
  O  O28  1  0.891854  0.887457  0.736014  1
  O  O29  1  0.482218  0.461341  0.794537  1
  O  O30  1  0.184606  0.517782  0.794550  1
  O  O31  1  0.538646  0.815383  0.794544  1
  O  O32  1  0.772739  0.153736  0.908544  1
  O  O33  1  0.472395  0.227244  0.908560  1
  O  O34  1  0.846272  0.527580  0.908550  1
