# generated using pymatgen
data_SrLa5Pd6
_symmetry_space_group_name_H-M   'P 1'
_cell_length_a   5.91032554
_cell_length_b   4.81554300
_cell_length_c   22.55887000
_cell_angle_alpha   90.00000000
_cell_angle_beta   96.46256566
_cell_angle_gamma   90.00000000
_symmetry_Int_Tables_number   1
_chemical_formula_structural   SrLa5Pd6
_chemical_formula_sum   'Sr2 La10 Pd12'
_cell_volume   637.97773935
_cell_formula_units_Z   2
loop_
 _symmetry_equiv_pos_site_id
 _symmetry_equiv_pos_as_xyz
  1  'x, y, z'
loop_
 _atom_site_type_symbol
 _atom_site_label
 _atom_site_symmetry_multiplicity
 _atom_site_fract_x
 _atom_site_fract_y
 _atom_site_fract_z
 _atom_site_occupancy
  Sr  Sr0  1  0.830313  0.250001  0.894156  1
  Sr  Sr1  1  0.324822  0.750000  0.938016  1
  La  La2  1  0.671752  0.250001  0.064009  1
  La  La3  1  0.170958  0.750000  0.108193  1
  La  La4  1  0.514434  0.250001  0.229429  1
  La  La5  1  0.035063  0.750000  0.273676  1
  La  La6  1  0.803260  0.250001  0.395267  1
  La  La7  1  0.325004  0.750000  0.438442  1
  La  La8  1  0.674433  0.250001  0.560847  1
  La  La9  1  0.194753  0.750000  0.603849  1
  La  La10  1  0.966644  0.250001  0.725000  1
  La  La11  1  0.489350  0.750000  0.770398  1
  Pd  Pd12  1  0.154683  0.250001  0.022903  1
  Pd  Pd13  1  0.685884  0.750000  0.154468  1
  Pd  Pd14  1  0.002923  0.250001  0.182714  1
  Pd  Pd15  1  0.565402  0.750000  0.319319  1
  Pd  Pd16  1  0.272616  0.250001  0.347833  1
  Pd  Pd17  1  0.839360  0.750000  0.485479  1
  Pd  Pd18  1  0.161500  0.250001  0.513993  1
  Pd  Pd19  1  0.725030  0.750000  0.650361  1
  Pd  Pd20  1  0.435351  0.250001  0.679595  1
  Pd  Pd21  1  0.000961  0.750000  0.809593  1
  Pd  Pd22  1  0.308025  0.250001  0.836471  1
  Pd  Pd23  1  0.847483  0.750000  0.995987  1
