# generated using pymatgen
data_Tb3Dy4Tm(CdPt)2
_symmetry_space_group_name_H-M   'P 1'
_cell_length_a   9.70187829
_cell_length_b   9.70187778
_cell_length_c   9.69615500
_cell_angle_alpha   60.01950719
_cell_angle_beta   60.01950893
_cell_angle_gamma   59.96096648
_symmetry_Int_Tables_number   1
_chemical_formula_structural   Tb3Dy4Tm(CdPt)2
_chemical_formula_sum   'Tb6 Dy8 Tm2 Cd4 Pt4'
_cell_volume   645.35074215
_cell_formula_units_Z   2
loop_
 _symmetry_equiv_pos_site_id
 _symmetry_equiv_pos_as_xyz
  1  'x, y, z'
loop_
 _atom_site_type_symbol
 _atom_site_label
 _atom_site_symmetry_multiplicity
 _atom_site_fract_x
 _atom_site_fract_y
 _atom_site_fract_z
 _atom_site_occupancy
  Tb  Tb0  1  0.935835  0.564165  0.564165  1
  Tb  Tb1  1  0.564165  0.935835  0.935835  1
  Tb  Tb2  1  0.564165  0.935835  0.564165  1
  Tb  Tb3  1  0.935835  0.564165  0.935835  1
  Tb  Tb4  1  0.564220  0.564220  0.935780  1
  Tb  Tb5  1  0.935780  0.935780  0.564220  1
  Dy  Dy6  1  0.351585  0.351585  0.352110  1
  Dy  Dy7  1  0.351585  0.351585  0.944721  1
  Dy  Dy8  1  0.352110  0.944721  0.351585  1
  Dy  Dy9  1  0.944721  0.352110  0.351585  1
  Dy  Dy10  1  0.810747  0.189253  0.189253  1
  Dy  Dy11  1  0.189253  0.810747  0.810747  1
  Dy  Dy12  1  0.189253  0.810747  0.189253  1
  Dy  Dy13  1  0.810747  0.189253  0.810747  1
  Tm  Tm14  1  0.189577  0.189577  0.810423  1
  Tm  Tm15  1  0.810423  0.810423  0.189577  1
  Cd  Cd16  1  0.581606  0.581606  0.581344  1
  Cd  Cd17  1  0.581606  0.581606  0.255444  1
  Cd  Cd18  1  0.581344  0.255444  0.581606  1
  Cd  Cd19  1  0.255444  0.581344  0.581606  1
  Pt  Pt20  1  0.143193  0.143193  0.142320  1
  Pt  Pt21  1  0.143193  0.143193  0.571297  1
  Pt  Pt22  1  0.142320  0.571297  0.143193  1
  Pt  Pt23  1  0.571297  0.142320  0.143193  1
