# generated using pymatgen
data_Tb2Lu6Tc3B24Rh
_symmetry_space_group_name_H-M   'P 1'
_cell_length_a   3.63161200
_cell_length_b   9.07341313
_cell_length_c   11.45311805
_cell_angle_alpha   90.13172288
_cell_angle_beta   90.00000000
_cell_angle_gamma   90.00000000
_symmetry_Int_Tables_number   1
_chemical_formula_structural   Tb2Lu6Tc3B24Rh
_chemical_formula_sum   'Tb2 Lu6 Tc3 B24 Rh1'
_cell_volume   377.39202397
_cell_formula_units_Z   1
loop_
 _symmetry_equiv_pos_site_id
 _symmetry_equiv_pos_as_xyz
  1  'x, y, z'
loop_
 _atom_site_type_symbol
 _atom_site_label
 _atom_site_symmetry_multiplicity
 _atom_site_fract_x
 _atom_site_fract_y
 _atom_site_fract_z
 _atom_site_occupancy
  Tb  Tb0  1  0.500000  0.318073  0.415613  1
  Tb  Tb1  1  0.500000  0.678599  0.590786  1
  Lu  Lu2  1  0.500000  0.177810  0.913028  1
  Lu  Lu3  1  0.500000  0.827100  0.080430  1
  Lu  Lu4  1  0.500000  0.440224  0.127881  1
  Lu  Lu5  1  0.500000  0.557222  0.871797  1
  Lu  Lu6  1  0.500000  0.056288  0.630304  1
  Lu  Lu7  1  0.500000  0.943911  0.369349  1
  Tc  Tc8  1  0.500000  0.137680  0.179587  1
  Tc  Tc9  1  0.500000  0.862236  0.821306  1
  Tc  Tc10  1  0.500000  0.361396  0.679752  1
  B  B11  1  0.000000  0.098267  0.472328  1
  B  B12  1  0.000000  0.898722  0.527214  1
  B  B13  1  0.000000  0.398144  0.972325  1
  B  B14  1  0.000000  0.602983  0.028880  1
  B  B15  1  0.000000  0.129132  0.314926  1
  B  B16  1  0.000000  0.870194  0.685517  1
  B  B17  1  0.000000  0.369655  0.816120  1
  B  B18  1  0.000000  0.631239  0.182357  1
  B  B19  1  0.000000  0.053224  0.065783  1
  B  B20  1  0.000000  0.947681  0.933472  1
  B  B21  1  0.000000  0.445830  0.567325  1
  B  B22  1  0.000000  0.554489  0.433158  1
  B  B23  1  0.000000  0.482648  0.286489  1
  B  B24  1  0.000000  0.518406  0.713814  1
  B  B25  1  0.000000  0.019247  0.787908  1
  B  B26  1  0.000000  0.980941  0.211341  1
  B  B27  1  0.000000  0.249788  0.080164  1
  B  B28  1  0.000000  0.751099  0.920035  1
  B  B29  1  0.000000  0.248563  0.581955  1
  B  B30  1  0.000000  0.750601  0.419148  1
  B  B31  1  0.000000  0.291809  0.234603  1
  B  B32  1  0.000000  0.708250  0.766649  1
  B  B33  1  0.000000  0.207539  0.735940  1
  B  B34  1  0.000000  0.792055  0.263369  1
  Rh  Rh35  1  0.500000  0.638951  0.319348  1
