# generated using pymatgen
data_NdZr7(Nb3Ge4)4
_symmetry_space_group_name_H-M   'P 1'
_cell_length_a   6.89559404
_cell_length_b   7.03028387
_cell_length_c   13.43068020
_cell_angle_alpha   90.11437111
_cell_angle_beta   89.91235216
_cell_angle_gamma   90.00900736
_symmetry_Int_Tables_number   1
_chemical_formula_structural   NdZr7(Nb3Ge4)4
_chemical_formula_sum   'Nd1 Zr7 Nb12 Ge16'
_cell_volume   651.09022722
_cell_formula_units_Z   1
loop_
 _symmetry_equiv_pos_site_id
 _symmetry_equiv_pos_as_xyz
  1  'x, y, z'
loop_
 _atom_site_type_symbol
 _atom_site_label
 _atom_site_symmetry_multiplicity
 _atom_site_fract_x
 _atom_site_fract_y
 _atom_site_fract_z
 _atom_site_occupancy
  Nd  Nd0  1  0.995418  0.172392  0.091638  1
  Zr  Zr1  1  0.493278  0.327329  0.091487  1
  Zr  Zr2  1  0.990070  0.175689  0.407334  1
  Zr  Zr3  1  0.508623  0.674927  0.591303  1
  Zr  Zr4  1  0.009112  0.821798  0.904421  1
  Zr  Zr5  1  0.509682  0.675625  0.905658  1
  Zr  Zr6  1  0.009319  0.825742  0.591575  1
  Zr  Zr7  1  0.491457  0.324574  0.410266  1
  Nb  Nb8  1  0.662932  0.009272  0.748736  1
  Nb  Nb9  1  0.162735  0.492923  0.749548  1
  Nb  Nb10  1  0.337334  0.989736  0.252920  1
  Nb  Nb11  1  0.836216  0.509198  0.253159  1
  Nb  Nb12  1  0.839570  0.334494  0.624418  1
  Nb  Nb13  1  0.339499  0.165881  0.874514  1
  Nb  Nb14  1  0.160736  0.665199  0.126109  1
  Nb  Nb15  1  0.657854  0.831389  0.376747  1
  Nb  Nb16  1  0.160873  0.666431  0.377528  1
  Nb  Nb17  1  0.656836  0.831261  0.126560  1
  Nb  Nb18  1  0.835989  0.337746  0.873394  1
  Nb  Nb19  1  0.339941  0.165782  0.624763  1
  Ge  Ge20  1  0.804442  0.648832  0.748217  1
  Ge  Ge21  1  0.305354  0.852276  0.749121  1
  Ge  Ge22  1  0.199689  0.354918  0.253610  1
  Ge  Ge23  1  0.690397  0.148298  0.252199  1
  Ge  Ge24  1  0.536360  0.386433  0.749201  1
  Ge  Ge25  1  0.036879  0.115285  0.750236  1
  Ge  Ge26  1  0.462315  0.613378  0.251081  1
  Ge  Ge27  1  0.961065  0.881640  0.252751  1
  Ge  Ge28  1  0.682129  0.039625  0.539713  1
  Ge  Ge29  1  0.183864  0.465342  0.957379  1
  Ge  Ge30  1  0.328802  0.953209  0.037656  1
  Ge  Ge31  1  0.819396  0.539032  0.460913  1
  Ge  Ge32  1  0.317489  0.962032  0.460732  1
  Ge  Ge33  1  0.816516  0.545947  0.037852  1
  Ge  Ge34  1  0.676931  0.037164  0.956981  1
  Ge  Ge35  1  0.180901  0.459204  0.540275  1
