# generated using pymatgen
data_Sm6Zn4Pd6Pt7
_symmetry_space_group_name_H-M   'P 1'
_cell_length_a   8.36333097
_cell_length_b   8.34389156
_cell_length_c   8.34389192
_cell_angle_alpha   109.41747308
_cell_angle_beta   109.45094867
_cell_angle_gamma   109.45094920
_symmetry_Int_Tables_number   1
_chemical_formula_structural   Sm6Zn4Pd6Pt7
_chemical_formula_sum   'Sm6 Zn4 Pd6 Pt7'
_cell_volume   448.74438584
_cell_formula_units_Z   1
loop_
 _symmetry_equiv_pos_site_id
 _symmetry_equiv_pos_as_xyz
  1  'x, y, z'
loop_
 _atom_site_type_symbol
 _atom_site_label
 _atom_site_symmetry_multiplicity
 _atom_site_fract_x
 _atom_site_fract_y
 _atom_site_fract_z
 _atom_site_occupancy
  Sm  Sm0  1  0.699816  0.699554  0.000983  1
  Sm  Sm1  1  0.300184  0.999738  0.301167  1
  Sm  Sm2  1  0.000000  0.300482  0.300482  1
  Sm  Sm3  1  0.300184  0.301167  0.999738  1
  Sm  Sm4  1  0.699816  0.000983  0.699554  1
  Sm  Sm5  1  0.000000  0.698996  0.698996  1
  Zn  Zn6  1  0.000000  0.999468  0.499734  1
  Zn  Zn7  1  0.000000  0.499734  0.999468  1
  Zn  Zn8  1  0.500098  0.000018  0.000018  1
  Zn  Zn9  1  0.499902  0.499920  0.499920  1
  Pd  Pd10  1  0.331928  0.668978  0.999992  1
  Pd  Pd11  1  0.331928  0.999992  0.668978  1
  Pd  Pd12  1  0.662968  0.331895  0.331895  1
  Pd  Pd13  1  0.668072  0.668064  0.337048  1
  Pd  Pd14  1  0.668072  0.337048  0.668064  1
  Pd  Pd15  1  0.337032  0.668929  0.668929  1
  Pt  Pt16  1  0.331648  0.331690  0.662487  1
  Pt  Pt17  1  0.668352  0.000042  0.330837  1
  Pt  Pt18  1  0.000000  0.668940  0.331609  1
  Pt  Pt19  1  0.668352  0.330837  0.000042  1
  Pt  Pt20  1  0.331648  0.662487  0.331690  1
  Pt  Pt21  1  0.000000  0.331609  0.668940  1
  Pt  Pt22  1  0.000000  0.999427  0.999427  1
