# generated using pymatgen
data_PrDy(CoB)8
_symmetry_space_group_name_H-M   'P 1'
_cell_length_a   7.01939100
_cell_length_b   7.01939100
_cell_length_c   3.80393700
_cell_angle_alpha   90.00000000
_cell_angle_beta   90.00000000
_cell_angle_gamma   90.00000000
_symmetry_Int_Tables_number   1
_chemical_formula_structural   PrDy(CoB)8
_chemical_formula_sum   'Pr1 Dy1 Co8 B8'
_cell_volume   187.42701331
_cell_formula_units_Z   1
loop_
 _symmetry_equiv_pos_site_id
 _symmetry_equiv_pos_as_xyz
  1  'x, y, z'
loop_
 _atom_site_type_symbol
 _atom_site_label
 _atom_site_symmetry_multiplicity
 _atom_site_fract_x
 _atom_site_fract_y
 _atom_site_fract_z
 _atom_site_occupancy
  Pr  Pr0  1  0.500000  0.500000  0.500000  1
  Dy  Dy1  1  0.000000  0.000000  0.000000  1
  Co  Co2  1  0.860755  0.381581  0.108037  1
  Co  Co3  1  0.139245  0.618419  0.108037  1
  Co  Co4  1  0.885283  0.645325  0.607311  1
  Co  Co5  1  0.114717  0.354675  0.607311  1
  Co  Co6  1  0.645325  0.114717  0.392689  1
  Co  Co7  1  0.354675  0.885283  0.392689  1
  Co  Co8  1  0.618419  0.860755  0.891963  1
  Co  Co9  1  0.381581  0.139245  0.891963  1
  B  B10  1  0.335929  0.802020  0.896977  1
  B  B11  1  0.664071  0.197980  0.896977  1
  B  B12  1  0.292232  0.160150  0.393851  1
  B  B13  1  0.707768  0.839850  0.393851  1
  B  B14  1  0.160150  0.707768  0.606149  1
  B  B15  1  0.839850  0.292232  0.606149  1
  B  B16  1  0.197980  0.335929  0.103023  1
  B  B17  1  0.802020  0.664071  0.103023  1
