# generated using pymatgen
data_Pr2Th3Bi3S
_symmetry_space_group_name_H-M   'P 1'
_cell_length_a   9.55934525
_cell_length_b   9.59737563
_cell_length_c   6.71395600
_cell_angle_alpha   90.00000000
_cell_angle_beta   90.00000000
_cell_angle_gamma   120.13168881
_symmetry_Int_Tables_number   1
_chemical_formula_structural   Pr2Th3Bi3S
_chemical_formula_sum   'Pr4 Th6 Bi6 S2'
_cell_volume   532.73585815
_cell_formula_units_Z   2
loop_
 _symmetry_equiv_pos_site_id
 _symmetry_equiv_pos_as_xyz
  1  'x, y, z'
loop_
 _atom_site_type_symbol
 _atom_site_label
 _atom_site_symmetry_multiplicity
 _atom_site_fract_x
 _atom_site_fract_y
 _atom_site_fract_z
 _atom_site_occupancy
  Pr  Pr0  1  0.000000  0.252688  0.750000  1
  Pr  Pr1  1  0.251863  0.250955  0.250000  1
  Pr  Pr2  1  0.748137  0.999091  0.250000  1
  Pr  Pr3  1  0.000000  0.744532  0.250000  1
  Th  Th4  1  0.664592  0.334639  0.998681  1
  Th  Th5  1  0.335408  0.670048  0.998681  1
  Th  Th6  1  0.335408  0.670048  0.501319  1
  Th  Th7  1  0.664592  0.334639  0.501319  1
  Th  Th8  1  0.749280  0.748745  0.750000  1
  Th  Th9  1  0.250720  0.999465  0.750000  1
  Bi  Bi10  1  0.391332  0.393109  0.750000  1
  Bi  Bi11  1  0.608668  0.001776  0.750000  1
  Bi  Bi12  1  0.000000  0.607205  0.750000  1
  Bi  Bi13  1  0.607671  0.608187  0.250000  1
  Bi  Bi14  1  0.392329  0.000516  0.250000  1
  Bi  Bi15  1  0.000000  0.392112  0.250000  1
  S  S16  1  0.000000  0.996122  0.996395  1
  S  S17  1  0.000000  0.996122  0.503605  1
