# generated using pymatgen
data_Nd2FeSiI
_symmetry_space_group_name_H-M   'P 1'
_cell_length_a   4.13105900
_cell_length_b   4.13106008
_cell_length_c   17.42737300
_cell_angle_alpha   90.00000000
_cell_angle_beta   90.00000000
_cell_angle_gamma   119.99999934
_symmetry_Int_Tables_number   1
_chemical_formula_structural   Nd2FeSiI
_chemical_formula_sum   'Nd4 Fe2 Si2 I2'
_cell_volume   257.56418333
_cell_formula_units_Z   2
loop_
 _symmetry_equiv_pos_site_id
 _symmetry_equiv_pos_as_xyz
  1  'x, y, z'
loop_
 _atom_site_type_symbol
 _atom_site_label
 _atom_site_symmetry_multiplicity
 _atom_site_fract_x
 _atom_site_fract_y
 _atom_site_fract_z
 _atom_site_occupancy
  Nd  Nd0  1  0.000000  0.000000  0.104159  1
  Nd  Nd1  1  0.000000  0.000000  0.604159  1
  Nd  Nd2  1  0.000000  0.000000  0.894897  1
  Nd  Nd3  1  0.000000  0.000000  0.394897  1
  Fe  Fe4  1  0.333333  0.666667  0.001139  1
  Fe  Fe5  1  0.666667  0.333333  0.501139  1
  Si  Si6  1  0.666667  0.333333  0.999005  1
  Si  Si7  1  0.333333  0.666667  0.499005  1
  I  I8  1  0.666667  0.333333  0.250801  1
  I  I9  1  0.333333  0.666667  0.750801  1
