# generated using pymatgen
data_Er6Tm2Ti12Si15Pb
_symmetry_space_group_name_H-M   'P 1'
_cell_length_a   7.09728200
_cell_length_b   7.05342243
_cell_length_c   12.97750404
_cell_angle_alpha   89.98020420
_cell_angle_beta   89.68785761
_cell_angle_gamma   89.89122118
_symmetry_Int_Tables_number   1
_chemical_formula_structural   Er6Tm2Ti12Si15Pb
_chemical_formula_sum   'Er6 Tm2 Ti12 Si15 Pb1'
_cell_volume   649.64466610
_cell_formula_units_Z   1
loop_
 _symmetry_equiv_pos_site_id
 _symmetry_equiv_pos_as_xyz
  1  'x, y, z'
loop_
 _atom_site_type_symbol
 _atom_site_label
 _atom_site_symmetry_multiplicity
 _atom_site_fract_x
 _atom_site_fract_y
 _atom_site_fract_z
 _atom_site_occupancy
  Er  Er0  1  0.501869  0.159696  0.216953  1
  Er  Er1  1  0.841318  0.497771  0.282009  1
  Er  Er2  1  0.158971  0.511215  0.786609  1
  Er  Er3  1  0.661267  0.996458  0.969280  1
  Er  Er4  1  0.990353  0.350681  0.526046  1
  Er  Er5  1  0.999149  0.658855  0.034285  1
  Tm  Tm6  1  0.345236  0.997584  0.459957  1
  Tm  Tm7  1  0.508020  0.834454  0.718504  1
  Ti  Ti8  1  0.326030  0.326794  0.001397  1
  Ti  Ti9  1  0.174009  0.826176  0.249737  1
  Ti  Ti10  1  0.813412  0.175164  0.752563  1
  Ti  Ti11  1  0.672505  0.672948  0.499454  1
  Ti  Ti12  1  0.152242  0.007317  0.884234  1
  Ti  Ti13  1  0.492709  0.650189  0.126540  1
  Ti  Ti14  1  0.517044  0.355405  0.626350  1
  Ti  Ti15  1  0.653898  0.493690  0.876071  1
  Ti  Ti16  1  0.347991  0.509142  0.372904  1
  Ti  Ti17  1  0.847321  0.992682  0.375366  1
  Ti  Ti18  1  0.009326  0.151520  0.123783  1
  Ti  Ti19  1  0.977551  0.832281  0.618209  1
  Si  Si20  1  0.370543  0.703487  0.935535  1
  Si  Si21  1  0.628162  0.296727  0.431876  1
  Si  Si22  1  0.703854  0.368962  0.067297  1
  Si  Si23  1  0.297341  0.631725  0.566182  1
  Si  Si24  1  0.797150  0.869557  0.183626  1
  Si  Si25  1  0.130555  0.202974  0.315748  1
  Si  Si26  1  0.869807  0.799810  0.817053  1
  Si  Si27  1  0.292891  0.952254  0.067277  1
  Si  Si28  1  0.549827  0.789510  0.313267  1
  Si  Si29  1  0.460774  0.210122  0.821504  1
  Si  Si30  1  0.794579  0.544054  0.687326  1
  Si  Si31  1  0.209132  0.452893  0.185292  1
  Si  Si32  1  0.706027  0.047920  0.564384  1
  Si  Si33  1  0.952539  0.291899  0.935452  1
  Si  Si34  1  0.048612  0.711368  0.432325  1
  Pb  Pb35  1  0.197988  0.126716  0.675608  1
