# generated using pymatgen
data_HoEr3TmRu2
_symmetry_space_group_name_H-M   'P 1'
_cell_length_a   6.27255694
_cell_length_b   7.24997368
_cell_length_c   8.38346981
_cell_angle_alpha   96.78213696
_cell_angle_beta   111.96887877
_cell_angle_gamma   90.00000423
_symmetry_Int_Tables_number   1
_chemical_formula_structural   HoEr3TmRu2
_chemical_formula_sum   'Ho2 Er6 Tm2 Ru4'
_cell_volume   350.68394011
_cell_formula_units_Z   2
loop_
 _symmetry_equiv_pos_site_id
 _symmetry_equiv_pos_as_xyz
  1  'x, y, z'
loop_
 _atom_site_type_symbol
 _atom_site_label
 _atom_site_symmetry_multiplicity
 _atom_site_fract_x
 _atom_site_fract_y
 _atom_site_fract_z
 _atom_site_occupancy
  Ho  Ho0  1  0.791122  0.084036  0.813631  1
  Ho  Ho1  1  0.977491  0.415964  0.186369  1
  Er  Er2  1  0.208853  0.915810  0.186230  1
  Er  Er3  1  0.022623  0.584190  0.813770  1
  Er  Er4  1  0.205928  0.184398  0.565471  1
  Er  Er5  1  0.640457  0.315602  0.434529  1
  Er  Er6  1  0.793890  0.815424  0.434416  1
  Er  Er7  1  0.359474  0.684576  0.565584  1
  Tm  Tm8  1  0.419451  0.250000  0.000000  1
  Tm  Tm9  1  0.580311  0.750000  0.000000  1
  Ru  Ru10  1  0.602748  0.423941  0.780225  1
  Ru  Ru11  1  0.822521  0.076059  0.219775  1
  Ru  Ru12  1  0.397382  0.576345  0.219633  1
  Ru  Ru13  1  0.177750  0.923655  0.780367  1
