# generated using pymatgen
data_CaNdTm2(B6Ru)2
_symmetry_space_group_name_H-M   'P 1'
_cell_length_a   3.66354500
_cell_length_b   9.16082424
_cell_length_c   11.58907301
_cell_angle_alpha   89.82137802
_cell_angle_beta   90.00000000
_cell_angle_gamma   90.00000000
_symmetry_Int_Tables_number   1
_chemical_formula_structural   CaNdTm2(B6Ru)2
_chemical_formula_sum   'Ca2 Nd2 Tm4 B24 Ru4'
_cell_volume   388.94005342
_cell_formula_units_Z   2
loop_
 _symmetry_equiv_pos_site_id
 _symmetry_equiv_pos_as_xyz
  1  'x, y, z'
loop_
 _atom_site_type_symbol
 _atom_site_label
 _atom_site_symmetry_multiplicity
 _atom_site_fract_x
 _atom_site_fract_y
 _atom_site_fract_z
 _atom_site_occupancy
  Ca  Ca0  1  0.000000  0.324055  0.415831  1
  Ca  Ca1  1  0.000000  0.675945  0.584169  1
  Nd  Nd2  1  0.000000  0.822038  0.086241  1
  Nd  Nd3  1  0.000000  0.177962  0.913759  1
  Tm  Tm4  1  0.000000  0.941918  0.370705  1
  Tm  Tm5  1  0.000000  0.058082  0.629295  1
  Tm  Tm6  1  0.000000  0.442832  0.132147  1
  Tm  Tm7  1  0.000000  0.557168  0.867853  1
  B  B8  1  0.500000  0.554424  0.432331  1
  B  B9  1  0.500000  0.445576  0.567669  1
  B  B10  1  0.500000  0.056163  0.070026  1
  B  B11  1  0.500000  0.943837  0.929974  1
  B  B12  1  0.500000  0.748566  0.417686  1
  B  B13  1  0.500000  0.251434  0.582314  1
  B  B14  1  0.500000  0.250342  0.084483  1
  B  B15  1  0.500000  0.749658  0.915517  1
  B  B16  1  0.500000  0.790292  0.266702  1
  B  B17  1  0.500000  0.209708  0.733298  1
  B  B18  1  0.500000  0.291063  0.235988  1
  B  B19  1  0.500000  0.708937  0.764012  1
  B  B20  1  0.500000  0.629364  0.186619  1
  B  B21  1  0.500000  0.370636  0.813381  1
  B  B22  1  0.500000  0.130626  0.315672  1
  B  B23  1  0.500000  0.869374  0.684328  1
  B  B24  1  0.500000  0.985230  0.214136  1
  B  B25  1  0.500000  0.014770  0.785864  1
  B  B26  1  0.500000  0.483668  0.288739  1
  B  B27  1  0.500000  0.516332  0.711261  1
  B  B28  1  0.500000  0.598183  0.026782  1
  B  B29  1  0.500000  0.401817  0.973218  1
  B  B30  1  0.500000  0.098457  0.473158  1
  B  B31  1  0.500000  0.901543  0.526842  1
  Ru  Ru32  1  0.000000  0.640030  0.318962  1
  Ru  Ru33  1  0.000000  0.359970  0.681038  1
  Ru  Ru34  1  0.000000  0.139392  0.181281  1
  Ru  Ru35  1  0.000000  0.860608  0.818719  1
