# generated using pymatgen
data_Tb19ErSn16
_symmetry_space_group_name_H-M   'P 1'
_cell_length_a   8.06778927
_cell_length_b   8.21426528
_cell_length_c   15.52964800
_cell_angle_alpha   90.00000000
_cell_angle_beta   90.00000000
_cell_angle_gamma   89.97019402
_symmetry_Int_Tables_number   1
_chemical_formula_structural   Tb19ErSn16
_chemical_formula_sum   'Tb19 Er1 Sn16'
_cell_volume   1029.16456226
_cell_formula_units_Z   1
loop_
 _symmetry_equiv_pos_site_id
 _symmetry_equiv_pos_as_xyz
  1  'x, y, z'
loop_
 _atom_site_type_symbol
 _atom_site_label
 _atom_site_symmetry_multiplicity
 _atom_site_fract_x
 _atom_site_fract_y
 _atom_site_fract_z
 _atom_site_occupancy
  Tb  Tb0  1  0.367394  0.836642  0.877920  1
  Tb  Tb1  1  0.867805  0.663040  0.621998  1
  Tb  Tb2  1  0.632446  0.163272  0.378135  1
  Tb  Tb3  1  0.132481  0.336774  0.121537  1
  Tb  Tb4  1  0.632446  0.163272  0.121865  1
  Tb  Tb5  1  0.132481  0.336774  0.378463  1
  Tb  Tb6  1  0.367394  0.836642  0.622080  1
  Tb  Tb7  1  0.867805  0.663040  0.878002  1
  Tb  Tb8  1  0.519737  0.320718  0.902150  1
  Tb  Tb9  1  0.019999  0.179687  0.597853  1
  Tb  Tb10  1  0.480232  0.679499  0.402490  1
  Tb  Tb11  1  0.980166  0.820452  0.097725  1
  Tb  Tb12  1  0.480232  0.679499  0.097510  1
  Tb  Tb13  1  0.980166  0.820452  0.402275  1
  Tb  Tb14  1  0.519737  0.320718  0.597850  1
  Tb  Tb15  1  0.019999  0.179687  0.902147  1
  Tb  Tb16  1  0.698677  0.997671  0.750000  1
  Tb  Tb17  1  0.801118  0.497318  0.250000  1
  Tb  Tb18  1  0.301058  0.002661  0.250000  1
  Er  Er19  1  0.199027  0.503047  0.750000  1
  Sn  Sn20  1  0.292795  0.036011  0.041675  1
  Sn  Sn21  1  0.792593  0.463641  0.458339  1
  Sn  Sn22  1  0.707205  0.963807  0.541792  1
  Sn  Sn23  1  0.207261  0.535826  0.957432  1
  Sn  Sn24  1  0.707205  0.963807  0.958208  1
  Sn  Sn25  1  0.207261  0.535826  0.542568  1
  Sn  Sn26  1  0.292795  0.036011  0.458325  1
  Sn  Sn27  1  0.792593  0.463641  0.041661  1
  Sn  Sn28  1  0.564537  0.617766  0.750000  1
  Sn  Sn29  1  0.065807  0.881071  0.750000  1
  Sn  Sn30  1  0.434101  0.381926  0.250000  1
  Sn  Sn31  1  0.934579  0.118262  0.250000  1
  Sn  Sn32  1  0.328253  0.148360  0.750000  1
  Sn  Sn33  1  0.829484  0.353572  0.750000  1
  Sn  Sn34  1  0.671428  0.853309  0.250000  1
  Sn  Sn35  1  0.171706  0.646300  0.250000  1
