# generated using pymatgen
data_Dy5Tm(ThSn2)4
_symmetry_space_group_name_H-M   'P 1'
_cell_length_a   8.12825700
_cell_length_b   8.22437800
_cell_length_c   15.54796300
_cell_angle_alpha   90.00000000
_cell_angle_beta   90.00000000
_cell_angle_gamma   90.00000000
_symmetry_Int_Tables_number   1
_chemical_formula_structural   Dy5Tm(ThSn2)4
_chemical_formula_sum   'Dy10 Tm2 Th8 Sn16'
_cell_volume   1039.37911950
_cell_formula_units_Z   2
loop_
 _symmetry_equiv_pos_site_id
 _symmetry_equiv_pos_as_xyz
  1  'x, y, z'
loop_
 _atom_site_type_symbol
 _atom_site_label
 _atom_site_symmetry_multiplicity
 _atom_site_fract_x
 _atom_site_fract_y
 _atom_site_fract_z
 _atom_site_occupancy
  Dy  Dy0  1  0.362051  0.837373  0.876122  1
  Dy  Dy1  1  0.862051  0.662627  0.623878  1
  Dy  Dy2  1  0.637913  0.162637  0.376005  1
  Dy  Dy3  1  0.137913  0.337363  0.123995  1
  Dy  Dy4  1  0.637913  0.162637  0.123995  1
  Dy  Dy5  1  0.137913  0.337363  0.376005  1
  Dy  Dy6  1  0.362051  0.837373  0.623878  1
  Dy  Dy7  1  0.862051  0.662627  0.876122  1
  Dy  Dy8  1  0.191766  0.498051  0.750000  1
  Dy  Dy9  1  0.691766  0.001949  0.750000  1
  Tm  Tm10  1  0.808067  0.501914  0.250000  1
  Tm  Tm11  1  0.308067  0.998086  0.250000  1
  Th  Th12  1  0.519241  0.321079  0.903861  1
  Th  Th13  1  0.019241  0.178921  0.596139  1
  Th  Th14  1  0.480712  0.678800  0.403834  1
  Th  Th15  1  0.980712  0.821200  0.096166  1
  Th  Th16  1  0.480712  0.678800  0.096166  1
  Th  Th17  1  0.980712  0.821200  0.403834  1
  Th  Th18  1  0.519241  0.321079  0.596139  1
  Th  Th19  1  0.019241  0.178921  0.903861  1
  Sn  Sn20  1  0.298606  0.039776  0.042680  1
  Sn  Sn21  1  0.798606  0.460224  0.457320  1
  Sn  Sn22  1  0.701494  0.960105  0.542288  1
  Sn  Sn23  1  0.201494  0.539895  0.957712  1
  Sn  Sn24  1  0.701494  0.960105  0.957712  1
  Sn  Sn25  1  0.201494  0.539895  0.542288  1
  Sn  Sn26  1  0.298606  0.039776  0.457320  1
  Sn  Sn27  1  0.798606  0.460224  0.042680  1
  Sn  Sn28  1  0.558041  0.622675  0.750000  1
  Sn  Sn29  1  0.058041  0.877325  0.750000  1
  Sn  Sn30  1  0.442568  0.377084  0.250000  1
  Sn  Sn31  1  0.942568  0.122916  0.250000  1
  Sn  Sn32  1  0.326149  0.142882  0.750000  1
  Sn  Sn33  1  0.826149  0.357118  0.750000  1
  Sn  Sn34  1  0.673375  0.856522  0.250000  1
  Sn  Sn35  1  0.173375  0.643478  0.250000  1
