# generated using pymatgen
data_PrDy3P7Ir8
_symmetry_space_group_name_H-M   'P 1'
_cell_length_a   3.96012300
_cell_length_b   12.76015061
_cell_length_c   13.12185640
_cell_angle_alpha   81.02974519
_cell_angle_beta   90.00000000
_cell_angle_gamma   90.00000000
_symmetry_Int_Tables_number   1
_chemical_formula_structural   PrDy3P7Ir8
_chemical_formula_sum   'Pr2 Dy6 P14 Ir16'
_cell_volume   654.96083854
_cell_formula_units_Z   2
loop_
 _symmetry_equiv_pos_site_id
 _symmetry_equiv_pos_as_xyz
  1  'x, y, z'
loop_
 _atom_site_type_symbol
 _atom_site_label
 _atom_site_symmetry_multiplicity
 _atom_site_fract_x
 _atom_site_fract_y
 _atom_site_fract_z
 _atom_site_occupancy
  Pr  Pr0  1  0.250000  0.104540  0.788948  1
  Pr  Pr1  1  0.750000  0.895460  0.211052  1
  Dy  Dy2  1  0.250000  0.279800  0.101987  1
  Dy  Dy3  1  0.750000  0.720200  0.898013  1
  Dy  Dy4  1  0.250000  0.519655  0.293668  1
  Dy  Dy5  1  0.750000  0.480345  0.706332  1
  Dy  Dy6  1  0.250000  0.208843  0.439292  1
  Dy  Dy7  1  0.750000  0.791157  0.560708  1
  P  P8  1  0.250000  0.054532  0.099205  1
  P  P9  1  0.750000  0.945468  0.900795  1
  P  P10  1  0.250000  0.316429  0.687459  1
  P  P11  1  0.750000  0.683571  0.312541  1
  P  P12  1  0.250000  0.607947  0.567127  1
  P  P13  1  0.750000  0.392053  0.432873  1
  P  P14  1  0.250000  0.842234  0.717613  1
  P  P15  1  0.750000  0.157766  0.282387  1
  P  P16  1  0.750000  0.259020  0.920191  1
  P  P17  1  0.250000  0.740980  0.079809  1
  P  P18  1  0.750000  0.092936  0.587722  1
  P  P19  1  0.250000  0.907064  0.412278  1
  P  P20  1  0.750000  0.472175  0.129053  1
  P  P21  1  0.250000  0.527825  0.870947  1
  Ir  Ir22  1  0.250000  0.989844  0.575970  1
  Ir  Ir23  1  0.750000  0.010156  0.424030  1
  Ir  Ir24  1  0.250000  0.662270  0.731633  1
  Ir  Ir25  1  0.750000  0.337730  0.268367  1
  Ir  Ir26  1  0.250000  0.554682  0.044835  1
  Ir  Ir27  1  0.750000  0.445318  0.955165  1
  Ir  Ir28  1  0.250000  0.064195  0.273075  1
  Ir  Ir29  1  0.750000  0.935805  0.726925  1
  Ir  Ir30  1  0.250000  0.422516  0.522633  1
  Ir  Ir31  1  0.750000  0.577484  0.477367  1
  Ir  Ir32  1  0.250000  0.914261  0.997946  1
  Ir  Ir33  1  0.750000  0.085739  0.002054  1
  Ir  Ir34  1  0.250000  0.728004  0.396948  1
  Ir  Ir35  1  0.750000  0.271996  0.603052  1
  Ir  Ir36  1  0.250000  0.343970  0.857689  1
  Ir  Ir37  1  0.750000  0.656030  0.142311  1
