# generated using pymatgen
data_YHo4(Cd2Pd)2
_symmetry_space_group_name_H-M   'P 1'
_cell_length_a   3.64689100
_cell_length_b   7.97083500
_cell_length_c   18.29511500
_cell_angle_alpha   90.00000000
_cell_angle_beta   90.00000000
_cell_angle_gamma   90.00000000
_symmetry_Int_Tables_number   1
_chemical_formula_structural   YHo4(Cd2Pd)2
_chemical_formula_sum   'Y2 Ho8 Cd8 Pd4'
_cell_volume   531.81642463
_cell_formula_units_Z   2
loop_
 _symmetry_equiv_pos_site_id
 _symmetry_equiv_pos_as_xyz
  1  'x, y, z'
loop_
 _atom_site_type_symbol
 _atom_site_label
 _atom_site_symmetry_multiplicity
 _atom_site_fract_x
 _atom_site_fract_y
 _atom_site_fract_z
 _atom_site_occupancy
  Y  Y0  1  0.000000  0.500000  0.500000  1
  Y  Y1  1  0.000000  0.000000  0.000000  1
  Ho  Ho2  1  0.000000  0.738973  0.281937  1
  Ho  Ho3  1  0.000000  0.261027  0.718063  1
  Ho  Ho4  1  0.000000  0.761027  0.781937  1
  Ho  Ho5  1  0.000000  0.238973  0.218063  1
  Ho  Ho6  1  0.000000  0.614482  0.084525  1
  Ho  Ho7  1  0.000000  0.385518  0.915475  1
  Ho  Ho8  1  0.000000  0.885518  0.584525  1
  Ho  Ho9  1  0.000000  0.114482  0.415475  1
  Cd  Cd10  1  0.500000  0.712012  0.932667  1
  Cd  Cd11  1  0.500000  0.287988  0.067333  1
  Cd  Cd12  1  0.500000  0.787988  0.432667  1
  Cd  Cd13  1  0.500000  0.212012  0.567333  1
  Cd  Cd14  1  0.500000  0.577041  0.648782  1
  Cd  Cd15  1  0.500000  0.422959  0.351218  1
  Cd  Cd16  1  0.500000  0.922959  0.148782  1
  Cd  Cd17  1  0.500000  0.077041  0.851218  1
  Pd  Pd18  1  0.500000  0.524529  0.195402  1
  Pd  Pd19  1  0.500000  0.475471  0.804598  1
  Pd  Pd20  1  0.500000  0.975471  0.695402  1
  Pd  Pd21  1  0.500000  0.024529  0.304598  1
