# generated using pymatgen
data_Ca3La(Bi2O7)2
_symmetry_space_group_name_H-M   'P 1'
_cell_length_a   7.87811184
_cell_length_b   7.87811320
_cell_length_c   7.87811200
_cell_angle_alpha   59.24542848
_cell_angle_beta   59.24542260
_cell_angle_gamma   59.24542934
_symmetry_Int_Tables_number   1
_chemical_formula_structural   Ca3La(Bi2O7)2
_chemical_formula_sum   'Ca3 La1 Bi4 O14'
_cell_volume   339.79914076
_cell_formula_units_Z   1
loop_
 _symmetry_equiv_pos_site_id
 _symmetry_equiv_pos_as_xyz
  1  'x, y, z'
loop_
 _atom_site_type_symbol
 _atom_site_label
 _atom_site_symmetry_multiplicity
 _atom_site_fract_x
 _atom_site_fract_y
 _atom_site_fract_z
 _atom_site_occupancy
  Ca  Ca0  1  0.625000  0.125000  0.125000  1
  Ca  Ca1  1  0.125000  0.625000  0.125000  1
  Ca  Ca2  1  0.125000  0.125000  0.625000  1
  La  La3  1  0.125000  0.125000  0.125000  1
  Bi  Bi4  1  0.625000  0.625000  0.125000  1
  Bi  Bi5  1  0.625000  0.625000  0.625000  1
  Bi  Bi6  1  0.625000  0.125000  0.625000  1
  Bi  Bi7  1  0.125000  0.625000  0.625000  1
  O  O8  1  0.708966  0.292925  0.292925  1
  O  O9  1  0.707371  0.707371  0.290514  1
  O  O10  1  0.292925  0.708966  0.292925  1
  O  O11  1  0.003974  0.003974  0.003974  1
  O  O12  1  0.707371  0.290514  0.707371  1
  O  O13  1  0.959486  0.542629  0.542629  1
  O  O14  1  0.290514  0.707371  0.707371  1
  O  O15  1  0.542629  0.959486  0.542629  1
  O  O16  1  0.246026  0.246026  0.246026  1
  O  O17  1  0.957075  0.541034  0.957075  1
  O  O18  1  0.542629  0.542629  0.959486  1
  O  O19  1  0.957075  0.957075  0.541034  1
  O  O20  1  0.541034  0.957075  0.957075  1
  O  O21  1  0.292925  0.292925  0.708966  1
