# generated using pymatgen
data_Tb3In3GePdPt
_symmetry_space_group_name_H-M   'P 1'
_cell_length_a   7.52268500
_cell_length_b   7.52268584
_cell_length_c   4.13455600
_cell_angle_alpha   90.00000000
_cell_angle_beta   90.00000000
_cell_angle_gamma   120.00000069
_symmetry_Int_Tables_number   1
_chemical_formula_structural   Tb3In3GePdPt
_chemical_formula_sum   'Tb3 In3 Ge1 Pd1 Pt1'
_cell_volume   202.63073027
_cell_formula_units_Z   1
loop_
 _symmetry_equiv_pos_site_id
 _symmetry_equiv_pos_as_xyz
  1  'x, y, z'
loop_
 _atom_site_type_symbol
 _atom_site_label
 _atom_site_symmetry_multiplicity
 _atom_site_fract_x
 _atom_site_fract_y
 _atom_site_fract_z
 _atom_site_occupancy
  Tb  Tb0  1  0.407532  0.992078  0.000000  1
  Tb  Tb1  1  0.007922  0.415454  0.000000  1
  Tb  Tb2  1  0.584546  0.592468  0.000000  1
  In  In3  1  0.247817  0.255739  0.500000  1
  In  In4  1  0.007921  0.752183  0.500000  1
  In  In5  1  0.744261  0.992079  0.500000  1
  Ge  Ge6  1  0.666667  0.333333  0.500000  1
  Pd  Pd7  1  0.000000  0.000000  0.000000  1
  Pt  Pt8  1  0.333333  0.666667  0.500000  1
