# generated using pymatgen
data_Y16In6CuTc
_symmetry_space_group_name_H-M   'P 1'
_cell_length_a   10.51802900
_cell_length_b   10.51803121
_cell_length_c   7.00405300
_cell_angle_alpha   90.00000000
_cell_angle_beta   90.00000000
_cell_angle_gamma   120.00000248
_symmetry_Int_Tables_number   1
_chemical_formula_structural   Y16In6CuTc
_chemical_formula_sum   'Y16 In6 Cu1 Tc1'
_cell_volume   671.04070297
_cell_formula_units_Z   1
loop_
 _symmetry_equiv_pos_site_id
 _symmetry_equiv_pos_as_xyz
  1  'x, y, z'
loop_
 _atom_site_type_symbol
 _atom_site_label
 _atom_site_symmetry_multiplicity
 _atom_site_fract_x
 _atom_site_fract_y
 _atom_site_fract_z
 _atom_site_occupancy
  Y  Y0  1  0.472578  0.527422  0.474934  1
  Y  Y1  1  0.054843  0.527422  0.474934  1
  Y  Y2  1  0.472578  0.945157  0.474934  1
  Y  Y3  1  0.533852  0.466148  0.978449  1
  Y  Y4  1  0.932296  0.466148  0.978449  1
  Y  Y5  1  0.533852  0.067704  0.978449  1
  Y  Y6  1  0.824616  0.175384  0.271122  1
  Y  Y7  1  0.350767  0.175384  0.271122  1
  Y  Y8  1  0.824616  0.649233  0.271122  1
  Y  Y9  1  0.175917  0.824083  0.774495  1
  Y  Y10  1  0.648164  0.824083  0.774495  1
  Y  Y11  1  0.175917  0.351836  0.774495  1
  Y  Y12  1  0.333333  0.666667  0.104170  1
  Y  Y13  1  0.666667  0.333333  0.609532  1
  Y  Y14  1  0.000000  0.000000  0.500747  1
  Y  Y15  1  0.000000  0.000000  0.993302  1
  In  In16  1  0.164614  0.835386  0.239439  1
  In  In17  1  0.670772  0.835386  0.239439  1
  In  In18  1  0.164614  0.329228  0.239439  1
  In  In19  1  0.838551  0.161449  0.736596  1
  In  In20  1  0.322896  0.161449  0.736596  1
  In  In21  1  0.838551  0.677104  0.736596  1
  Cu  Cu22  1  0.333333  0.666667  0.702236  1
  Tc  Tc23  1  0.666667  0.333333  0.209463  1
