# generated using pymatgen
data_Tm3Fe7B2
_symmetry_space_group_name_H-M   'P 1'
_cell_length_a   5.08654800
_cell_length_b   5.08987668
_cell_length_c   14.44306200
_cell_angle_alpha   90.00000000
_cell_angle_beta   90.00000000
_cell_angle_gamma   119.97836883
_symmetry_Int_Tables_number   1
_chemical_formula_structural   Tm3Fe7B2
_chemical_formula_sum   'Tm6 Fe14 B4'
_cell_volume   323.90297489
_cell_formula_units_Z   2
loop_
 _symmetry_equiv_pos_site_id
 _symmetry_equiv_pos_as_xyz
  1  'x, y, z'
loop_
 _atom_site_type_symbol
 _atom_site_label
 _atom_site_symmetry_multiplicity
 _atom_site_fract_x
 _atom_site_fract_y
 _atom_site_fract_z
 _atom_site_occupancy
  Tm  Tm0  1  0.333406  0.666814  0.534957  1
  Tm  Tm1  1  0.666594  0.333186  0.034957  1
  Tm  Tm2  1  0.666629  0.333257  0.465031  1
  Tm  Tm3  1  0.333371  0.666743  0.965031  1
  Tm  Tm4  1  0.333369  0.666740  0.750007  1
  Tm  Tm5  1  0.666631  0.333260  0.250007  1
  Fe  Fe6  1  0.166160  0.332321  0.145756  1
  Fe  Fe7  1  0.833840  0.667679  0.645756  1
  Fe  Fe8  1  0.999999  0.999999  0.000010  1
  Fe  Fe9  1  0.000001  0.000001  0.500010  1
  Fe  Fe10  1  0.667529  0.833702  0.145806  1
  Fe  Fe11  1  0.166173  0.833702  0.145806  1
  Fe  Fe12  1  0.833827  0.166298  0.645806  1
  Fe  Fe13  1  0.332471  0.166298  0.645806  1
  Fe  Fe14  1  0.833788  0.667575  0.854225  1
  Fe  Fe15  1  0.833766  0.166318  0.854198  1
  Fe  Fe16  1  0.332553  0.166318  0.854198  1
  Fe  Fe17  1  0.667447  0.833682  0.354198  1
  Fe  Fe18  1  0.166234  0.833682  0.354198  1
  Fe  Fe19  1  0.166212  0.332425  0.354225  1
  B  B20  1  0.333184  0.666368  0.249996  1
  B  B21  1  0.666816  0.333632  0.749996  1
  B  B22  1  0.000036  0.000072  0.250009  1
  B  B23  1  0.999964  0.999928  0.750009  1
