# generated using pymatgen
data_LaY12Th3(MgCo)4
_symmetry_space_group_name_H-M   'P 1'
_cell_length_a   9.68374150
_cell_length_b   9.68966640
_cell_length_c   9.68966700
_cell_angle_alpha   60.00000136
_cell_angle_beta   59.97975981
_cell_angle_gamma   59.97975972
_symmetry_Int_Tables_number   1
_chemical_formula_structural   LaY12Th3(MgCo)4
_chemical_formula_sum   'La1 Y12 Th3 Mg4 Co4'
_cell_volume   642.70686678
_cell_formula_units_Z   1
loop_
 _symmetry_equiv_pos_site_id
 _symmetry_equiv_pos_as_xyz
  1  'x, y, z'
loop_
 _atom_site_type_symbol
 _atom_site_label
 _atom_site_symmetry_multiplicity
 _atom_site_fract_x
 _atom_site_fract_y
 _atom_site_fract_z
 _atom_site_occupancy
  La  La0  1  0.960139  0.346620  0.346620  1
  Y  Y1  1  0.812269  0.186797  0.186797  1
  Y  Y2  1  0.187523  0.813038  0.813038  1
  Y  Y3  1  0.187523  0.813038  0.186399  1
  Y  Y4  1  0.812269  0.186797  0.814136  1
  Y  Y5  1  0.187523  0.186399  0.813038  1
  Y  Y6  1  0.812269  0.814136  0.186797  1
  Y  Y7  1  0.935649  0.565016  0.565016  1
  Y  Y8  1  0.562889  0.936725  0.936725  1
  Y  Y9  1  0.562889  0.936725  0.563661  1
  Y  Y10  1  0.935649  0.565016  0.934318  1
  Y  Y11  1  0.562889  0.563661  0.936725  1
  Y  Y12  1  0.935649  0.934318  0.565016  1
  Th  Th13  1  0.342724  0.344619  0.344619  1
  Th  Th14  1  0.342724  0.344619  0.968040  1
  Th  Th15  1  0.342724  0.968040  0.344619  1
  Mg  Mg16  1  0.578464  0.580727  0.580727  1
  Mg  Mg17  1  0.578464  0.580727  0.260083  1
  Mg  Mg18  1  0.578464  0.260083  0.580727  1
  Mg  Mg19  1  0.257999  0.580667  0.580667  1
  Co  Co20  1  0.153211  0.139506  0.139506  1
  Co  Co21  1  0.153211  0.139506  0.567777  1
  Co  Co22  1  0.153211  0.567777  0.139506  1
  Co  Co23  1  0.563669  0.145444  0.145444  1
