# generated using pymatgen
data_Lu12CdFe3Pd
_symmetry_space_group_name_H-M   'P 1'
_cell_length_a   8.06423012
_cell_length_b   8.06422858
_cell_length_c   8.06423000
_cell_angle_alpha   107.34756560
_cell_angle_beta   109.93409673
_cell_angle_gamma   111.15507896
_symmetry_Int_Tables_number   1
_chemical_formula_structural   Lu12CdFe3Pd
_chemical_formula_sum   'Lu12 Cd1 Fe3 Pd1'
_cell_volume   403.24577198
_cell_formula_units_Z   1
loop_
 _symmetry_equiv_pos_site_id
 _symmetry_equiv_pos_as_xyz
  1  'x, y, z'
loop_
 _atom_site_type_symbol
 _atom_site_label
 _atom_site_symmetry_multiplicity
 _atom_site_fract_x
 _atom_site_fract_y
 _atom_site_fract_z
 _atom_site_occupancy
  Lu  Lu0  1  0.310239  0.309064  0.619324  1
  Lu  Lu1  1  0.689761  0.690936  0.380676  1
  Lu  Lu2  1  0.689740  0.309064  0.998823  1
  Lu  Lu3  1  0.310260  0.690936  0.001177  1
  Lu  Lu4  1  0.187908  0.413493  0.225585  1
  Lu  Lu5  1  0.812092  0.586507  0.774415  1
  Lu  Lu6  1  0.188057  0.962467  0.774411  1
  Lu  Lu7  1  0.929115  0.190096  0.738979  1
  Lu  Lu8  1  0.811943  0.037533  0.225589  1
  Lu  Lu9  1  0.070885  0.809904  0.261021  1
  Lu  Lu10  1  0.451117  0.190096  0.260980  1
  Lu  Lu11  1  0.548883  0.809904  0.739020  1
  Cd  Cd12  1  0.000000  0.500000  0.500000  1
  Fe  Fe13  1  0.380297  0.380370  0.000073  1
  Fe  Fe14  1  0.619703  0.619630  0.999927  1
  Fe  Fe15  1  0.000000  0.000000  0.000000  1
  Pd  Pd16  1  0.500000  0.000000  0.500000  1
