# generated using pymatgen
data_GdHoB5
_symmetry_space_group_name_H-M   'P 1'
_cell_length_a   7.10793200
_cell_length_b   7.10096103
_cell_length_c   7.13187679
_cell_angle_alpha   76.78845996
_cell_angle_beta   90.00000000
_cell_angle_gamma   90.00000000
_symmetry_Int_Tables_number   1
_chemical_formula_structural   GdHoB5
_chemical_formula_sum   'Gd4 Ho4 B20'
_cell_volume   350.44095412
_cell_formula_units_Z   4
loop_
 _symmetry_equiv_pos_site_id
 _symmetry_equiv_pos_as_xyz
  1  'x, y, z'
loop_
 _atom_site_type_symbol
 _atom_site_label
 _atom_site_symmetry_multiplicity
 _atom_site_fract_x
 _atom_site_fract_y
 _atom_site_fract_z
 _atom_site_occupancy
  Gd  Gd0  1  0.691723  0.770530  0.626751  1
  Gd  Gd1  1  0.191723  0.229470  0.873249  1
  Gd  Gd2  1  0.308277  0.229470  0.373249  1
  Gd  Gd3  1  0.808277  0.770530  0.126751  1
  Ho  Ho4  1  0.315295  0.755292  0.253312  1
  Ho  Ho5  1  0.815295  0.244708  0.246688  1
  Ho  Ho6  1  0.684705  0.244708  0.746688  1
  Ho  Ho7  1  0.184705  0.755292  0.753312  1
  B  B8  1  0.502679  0.313933  0.040740  1
  B  B9  1  0.002679  0.686067  0.459260  1
  B  B10  1  0.497321  0.686067  0.959260  1
  B  B11  1  0.997321  0.313933  0.540740  1
  B  B12  1  0.488860  0.926039  0.925201  1
  B  B13  1  0.988860  0.073961  0.574799  1
  B  B14  1  0.511140  0.073961  0.074799  1
  B  B15  1  0.011140  0.926039  0.425201  1
  B  B16  1  0.326145  0.496599  0.039838  1
  B  B17  1  0.826145  0.503401  0.460162  1
  B  B18  1  0.673855  0.503401  0.960162  1
  B  B19  1  0.173855  0.496599  0.539838  1
  B  B20  1  0.910734  0.498439  0.910866  1
  B  B21  1  0.410734  0.501561  0.589134  1
  B  B22  1  0.089266  0.501561  0.089134  1
  B  B23  1  0.589266  0.498439  0.410866  1
  B  B24  1  0.961500  0.496583  0.674292  1
  B  B25  1  0.461500  0.503417  0.825708  1
  B  B26  1  0.038500  0.503417  0.325708  1
  B  B27  1  0.538500  0.496583  0.174292  1
