# generated using pymatgen
data_CeNd5NiI10
_symmetry_space_group_name_H-M   'P 1'
_cell_length_a   7.96753305
_cell_length_b   9.97772094
_cell_length_c   10.00270555
_cell_angle_alpha   107.26733860
_cell_angle_beta   97.24782084
_cell_angle_gamma   104.80959214
_symmetry_Int_Tables_number   1
_chemical_formula_structural   CeNd5NiI10
_chemical_formula_sum   'Ce1 Nd5 Ni1 I10'
_cell_volume   716.33431751
_cell_formula_units_Z   1
loop_
 _symmetry_equiv_pos_site_id
 _symmetry_equiv_pos_as_xyz
  1  'x, y, z'
loop_
 _atom_site_type_symbol
 _atom_site_label
 _atom_site_symmetry_multiplicity
 _atom_site_fract_x
 _atom_site_fract_y
 _atom_site_fract_z
 _atom_site_occupancy
  Ce  Ce0  1  0.882461  0.957584  0.243123  1
  Nd  Nd1  1  0.116508  0.041770  0.760684  1
  Nd  Nd2  1  0.031971  0.714952  0.913471  1
  Nd  Nd3  1  0.968125  0.284747  0.085179  1
  Nd  Nd4  1  0.653158  0.876150  0.834668  1
  Nd  Nd5  1  0.347079  0.124127  0.165347  1
  Ni  Ni6  1  0.000169  0.999987  0.999557  1
  I  I7  1  0.647013  0.547739  0.728192  1
  I  I8  1  0.352988  0.452308  0.271532  1
  I  I9  1  0.740336  0.912306  0.538518  1
  I  I10  1  0.260736  0.088077  0.462220  1
  I  I11  1  0.085282  0.370226  0.818519  1
  I  I12  1  0.915171  0.628777  0.180514  1
  I  I13  1  0.452792  0.815040  0.090767  1
  I  I14  1  0.546193  0.184642  0.908019  1
  I  I15  1  0.221420  0.742797  0.653247  1
  I  I16  1  0.778598  0.258771  0.346444  1
