# generated using pymatgen
data_Ho2Er(LuPb2)2
_symmetry_space_group_name_H-M   'P 1'
_cell_length_a   8.13196600
_cell_length_b   15.46971900
_cell_length_c   8.20914600
_cell_angle_alpha   90.00000000
_cell_angle_beta   90.00000000
_cell_angle_gamma   90.00000000
_symmetry_Int_Tables_number   1
_chemical_formula_structural   Ho2Er(LuPb2)2
_chemical_formula_sum   'Ho8 Er4 Lu8 Pb16'
_cell_volume   1032.70423704
_cell_formula_units_Z   4
loop_
 _symmetry_equiv_pos_site_id
 _symmetry_equiv_pos_as_xyz
  1  'x, y, z'
loop_
 _atom_site_type_symbol
 _atom_site_label
 _atom_site_symmetry_multiplicity
 _atom_site_fract_x
 _atom_site_fract_y
 _atom_site_fract_z
 _atom_site_occupancy
  Ho  Ho0  1  0.464115  0.599441  0.676609  1
  Ho  Ho1  1  0.964115  0.900559  0.823391  1
  Ho  Ho2  1  0.535885  0.099441  0.323391  1
  Ho  Ho3  1  0.035885  0.400559  0.176609  1
  Ho  Ho4  1  0.535882  0.400369  0.323142  1
  Ho  Ho5  1  0.035882  0.099631  0.176858  1
  Ho  Ho6  1  0.464118  0.900369  0.676858  1
  Ho  Ho7  1  0.964118  0.599631  0.823142  1
  Er  Er8  1  0.623410  0.621248  0.158660  1
  Er  Er9  1  0.123410  0.878752  0.341340  1
  Er  Er10  1  0.376590  0.121248  0.841340  1
  Er  Er11  1  0.876590  0.378752  0.658660  1
  Lu  Lu12  1  0.376282  0.378787  0.841636  1
  Lu  Lu13  1  0.876282  0.121213  0.658364  1
  Lu  Lu14  1  0.623718  0.878787  0.158364  1
  Lu  Lu15  1  0.123718  0.621213  0.341636  1
  Lu  Lu16  1  0.791914  0.750071  0.495426  1
  Lu  Lu17  1  0.291914  0.749929  0.004574  1
  Lu  Lu18  1  0.208086  0.250071  0.504574  1
  Lu  Lu19  1  0.708086  0.249929  0.995426  1
  Pb  Pb20  1  0.717255  0.456973  0.966021  1
  Pb  Pb21  1  0.217255  0.043027  0.533979  1
  Pb  Pb22  1  0.282745  0.956973  0.033979  1
  Pb  Pb23  1  0.782745  0.543027  0.466021  1
  Pb  Pb24  1  0.281787  0.542593  0.034162  1
  Pb  Pb25  1  0.781787  0.957407  0.465838  1
  Pb  Pb26  1  0.718213  0.042593  0.965838  1
  Pb  Pb27  1  0.218213  0.457407  0.534162  1
  Pb  Pb28  1  0.429451  0.750146  0.371956  1
  Pb  Pb29  1  0.929451  0.749854  0.128044  1
  Pb  Pb30  1  0.570549  0.250146  0.628044  1
  Pb  Pb31  1  0.070549  0.249854  0.871956  1
  Pb  Pb32  1  0.652851  0.750134  0.846266  1
  Pb  Pb33  1  0.152851  0.749866  0.653734  1
  Pb  Pb34  1  0.347149  0.250134  0.153734  1
  Pb  Pb35  1  0.847149  0.249866  0.346266  1
