# generated using pymatgen
data_Er2Lu2ZrSc3Pt4
_symmetry_space_group_name_H-M   'P 1'
_cell_length_a   4.60551200
_cell_length_b   6.92649519
_cell_length_c   8.37069501
_cell_angle_alpha   90.64859742
_cell_angle_beta   90.00000000
_cell_angle_gamma   90.00000000
_symmetry_Int_Tables_number   1
_chemical_formula_structural   Er2Lu2ZrSc3Pt4
_chemical_formula_sum   'Er2 Lu2 Zr1 Sc3 Pt4'
_cell_volume   267.00853660
_cell_formula_units_Z   1
loop_
 _symmetry_equiv_pos_site_id
 _symmetry_equiv_pos_as_xyz
  1  'x, y, z'
loop_
 _atom_site_type_symbol
 _atom_site_label
 _atom_site_symmetry_multiplicity
 _atom_site_fract_x
 _atom_site_fract_y
 _atom_site_fract_z
 _atom_site_occupancy
  Er  Er0  1  0.750000  0.982126  0.323249  1
  Er  Er1  1  0.750000  0.482748  0.173427  1
  Lu  Lu2  1  0.250000  0.016287  0.676227  1
  Lu  Lu3  1  0.250000  0.516304  0.825410  1
  Zr  Zr4  1  0.750000  0.357799  0.573799  1
  Sc  Sc5  1  0.250000  0.143647  0.073626  1
  Sc  Sc6  1  0.250000  0.644521  0.425347  1
  Sc  Sc7  1  0.750000  0.857230  0.926715  1
  Pt  Pt8  1  0.250000  0.254991  0.404623  1
  Pt  Pt9  1  0.250000  0.752811  0.100813  1
  Pt  Pt10  1  0.750000  0.746042  0.599592  1
  Pt  Pt11  1  0.750000  0.245492  0.897173  1
