# generated using pymatgen
data_Zr5(In2Co)2
_symmetry_space_group_name_H-M   'P 1'
_cell_length_a   3.37907400
_cell_length_b   7.57159914
_cell_length_c   17.23147731
_cell_angle_alpha   90.00028349
_cell_angle_beta   90.00000000
_cell_angle_gamma   90.00000000
_symmetry_Int_Tables_number   1
_chemical_formula_structural   Zr5(In2Co)2
_chemical_formula_sum   'Zr10 In8 Co4'
_cell_volume   440.86724019
_cell_formula_units_Z   2
loop_
 _symmetry_equiv_pos_site_id
 _symmetry_equiv_pos_as_xyz
  1  'x, y, z'
loop_
 _atom_site_type_symbol
 _atom_site_label
 _atom_site_symmetry_multiplicity
 _atom_site_fract_x
 _atom_site_fract_y
 _atom_site_fract_z
 _atom_site_occupancy
  Zr  Zr0  1  0.000000  0.134904  0.913618  1
  Zr  Zr1  1  0.000000  0.758377  0.776632  1
  Zr  Zr2  1  0.000000  0.634992  0.586363  1
  Zr  Zr3  1  0.000000  0.257734  0.723144  1
  Zr  Zr4  1  0.000000  0.364867  0.413721  1
  Zr  Zr5  1  0.000000  0.242300  0.223332  1
  Zr  Zr6  1  0.000000  0.000125  0.500044  1
  Zr  Zr7  1  0.000000  0.741161  0.276813  1
  Zr  Zr8  1  0.000000  0.500102  0.999979  1
  Zr  Zr9  1  0.000000  0.865104  0.086326  1
  In  In10  1  0.500000  0.804380  0.932423  1
  In  In11  1  0.500000  0.559588  0.151910  1
  In  In12  1  0.500000  0.440528  0.847998  1
  In  In13  1  0.500000  0.058995  0.348110  1
  In  In14  1  0.500000  0.304339  0.567690  1
  In  In15  1  0.500000  0.940809  0.651804  1
  In  In16  1  0.500000  0.695743  0.432633  1
  In  In17  1  0.500000  0.196044  0.067730  1
  Co  Co18  1  0.500000  0.552866  0.693824  1
  Co  Co19  1  0.500000  0.447230  0.306118  1
  Co  Co20  1  0.500000  0.052770  0.805931  1
  Co  Co21  1  0.500000  0.947042  0.193858  1
