# generated using pymatgen
data_Er2Np3Al2Ga13
_symmetry_space_group_name_H-M   'P 1'
_cell_length_a   12.43675219
_cell_length_b   12.43317408
_cell_length_c   12.43675200
_cell_angle_alpha   28.56195239
_cell_angle_beta   28.55840292
_cell_angle_gamma   28.56195003
_symmetry_Int_Tables_number   1
_chemical_formula_structural   Er2Np3Al2Ga13
_chemical_formula_sum   'Er2 Np3 Al2 Ga13'
_cell_volume   388.54154920
_cell_formula_units_Z   1
loop_
 _symmetry_equiv_pos_site_id
 _symmetry_equiv_pos_as_xyz
  1  'x, y, z'
loop_
 _atom_site_type_symbol
 _atom_site_label
 _atom_site_symmetry_multiplicity
 _atom_site_fract_x
 _atom_site_fract_y
 _atom_site_fract_z
 _atom_site_occupancy
  Er  Er0  1  0.400462  0.399738  0.400462  1
  Er  Er1  1  0.598776  0.601230  0.598776  1
  Np  Np2  1  0.001766  0.999487  0.001766  1
  Np  Np3  1  0.130284  0.130223  0.130284  1
  Np  Np4  1  0.869569  0.867520  0.869569  1
  Al  Al5  1  0.113246  0.118301  0.571029  1
  Al  Al6  1  0.571029  0.118301  0.113246  1
  Ga  Ga7  1  0.128361  0.636352  0.635982  1
  Ga  Ga8  1  0.635982  0.636352  0.128361  1
  Ga  Ga9  1  0.636291  0.127932  0.636291  1
  Ga  Ga10  1  0.362848  0.876319  0.362848  1
  Ga  Ga11  1  0.364591  0.360294  0.875530  1
  Ga  Ga12  1  0.875530  0.360294  0.364591  1
  Ga  Ga13  1  0.429149  0.883912  0.884111  1
  Ga  Ga14  1  0.884111  0.883912  0.429149  1
  Ga  Ga15  1  0.884317  0.428624  0.884317  1
  Ga  Ga16  1  0.113363  0.575693  0.113363  1
  Ga  Ga17  1  0.500713  0.497181  0.001287  1
  Ga  Ga18  1  0.498321  0.001152  0.498321  1
  Ga  Ga19  1  0.001287  0.497181  0.500713  1
