# generated using pymatgen
data_Ho6Lu2Tc3B24Ru
_symmetry_space_group_name_H-M   'P 1'
_cell_length_a   3.65200200
_cell_length_b   9.10987137
_cell_length_c   11.48955215
_cell_angle_alpha   89.94146356
_cell_angle_beta   90.00000000
_cell_angle_gamma   90.00000000
_symmetry_Int_Tables_number   1
_chemical_formula_structural   Ho6Lu2Tc3B24Ru
_chemical_formula_sum   'Ho6 Lu2 Tc3 B24 Ru1'
_cell_volume   382.24879529
_cell_formula_units_Z   1
loop_
 _symmetry_equiv_pos_site_id
 _symmetry_equiv_pos_as_xyz
  1  'x, y, z'
loop_
 _atom_site_type_symbol
 _atom_site_label
 _atom_site_symmetry_multiplicity
 _atom_site_fract_x
 _atom_site_fract_y
 _atom_site_fract_z
 _atom_site_occupancy
  Ho  Ho0  1  0.000000  0.323611  0.413697  1
  Ho  Ho1  1  0.000000  0.675209  0.584288  1
  Ho  Ho2  1  0.000000  0.822321  0.086995  1
  Ho  Ho3  1  0.000000  0.178759  0.914702  1
  Ho  Ho4  1  0.000000  0.942647  0.369997  1
  Ho  Ho5  1  0.000000  0.057766  0.630864  1
  Lu  Lu6  1  0.000000  0.443184  0.129695  1
  Lu  Lu7  1  0.000000  0.557593  0.869705  1
  Tc  Tc8  1  0.000000  0.637654  0.319469  1
  Tc  Tc9  1  0.000000  0.362561  0.681121  1
  Tc  Tc10  1  0.000000  0.139335  0.177932  1
  B  B11  1  0.500000  0.552724  0.432765  1
  B  B12  1  0.500000  0.447015  0.566958  1
  B  B13  1  0.500000  0.053403  0.066493  1
  B  B14  1  0.500000  0.945691  0.933019  1
  B  B15  1  0.500000  0.748275  0.418576  1
  B  B16  1  0.500000  0.251045  0.581607  1
  B  B17  1  0.500000  0.251050  0.080978  1
  B  B18  1  0.500000  0.749688  0.918594  1
  B  B19  1  0.500000  0.791300  0.265016  1
  B  B20  1  0.500000  0.208904  0.735750  1
  B  B21  1  0.500000  0.293137  0.234351  1
  B  B22  1  0.500000  0.707768  0.765472  1
  B  B23  1  0.500000  0.629706  0.184445  1
  B  B24  1  0.500000  0.370378  0.816142  1
  B  B25  1  0.500000  0.130920  0.313957  1
  B  B26  1  0.500000  0.868383  0.685756  1
  B  B27  1  0.500000  0.981894  0.211365  1
  B  B28  1  0.500000  0.016521  0.788728  1
  B  B29  1  0.500000  0.481103  0.287183  1
  B  B30  1  0.500000  0.518878  0.712551  1
  B  B31  1  0.500000  0.599925  0.027464  1
  B  B32  1  0.500000  0.401833  0.972319  1
  B  B33  1  0.500000  0.101767  0.472109  1
  B  B34  1  0.500000  0.897975  0.528692  1
  Ru  Ru35  1  0.000000  0.860076  0.821248  1
