# generated using pymatgen
data_Y6Ho2Cd2IrPt
_symmetry_space_group_name_H-M   'P 1'
_cell_length_a   9.67382220
_cell_length_b   9.67382156
_cell_length_c   9.66042100
_cell_angle_alpha   60.04581620
_cell_angle_beta   60.04581839
_cell_angle_gamma   60.15225898
_symmetry_Int_Tables_number   1
_chemical_formula_structural   Y6Ho2Cd2IrPt
_chemical_formula_sum   'Y12 Ho4 Cd4 Ir2 Pt2'
_cell_volume   640.43577909
_cell_formula_units_Z   2
loop_
 _symmetry_equiv_pos_site_id
 _symmetry_equiv_pos_as_xyz
  1  'x, y, z'
loop_
 _atom_site_type_symbol
 _atom_site_label
 _atom_site_symmetry_multiplicity
 _atom_site_fract_x
 _atom_site_fract_y
 _atom_site_fract_z
 _atom_site_occupancy
  Y  Y0  1  0.806119  0.190575  0.191630  1
  Y  Y1  1  0.190575  0.806119  0.811675  1
  Y  Y2  1  0.190575  0.806119  0.191630  1
  Y  Y3  1  0.806119  0.190575  0.811675  1
  Y  Y4  1  0.192346  0.192346  0.807654  1
  Y  Y5  1  0.810407  0.810407  0.189593  1
  Y  Y6  1  0.938189  0.563570  0.561413  1
  Y  Y7  1  0.563570  0.938189  0.936828  1
  Y  Y8  1  0.563570  0.938189  0.561413  1
  Y  Y9  1  0.938189  0.563570  0.936828  1
  Y  Y10  1  0.562759  0.562759  0.937241  1
  Y  Y11  1  0.937654  0.937654  0.562346  1
  Ho  Ho12  1  0.350455  0.350455  0.346078  1
  Ho  Ho13  1  0.350455  0.350455  0.953011  1
  Ho  Ho14  1  0.355375  0.945820  0.349402  1
  Ho  Ho15  1  0.945820  0.355375  0.349402  1
  Cd  Cd16  1  0.581023  0.581023  0.581235  1
  Cd  Cd17  1  0.581023  0.581023  0.256720  1
  Cd  Cd18  1  0.580812  0.256112  0.581538  1
  Cd  Cd19  1  0.256112  0.580812  0.581538  1
  Ir  Ir20  1  0.142034  0.571190  0.143388  1
  Ir  Ir21  1  0.571190  0.142034  0.143388  1
  Pt  Pt22  1  0.142813  0.142813  0.145492  1
  Pt  Pt23  1  0.142813  0.142813  0.568880  1
