# generated using pymatgen
data_Tm2Lu2CrB12Rh
_symmetry_space_group_name_H-M   'P 1'
_cell_length_a   3.55880400
_cell_length_b   9.05378196
_cell_length_c   11.43238248
_cell_angle_alpha   90.22773899
_cell_angle_beta   90.00000000
_cell_angle_gamma   90.00000000
_symmetry_Int_Tables_number   1
_chemical_formula_structural   Tm2Lu2CrB12Rh
_chemical_formula_sum   'Tm4 Lu4 Cr2 B24 Rh2'
_cell_volume   368.35571832
_cell_formula_units_Z   2
loop_
 _symmetry_equiv_pos_site_id
 _symmetry_equiv_pos_as_xyz
  1  'x, y, z'
loop_
 _atom_site_type_symbol
 _atom_site_label
 _atom_site_symmetry_multiplicity
 _atom_site_fract_x
 _atom_site_fract_y
 _atom_site_fract_z
 _atom_site_occupancy
  Tm  Tm0  1  0.500000  0.317837  0.411331  1
  Tm  Tm1  1  0.500000  0.682163  0.588669  1
  Tm  Tm2  1  0.500000  0.173745  0.917156  1
  Tm  Tm3  1  0.500000  0.826255  0.082844  1
  Lu  Lu4  1  0.500000  0.441178  0.126679  1
  Lu  Lu5  1  0.500000  0.558822  0.873321  1
  Lu  Lu6  1  0.500000  0.052600  0.628917  1
  Lu  Lu7  1  0.500000  0.947400  0.371083  1
  Cr  Cr8  1  0.500000  0.140225  0.181485  1
  Cr  Cr9  1  0.500000  0.859775  0.818515  1
  B  B10  1  0.000000  0.106115  0.471577  1
  B  B11  1  0.000000  0.893885  0.528423  1
  B  B12  1  0.000000  0.394085  0.970699  1
  B  B13  1  0.000000  0.605915  0.029301  1
  B  B14  1  0.000000  0.132257  0.315344  1
  B  B15  1  0.000000  0.867743  0.684656  1
  B  B16  1  0.000000  0.368200  0.817053  1
  B  B17  1  0.000000  0.631800  0.182947  1
  B  B18  1  0.000000  0.053331  0.067217  1
  B  B19  1  0.000000  0.946669  0.932783  1
  B  B20  1  0.000000  0.446069  0.565943  1
  B  B21  1  0.000000  0.553931  0.434057  1
  B  B22  1  0.000000  0.481710  0.286797  1
  B  B23  1  0.000000  0.518290  0.713203  1
  B  B24  1  0.000000  0.017193  0.787594  1
  B  B25  1  0.000000  0.982807  0.212406  1
  B  B26  1  0.000000  0.248317  0.080780  1
  B  B27  1  0.000000  0.751683  0.919220  1
  B  B28  1  0.000000  0.248661  0.579182  1
  B  B29  1  0.000000  0.751339  0.420818  1
  B  B30  1  0.000000  0.293413  0.234755  1
  B  B31  1  0.000000  0.706587  0.765245  1
  B  B32  1  0.000000  0.206305  0.735479  1
  B  B33  1  0.000000  0.793695  0.264521  1
  Rh  Rh34  1  0.500000  0.361133  0.679011  1
  Rh  Rh35  1  0.500000  0.638867  0.320989  1
