# generated using pymatgen
data_Tb5Tm11(AgRh)4
_symmetry_space_group_name_H-M   'P 1'
_cell_length_a   9.42545686
_cell_length_b   9.44615029
_cell_length_c   9.44614965
_cell_angle_alpha   60.40218864
_cell_angle_beta   60.23486734
_cell_angle_gamma   60.23486909
_symmetry_Int_Tables_number   1
_chemical_formula_structural   Tb5Tm11(AgRh)4
_chemical_formula_sum   'Tb5 Tm11 Ag4 Rh4'
_cell_volume   598.60702035
_cell_formula_units_Z   1
loop_
 _symmetry_equiv_pos_site_id
 _symmetry_equiv_pos_as_xyz
  1  'x, y, z'
loop_
 _atom_site_type_symbol
 _atom_site_label
 _atom_site_symmetry_multiplicity
 _atom_site_fract_x
 _atom_site_fract_y
 _atom_site_fract_z
 _atom_site_occupancy
  Tb  Tb0  1  0.065606  0.065509  0.434293  1
  Tb  Tb1  1  0.435913  0.065161  0.435823  1
  Tb  Tb2  1  0.065606  0.434293  0.065509  1
  Tb  Tb3  1  0.059648  0.646917  0.646917  1
  Tb  Tb4  1  0.435913  0.435823  0.065161  1
  Tm  Tm5  1  0.647249  0.059941  0.645035  1
  Tm  Tm6  1  0.187302  0.815035  0.186126  1
  Tm  Tm7  1  0.187302  0.186126  0.815035  1
  Tm  Tm8  1  0.813339  0.813356  0.187447  1
  Tm  Tm9  1  0.439352  0.061181  0.061181  1
  Tm  Tm10  1  0.815214  0.186493  0.186493  1
  Tm  Tm11  1  0.062303  0.438035  0.438035  1
  Tm  Tm12  1  0.813339  0.187447  0.813356  1
  Tm  Tm13  1  0.185434  0.815343  0.815343  1
  Tm  Tm14  1  0.647249  0.645035  0.059941  1
  Tm  Tm15  1  0.644874  0.646711  0.646711  1
  Ag  Ag16  1  0.418423  0.417237  0.417237  1
  Ag  Ag17  1  0.744444  0.418407  0.418407  1
  Ag  Ag18  1  0.420021  0.746092  0.414079  1
  Ag  Ag19  1  0.420021  0.414079  0.746092  1
  Rh  Rh20  1  0.854179  0.854679  0.430918  1
  Rh  Rh21  1  0.850382  0.860223  0.860223  1
  Rh  Rh22  1  0.432710  0.855959  0.855959  1
  Rh  Rh23  1  0.854179  0.430918  0.854679  1
