# generated using pymatgen
data_Yb11Tm(CuGe)12
_symmetry_space_group_name_H-M   'P 1'
_cell_length_a   4.31806500
_cell_length_b   7.38831512
_cell_length_c   20.84885017
_cell_angle_alpha   90.07964640
_cell_angle_beta   90.00000000
_cell_angle_gamma   90.00000000
_symmetry_Int_Tables_number   1
_chemical_formula_structural   Yb11Tm(CuGe)12
_chemical_formula_sum   'Yb11 Tm1 Cu12 Ge12'
_cell_volume   665.14491387
_cell_formula_units_Z   1
loop_
 _symmetry_equiv_pos_site_id
 _symmetry_equiv_pos_as_xyz
  1  'x, y, z'
loop_
 _atom_site_type_symbol
 _atom_site_label
 _atom_site_symmetry_multiplicity
 _atom_site_fract_x
 _atom_site_fract_y
 _atom_site_fract_z
 _atom_site_occupancy
  Yb  Yb0  1  0.250000  0.721329  0.003043  1
  Yb  Yb1  1  0.750000  0.279650  0.998281  1
  Yb  Yb2  1  0.750000  0.217416  0.497826  1
  Yb  Yb3  1  0.250000  0.783374  0.502114  1
  Yb  Yb4  1  0.250000  0.790308  0.166210  1
  Yb  Yb5  1  0.750000  0.214589  0.833223  1
  Yb  Yb6  1  0.750000  0.289968  0.333645  1
  Yb  Yb7  1  0.250000  0.712098  0.665633  1
  Yb  Yb8  1  0.250000  0.709205  0.333539  1
  Yb  Yb9  1  0.750000  0.289244  0.665976  1
  Yb  Yb10  1  0.750000  0.209157  0.166263  1
  Tm  Tm11  1  0.250000  0.788376  0.833669  1
  Cu  Cu12  1  0.250000  0.414898  0.095590  1
  Cu  Cu13  1  0.750000  0.582733  0.902664  1
  Cu  Cu14  1  0.750000  0.915228  0.404163  1
  Cu  Cu15  1  0.250000  0.085175  0.596492  1
  Cu  Cu16  1  0.250000  0.413009  0.236645  1
  Cu  Cu17  1  0.750000  0.587963  0.764659  1
  Cu  Cu18  1  0.750000  0.913966  0.263599  1
  Cu  Cu19  1  0.250000  0.086527  0.737546  1
  Cu  Cu20  1  0.250000  0.418105  0.435572  1
  Cu  Cu21  1  0.750000  0.582019  0.564337  1
  Cu  Cu22  1  0.750000  0.917594  0.067012  1
  Cu  Cu23  1  0.250000  0.080374  0.936393  1
  Ge  Ge24  1  0.250000  0.088173  0.067630  1
  Ge  Ge25  1  0.750000  0.907705  0.924555  1
  Ge  Ge26  1  0.750000  0.588155  0.431920  1
  Ge  Ge27  1  0.250000  0.411563  0.568974  1
  Ge  Ge28  1  0.250000  0.081476  0.269391  1
  Ge  Ge29  1  0.750000  0.917656  0.733426  1
  Ge  Ge30  1  0.750000  0.581138  0.230425  1
  Ge  Ge31  1  0.250000  0.421238  0.768796  1
  Ge  Ge32  1  0.250000  0.084003  0.398956  1
  Ge  Ge33  1  0.750000  0.916520  0.601733  1
  Ge  Ge34  1  0.750000  0.584426  0.101343  1
  Ge  Ge35  1  0.250000  0.415640  0.898757  1
