# generated using pymatgen
data_Ac2Al6GaNi
_symmetry_space_group_name_H-M   'P 1'
_cell_length_a   6.27204429
_cell_length_b   6.27499311
_cell_length_c   11.65823857
_cell_angle_alpha   74.38793844
_cell_angle_beta   74.39545704
_cell_angle_gamma   90.00000402
_symmetry_Int_Tables_number   1
_chemical_formula_structural   Ac2Al6GaNi
_chemical_formula_sum   'Ac4 Al12 Ga2 Ni2'
_cell_volume   424.31924463
_cell_formula_units_Z   2
loop_
 _symmetry_equiv_pos_site_id
 _symmetry_equiv_pos_as_xyz
  1  'x, y, z'
loop_
 _atom_site_type_symbol
 _atom_site_label
 _atom_site_symmetry_multiplicity
 _atom_site_fract_x
 _atom_site_fract_y
 _atom_site_fract_z
 _atom_site_occupancy
  Ac  Ac0  1  0.995888  0.995888  0.008224  1
  Ac  Ac1  1  0.500448  0.500448  0.999103  1
  Ac  Ac2  1  0.750735  0.250735  0.498531  1
  Ac  Ac3  1  0.245546  0.745546  0.508909  1
  Al  Al4  1  0.599100  0.131458  0.255764  1
  Al  Al5  1  0.145135  0.612776  0.255764  1
  Al  Al6  1  0.599100  0.612776  0.255764  1
  Al  Al7  1  0.145135  0.131458  0.255764  1
  Al  Al8  1  0.861471  0.348570  0.754381  1
  Al  Al9  1  0.384148  0.897047  0.754381  1
  Al  Al10  1  0.861471  0.897047  0.754381  1
  Al  Al11  1  0.384148  0.348570  0.754381  1
  Al  Al12  1  0.692084  0.692084  0.615832  1
  Al  Al13  1  0.063643  0.563643  0.872713  1
  Al  Al14  1  0.451796  0.951796  0.096408  1
  Al  Al15  1  0.941050  0.441050  0.117899  1
  Ga  Ga16  1  0.202064  0.202064  0.595872  1
  Ga  Ga17  1  0.812684  0.812684  0.374633  1
  Ni  Ni18  1  0.314712  0.314712  0.370576  1
  Ni  Ni19  1  0.564475  0.064475  0.871052  1
