# generated using pymatgen
data_DyY3(LuPt)4
_symmetry_space_group_name_H-M   'P 1'
_cell_length_a   4.74458800
_cell_length_b   7.11203114
_cell_length_c   8.65780987
_cell_angle_alpha   89.81309660
_cell_angle_beta   90.00000000
_cell_angle_gamma   90.00000000
_symmetry_Int_Tables_number   1
_chemical_formula_structural   DyY3(LuPt)4
_chemical_formula_sum   'Dy1 Y3 Lu4 Pt4'
_cell_volume   292.14461731
_cell_formula_units_Z   1
loop_
 _symmetry_equiv_pos_site_id
 _symmetry_equiv_pos_as_xyz
  1  'x, y, z'
loop_
 _atom_site_type_symbol
 _atom_site_label
 _atom_site_symmetry_multiplicity
 _atom_site_fract_x
 _atom_site_fract_y
 _atom_site_fract_z
 _atom_site_occupancy
  Dy  Dy0  1  0.250000  0.987834  0.329859  1
  Y  Y1  1  0.250000  0.486883  0.171349  1
  Y  Y2  1  0.750000  0.012639  0.671583  1
  Y  Y3  1  0.750000  0.512740  0.828828  1
  Lu  Lu4  1  0.250000  0.856963  0.923025  1
  Lu  Lu5  1  0.250000  0.356687  0.576905  1
  Lu  Lu6  1  0.750000  0.142730  0.077046  1
  Lu  Lu7  1  0.750000  0.643507  0.422711  1
  Pt  Pt8  1  0.250000  0.251323  0.905209  1
  Pt  Pt9  1  0.250000  0.752171  0.593898  1
  Pt  Pt10  1  0.750000  0.748629  0.094713  1
  Pt  Pt11  1  0.750000  0.247893  0.404874  1
