# generated using pymatgen
data_Zr4NbSn(B2Ru5)2
_symmetry_space_group_name_H-M   'P 1'
_cell_length_a   9.52695100
_cell_length_b   9.52695100
_cell_length_c   3.13355100
_cell_angle_alpha   90.00000000
_cell_angle_beta   90.00000000
_cell_angle_gamma   90.00000000
_symmetry_Int_Tables_number   1
_chemical_formula_structural   Zr4NbSn(B2Ru5)2
_chemical_formula_sum   'Zr4 Nb1 Sn1 B4 Ru10'
_cell_volume   284.40984815
_cell_formula_units_Z   1
loop_
 _symmetry_equiv_pos_site_id
 _symmetry_equiv_pos_as_xyz
  1  'x, y, z'
loop_
 _atom_site_type_symbol
 _atom_site_label
 _atom_site_symmetry_multiplicity
 _atom_site_fract_x
 _atom_site_fract_y
 _atom_site_fract_z
 _atom_site_occupancy
  Zr  Zr0  1  0.823597  0.675087  0.000000  1
  Zr  Zr1  1  0.176403  0.324913  0.000000  1
  Zr  Zr2  1  0.324913  0.823597  0.000000  1
  Zr  Zr3  1  0.675087  0.176403  0.000000  1
  Nb  Nb4  1  0.000000  0.000000  0.000000  1
  Sn  Sn5  1  0.500000  0.500000  0.000000  1
  B  B6  1  0.620743  0.878518  0.000000  1
  B  B7  1  0.379257  0.121482  0.000000  1
  B  B8  1  0.121482  0.620743  0.000000  1
  B  B9  1  0.878518  0.379257  0.000000  1
  Ru  Ru10  1  0.573309  0.722332  0.500000  1
  Ru  Ru11  1  0.426691  0.277668  0.500000  1
  Ru  Ru12  1  0.069074  0.781889  0.500000  1
  Ru  Ru13  1  0.930926  0.218111  0.500000  1
  Ru  Ru14  1  0.277668  0.573309  0.500000  1
  Ru  Ru15  1  0.722332  0.426691  0.500000  1
  Ru  Ru16  1  0.218111  0.069074  0.500000  1
  Ru  Ru17  1  0.781889  0.930926  0.500000  1
  Ru  Ru18  1  0.500000  0.000000  0.500000  1
  Ru  Ru19  1  0.000000  0.500000  0.500000  1
