# generated using pymatgen
data_Yb11Pr5Mg3CdRu4
_symmetry_space_group_name_H-M   'P 1'
_cell_length_a   10.03696479
_cell_length_b   9.91703310
_cell_length_c   9.92087047
_cell_angle_alpha   60.18418247
_cell_angle_beta   60.52919931
_cell_angle_gamma   60.43014854
_symmetry_Int_Tables_number   1
_chemical_formula_structural   Yb11Pr5Mg3CdRu4
_chemical_formula_sum   'Yb11 Pr5 Mg3 Cd1 Ru4'
_cell_volume   704.26936872
_cell_formula_units_Z   1
loop_
 _symmetry_equiv_pos_site_id
 _symmetry_equiv_pos_as_xyz
  1  'x, y, z'
loop_
 _atom_site_type_symbol
 _atom_site_label
 _atom_site_symmetry_multiplicity
 _atom_site_fract_x
 _atom_site_fract_y
 _atom_site_fract_z
 _atom_site_occupancy
  Yb  Yb0  1  0.048778  0.453032  0.450732  1
  Yb  Yb1  1  0.191107  0.809863  0.188242  1
  Yb  Yb2  1  0.657589  0.660031  0.658929  1
  Yb  Yb3  1  0.453478  0.451984  0.050834  1
  Yb  Yb4  1  0.046025  0.453321  0.050225  1
  Yb  Yb5  1  0.450861  0.047787  0.048200  1
  Yb  Yb6  1  0.049003  0.050863  0.449904  1
  Yb  Yb7  1  0.657008  0.662732  0.020822  1
  Yb  Yb8  1  0.658437  0.019292  0.661567  1
  Yb  Yb9  1  0.190895  0.810092  0.810934  1
  Yb  Yb10  1  0.452599  0.048923  0.454032  1
  Pr  Pr11  1  0.197122  0.185836  0.810309  1
  Pr  Pr12  1  0.024271  0.660314  0.658869  1
  Pr  Pr13  1  0.801514  0.813795  0.192080  1
  Pr  Pr14  1  0.808215  0.189920  0.193162  1
  Pr  Pr15  1  0.804742  0.190615  0.811039  1
  Mg  Mg16  1  0.422845  0.730584  0.421646  1
  Mg  Mg17  1  0.730052  0.422520  0.423573  1
  Mg  Mg18  1  0.421780  0.421508  0.731392  1
  Cd  Cd19  1  0.420956  0.419804  0.420927  1
  Ru  Ru20  1  0.868180  0.862723  0.868019  1
  Ru  Ru21  1  0.401505  0.873283  0.861395  1
  Ru  Ru22  1  0.874348  0.399276  0.861627  1
  Ru  Ru23  1  0.868692  0.861900  0.401543  1
