# generated using pymatgen
data_Ac3Nd3(RuO7)2
_symmetry_space_group_name_H-M   'P 1'
_cell_length_a   6.85546700
_cell_length_b   6.82497517
_cell_length_c   7.83598700
_cell_angle_alpha   90.00000000
_cell_angle_beta   90.00000000
_cell_angle_gamma   112.45168605
_symmetry_Int_Tables_number   1
_chemical_formula_structural   Ac3Nd3(RuO7)2
_chemical_formula_sum   'Ac3 Nd3 Ru2 O14'
_cell_volume   338.84312846
_cell_formula_units_Z   1
loop_
 _symmetry_equiv_pos_site_id
 _symmetry_equiv_pos_as_xyz
  1  'x, y, z'
loop_
 _atom_site_type_symbol
 _atom_site_label
 _atom_site_symmetry_multiplicity
 _atom_site_fract_x
 _atom_site_fract_y
 _atom_site_fract_z
 _atom_site_occupancy
  Ac  Ac0  1  0.464710  0.902718  0.750000  1
  Ac  Ac1  1  0.999207  0.002482  0.497871  1
  Ac  Ac2  1  0.999207  0.002482  0.002129  1
  Nd  Nd3  1  0.527655  0.091862  0.250000  1
  Nd  Nd4  1  0.903632  0.473497  0.750000  1
  Nd  Nd5  1  0.092775  0.528003  0.250000  1
  Ru  Ru6  1  0.502177  0.499937  0.497077  1
  Ru  Ru7  1  0.502177  0.499937  0.002923  1
  O  O8  1  0.581236  0.569158  0.750000  1
  O  O9  1  0.419499  0.418900  0.250000  1
  O  O10  1  0.841231  0.115685  0.750000  1
  O  O11  1  0.166992  0.888548  0.250000  1
  O  O12  1  0.093147  0.833482  0.750000  1
  O  O13  1  0.888961  0.169696  0.250000  1
  O  O14  1  0.438923  0.191253  0.969997  1
  O  O15  1  0.565283  0.805804  0.456074  1
  O  O16  1  0.198252  0.451902  0.965992  1
  O  O17  1  0.806240  0.552847  0.463901  1
  O  O18  1  0.438923  0.191253  0.530003  1
  O  O19  1  0.565283  0.805804  0.043926  1
  O  O20  1  0.806240  0.552847  0.036099  1
  O  O21  1  0.198252  0.451902  0.534008  1
