# generated using pymatgen
data_Ho9ThIr5Ru
_symmetry_space_group_name_H-M   'P 1'
_cell_length_a   10.88151403
_cell_length_b   10.86569900
_cell_length_c   6.38028985
_cell_angle_alpha   90.00000000
_cell_angle_beta   89.66225854
_cell_angle_gamma   90.00000000
_symmetry_Int_Tables_number   1
_chemical_formula_structural   Ho9ThIr5Ru
_chemical_formula_sum   'Ho18 Th2 Ir10 Ru2'
_cell_volume   754.36209814
_cell_formula_units_Z   2
loop_
 _symmetry_equiv_pos_site_id
 _symmetry_equiv_pos_as_xyz
  1  'x, y, z'
loop_
 _atom_site_type_symbol
 _atom_site_label
 _atom_site_symmetry_multiplicity
 _atom_site_fract_x
 _atom_site_fract_y
 _atom_site_fract_z
 _atom_site_occupancy
  Ho  Ho0  1  0.706344  0.087286  0.880084  1
  Ho  Ho1  1  0.706344  0.912714  0.380084  1
  Ho  Ho2  1  0.592402  0.791908  0.878756  1
  Ho  Ho3  1  0.592402  0.208092  0.378756  1
  Ho  Ho4  1  0.416977  0.788051  0.378460  1
  Ho  Ho5  1  0.416977  0.211949  0.878460  1
  Ho  Ho6  1  0.208304  0.412300  0.622188  1
  Ho  Ho7  1  0.208304  0.587700  0.122188  1
  Ho  Ho8  1  0.791495  0.412585  0.120658  1
  Ho  Ho9  1  0.791495  0.587415  0.620658  1
  Ho  Ho10  1  0.910882  0.708836  0.120361  1
  Ho  Ho11  1  0.910882  0.291164  0.620361  1
  Ho  Ho12  1  0.085324  0.707428  0.619134  1
  Ho  Ho13  1  0.085324  0.292572  0.119134  1
  Ho  Ho14  1  0.996300  0.999095  0.499149  1
  Ho  Ho15  1  0.996300  0.000905  0.999149  1
  Ho  Ho16  1  0.501773  0.500898  0.001642  1
  Ho  Ho17  1  0.501773  0.499102  0.501642  1
  Th  Th18  1  0.294720  0.090213  0.378077  1
  Th  Th19  1  0.294720  0.909787  0.878077  1
  Ir  Ir20  1  0.846353  0.154136  0.248945  1
  Ir  Ir21  1  0.846353  0.845864  0.748945  1
  Ir  Ir22  1  0.155036  0.151742  0.746436  1
  Ir  Ir23  1  0.155036  0.848258  0.246436  1
  Ir  Ir24  1  0.654000  0.347374  0.749621  1
  Ir  Ir25  1  0.654000  0.652626  0.249621  1
  Ir  Ir26  1  0.346189  0.347281  0.251680  1
  Ir  Ir27  1  0.346189  0.652719  0.751680  1
  Ir  Ir28  1  0.999495  0.499588  0.877970  1
  Ir  Ir29  1  0.999495  0.500412  0.377970  1
  Ru  Ru30  1  0.494405  0.000995  0.126842  1
  Ru  Ru31  1  0.494405  0.999005  0.626842  1
