# generated using pymatgen
data_Nd3YSi10NiPt5
_symmetry_space_group_name_H-M   'P 1'
_cell_length_a   8.19853034
_cell_length_b   8.20861214
_cell_length_c   8.20649605
_cell_angle_alpha   136.70375751
_cell_angle_beta   105.33663548
_cell_angle_gamma   90.45424497
_symmetry_Int_Tables_number   1
_chemical_formula_structural   Nd3YSi10NiPt5
_chemical_formula_sum   'Nd3 Y1 Si10 Ni1 Pt5'
_cell_volume   348.07622129
_cell_formula_units_Z   1
loop_
 _symmetry_equiv_pos_site_id
 _symmetry_equiv_pos_as_xyz
  1  'x, y, z'
loop_
 _atom_site_type_symbol
 _atom_site_label
 _atom_site_symmetry_multiplicity
 _atom_site_fract_x
 _atom_site_fract_y
 _atom_site_fract_z
 _atom_site_occupancy
  Nd  Nd0  1  0.361978  0.128945  0.232338  1
  Nd  Nd1  1  0.103711  0.371282  0.733405  1
  Nd  Nd2  1  0.896066  0.629667  0.267123  1
  Y  Y3  1  0.639372  0.870774  0.768389  1
  Si  Si4  1  0.274333  0.023933  0.750092  1
  Si  Si5  1  0.726158  0.976800  0.248949  1
  Si  Si6  1  0.726018  0.476084  0.749207  1
  Si  Si7  1  0.273966  0.523917  0.250404  1
  Si  Si8  1  0.463678  0.600290  0.843940  1
  Si  Si9  1  0.537767  0.379876  0.135333  1
  Si  Si10  1  0.753879  0.117567  0.658135  1
  Si  Si11  1  0.244017  0.901377  0.363207  1
  Si  Si12  1  0.999304  0.749046  0.748818  1
  Si  Si13  1  0.999465  0.250588  0.250529  1
  Ni  Ni14  1  0.500172  0.248897  0.749978  1
  Pt  Pt15  1  0.251113  0.638694  0.611894  1
  Pt  Pt16  1  0.750684  0.363019  0.387417  1
  Pt  Pt17  1  0.024223  0.135768  0.888881  1
  Pt  Pt18  1  0.973722  0.863569  0.110598  1
  Pt  Pt19  1  0.500375  0.749908  0.251361  1
