# generated using pymatgen
data_Tm4B16IrRu2Rh
_symmetry_space_group_name_H-M   'P 1'
_cell_length_a   3.53414700
_cell_length_b   5.92709129
_cell_length_c   11.48419371
_cell_angle_alpha   90.09174810
_cell_angle_beta   90.00000000
_cell_angle_gamma   90.00000000
_symmetry_Int_Tables_number   1
_chemical_formula_structural   Tm4B16IrRu2Rh
_chemical_formula_sum   'Tm4 B16 Ir1 Ru2 Rh1'
_cell_volume   240.56153086
_cell_formula_units_Z   1
loop_
 _symmetry_equiv_pos_site_id
 _symmetry_equiv_pos_as_xyz
  1  'x, y, z'
loop_
 _atom_site_type_symbol
 _atom_site_label
 _atom_site_symmetry_multiplicity
 _atom_site_fract_x
 _atom_site_fract_y
 _atom_site_fract_z
 _atom_site_occupancy
  Tm  Tm0  1  0.500000  0.130154  0.147686  1
  Tm  Tm1  1  0.500000  0.869695  0.852612  1
  Tm  Tm2  1  0.500000  0.631643  0.348997  1
  Tm  Tm3  1  0.500000  0.368158  0.650851  1
  B  B4  1  0.000000  0.475323  0.192195  1
  B  B5  1  0.000000  0.524392  0.808078  1
  B  B6  1  0.000000  0.977602  0.305816  1
  B  B7  1  0.000000  0.022802  0.694114  1
  B  B8  1  0.000000  0.290817  0.311401  1
  B  B9  1  0.000000  0.708695  0.688554  1
  B  B10  1  0.000000  0.791305  0.186169  1
  B  B11  1  0.000000  0.208908  0.813848  1
  B  B12  1  0.000000  0.363936  0.470992  1
  B  B13  1  0.000000  0.635633  0.528849  1
  B  B14  1  0.000000  0.864822  0.030481  1
  B  B15  1  0.000000  0.135198  0.969723  1
  B  B16  1  0.000000  0.387362  0.046690  1
  B  B17  1  0.000000  0.612641  0.953368  1
  B  B18  1  0.000000  0.887157  0.452271  1
  B  B19  1  0.000000  0.112788  0.548183  1
  Ir  Ir20  1  0.500000  0.856215  0.595603  1
  Ru  Ru21  1  0.500000  0.641138  0.092880  1
  Ru  Ru22  1  0.500000  0.358543  0.906601  1
  Rh  Rh23  1  0.500000  0.145071  0.404036  1
