# generated using pymatgen
data_La7Nd2Dy3In20
_symmetry_space_group_name_H-M   'P 1'
_cell_length_a   6.78143321
_cell_length_b   10.76058143
_cell_length_c   12.48643900
_cell_angle_alpha   90.01228917
_cell_angle_beta   90.03426882
_cell_angle_gamma   90.03650874
_symmetry_Int_Tables_number   1
_chemical_formula_structural   La7Nd2Dy3In20
_chemical_formula_sum   'La7 Nd2 Dy3 In20'
_cell_volume   911.16210949
_cell_formula_units_Z   1
loop_
 _symmetry_equiv_pos_site_id
 _symmetry_equiv_pos_as_xyz
  1  'x, y, z'
loop_
 _atom_site_type_symbol
 _atom_site_label
 _atom_site_symmetry_multiplicity
 _atom_site_fract_x
 _atom_site_fract_y
 _atom_site_fract_z
 _atom_site_occupancy
  La  La0  1  0.886846  0.489912  0.143749  1
  La  La1  1  0.613072  0.011710  0.643416  1
  La  La2  1  0.110332  0.990744  0.855159  1
  La  La3  1  0.389171  0.510155  0.356794  1
  La  La4  1  0.110151  0.509327  0.855473  1
  La  La5  1  0.389651  0.989903  0.356724  1
  La  La6  1  0.886921  0.010005  0.143800  1
  Nd  Nd7  1  0.350134  0.749924  0.060529  1
  Nd  Nd8  1  0.613112  0.488114  0.643375  1
  Dy  Dy9  1  0.150822  0.750262  0.559580  1
  Dy  Dy10  1  0.648965  0.249927  0.939478  1
  Dy  Dy11  1  0.850415  0.250279  0.440464  1
  In  In12  1  0.620105  0.748474  0.505926  1
  In  In13  1  0.873942  0.749947  0.000922  1
  In  In14  1  0.382955  0.250631  0.497531  1
  In  In15  1  0.115675  0.250068  0.997035  1
  In  In16  1  0.661360  0.749737  0.245586  1
  In  In17  1  0.843973  0.748799  0.741646  1
  In  In18  1  0.345253  0.251006  0.755501  1
  In  In19  1  0.155092  0.250065  0.256716  1
  In  In20  1  0.107486  0.750013  0.288618  1
  In  In21  1  0.393296  0.749453  0.782454  1
  In  In22  1  0.893140  0.251501  0.714783  1
  In  In23  1  0.608665  0.250092  0.216015  1
  In  In24  1  0.875092  0.544861  0.406493  1
  In  In25  1  0.624046  0.955668  0.904290  1
  In  In26  1  0.126063  0.046126  0.594605  1
  In  In27  1  0.374139  0.450682  0.094735  1
  In  In28  1  0.127276  0.454837  0.594947  1
  In  In29  1  0.373990  0.049382  0.095131  1
  In  In30  1  0.875565  0.954479  0.406004  1
  In  In31  1  0.623294  0.543916  0.902517  1
