# generated using pymatgen
data_La4Y8Tc3Pd
_symmetry_space_group_name_H-M   'P 1'
_cell_length_a   6.52107176
_cell_length_b   7.42007113
_cell_length_c   9.55823900
_cell_angle_alpha   90.00000000
_cell_angle_beta   90.00000000
_cell_angle_gamma   90.38379800
_symmetry_Int_Tables_number   1
_chemical_formula_structural   La4Y8Tc3Pd
_chemical_formula_sum   'La4 Y8 Tc3 Pd1'
_cell_volume   462.48237844
_cell_formula_units_Z   1
loop_
 _symmetry_equiv_pos_site_id
 _symmetry_equiv_pos_as_xyz
  1  'x, y, z'
loop_
 _atom_site_type_symbol
 _atom_site_label
 _atom_site_symmetry_multiplicity
 _atom_site_fract_x
 _atom_site_fract_y
 _atom_site_fract_z
 _atom_site_occupancy
  La  La0  1  0.621450  0.056420  0.250000  1
  La  La1  1  0.367168  0.943586  0.750000  1
  La  La2  1  0.128834  0.449611  0.750000  1
  La  La3  1  0.860084  0.538959  0.250000  1
  Y  Y4  1  0.164660  0.180313  0.059931  1
  Y  Y5  1  0.827205  0.827267  0.929046  1
  Y  Y6  1  0.666563  0.323267  0.931111  1
  Y  Y7  1  0.827205  0.827267  0.570954  1
  Y  Y8  1  0.338854  0.668844  0.062817  1
  Y  Y9  1  0.164660  0.180313  0.440069  1
  Y  Y10  1  0.338854  0.668844  0.437183  1
  Y  Y11  1  0.666563  0.323267  0.568889  1
  Tc  Tc12  1  0.471960  0.371573  0.250000  1
  Tc  Tc13  1  0.522605  0.628086  0.750000  1
  Tc  Tc14  1  0.976718  0.126150  0.750000  1
  Pd  Pd15  1  0.056617  0.886232  0.250000  1
