# generated using pymatgen
data_La3InPt2RhAu2
_symmetry_space_group_name_H-M   'P 1'
_cell_length_a   7.75160435
_cell_length_b   7.59779594
_cell_length_c   4.07055700
_cell_angle_alpha   90.00000000
_cell_angle_beta   90.00000000
_cell_angle_gamma   119.34576972
_symmetry_Int_Tables_number   1
_chemical_formula_structural   La3InPt2RhAu2
_chemical_formula_sum   'La3 In1 Pt2 Rh1 Au2'
_cell_volume   208.97251923
_cell_formula_units_Z   1
loop_
 _symmetry_equiv_pos_site_id
 _symmetry_equiv_pos_as_xyz
  1  'x, y, z'
loop_
 _atom_site_type_symbol
 _atom_site_label
 _atom_site_symmetry_multiplicity
 _atom_site_fract_x
 _atom_site_fract_y
 _atom_site_fract_z
 _atom_site_occupancy
  La  La0  1  0.406102  0.393572  0.500000  1
  La  La1  1  0.000000  0.624416  0.500000  1
  La  La2  1  0.593898  0.987470  0.500000  1
  In  In3  1  0.000000  0.250335  0.000000  1
  Pt  Pt4  1  0.678274  0.328113  0.000000  1
  Pt  Pt5  1  0.321726  0.649840  0.000000  1
  Rh  Rh6  1  0.000000  0.019673  0.500000  1
  Au  Au7  1  0.741172  0.743878  0.000000  1
  Au  Au8  1  0.258828  0.002704  0.000000  1
