# generated using pymatgen
data_Ca7TmBi6
_symmetry_space_group_name_H-M   'P 1'
_cell_length_a   8.30602550
_cell_length_b   8.37706849
_cell_length_c   8.37706962
_cell_angle_alpha   109.64238014
_cell_angle_beta   109.29951108
_cell_angle_gamma   109.29951762
_symmetry_Int_Tables_number   1
_chemical_formula_structural   Ca7TmBi6
_chemical_formula_sum   'Ca7 Tm1 Bi6'
_cell_volume   449.64677278
_cell_formula_units_Z   1
loop_
 _symmetry_equiv_pos_site_id
 _symmetry_equiv_pos_as_xyz
  1  'x, y, z'
loop_
 _atom_site_type_symbol
 _atom_site_label
 _atom_site_symmetry_multiplicity
 _atom_site_fract_x
 _atom_site_fract_y
 _atom_site_fract_z
 _atom_site_occupancy
  Ca  Ca0  1  0.648680  0.500000  0.000000  1
  Ca  Ca1  1  0.499478  0.001502  0.650290  1
  Ca  Ca2  1  0.356625  0.353841  0.357179  1
  Ca  Ca3  1  0.502784  0.003338  0.146159  1
  Ca  Ca4  1  0.997976  0.648789  0.498498  1
  Ca  Ca5  1  0.849188  0.849710  0.851211  1
  Ca  Ca6  1  0.999446  0.142821  0.496662  1
  Tm  Tm7  1  0.147454  0.500000  0.000000  1
  Bi  Bi8  1  0.369452  0.623197  0.755724  1
  Bi  Bi9  1  0.883506  0.256316  0.125266  1
  Bi  Bi10  1  0.613727  0.744276  0.367473  1
  Bi  Bi11  1  0.127191  0.868951  0.243684  1
  Bi  Bi12  1  0.246254  0.132527  0.876803  1
  Bi  Bi13  1  0.758240  0.374734  0.631049  1
