# generated using pymatgen
data_ErTmNpO6
_symmetry_space_group_name_H-M   'P 1'
_cell_length_a   5.47605500
_cell_length_b   7.76713603
_cell_length_c   11.74379111
_cell_angle_alpha   73.60673971
_cell_angle_beta   90.00000000
_cell_angle_gamma   90.00000000
_symmetry_Int_Tables_number   1
_chemical_formula_structural   ErTmNpO6
_chemical_formula_sum   'Er4 Tm4 Np4 O24'
_cell_volume   479.19561321
_cell_formula_units_Z   4
loop_
 _symmetry_equiv_pos_site_id
 _symmetry_equiv_pos_as_xyz
  1  'x, y, z'
loop_
 _atom_site_type_symbol
 _atom_site_label
 _atom_site_symmetry_multiplicity
 _atom_site_fract_x
 _atom_site_fract_y
 _atom_site_fract_z
 _atom_site_occupancy
  Er  Er0  1  0.745612  0.000000  0.750000  1
  Er  Er1  1  0.254388  0.000000  0.250000  1
  Er  Er2  1  0.701416  0.500000  0.750000  1
  Er  Er3  1  0.298584  0.500000  0.250000  1
  Tm  Tm4  1  0.186370  0.794944  0.580278  1
  Tm  Tm5  1  0.813630  0.794944  0.080278  1
  Tm  Tm6  1  0.186370  0.205056  0.919722  1
  Tm  Tm7  1  0.813630  0.205056  0.419722  1
  Np  Np8  1  0.256402  0.719273  0.887494  1
  Np  Np9  1  0.743598  0.719273  0.387494  1
  Np  Np10  1  0.256402  0.280727  0.612506  1
  Np  Np11  1  0.743598  0.280727  0.112506  1
  O  O12  1  0.045356  0.944624  0.897399  1
  O  O13  1  0.557799  0.849382  0.931805  1
  O  O14  1  0.954644  0.944624  0.397399  1
  O  O15  1  0.449514  0.802709  0.725424  1
  O  O16  1  0.442201  0.849382  0.431805  1
  O  O17  1  0.962460  0.715434  0.765167  1
  O  O18  1  0.550486  0.802709  0.225424  1
  O  O19  1  0.878902  0.624706  0.556831  1
  O  O20  1  0.391164  0.477965  0.883117  1
  O  O21  1  0.037540  0.715434  0.265167  1
  O  O22  1  0.391164  0.522035  0.616883  1
  O  O23  1  0.878902  0.375294  0.943169  1
  O  O24  1  0.121098  0.624706  0.056831  1
  O  O25  1  0.608836  0.477965  0.383117  1
  O  O26  1  0.962460  0.284566  0.734833  1
  O  O27  1  0.608836  0.522035  0.116883  1
  O  O28  1  0.121098  0.375294  0.443169  1
  O  O29  1  0.449514  0.197291  0.774576  1
  O  O30  1  0.037540  0.284566  0.234833  1
  O  O31  1  0.557799  0.150618  0.568195  1
  O  O32  1  0.550486  0.197291  0.274576  1
  O  O33  1  0.045356  0.055376  0.602601  1
  O  O34  1  0.442201  0.150618  0.068195  1
  O  O35  1  0.954644  0.055376  0.102601  1
