# generated using pymatgen
data_Nd20Si15Ge
_symmetry_space_group_name_H-M   'P 1'
_cell_length_a   7.88575614
_cell_length_b   7.88182626
_cell_length_c   15.17087297
_cell_angle_alpha   89.98131919
_cell_angle_beta   89.91895103
_cell_angle_gamma   90.02242828
_symmetry_Int_Tables_number   1
_chemical_formula_structural   Nd20Si15Ge
_chemical_formula_sum   'Nd20 Si15 Ge1'
_cell_volume   942.93179652
_cell_formula_units_Z   1
loop_
 _symmetry_equiv_pos_site_id
 _symmetry_equiv_pos_as_xyz
  1  'x, y, z'
loop_
 _atom_site_type_symbol
 _atom_site_label
 _atom_site_symmetry_multiplicity
 _atom_site_fract_x
 _atom_site_fract_y
 _atom_site_fract_z
 _atom_site_occupancy
  Nd  Nd0  1  0.692469  0.690291  0.999593  1
  Nd  Nd1  1  0.009942  0.375930  0.051607  1
  Nd  Nd2  1  0.016901  0.872761  0.123847  1
  Nd  Nd3  1  0.483185  0.370261  0.126471  1
  Nd  Nd4  1  0.489859  0.877870  0.199020  1
  Nd  Nd5  1  0.809916  0.190417  0.250243  1
  Nd  Nd6  1  0.123037  0.511103  0.301805  1
  Nd  Nd7  1  0.627990  0.518062  0.373852  1
  Nd  Nd8  1  0.127956  0.981864  0.376170  1
  Nd  Nd9  1  0.623172  0.988898  0.448345  1
  Nd  Nd10  1  0.309707  0.309572  0.500055  1
  Nd  Nd11  1  0.988986  0.623157  0.551808  1
  Nd  Nd12  1  0.981818  0.127949  0.623855  1
  Nd  Nd13  1  0.518034  0.628079  0.626123  1
  Nd  Nd14  1  0.511095  0.123122  0.698216  1
  Nd  Nd15  1  0.190410  0.809623  0.749959  1
  Nd  Nd16  1  0.876636  0.488831  0.801680  1
  Nd  Nd17  1  0.372042  0.481747  0.873312  1
  Nd  Nd18  1  0.871829  0.018408  0.875966  1
  Nd  Nd19  1  0.377042  0.012389  0.947774  1
  Si  Si20  1  0.711333  0.076836  0.059829  1
  Si  Si21  1  0.788494  0.577049  0.190050  1
  Si  Si22  1  0.195730  0.167873  0.200923  1
  Si  Si23  1  0.832197  0.804290  0.298919  1
  Si  Si24  1  0.422921  0.211535  0.309786  1
  Si  Si25  1  0.922954  0.288519  0.440213  1
  Si  Si26  1  0.332193  0.695877  0.450996  1
  Si  Si27  1  0.695842  0.332113  0.548921  1
  Si  Si28  1  0.288421  0.922921  0.559769  1
  Si  Si29  1  0.211635  0.423010  0.690180  1
  Si  Si30  1  0.804125  0.832258  0.701037  1
  Si  Si31  1  0.167965  0.195645  0.798900  1
  Si  Si32  1  0.576707  0.788498  0.809879  1
  Si  Si33  1  0.073756  0.711650  0.938612  1
  Si  Si34  1  0.667388  0.304413  0.951015  1
  Ge  Ge35  1  0.306317  0.667186  0.051270  1
