# generated using pymatgen
data_EuZnCdPt3
_symmetry_space_group_name_H-M   'P 1'
_cell_length_a   5.25011991
_cell_length_b   5.25011854
_cell_length_c   5.25011923
_cell_angle_alpha   63.84284213
_cell_angle_beta   63.84285096
_cell_angle_gamma   63.84284511
_symmetry_Int_Tables_number   1
_chemical_formula_structural   EuZnCdPt3
_chemical_formula_sum   'Eu1 Zn1 Cd1 Pt3'
_cell_volume   110.99907054
_cell_formula_units_Z   1
loop_
 _symmetry_equiv_pos_site_id
 _symmetry_equiv_pos_as_xyz
  1  'x, y, z'
loop_
 _atom_site_type_symbol
 _atom_site_label
 _atom_site_symmetry_multiplicity
 _atom_site_fract_x
 _atom_site_fract_y
 _atom_site_fract_z
 _atom_site_occupancy
  Eu  Eu0  1  0.002051  0.002051  0.002051  1
  Zn  Zn1  1  0.624054  0.624054  0.624054  1
  Cd  Cd2  1  0.252949  0.252949  0.252949  1
  Pt  Pt3  1  0.622538  0.125871  0.622538  1
  Pt  Pt4  1  0.622538  0.622538  0.125871  1
  Pt  Pt5  1  0.125871  0.622538  0.622538  1
