# generated using pymatgen
data_MnSb12IrPd2
_symmetry_space_group_name_H-M   'P 1'
_cell_length_a   8.13128257
_cell_length_b   8.11583243
_cell_length_c   9.40110386
_cell_angle_alpha   54.87972973
_cell_angle_beta   54.81569410
_cell_angle_gamma   70.49818980
_symmetry_Int_Tables_number   1
_chemical_formula_structural   MnSb12IrPd2
_chemical_formula_sum   'Mn1 Sb12 Ir1 Pd2'
_cell_volume   414.74009671
_cell_formula_units_Z   1
loop_
 _symmetry_equiv_pos_site_id
 _symmetry_equiv_pos_as_xyz
  1  'x, y, z'
loop_
 _atom_site_type_symbol
 _atom_site_label
 _atom_site_symmetry_multiplicity
 _atom_site_fract_x
 _atom_site_fract_y
 _atom_site_fract_z
 _atom_site_occupancy
  Mn  Mn0  1  0.000000  0.500000  0.500000  1
  Sb  Sb1  1  0.676859  0.662360  0.487580  1
  Sb  Sb2  1  0.323141  0.337640  0.512420  1
  Sb  Sb3  1  0.651245  0.651090  0.195920  1
  Sb  Sb4  1  0.348755  0.348910  0.804080  1
  Sb  Sb5  1  0.156022  0.848416  0.654085  1
  Sb  Sb6  1  0.843978  0.151584  0.345915  1
  Sb  Sb7  1  0.853315  0.167985  0.652762  1
  Sb  Sb8  1  0.146685  0.832015  0.347238  1
  Sb  Sb9  1  0.820477  0.492681  0.832756  1
  Sb  Sb10  1  0.179523  0.507319  0.167244  1
  Sb  Sb11  1  0.503411  0.190570  0.155418  1
  Sb  Sb12  1  0.496589  0.809430  0.844582  1
  Ir  Ir13  1  0.500000  0.000000  0.500000  1
  Pd  Pd14  1  0.000000  0.500000  0.000000  1
  Pd  Pd15  1  0.500000  0.000000  0.000000  1
