# generated using pymatgen
data_Nd19ErSi15Br
_symmetry_space_group_name_H-M   'P 1'
_cell_length_a   7.81456409
_cell_length_b   7.92799735
_cell_length_c   15.26549847
_cell_angle_alpha   89.52227969
_cell_angle_beta   84.26175053
_cell_angle_gamma   89.61738535
_symmetry_Int_Tables_number   1
_chemical_formula_structural   Nd19ErSi15Br
_chemical_formula_sum   'Nd19 Er1 Si15 Br1'
_cell_volume   940.96821662
_cell_formula_units_Z   1
loop_
 _symmetry_equiv_pos_site_id
 _symmetry_equiv_pos_as_xyz
  1  'x, y, z'
loop_
 _atom_site_type_symbol
 _atom_site_label
 _atom_site_symmetry_multiplicity
 _atom_site_fract_x
 _atom_site_fract_y
 _atom_site_fract_z
 _atom_site_occupancy
  Nd  Nd0  1  0.887990  0.331111  0.618996  1
  Nd  Nd1  1  0.477053  0.688379  0.896250  1
  Nd  Nd2  1  0.975444  0.814584  0.897305  1
  Nd  Nd3  1  0.170395  0.678217  0.120462  1
  Nd  Nd4  1  0.669673  0.814761  0.121412  1
  Nd  Nd5  1  0.331481  0.182521  0.880054  1
  Nd  Nd6  1  0.123790  0.669135  0.386220  1
  Nd  Nd7  1  0.024961  0.184609  0.102972  1
  Nd  Nd8  1  0.380217  0.169251  0.614872  1
  Nd  Nd9  1  0.817812  0.490279  0.241243  1
  Nd  Nd10  1  0.317865  0.002260  0.250997  1
  Nd  Nd11  1  0.461839  0.312122  0.392268  1
  Nd  Nd12  1  0.831473  0.320962  0.878489  1
  Nd  Nd13  1  0.035097  0.832481  0.609420  1
  Nd  Nd14  1  0.517494  0.688979  0.611024  1
  Nd  Nd15  1  0.973987  0.163253  0.390901  1
  Nd  Nd16  1  0.615116  0.840831  0.384836  1
  Nd  Nd17  1  0.682242  0.998946  0.746752  1
  Nd  Nd18  1  0.524025  0.310575  0.102351  1
  Er  Er19  1  0.185765  0.510560  0.748178  1
  Si  Si20  1  0.435881  0.603739  0.253811  1
  Si  Si21  1  0.204526  0.376338  0.249933  1
  Si  Si22  1  0.560148  0.398981  0.750383  1
  Si  Si23  1  0.642349  0.026054  0.959367  1
  Si  Si24  1  0.063709  0.110628  0.752063  1
  Si  Si25  1  0.795685  0.622856  0.752040  1
  Si  Si26  1  0.706226  0.118260  0.248428  1
  Si  Si27  1  0.274830  0.980871  0.453573  1
  Si  Si28  1  0.937447  0.890485  0.250574  1
  Si  Si29  1  0.361492  0.971982  0.041363  1
  Si  Si30  1  0.728483  0.019861  0.543488  1
  Si  Si31  1  0.141983  0.475855  0.956434  1
  Si  Si32  1  0.224133  0.490230  0.550575  1
  Si  Si33  1  0.860619  0.524786  0.040151  1
  Si  Si34  1  0.290731  0.878428  0.753692  1
  Br  Br35  1  0.768036  0.506828  0.449123  1
