# generated using pymatgen
data_Sc2AlTc3
_symmetry_space_group_name_H-M   'P 1'
_cell_length_a   5.21744700
_cell_length_b   5.21744806
_cell_length_c   8.70252600
_cell_angle_alpha   90.00000000
_cell_angle_beta   90.00000000
_cell_angle_gamma   120.00001232
_symmetry_Int_Tables_number   1
_chemical_formula_structural   Sc2AlTc3
_chemical_formula_sum   'Sc4 Al2 Tc6'
_cell_volume   205.15971519
_cell_formula_units_Z   2
loop_
 _symmetry_equiv_pos_site_id
 _symmetry_equiv_pos_as_xyz
  1  'x, y, z'
loop_
 _atom_site_type_symbol
 _atom_site_label
 _atom_site_symmetry_multiplicity
 _atom_site_fract_x
 _atom_site_fract_y
 _atom_site_fract_z
 _atom_site_occupancy
  Sc  Sc0  1  0.333333  0.666667  0.432186  1
  Sc  Sc1  1  0.666667  0.333333  0.567814  1
  Sc  Sc2  1  0.666667  0.333333  0.932186  1
  Sc  Sc3  1  0.333333  0.666667  0.067814  1
  Al  Al4  1  0.000000  0.000000  0.500000  1
  Al  Al5  1  0.000000  0.000000  0.000000  1
  Tc  Tc6  1  0.829230  0.170770  0.250000  1
  Tc  Tc7  1  0.829230  0.658461  0.250000  1
  Tc  Tc8  1  0.341539  0.170770  0.250000  1
  Tc  Tc9  1  0.170770  0.829230  0.750000  1
  Tc  Tc10  1  0.170770  0.341539  0.750000  1
  Tc  Tc11  1  0.658461  0.829230  0.750000  1
