# generated using pymatgen
data_NdY2Th3Si4
_symmetry_space_group_name_H-M   'P 1'
_cell_length_a   7.66587035
_cell_length_b   7.66587030
_cell_length_c   4.28034200
_cell_angle_alpha   90.00000000
_cell_angle_beta   90.00000000
_cell_angle_gamma   90.20607791
_symmetry_Int_Tables_number   1
_chemical_formula_structural   NdY2Th3Si4
_chemical_formula_sum   'Nd1 Y2 Th3 Si4'
_cell_volume   251.53510094
_cell_formula_units_Z   1
loop_
 _symmetry_equiv_pos_site_id
 _symmetry_equiv_pos_as_xyz
  1  'x, y, z'
loop_
 _atom_site_type_symbol
 _atom_site_label
 _atom_site_symmetry_multiplicity
 _atom_site_fract_x
 _atom_site_fract_y
 _atom_site_fract_z
 _atom_site_occupancy
  Nd  Nd0  1  0.823454  0.676546  0.500000  1
  Y  Y1  1  0.999074  0.000520  0.000000  1
  Y  Y2  1  0.499480  0.500926  0.000000  1
  Th  Th3  1  0.677709  0.178370  0.500000  1
  Th  Th4  1  0.321630  0.822291  0.500000  1
  Th  Th5  1  0.178019  0.321981  0.500000  1
  Si  Si6  1  0.118603  0.615097  0.000000  1
  Si  Si7  1  0.884903  0.381397  0.000000  1
  Si  Si8  1  0.614303  0.885697  0.000000  1
  Si  Si9  1  0.382826  0.117174  0.000000  1
