# generated using pymatgen
data_Hf(Nb3N4)3
_symmetry_space_group_name_H-M   'P 1'
_cell_length_a   5.27947200
_cell_length_b   5.27947038
_cell_length_c   10.47990800
_cell_angle_alpha   90.00000000
_cell_angle_beta   90.00000000
_cell_angle_gamma   120.00001015
_symmetry_Int_Tables_number   1
_chemical_formula_structural   Hf(Nb3N4)3
_chemical_formula_sum   'Hf1 Nb9 N12'
_cell_volume   252.96993314
_cell_formula_units_Z   1
loop_
 _symmetry_equiv_pos_site_id
 _symmetry_equiv_pos_as_xyz
  1  'x, y, z'
loop_
 _atom_site_type_symbol
 _atom_site_label
 _atom_site_symmetry_multiplicity
 _atom_site_fract_x
 _atom_site_fract_y
 _atom_site_fract_z
 _atom_site_occupancy
  Hf  Hf0  1  0.333333  0.666667  0.500000  1
  Nb  Nb1  1  0.666667  0.333333  0.000000  1
  Nb  Nb2  1  0.666667  0.333333  0.500000  1
  Nb  Nb3  1  0.333333  0.666667  0.000000  1
  Nb  Nb4  1  0.675866  0.999793  0.751500  1
  Nb  Nb5  1  0.675866  0.676073  0.248500  1
  Nb  Nb6  1  0.000207  0.324134  0.248500  1
  Nb  Nb7  1  0.000207  0.676073  0.751500  1
  Nb  Nb8  1  0.323927  0.324134  0.751500  1
  Nb  Nb9  1  0.323927  0.999793  0.248500  1
  N  N10  1  0.343859  0.340877  0.376714  1
  N  N11  1  0.659123  0.002981  0.376714  1
  N  N12  1  0.997019  0.656141  0.376714  1
  N  N13  1  0.999994  0.339352  0.878285  1
  N  N14  1  0.660648  0.000006  0.121715  1
  N  N15  1  0.660648  0.660642  0.878285  1
  N  N16  1  0.339358  0.000006  0.878285  1
  N  N17  1  0.659123  0.656141  0.623286  1
  N  N18  1  0.997019  0.340877  0.623286  1
  N  N19  1  0.999994  0.660642  0.121715  1
  N  N20  1  0.343859  0.002981  0.623286  1
  N  N21  1  0.339358  0.339352  0.121715  1
