# generated using pymatgen
data_Yb6ErTmSb6
_symmetry_space_group_name_H-M   'P 1'
_cell_length_a   8.16497702
_cell_length_b   8.14550110
_cell_length_c   8.08725012
_cell_angle_alpha   109.45222192
_cell_angle_beta   109.54528828
_cell_angle_gamma   109.75475432
_symmetry_Int_Tables_number   1
_chemical_formula_structural   Yb6ErTmSb6
_chemical_formula_sum   'Yb6 Er1 Tm1 Sb6'
_cell_volume   412.30744957
_cell_formula_units_Z   1
loop_
 _symmetry_equiv_pos_site_id
 _symmetry_equiv_pos_as_xyz
  1  'x, y, z'
loop_
 _atom_site_type_symbol
 _atom_site_label
 _atom_site_symmetry_multiplicity
 _atom_site_fract_x
 _atom_site_fract_y
 _atom_site_fract_z
 _atom_site_occupancy
  Yb  Yb0  1  0.004422  0.355418  0.499429  1
  Yb  Yb1  1  0.351069  0.494034  0.995694  1
  Yb  Yb2  1  0.004948  0.855962  0.500584  1
  Yb  Yb3  1  0.855367  0.498363  0.004289  1
  Yb  Yb4  1  0.499111  0.004396  0.858410  1
  Yb  Yb5  1  0.140679  0.145993  0.141580  1
  Er  Er6  1  0.498943  0.000135  0.353550  1
  Tm  Tm7  1  0.645337  0.646479  0.646318  1
  Sb  Sb8  1  0.863908  0.113683  0.737882  1
  Sb  Sb9  1  0.383382  0.253450  0.620367  1
  Sb  Sb10  1  0.121804  0.751551  0.879906  1
  Sb  Sb11  1  0.741921  0.871595  0.119924  1
  Sb  Sb12  1  0.263077  0.632876  0.379764  1
  Sb  Sb13  1  0.626032  0.376061  0.262301  1
