# generated using pymatgen
data_Ca6Tb2Al4Si11Ge
_symmetry_space_group_name_H-M   'P 1'
_cell_length_a   4.21084700
_cell_length_b   6.78153302
_cell_length_c   18.13315156
_cell_angle_alpha   90.05348486
_cell_angle_beta   90.00000000
_cell_angle_gamma   90.00000000
_symmetry_Int_Tables_number   1
_chemical_formula_structural   Ca6Tb2Al4Si11Ge
_chemical_formula_sum   'Ca6 Tb2 Al4 Si11 Ge1'
_cell_volume   517.81001389
_cell_formula_units_Z   1
loop_
 _symmetry_equiv_pos_site_id
 _symmetry_equiv_pos_as_xyz
  1  'x, y, z'
loop_
 _atom_site_type_symbol
 _atom_site_label
 _atom_site_symmetry_multiplicity
 _atom_site_fract_x
 _atom_site_fract_y
 _atom_site_fract_z
 _atom_site_occupancy
  Ca  Ca0  1  0.750000  0.312463  0.299733  1
  Ca  Ca1  1  0.750000  0.330558  0.081796  1
  Ca  Ca2  1  0.250000  0.661386  0.918468  1
  Ca  Ca3  1  0.250000  0.187692  0.798764  1
  Ca  Ca4  1  0.750000  0.841358  0.419567  1
  Ca  Ca5  1  0.250000  0.168659  0.580360  1
  Tb  Tb6  1  0.750000  0.811792  0.200336  1
  Tb  Tb7  1  0.250000  0.687916  0.699580  1
  Al  Al8  1  0.750000  0.544360  0.565213  1
  Al  Al9  1  0.250000  0.953260  0.066538  1
  Al  Al10  1  0.750000  0.030604  0.936679  1
  Al  Al11  1  0.250000  0.465807  0.436675  1
  Si  Si12  1  0.750000  0.275180  0.465064  1
  Si  Si13  1  0.250000  0.135823  0.190345  1
  Si  Si14  1  0.750000  0.861133  0.807880  1
  Si  Si15  1  0.750000  0.363624  0.689510  1
  Si  Si16  1  0.750000  0.513074  0.807398  1
  Si  Si17  1  0.250000  0.987230  0.308330  1
  Si  Si18  1  0.750000  0.005810  0.689080  1
  Si  Si19  1  0.250000  0.639012  0.308581  1
  Si  Si20  1  0.250000  0.735321  0.537675  1
  Si  Si21  1  0.250000  0.494056  0.189680  1
  Si  Si22  1  0.750000  0.763113  0.037773  1
  Ge  Ge23  1  0.250000  0.230767  0.964971  1
