# generated using pymatgen
data_Tm8Mg2Ni4BiSb
_symmetry_space_group_name_H-M   'P 1'
_cell_length_a   8.63835198
_cell_length_b   8.63835123
_cell_length_c   8.63835101
_cell_angle_alpha   129.59753721
_cell_angle_beta   129.59753748
_cell_angle_gamma   74.05098927
_symmetry_Int_Tables_number   1
_chemical_formula_structural   Tm8Mg2Ni4BiSb
_chemical_formula_sum   'Tm8 Mg2 Ni4 Bi1 Sb1'
_cell_volume   373.21944111
_cell_formula_units_Z   1
loop_
 _symmetry_equiv_pos_site_id
 _symmetry_equiv_pos_as_xyz
  1  'x, y, z'
loop_
 _atom_site_type_symbol
 _atom_site_label
 _atom_site_symmetry_multiplicity
 _atom_site_fract_x
 _atom_site_fract_y
 _atom_site_fract_z
 _atom_site_occupancy
  Tm  Tm0  1  0.796589  0.290762  0.833643  1
  Tm  Tm1  1  0.209238  0.703411  0.166357  1
  Tm  Tm2  1  0.457120  0.962947  0.166357  1
  Tm  Tm3  1  0.290762  0.457120  0.494173  1
  Tm  Tm4  1  0.042880  0.209238  0.505827  1
  Tm  Tm5  1  0.537053  0.042880  0.833643  1
  Tm  Tm6  1  0.703411  0.537053  0.494173  1
  Tm  Tm7  1  0.962947  0.796589  0.505827  1
  Mg  Mg8  1  0.998120  0.998120  0.000000  1
  Mg  Mg9  1  0.501880  0.501880  0.000000  1
  Ni  Ni10  1  0.126072  0.626072  0.752144  1
  Ni  Ni11  1  0.873928  0.373928  0.247856  1
  Ni  Ni12  1  0.626072  0.873928  0.500000  1
  Ni  Ni13  1  0.373928  0.126072  0.500000  1
  Bi  Bi14  1  0.750000  0.750000  0.000000  1
  Sb  Sb15  1  0.250000  0.250000  0.000000  1
