# generated using pymatgen
data_LiTm2Lu(B6Ru)2
_symmetry_space_group_name_H-M   'P 1'
_cell_length_a   3.55112900
_cell_length_b   8.92699169
_cell_length_c   11.28718039
_cell_angle_alpha   89.91109574
_cell_angle_beta   90.00000000
_cell_angle_gamma   90.00000000
_symmetry_Int_Tables_number   1
_chemical_formula_structural   LiTm2Lu(B6Ru)2
_chemical_formula_sum   'Li2 Tm4 Lu2 B24 Ru4'
_cell_volume   357.81333570
_cell_formula_units_Z   2
loop_
 _symmetry_equiv_pos_site_id
 _symmetry_equiv_pos_as_xyz
  1  'x, y, z'
loop_
 _atom_site_type_symbol
 _atom_site_label
 _atom_site_symmetry_multiplicity
 _atom_site_fract_x
 _atom_site_fract_y
 _atom_site_fract_z
 _atom_site_occupancy
  Li  Li0  1  0.000000  0.944660  0.374342  1
  Li  Li1  1  0.000000  0.055340  0.625658  1
  Tm  Tm2  1  0.000000  0.317769  0.415735  1
  Tm  Tm3  1  0.000000  0.682231  0.584265  1
  Tm  Tm4  1  0.000000  0.824411  0.088112  1
  Tm  Tm5  1  0.000000  0.175589  0.911888  1
  Lu  Lu6  1  0.000000  0.442572  0.131349  1
  Lu  Lu7  1  0.000000  0.557428  0.868651  1
  B  B8  1  0.500000  0.555410  0.434014  1
  B  B9  1  0.500000  0.444590  0.565986  1
  B  B10  1  0.500000  0.053028  0.067608  1
  B  B11  1  0.500000  0.946972  0.932392  1
  B  B12  1  0.500000  0.759327  0.419252  1
  B  B13  1  0.500000  0.240673  0.580748  1
  B  B14  1  0.500000  0.248849  0.081990  1
  B  B15  1  0.500000  0.751151  0.918010  1
  B  B16  1  0.500000  0.796509  0.265788  1
  B  B17  1  0.500000  0.203491  0.734212  1
  B  B18  1  0.500000  0.289631  0.237419  1
  B  B19  1  0.500000  0.710369  0.762581  1
  B  B20  1  0.500000  0.632247  0.185922  1
  B  B21  1  0.500000  0.367753  0.814078  1
  B  B22  1  0.500000  0.123645  0.320148  1
  B  B23  1  0.500000  0.876355  0.679852  1
  B  B24  1  0.500000  0.978793  0.215099  1
  B  B25  1  0.500000  0.021207  0.784901  1
  B  B26  1  0.500000  0.481988  0.289487  1
  B  B27  1  0.500000  0.518012  0.710513  1
  B  B28  1  0.500000  0.602331  0.027883  1
  B  B29  1  0.500000  0.397669  0.972117  1
  B  B30  1  0.500000  0.092233  0.474441  1
  B  B31  1  0.500000  0.907767  0.525559  1
  Ru  Ru32  1  0.000000  0.642934  0.322833  1
  Ru  Ru33  1  0.000000  0.357066  0.677167  1
  Ru  Ru34  1  0.000000  0.135490  0.184341  1
  Ru  Ru35  1  0.000000  0.864510  0.815659  1
