# generated using pymatgen
data_Dy8Ho2Os3Ru
_symmetry_space_group_name_H-M   'P 1'
_cell_length_a   6.37889443
_cell_length_b   7.31669413
_cell_length_c   8.46223585
_cell_angle_alpha   96.86132781
_cell_angle_beta   112.15700433
_cell_angle_gamma   89.86310593
_symmetry_Int_Tables_number   1
_chemical_formula_structural   Dy8Ho2Os3Ru
_chemical_formula_sum   'Dy8 Ho2 Os3 Ru1'
_cell_volume   362.77639310
_cell_formula_units_Z   1
loop_
 _symmetry_equiv_pos_site_id
 _symmetry_equiv_pos_as_xyz
  1  'x, y, z'
loop_
 _atom_site_type_symbol
 _atom_site_label
 _atom_site_symmetry_multiplicity
 _atom_site_fract_x
 _atom_site_fract_y
 _atom_site_fract_z
 _atom_site_occupancy
  Dy  Dy0  1  0.977723  0.915900  0.184247  1
  Dy  Dy1  1  0.792803  0.583578  0.815241  1
  Dy  Dy2  1  0.021710  0.083892  0.814102  1
  Dy  Dy3  1  0.207076  0.415473  0.184421  1
  Dy  Dy4  1  0.639933  0.815094  0.434575  1
  Dy  Dy5  1  0.205541  0.685173  0.565578  1
  Dy  Dy6  1  0.359248  0.185543  0.566229  1
  Dy  Dy7  1  0.795946  0.315377  0.434931  1
  Ho  Ho8  1  0.423026  0.749359  0.999474  1
  Ho  Ho9  1  0.577269  0.250602  0.999629  1
  Os  Os10  1  0.822740  0.576378  0.219298  1
  Os  Os11  1  0.603189  0.924934  0.780529  1
  Os  Os12  1  0.177653  0.423514  0.781306  1
  Ru  Ru13  1  0.396144  0.075185  0.220439  1
