# generated using pymatgen
data_Y4Hf5Sc(Si5Ir2)4
_symmetry_space_group_name_H-M   'P 1'
_cell_length_a   12.46876000
_cell_length_b   12.46876000
_cell_length_c   4.15334200
_cell_angle_alpha   90.00000000
_cell_angle_beta   90.00000000
_cell_angle_gamma   90.00000000
_symmetry_Int_Tables_number   1
_chemical_formula_structural   Y4Hf5Sc(Si5Ir2)4
_chemical_formula_sum   'Y4 Hf5 Sc1 Si20 Ir8'
_cell_volume   645.71998080
_cell_formula_units_Z   1
loop_
 _symmetry_equiv_pos_site_id
 _symmetry_equiv_pos_as_xyz
  1  'x, y, z'
loop_
 _atom_site_type_symbol
 _atom_site_label
 _atom_site_symmetry_multiplicity
 _atom_site_fract_x
 _atom_site_fract_y
 _atom_site_fract_z
 _atom_site_occupancy
  Y  Y0  1  0.884569  0.384447  0.500000  1
  Y  Y1  1  0.115431  0.615553  0.500000  1
  Y  Y2  1  0.384447  0.115431  0.500000  1
  Y  Y3  1  0.615553  0.884569  0.500000  1
  Hf  Hf4  1  0.500000  0.500000  0.000000  1
  Hf  Hf5  1  0.674938  0.175222  0.500000  1
  Hf  Hf6  1  0.325062  0.824778  0.500000  1
  Hf  Hf7  1  0.175222  0.325062  0.500000  1
  Hf  Hf8  1  0.824778  0.674938  0.500000  1
  Sc  Sc9  1  0.000000  0.000000  0.000000  1
  Si  Si10  1  0.566937  0.067413  0.000000  1
  Si  Si11  1  0.433063  0.932587  0.000000  1
  Si  Si12  1  0.067413  0.433063  0.000000  1
  Si  Si13  1  0.932587  0.566937  0.000000  1
  Si  Si14  1  0.665111  0.701869  0.000000  1
  Si  Si15  1  0.334889  0.298131  0.000000  1
  Si  Si16  1  0.163065  0.800778  0.000000  1
  Si  Si17  1  0.836935  0.199222  0.000000  1
  Si  Si18  1  0.298131  0.665111  0.000000  1
  Si  Si19  1  0.701869  0.334889  0.000000  1
  Si  Si20  1  0.199222  0.163065  0.000000  1
  Si  Si21  1  0.800778  0.836935  0.000000  1
  Si  Si22  1  0.650920  0.508387  0.500000  1
  Si  Si23  1  0.349080  0.491613  0.500000  1
  Si  Si24  1  0.151241  0.991907  0.500000  1
  Si  Si25  1  0.848759  0.008093  0.500000  1
  Si  Si26  1  0.491613  0.650920  0.500000  1
  Si  Si27  1  0.508387  0.349080  0.500000  1
  Si  Si28  1  0.008093  0.151241  0.500000  1
  Si  Si29  1  0.991907  0.848759  0.500000  1
  Ir  Ir30  1  0.742099  0.522470  0.000000  1
  Ir  Ir31  1  0.257901  0.477530  0.000000  1
  Ir  Ir32  1  0.243724  0.977378  0.000000  1
  Ir  Ir33  1  0.756276  0.022622  0.000000  1
  Ir  Ir34  1  0.477530  0.742099  0.000000  1
  Ir  Ir35  1  0.522470  0.257901  0.000000  1
  Ir  Ir36  1  0.022622  0.243724  0.000000  1
  Ir  Ir37  1  0.977378  0.756276  0.000000  1
