# generated using pymatgen
data_Yb3Ho5B24OsRu3
_symmetry_space_group_name_H-M   'P 1'
_cell_length_a   3.64672000
_cell_length_b   9.13450478
_cell_length_c   11.52042049
_cell_angle_alpha   89.88561086
_cell_angle_beta   90.00000000
_cell_angle_gamma   90.00000000
_symmetry_Int_Tables_number   1
_chemical_formula_structural   Yb3Ho5B24OsRu3
_chemical_formula_sum   'Yb3 Ho5 B24 Os1 Ru3'
_cell_volume   383.75574630
_cell_formula_units_Z   1
loop_
 _symmetry_equiv_pos_site_id
 _symmetry_equiv_pos_as_xyz
  1  'x, y, z'
loop_
 _atom_site_type_symbol
 _atom_site_label
 _atom_site_symmetry_multiplicity
 _atom_site_fract_x
 _atom_site_fract_y
 _atom_site_fract_z
 _atom_site_occupancy
  Yb  Yb0  1  0.000000  0.324676  0.414907  1
  Yb  Yb1  1  0.000000  0.675342  0.584783  1
  Yb  Yb2  1  0.000000  0.823017  0.086039  1
  Ho  Ho3  1  0.000000  0.175644  0.915165  1
  Ho  Ho4  1  0.000000  0.941515  0.367133  1
  Ho  Ho5  1  0.000000  0.058733  0.631412  1
  Ho  Ho6  1  0.000000  0.442112  0.132287  1
  Ho  Ho7  1  0.000000  0.559247  0.867711  1
  B  B8  1  0.500000  0.553075  0.433194  1
  B  B9  1  0.500000  0.446211  0.567821  1
  B  B10  1  0.500000  0.053624  0.066688  1
  B  B11  1  0.500000  0.946069  0.933265  1
  B  B12  1  0.500000  0.748240  0.417420  1
  B  B13  1  0.500000  0.252064  0.582894  1
  B  B14  1  0.500000  0.248274  0.081824  1
  B  B15  1  0.500000  0.752194  0.917660  1
  B  B16  1  0.500000  0.790296  0.264038  1
  B  B17  1  0.500000  0.209442  0.736314  1
  B  B18  1  0.500000  0.290205  0.234803  1
  B  B19  1  0.500000  0.710883  0.764722  1
  B  B20  1  0.500000  0.630381  0.185962  1
  B  B21  1  0.500000  0.369237  0.815119  1
  B  B22  1  0.500000  0.130780  0.313293  1
  B  B23  1  0.500000  0.869913  0.685469  1
  B  B24  1  0.500000  0.982832  0.210353  1
  B  B25  1  0.500000  0.017329  0.789005  1
  B  B26  1  0.500000  0.483208  0.289258  1
  B  B27  1  0.500000  0.516335  0.711322  1
  B  B28  1  0.500000  0.598865  0.027381  1
  B  B29  1  0.500000  0.400061  0.972318  1
  B  B30  1  0.500000  0.097223  0.472693  1
  B  B31  1  0.500000  0.903080  0.526414  1
  Os  Os32  1  0.000000  0.638130  0.321063  1
  Ru  Ru33  1  0.000000  0.360290  0.681038  1
  Ru  Ru34  1  0.000000  0.138198  0.178797  1
  Ru  Ru35  1  0.000000  0.863276  0.820434  1
