# generated using pymatgen
data_V10GaSi4As
_symmetry_space_group_name_H-M   'P 1'
_cell_length_a   7.10154654
_cell_length_b   7.09874331
_cell_length_c   7.09472670
_cell_angle_alpha   96.50578162
_cell_angle_beta   96.52597590
_cell_angle_gamma   140.64358853
_symmetry_Int_Tables_number   1
_chemical_formula_structural   V10GaSi4As
_chemical_formula_sum   'V10 Ga1 Si4 As1'
_cell_volume   213.54051187
_cell_formula_units_Z   1
loop_
 _symmetry_equiv_pos_site_id
 _symmetry_equiv_pos_as_xyz
  1  'x, y, z'
loop_
 _atom_site_type_symbol
 _atom_site_label
 _atom_site_symmetry_multiplicity
 _atom_site_fract_x
 _atom_site_fract_y
 _atom_site_fract_z
 _atom_site_occupancy
  V  V0  1  0.578667  0.276456  0.847851  1
  V  V1  1  0.250016  0.750023  0.496254  1
  V  V2  1  0.072744  0.225850  0.305291  1
  V  V3  1  0.919312  0.768757  0.694742  1
  V  V4  1  0.746238  0.246231  0.496254  1
  V  V5  1  0.732546  0.579441  0.305291  1
  V  V6  1  0.428980  0.732659  0.154844  1
  V  V7  1  0.769183  0.071393  0.847851  1
  V  V8  1  0.275429  0.425985  0.694742  1
  V  V9  1  0.225865  0.922185  0.154844  1
  Ga  Ga10  1  0.250499  0.250499  0.000999  1
  Si  Si11  1  0.665614  0.834365  0.500117  1
  Si  Si12  1  0.834595  0.334595  0.169189  1
  Si  Si13  1  0.750440  0.750440  0.000881  1
  Si  Si14  1  0.334503  0.165752  0.500117  1
  As  As15  1  0.165367  0.665367  0.830734  1
