# generated using pymatgen
data_La16Cd4CuIrRu2
_symmetry_space_group_name_H-M   'P 1'
_cell_length_a   10.15835065
_cell_length_b   10.15834980
_cell_length_c   10.06871037
_cell_angle_alpha   59.67055953
_cell_angle_beta   59.67055645
_cell_angle_gamma   60.00482835
_symmetry_Int_Tables_number   1
_chemical_formula_structural   La16Cd4CuIrRu2
_chemical_formula_sum   'La16 Cd4 Cu1 Ir1 Ru2'
_cell_volume   731.03855078
_cell_formula_units_Z   1
loop_
 _symmetry_equiv_pos_site_id
 _symmetry_equiv_pos_as_xyz
  1  'x, y, z'
loop_
 _atom_site_type_symbol
 _atom_site_label
 _atom_site_symmetry_multiplicity
 _atom_site_fract_x
 _atom_site_fract_y
 _atom_site_fract_z
 _atom_site_occupancy
  La  La0  1  0.900418  0.900418  0.905950  1
  La  La1  1  0.438072  0.438072  0.063819  1
  La  La2  1  0.057284  0.057284  0.436086  1
  La  La3  1  0.441252  0.060115  0.062244  1
  La  La4  1  0.309568  0.688191  0.313706  1
  La  La5  1  0.687613  0.687613  0.313487  1
  La  La6  1  0.688191  0.309568  0.313706  1
  La  La7  1  0.295666  0.898973  0.904677  1
  La  La8  1  0.898973  0.295666  0.904677  1
  La  La9  1  0.308858  0.685247  0.694842  1
  La  La10  1  0.905188  0.905188  0.284662  1
  La  La11  1  0.060115  0.441252  0.062244  1
  La  La12  1  0.309500  0.309500  0.695504  1
  La  La13  1  0.058405  0.451287  0.432850  1
  La  La14  1  0.451287  0.058405  0.432850  1
  La  La15  1  0.685247  0.308858  0.694842  1
  Cd  Cd16  1  0.670555  0.670555  0.988416  1
  Cd  Cd17  1  0.987970  0.670936  0.670228  1
  Cd  Cd18  1  0.670936  0.987970  0.670228  1
  Cd  Cd19  1  0.671028  0.671028  0.670661  1
  Cu  Cu20  1  0.109176  0.109176  0.672536  1
  Ir  Ir21  1  0.112093  0.112093  0.102302  1
  Ru  Ru22  1  0.113408  0.669198  0.104743  1
  Ru  Ru23  1  0.669198  0.113408  0.104743  1
