# generated using pymatgen
data_Tb13Th3MgCd3Ir4
_symmetry_space_group_name_H-M   'P 1'
_cell_length_a   9.76654090
_cell_length_b   9.77126090
_cell_length_c   9.77126036
_cell_angle_alpha   60.02403666
_cell_angle_beta   60.01037826
_cell_angle_gamma   60.01037709
_symmetry_Int_Tables_number   1
_chemical_formula_structural   Tb13Th3MgCd3Ir4
_chemical_formula_sum   'Tb13 Th3 Mg1 Cd3 Ir4'
_cell_volume   659.58979909
_cell_formula_units_Z   1
loop_
 _symmetry_equiv_pos_site_id
 _symmetry_equiv_pos_as_xyz
  1  'x, y, z'
loop_
 _atom_site_type_symbol
 _atom_site_label
 _atom_site_symmetry_multiplicity
 _atom_site_fract_x
 _atom_site_fract_y
 _atom_site_fract_z
 _atom_site_occupancy
  Tb  Tb0  1  0.200139  0.600383  0.600383  1
  Tb  Tb1  1  0.060648  0.440134  0.440134  1
  Tb  Tb2  1  0.437078  0.063384  0.063384  1
  Tb  Tb3  1  0.438812  0.061337  0.438351  1
  Tb  Tb4  1  0.062874  0.436775  0.061797  1
  Tb  Tb5  1  0.438812  0.438351  0.061337  1
  Tb  Tb6  1  0.062874  0.061797  0.436775  1
  Tb  Tb7  1  0.190236  0.814196  0.814196  1
  Tb  Tb8  1  0.813364  0.186493  0.186493  1
  Tb  Tb9  1  0.815469  0.187629  0.814972  1
  Tb  Tb10  1  0.187963  0.812522  0.187063  1
  Tb  Tb11  1  0.815469  0.814972  0.187629  1
  Tb  Tb12  1  0.187963  0.187063  0.812522  1
  Th  Th13  1  0.596467  0.598643  0.598643  1
  Th  Th14  1  0.597018  0.599628  0.204202  1
  Th  Th15  1  0.597018  0.204202  0.599628  1
  Mg  Mg16  1  0.827523  0.826326  0.826326  1
  Cd  Cd17  1  0.832810  0.831157  0.503803  1
  Cd  Cd18  1  0.832810  0.503803  0.831157  1
  Cd  Cd19  1  0.502076  0.832250  0.832250  1
  Ir  Ir20  1  0.395022  0.391999  0.391999  1
  Ir  Ir21  1  0.394162  0.392344  0.820949  1
  Ir  Ir22  1  0.394162  0.820949  0.392344  1
  Ir  Ir23  1  0.819232  0.393669  0.393669  1
