# generated using pymatgen
data_MgMnCl6
_symmetry_space_group_name_H-M   'P 1'
_cell_length_a   6.20921469
_cell_length_b   6.20921376
_cell_length_c   6.60467412
_cell_angle_alpha   81.22386105
_cell_angle_beta   81.22386824
_cell_angle_gamma   119.95637517
_symmetry_Int_Tables_number   1
_chemical_formula_structural   MgMnCl6
_chemical_formula_sum   'Mg1 Mn1 Cl6'
_cell_volume   210.11226436
_cell_formula_units_Z   1
loop_
 _symmetry_equiv_pos_site_id
 _symmetry_equiv_pos_as_xyz
  1  'x, y, z'
loop_
 _atom_site_type_symbol
 _atom_site_label
 _atom_site_symmetry_multiplicity
 _atom_site_fract_x
 _atom_site_fract_y
 _atom_site_fract_z
 _atom_site_occupancy
  Mg  Mg0  1  0.166715  0.833285  0.000000  1
  Mn  Mn1  1  0.833254  0.166746  0.000000  1
  Cl  Cl2  1  0.457894  0.084855  0.212072  1
  Cl  Cl3  1  0.915145  0.542106  0.787928  1
  Cl  Cl4  1  0.195088  0.221408  0.787683  1
  Cl  Cl5  1  0.778592  0.804912  0.212317  1
  Cl  Cl6  1  0.058292  0.404980  0.211322  1
  Cl  Cl7  1  0.595020  0.941708  0.788678  1
