# generated using pymatgen
data_SrGa2SnAu3
_symmetry_space_group_name_H-M   'P 1'
_cell_length_a   4.64963400
_cell_length_b   7.51228100
_cell_length_c   8.85407900
_cell_angle_alpha   90.00000000
_cell_angle_beta   90.00000000
_cell_angle_gamma   90.00000000
_symmetry_Int_Tables_number   1
_chemical_formula_structural   SrGa2SnAu3
_chemical_formula_sum   'Sr2 Ga4 Sn2 Au6'
_cell_volume   309.26728767
_cell_formula_units_Z   2
loop_
 _symmetry_equiv_pos_site_id
 _symmetry_equiv_pos_as_xyz
  1  'x, y, z'
loop_
 _atom_site_type_symbol
 _atom_site_label
 _atom_site_symmetry_multiplicity
 _atom_site_fract_x
 _atom_site_fract_y
 _atom_site_fract_z
 _atom_site_occupancy
  Sr  Sr0  1  0.500000  0.000000  0.748979  1
  Sr  Sr1  1  0.000000  0.500000  0.251021  1
  Ga  Ga2  1  0.000000  0.310551  0.893928  1
  Ga  Ga3  1  0.500000  0.189449  0.106072  1
  Ga  Ga4  1  0.000000  0.689449  0.893928  1
  Ga  Ga5  1  0.500000  0.810551  0.106072  1
  Sn  Sn6  1  0.000000  0.000000  0.370178  1
  Sn  Sn7  1  0.500000  0.500000  0.629822  1
  Au  Au8  1  0.000000  0.733391  0.602829  1
  Au  Au9  1  0.500000  0.766609  0.397171  1
  Au  Au10  1  0.500000  0.500000  0.954439  1
  Au  Au11  1  0.000000  0.000000  0.045561  1
  Au  Au12  1  0.500000  0.233391  0.397171  1
  Au  Au13  1  0.000000  0.266609  0.602829  1
