# generated using pymatgen
data_Dy4Ho4Sc11Si16Mo
_symmetry_space_group_name_H-M   'P 1'
_cell_length_a   7.07290320
_cell_length_b   7.32466615
_cell_length_c   13.89415403
_cell_angle_alpha   90.16589489
_cell_angle_beta   89.69582002
_cell_angle_gamma   89.72567717
_symmetry_Int_Tables_number   1
_chemical_formula_structural   Dy4Ho4Sc11Si16Mo
_chemical_formula_sum   'Dy4 Ho4 Sc11 Si16 Mo1'
_cell_volume   719.78817517
_cell_formula_units_Z   1
loop_
 _symmetry_equiv_pos_site_id
 _symmetry_equiv_pos_as_xyz
  1  'x, y, z'
loop_
 _atom_site_type_symbol
 _atom_site_label
 _atom_site_symmetry_multiplicity
 _atom_site_fract_x
 _atom_site_fract_y
 _atom_site_fract_z
 _atom_site_occupancy
  Dy  Dy0  1  0.011858  0.174745  0.097183  1
  Dy  Dy1  1  0.989241  0.825471  0.898805  1
  Dy  Dy2  1  0.487349  0.677534  0.899500  1
  Dy  Dy3  1  0.992888  0.829242  0.595718  1
  Ho  Ho4  1  0.513048  0.323510  0.096575  1
  Ho  Ho5  1  0.009984  0.175174  0.403550  1
  Ho  Ho6  1  0.507038  0.323622  0.409784  1
  Ho  Ho7  1  0.487468  0.675991  0.596104  1
  Sc  Sc8  1  0.163672  0.495463  0.744942  1
  Sc  Sc9  1  0.837609  0.497701  0.251892  1
  Sc  Sc10  1  0.336944  0.003066  0.252411  1
  Sc  Sc11  1  0.658177  0.001714  0.747187  1
  Sc  Sc12  1  0.665769  0.825682  0.379041  1
  Sc  Sc13  1  0.168782  0.678293  0.378041  1
  Sc  Sc14  1  0.669294  0.824217  0.124531  1
  Sc  Sc15  1  0.832659  0.323533  0.623724  1
  Sc  Sc16  1  0.332595  0.176720  0.875061  1
  Sc  Sc17  1  0.830233  0.322757  0.871987  1
  Sc  Sc18  1  0.170134  0.676639  0.125736  1
  Si  Si19  1  0.042506  0.120200  0.745207  1
  Si  Si20  1  0.963881  0.885295  0.251470  1
  Si  Si21  1  0.467009  0.616904  0.250903  1
  Si  Si22  1  0.531147  0.375422  0.745803  1
  Si  Si23  1  0.286755  0.879722  0.746023  1
  Si  Si24  1  0.711186  0.127444  0.250964  1
  Si  Si25  1  0.215604  0.372965  0.250775  1
  Si  Si26  1  0.783972  0.624427  0.746771  1
  Si  Si27  1  0.174431  0.451393  0.540713  1
  Si  Si28  1  0.842938  0.532047  0.460749  1
  Si  Si29  1  0.333814  0.969956  0.470884  1
  Si  Si30  1  0.844720  0.535059  0.038852  1
  Si  Si31  1  0.647253  0.035176  0.544741  1
  Si  Si32  1  0.154796  0.466432  0.959085  1
  Si  Si33  1  0.660993  0.035828  0.958865  1
  Si  Si34  1  0.341310  0.963265  0.038470  1
  Mo  Mo35  1  0.332945  0.177389  0.627957  1
