# generated using pymatgen
data_Nd3Y4Ho(CdPt)2
_symmetry_space_group_name_H-M   'P 1'
_cell_length_a   9.81175293
_cell_length_b   9.81175317
_cell_length_c   9.79204400
_cell_angle_alpha   60.06642605
_cell_angle_beta   60.06642526
_cell_angle_gamma   60.12495566
_symmetry_Int_Tables_number   1
_chemical_formula_structural   Nd3Y4Ho(CdPt)2
_chemical_formula_sum   'Nd6 Y8 Ho2 Cd4 Pt4'
_cell_volume   667.87649916
_cell_formula_units_Z   2
loop_
 _symmetry_equiv_pos_site_id
 _symmetry_equiv_pos_as_xyz
  1  'x, y, z'
loop_
 _atom_site_type_symbol
 _atom_site_label
 _atom_site_symmetry_multiplicity
 _atom_site_fract_x
 _atom_site_fract_y
 _atom_site_fract_z
 _atom_site_occupancy
  Nd  Nd0  1  0.938676  0.561554  0.562640  1
  Nd  Nd1  1  0.561554  0.938676  0.937131  1
  Nd  Nd2  1  0.561554  0.938676  0.562640  1
  Nd  Nd3  1  0.938676  0.561554  0.937131  1
  Nd  Nd4  1  0.561807  0.561807  0.938193  1
  Nd  Nd5  1  0.937620  0.937620  0.562380  1
  Y  Y6  1  0.351491  0.946077  0.351215  1
  Y  Y7  1  0.946077  0.351491  0.351215  1
  Y  Y8  1  0.811103  0.188863  0.189277  1
  Y  Y9  1  0.188863  0.811103  0.810757  1
  Y  Y10  1  0.188863  0.811103  0.189277  1
  Y  Y11  1  0.811103  0.188863  0.810757  1
  Y  Y12  1  0.189410  0.189410  0.810590  1
  Y  Y13  1  0.811291  0.811291  0.188709  1
  Ho  Ho14  1  0.349908  0.349908  0.349667  1
  Ho  Ho15  1  0.349908  0.349908  0.950516  1
  Cd  Cd16  1  0.579769  0.579769  0.579930  1
  Cd  Cd17  1  0.579769  0.579769  0.260532  1
  Cd  Cd18  1  0.579663  0.260294  0.580022  1
  Cd  Cd19  1  0.260294  0.579663  0.580022  1
  Pt  Pt20  1  0.143845  0.143845  0.141691  1
  Pt  Pt21  1  0.143845  0.143845  0.570621  1
  Pt  Pt22  1  0.144746  0.570167  0.142544  1
  Pt  Pt23  1  0.570167  0.144746  0.142544  1
