# generated using pymatgen
data_Yb5As12Ru9Rh10
_symmetry_space_group_name_H-M   'P 1'
_cell_length_a   4.04297900
_cell_length_b   12.95160367
_cell_length_c   12.95390300
_cell_angle_alpha   119.99413169
_cell_angle_beta   90.00000000
_cell_angle_gamma   90.00000000
_symmetry_Int_Tables_number   1
_chemical_formula_structural   Yb5As12Ru9Rh10
_chemical_formula_sum   'Yb5 As12 Ru9 Rh10'
_cell_volume   587.46497957
_cell_formula_units_Z   1
loop_
 _symmetry_equiv_pos_site_id
 _symmetry_equiv_pos_as_xyz
  1  'x, y, z'
loop_
 _atom_site_type_symbol
 _atom_site_label
 _atom_site_symmetry_multiplicity
 _atom_site_fract_x
 _atom_site_fract_y
 _atom_site_fract_z
 _atom_site_occupancy
  Yb  Yb0  1  0.500000  0.999941  0.180973  1
  Yb  Yb1  1  0.500000  0.180993  0.000000  1
  Yb  Yb2  1  0.500000  0.818969  0.819027  1
  Yb  Yb3  1  0.000000  0.333325  0.666608  1
  Yb  Yb4  1  0.000000  0.666716  0.333392  1
  As  As5  1  0.000000  0.999971  0.817830  1
  As  As6  1  0.000000  0.817623  0.000000  1
  As  As7  1  0.000000  0.182140  0.182170  1
  As  As8  1  0.500000  0.315910  0.485987  1
  As  As9  1  0.500000  0.170119  0.684087  1
  As  As10  1  0.500000  0.514017  0.829878  1
  As  As11  1  0.500000  0.829923  0.514013  1
  As  As12  1  0.500000  0.486031  0.315913  1
  As  As13  1  0.500000  0.684140  0.170122  1
  As  As14  1  0.000000  0.999998  0.366266  1
  As  As15  1  0.000000  0.366293  0.000000  1
  As  As16  1  0.000000  0.633732  0.633734  1
  Ru  Ru17  1  0.500000  0.000054  0.712544  1
  Ru  Ru18  1  0.500000  0.712493  0.000000  1
  Ru  Ru19  1  0.500000  0.287511  0.287456  1
  Ru  Ru20  1  0.500000  0.123625  0.481279  1
  Ru  Ru21  1  0.500000  0.357626  0.876346  1
  Ru  Ru22  1  0.500000  0.518715  0.642445  1
  Ru  Ru23  1  0.500000  0.642346  0.518721  1
  Ru  Ru24  1  0.500000  0.481281  0.123654  1
  Ru  Ru25  1  0.500000  0.876269  0.357555  1
  Rh  Rh26  1  0.000000  0.999850  0.551534  1
  Rh  Rh27  1  0.000000  0.551617  0.000000  1
  Rh  Rh28  1  0.000000  0.448315  0.448466  1
  Rh  Rh29  1  0.000000  0.195047  0.376946  1
  Rh  Rh30  1  0.000000  0.181975  0.804772  1
  Rh  Rh31  1  0.000000  0.623121  0.818096  1
  Rh  Rh32  1  0.000000  0.818101  0.623054  1
  Rh  Rh33  1  0.000000  0.377204  0.195228  1
  Rh  Rh34  1  0.000000  0.805025  0.181904  1
  Rh  Rh35  1  0.000000  0.999882  0.000000  1
