# generated using pymatgen
data_Dy3Ho(CdGa2)2
_symmetry_space_group_name_H-M   'P 1'
_cell_length_a   7.29806851
_cell_length_b   7.29806851
_cell_length_c   4.32884100
_cell_angle_alpha   90.00000000
_cell_angle_beta   90.00000000
_cell_angle_gamma   89.92628085
_symmetry_Int_Tables_number   1
_chemical_formula_structural   Dy3Ho(CdGa2)2
_chemical_formula_sum   'Dy3 Ho1 Cd2 Ga4'
_cell_volume   230.56168996
_cell_formula_units_Z   1
loop_
 _symmetry_equiv_pos_site_id
 _symmetry_equiv_pos_as_xyz
  1  'x, y, z'
loop_
 _atom_site_type_symbol
 _atom_site_label
 _atom_site_symmetry_multiplicity
 _atom_site_fract_x
 _atom_site_fract_y
 _atom_site_fract_z
 _atom_site_occupancy
  Dy  Dy0  1  0.328797  0.171203  0.499999  1
  Dy  Dy1  1  0.828572  0.328666  0.499999  1
  Dy  Dy2  1  0.171334  0.671428  0.499999  1
  Ho  Ho3  1  0.671325  0.828675  0.499999  1
  Cd  Cd4  1  0.999889  0.999942  0.000000  1
  Cd  Cd5  1  0.500058  0.500111  0.000000  1
  Ga  Ga6  1  0.627182  0.126819  0.000000  1
  Ga  Ga7  1  0.127077  0.372923  0.000000  1
  Ga  Ga8  1  0.872584  0.627416  0.000000  1
  Ga  Ga9  1  0.373181  0.872818  0.000000  1
