# generated using pymatgen
data_Mn3Nb3Ga5
_symmetry_space_group_name_H-M   'P 1'
_cell_length_a   8.55214600
_cell_length_b   8.55214627
_cell_length_c   5.23200700
_cell_angle_alpha   90.00000000
_cell_angle_beta   90.00000000
_cell_angle_gamma   119.99999897
_symmetry_Int_Tables_number   1
_chemical_formula_structural   Mn3Nb3Ga5
_chemical_formula_sum   'Mn6 Nb6 Ga10'
_cell_volume   331.39746266
_cell_formula_units_Z   2
loop_
 _symmetry_equiv_pos_site_id
 _symmetry_equiv_pos_as_xyz
  1  'x, y, z'
loop_
 _atom_site_type_symbol
 _atom_site_label
 _atom_site_symmetry_multiplicity
 _atom_site_fract_x
 _atom_site_fract_y
 _atom_site_fract_z
 _atom_site_occupancy
  Mn  Mn0  1  0.500000  0.000000  0.000000  1
  Mn  Mn1  1  0.000000  0.500000  0.000000  1
  Mn  Mn2  1  0.500000  0.000000  0.500000  1
  Mn  Mn3  1  0.500000  0.500000  0.000000  1
  Mn  Mn4  1  0.000000  0.500000  0.500000  1
  Mn  Mn5  1  0.500000  0.500000  0.500000  1
  Nb  Nb6  1  0.693900  0.846949  0.250000  1
  Nb  Nb7  1  0.846949  0.153051  0.750000  1
  Nb  Nb8  1  0.153051  0.846949  0.250000  1
  Nb  Nb9  1  0.846949  0.693900  0.750000  1
  Nb  Nb10  1  0.306100  0.153051  0.750000  1
  Nb  Nb11  1  0.153051  0.306100  0.250000  1
  Ga  Ga12  1  0.000000  0.000000  0.000000  1
  Ga  Ga13  1  0.784267  0.215733  0.250000  1
  Ga  Ga14  1  0.215733  0.431466  0.750000  1
  Ga  Ga15  1  0.568534  0.784267  0.750000  1
  Ga  Ga16  1  0.784267  0.568534  0.250000  1
  Ga  Ga17  1  0.000000  0.000000  0.500000  1
  Ga  Ga18  1  0.431466  0.215733  0.250000  1
  Ga  Ga19  1  0.215733  0.784267  0.750000  1
  Ga  Ga20  1  0.666667  0.333333  0.750000  1
  Ga  Ga21  1  0.333333  0.666667  0.250000  1
