# generated using pymatgen
data_Mn5Al6VCo12
_symmetry_space_group_name_H-M   'P 1'
_cell_length_a   4.03927000
_cell_length_b   5.72060200
_cell_length_c   12.11409100
_cell_angle_alpha   90.00000000
_cell_angle_beta   90.00173080
_cell_angle_gamma   90.00000000
_symmetry_Int_Tables_number   1
_chemical_formula_structural   Mn5Al6VCo12
_chemical_formula_sum   'Mn5 Al6 V1 Co12'
_cell_volume   279.92097955
_cell_formula_units_Z   1
loop_
 _symmetry_equiv_pos_site_id
 _symmetry_equiv_pos_as_xyz
  1  'x, y, z'
loop_
 _atom_site_type_symbol
 _atom_site_label
 _atom_site_symmetry_multiplicity
 _atom_site_fract_x
 _atom_site_fract_y
 _atom_site_fract_z
 _atom_site_occupancy
  Mn  Mn0  1  0.000005  0.000000  0.001016  1
  Mn  Mn1  1  0.500262  0.500001  0.167419  1
  Mn  Mn2  1  0.000310  0.000000  0.333308  1
  Mn  Mn3  1  0.500016  0.500001  0.499353  1
  Mn  Mn4  1  0.999769  0.000000  0.665601  1
  Al  Al5  1  0.999978  0.500001  0.002941  1
  Al  Al6  1  0.500213  0.000000  0.166612  1
  Al  Al7  1  0.000254  0.500001  0.333350  1
  Al  Al8  1  0.499996  0.000000  0.500054  1
  Al  Al9  1  0.999746  0.500001  0.663711  1
  Al  Al10  1  0.499743  0.000000  0.833327  1
  V  V11  1  0.499784  0.500001  0.833326  1
  Co  Co12  1  0.499980  0.253383  0.997273  1
  Co  Co13  1  0.499980  0.746617  0.997273  1
  Co  Co14  1  0.000230  0.249267  0.166897  1
  Co  Co15  1  0.000230  0.750734  0.166897  1
  Co  Co16  1  0.500243  0.249528  0.333353  1
  Co  Co17  1  0.500243  0.750472  0.333353  1
  Co  Co18  1  0.000001  0.249264  0.499774  1
  Co  Co19  1  0.000001  0.750738  0.499774  1
  Co  Co20  1  0.499755  0.253425  0.669370  1
  Co  Co21  1  0.499755  0.746575  0.669370  1
  Co  Co22  1  0.999754  0.256381  0.833322  1
  Co  Co23  1  0.999754  0.743620  0.833322  1
