# generated using pymatgen
data_NdHo19Rh12
_symmetry_space_group_name_H-M   'P 1'
_cell_length_a   10.89690834
_cell_length_b   10.88243400
_cell_length_c   6.36004270
_cell_angle_alpha   89.88998720
_cell_angle_beta   90.05740347
_cell_angle_gamma   90.06875324
_symmetry_Int_Tables_number   1
_chemical_formula_structural   NdHo19Rh12
_chemical_formula_sum   'Nd1 Ho19 Rh12'
_cell_volume   754.20262748
_cell_formula_units_Z   1
loop_
 _symmetry_equiv_pos_site_id
 _symmetry_equiv_pos_as_xyz
  1  'x, y, z'
loop_
 _atom_site_type_symbol
 _atom_site_label
 _atom_site_symmetry_multiplicity
 _atom_site_fract_x
 _atom_site_fract_y
 _atom_site_fract_z
 _atom_site_occupancy
  Nd  Nd0  1  0.787730  0.590748  0.621394  1
  Ho  Ho1  1  0.090105  0.291040  0.119178  1
  Ho  Ho2  1  0.792083  0.408679  0.118378  1
  Ho  Ho3  1  0.209150  0.589180  0.118647  1
  Ho  Ho4  1  0.912431  0.709102  0.118479  1
  Ho  Ho5  1  0.410792  0.791279  0.382036  1
  Ho  Ho6  1  0.588971  0.208526  0.381222  1
  Ho  Ho7  1  0.291341  0.088942  0.382282  1
  Ho  Ho8  1  0.708819  0.911583  0.380643  1
  Ho  Ho9  1  0.411053  0.208646  0.881667  1
  Ho  Ho10  1  0.708936  0.089117  0.881834  1
  Ho  Ho11  1  0.290785  0.911459  0.881618  1
  Ho  Ho12  1  0.586641  0.793169  0.882991  1
  Ho  Ho13  1  0.091590  0.708759  0.618657  1
  Ho  Ho14  1  0.911283  0.290137  0.618466  1
  Ho  Ho15  1  0.208673  0.410117  0.618852  1
  Ho  Ho16  1  0.000357  0.000530  0.999786  1
  Ho  Ho17  1  0.499835  0.499819  0.999052  1
  Ho  Ho18  1  0.497716  0.498964  0.498277  1
  Ho  Ho19  1  0.000649  0.999785  0.499230  1
  Rh  Rh20  1  0.153726  0.846290  0.249694  1
  Rh  Rh21  1  0.346257  0.345914  0.250154  1
  Rh  Rh22  1  0.651649  0.655117  0.244182  1
  Rh  Rh23  1  0.846060  0.154014  0.250429  1
  Rh  Rh24  1  0.346458  0.654003  0.749555  1
  Rh  Rh25  1  0.153692  0.153929  0.750072  1
  Rh  Rh26  1  0.846557  0.849957  0.751972  1
  Rh  Rh27  1  0.652013  0.342916  0.752005  1
  Rh  Rh28  1  0.002884  0.498898  0.370210  1
  Rh  Rh29  1  0.499606  0.000147  0.127526  1
  Rh  Rh30  1  0.499638  0.000438  0.627241  1
  Rh  Rh31  1  0.002519  0.498796  0.874273  1
