# generated using pymatgen
data_Tb8Dy7Er5Bi12
_symmetry_space_group_name_H-M   'P 1'
_cell_length_a   8.24310131
_cell_length_b   9.51242701
_cell_length_c   12.07129700
_cell_angle_alpha   90.00177084
_cell_angle_beta   89.94862001
_cell_angle_gamma   90.00229645
_symmetry_Int_Tables_number   1
_chemical_formula_structural   Tb8Dy7Er5Bi12
_chemical_formula_sum   'Tb8 Dy7 Er5 Bi12'
_cell_volume   946.53294670
_cell_formula_units_Z   1
loop_
 _symmetry_equiv_pos_site_id
 _symmetry_equiv_pos_as_xyz
  1  'x, y, z'
loop_
 _atom_site_type_symbol
 _atom_site_label
 _atom_site_symmetry_multiplicity
 _atom_site_fract_x
 _atom_site_fract_y
 _atom_site_fract_z
 _atom_site_occupancy
  Tb  Tb0  1  0.186444  0.750000  0.718746  1
  Tb  Tb1  1  0.686366  0.750022  0.781232  1
  Tb  Tb2  1  0.813617  0.250205  0.281325  1
  Tb  Tb3  1  0.313626  0.250028  0.218889  1
  Tb  Tb4  1  0.354357  0.750076  0.215746  1
  Tb  Tb5  1  0.854404  0.750226  0.284285  1
  Tb  Tb6  1  0.646191  0.250337  0.784175  1
  Tb  Tb7  1  0.145473  0.250309  0.715529  1
  Dy  Dy8  1  0.306861  0.436138  0.940394  1
  Dy  Dy9  1  0.806853  0.063823  0.559502  1
  Dy  Dy10  1  0.693096  0.936156  0.059590  1
  Dy  Dy11  1  0.193437  0.563763  0.440325  1
  Dy  Dy12  1  0.693200  0.563791  0.059580  1
  Dy  Dy13  1  0.192876  0.936130  0.440553  1
  Dy  Dy14  1  0.306918  0.063896  0.940376  1
  Er  Er15  1  0.025707  0.750185  0.988392  1
  Er  Er16  1  0.525867  0.750057  0.511492  1
  Er  Er17  1  0.974266  0.249955  0.011510  1
  Er  Er18  1  0.474675  0.250150  0.488555  1
  Er  Er19  1  0.806662  0.435141  0.559597  1
  Bi  Bi20  1  0.433810  0.004025  0.672805  1
  Bi  Bi21  1  0.933701  0.496188  0.826965  1
  Bi  Bi22  1  0.566131  0.503990  0.327284  1
  Bi  Bi23  1  0.066114  0.996253  0.172914  1
  Bi  Bi24  1  0.566224  0.996242  0.327162  1
  Bi  Bi25  1  0.066030  0.503881  0.172966  1
  Bi  Bi26  1  0.434101  0.496157  0.672735  1
  Bi  Bi27  1  0.933800  0.003939  0.827052  1
  Bi  Bi28  1  0.407616  0.749997  0.957588  1
  Bi  Bi29  1  0.907143  0.748600  0.542626  1
  Bi  Bi30  1  0.592371  0.249965  0.042323  1
  Bi  Bi31  1  0.092060  0.250375  0.457785  1
