# generated using pymatgen
data_La3Ge2S8I
_symmetry_space_group_name_H-M   'P 1'
_cell_length_a   8.04060600
_cell_length_b   9.07854625
_cell_length_c   11.11891490
_cell_angle_alpha   96.93017445
_cell_angle_beta   90.00000000
_cell_angle_gamma   116.28494772
_symmetry_Int_Tables_number   1
_chemical_formula_structural   La3Ge2S8I
_chemical_formula_sum   'La6 Ge4 S16 I2'
_cell_volume   721.10574636
_cell_formula_units_Z   2
loop_
 _symmetry_equiv_pos_site_id
 _symmetry_equiv_pos_as_xyz
  1  'x, y, z'
loop_
 _atom_site_type_symbol
 _atom_site_label
 _atom_site_symmetry_multiplicity
 _atom_site_fract_x
 _atom_site_fract_y
 _atom_site_fract_z
 _atom_site_occupancy
  La  La0  1  0.320742  0.396631  0.180494  1
  La  La1  1  0.595786  0.000000  0.250000  1
  La  La2  1  0.924113  0.603369  0.319506  1
  La  La3  1  0.075888  0.396631  0.680493  1
  La  La4  1  0.404214  0.000000  0.750000  1
  La  La5  1  0.679258  0.603369  0.819506  1
  Ge  Ge6  1  0.698618  0.318989  0.029579  1
  Ge  Ge7  1  0.379628  0.681011  0.470421  1
  Ge  Ge8  1  0.620371  0.318988  0.529579  1
  Ge  Ge9  1  0.301382  0.681011  0.970421  1
  S  S10  1  0.408262  0.131428  0.045177  1
  S  S11  1  0.712495  0.569425  0.087273  1
  S  S12  1  0.894310  0.288558  0.152601  1
  S  S13  1  0.250860  0.700647  0.166821  1
  S  S14  1  0.550210  0.299352  0.333180  1
  S  S15  1  0.605752  0.711443  0.347398  1
  S  S16  1  0.143070  0.430575  0.412727  1
  S  S17  1  0.276835  0.868573  0.454823  1
  S  S18  1  0.723166  0.131427  0.545177  1
  S  S19  1  0.856930  0.569425  0.587274  1
  S  S20  1  0.394246  0.288558  0.652602  1
  S  S21  1  0.449788  0.700649  0.666820  1
  S  S22  1  0.749141  0.299352  0.833180  1
  S  S23  1  0.105691  0.711443  0.847398  1
  S  S24  1  0.287505  0.430574  0.912726  1
  S  S25  1  0.591738  0.868572  0.954824  1
  I  I26  1  0.013385  0.000000  0.250000  1
  I  I27  1  0.986616  0.000000  0.750000  1
