# generated using pymatgen
data_Ac3Tl5
_symmetry_space_group_name_H-M   'P 1'
_cell_length_a   6.94493300
_cell_length_b   6.94493323
_cell_length_c   11.20959900
_cell_angle_alpha   90.00000000
_cell_angle_beta   90.00000000
_cell_angle_gamma   77.89038891
_symmetry_Int_Tables_number   1
_chemical_formula_structural   Ac3Tl5
_chemical_formula_sum   'Ac6 Tl10'
_cell_volume   528.63166686
_cell_formula_units_Z   2
loop_
 _symmetry_equiv_pos_site_id
 _symmetry_equiv_pos_as_xyz
  1  'x, y, z'
loop_
 _atom_site_type_symbol
 _atom_site_label
 _atom_site_symmetry_multiplicity
 _atom_site_fract_x
 _atom_site_fract_y
 _atom_site_fract_z
 _atom_site_occupancy
  Ac  Ac0  1  0.293758  0.293758  0.000000  1
  Ac  Ac1  1  0.706242  0.706242  0.000000  1
  Ac  Ac2  1  0.127847  0.872152  0.250000  1
  Ac  Ac3  1  0.293758  0.293758  0.500000  1
  Ac  Ac4  1  0.706242  0.706242  0.500000  1
  Ac  Ac5  1  0.872152  0.127847  0.750000  1
  Tl  Tl6  1  0.803128  0.196871  0.046849  1
  Tl  Tl7  1  0.577459  0.004117  0.250000  1
  Tl  Tl8  1  0.995883  0.422541  0.250000  1
  Tl  Tl9  1  0.511756  0.488243  0.250000  1
  Tl  Tl10  1  0.803128  0.196871  0.453150  1
  Tl  Tl11  1  0.196871  0.803128  0.546850  1
  Tl  Tl12  1  0.488243  0.511756  0.750000  1
  Tl  Tl13  1  0.004117  0.577459  0.750000  1
  Tl  Tl14  1  0.422541  0.995883  0.750000  1
  Tl  Tl15  1  0.196871  0.803128  0.953151  1
