# generated using pymatgen
data_Dy6Al24ZnFe2Os5
_symmetry_space_group_name_H-M   'P 1'
_cell_length_a   8.83482100
_cell_length_b   8.79569891
_cell_length_c   9.47375600
_cell_angle_alpha   90.13022279
_cell_angle_beta   90.00000000
_cell_angle_gamma   120.14723986
_symmetry_Int_Tables_number   1
_chemical_formula_structural   Dy6Al24ZnFe2Os5
_chemical_formula_sum   'Dy6 Al24 Zn1 Fe2 Os5'
_cell_volume   636.60957320
_cell_formula_units_Z   1
loop_
 _symmetry_equiv_pos_site_id
 _symmetry_equiv_pos_as_xyz
  1  'x, y, z'
loop_
 _atom_site_type_symbol
 _atom_site_label
 _atom_site_symmetry_multiplicity
 _atom_site_fract_x
 _atom_site_fract_y
 _atom_site_fract_z
 _atom_site_occupancy
  Dy  Dy0  1  0.195035  0.390069  0.254368  1
  Dy  Dy1  1  0.804965  0.609931  0.745632  1
  Dy  Dy2  1  0.614521  0.806416  0.248487  1
  Dy  Dy3  1  0.385479  0.193584  0.751513  1
  Dy  Dy4  1  0.191895  0.806416  0.248487  1
  Dy  Dy5  1  0.808105  0.193584  0.751513  1
  Al  Al6  1  0.329299  0.658600  0.017909  1
  Al  Al7  1  0.670701  0.341400  0.982091  1
  Al  Al8  1  0.666230  0.332459  0.518557  1
  Al  Al9  1  0.333770  0.667541  0.481443  1
  Al  Al10  1  0.159925  0.319852  0.575944  1
  Al  Al11  1  0.840075  0.680148  0.424056  1
  Al  Al12  1  0.681322  0.841247  0.573704  1
  Al  Al13  1  0.840067  0.680132  0.077866  1
  Al  Al14  1  0.318678  0.158753  0.426296  1
  Al  Al15  1  0.159933  0.319868  0.922134  1
  Al  Al16  1  0.159923  0.841247  0.573704  1
  Al  Al17  1  0.313837  0.166306  0.079166  1
  Al  Al18  1  0.840077  0.158753  0.426296  1
  Al  Al19  1  0.686163  0.833694  0.920834  1
  Al  Al20  1  0.852470  0.166306  0.079166  1
  Al  Al21  1  0.147530  0.833694  0.920834  1
  Al  Al22  1  0.563290  0.126582  0.253817  1
  Al  Al23  1  0.436710  0.873418  0.746183  1
  Al  Al24  1  0.877151  0.439516  0.249270  1
  Al  Al25  1  0.122849  0.560484  0.750730  1
  Al  Al26  1  0.562365  0.439516  0.249270  1
  Al  Al27  1  0.437635  0.560484  0.750730  1
  Al  Al28  1  0.998901  0.997801  0.250976  1
  Al  Al29  1  0.001099  0.002199  0.749024  1
  Zn  Zn30  1  0.500000  0.000000  0.000000  1
  Fe  Fe31  1  0.000000  0.000000  0.000000  1
  Fe  Fe32  1  0.000000  0.000000  0.500000  1
  Os  Os33  1  0.000000  0.500000  0.000000  1
  Os  Os34  1  0.500000  0.000000  0.500000  1
  Os  Os35  1  0.500000  0.500000  0.000000  1
  Os  Os36  1  0.000000  0.500000  0.500000  1
  Os  Os37  1  0.500000  0.500000  0.500000  1
