# generated using pymatgen
data_HfZr4ZnSnSb2
_symmetry_space_group_name_H-M   'P 1'
_cell_length_a   8.67547626
_cell_length_b   8.67547582
_cell_length_c   5.85347004
_cell_angle_alpha   90.00637423
_cell_angle_beta   90.00637957
_cell_angle_gamma   119.93781777
_symmetry_Int_Tables_number   1
_chemical_formula_structural   HfZr4ZnSnSb2
_chemical_formula_sum   'Hf2 Zr8 Zn2 Sn2 Sb4'
_cell_volume   381.77055880
_cell_formula_units_Z   2
loop_
 _symmetry_equiv_pos_site_id
 _symmetry_equiv_pos_as_xyz
  1  'x, y, z'
loop_
 _atom_site_type_symbol
 _atom_site_label
 _atom_site_symmetry_multiplicity
 _atom_site_fract_x
 _atom_site_fract_y
 _atom_site_fract_z
 _atom_site_occupancy
  Hf  Hf0  1  0.666437  0.333669  0.001013  1
  Hf  Hf1  1  0.333669  0.666437  0.001013  1
  Zr  Zr2  1  0.333759  0.666494  0.499185  1
  Zr  Zr3  1  0.666494  0.333759  0.499185  1
  Zr  Zr4  1  0.730266  0.730266  0.750252  1
  Zr  Zr5  1  0.269263  0.000308  0.750053  1
  Zr  Zr6  1  0.000308  0.269263  0.750053  1
  Zr  Zr7  1  0.270757  0.270757  0.249737  1
  Zr  Zr8  1  0.729969  0.999335  0.249805  1
  Zr  Zr9  1  0.999335  0.729969  0.249805  1
  Zn  Zn10  1  0.000744  0.000744  0.001585  1
  Zn  Zn11  1  0.000734  0.000734  0.498428  1
  Sn  Sn12  1  0.383546  0.999820  0.249473  1
  Sn  Sn13  1  0.999820  0.383546  0.249473  1
  Sb  Sb14  1  0.384456  0.384456  0.750536  1
  Sb  Sb15  1  0.614672  0.000558  0.750496  1
  Sb  Sb16  1  0.000558  0.614672  0.750496  1
  Sb  Sb17  1  0.615215  0.615215  0.249414  1
