# generated using pymatgen
data_Na20Al(VAs4)3
_symmetry_space_group_name_H-M   'P 1'
_cell_length_a   7.53212848
_cell_length_b   8.28942708
_cell_length_c   15.76404867
_cell_angle_alpha   59.13822861
_cell_angle_beta   89.97934149
_cell_angle_gamma   90.04803067
_symmetry_Int_Tables_number   1
_chemical_formula_structural   Na20Al(VAs4)3
_chemical_formula_sum   'Na20 Al1 V3 As12'
_cell_volume   844.89569306
_cell_formula_units_Z   1
loop_
 _symmetry_equiv_pos_site_id
 _symmetry_equiv_pos_as_xyz
  1  'x, y, z'
loop_
 _atom_site_type_symbol
 _atom_site_label
 _atom_site_symmetry_multiplicity
 _atom_site_fract_x
 _atom_site_fract_y
 _atom_site_fract_z
 _atom_site_occupancy
  Na  Na0  1  0.511769  0.555131  0.756048  1
  Na  Na1  1  0.011468  0.446837  0.742927  1
  Na  Na2  1  0.482358  0.444221  0.243858  1
  Na  Na3  1  0.991533  0.557312  0.255253  1
  Na  Na4  1  0.977734  0.268421  0.575043  1
  Na  Na5  1  0.469362  0.737085  0.923290  1
  Na  Na6  1  0.027926  0.741621  0.420098  1
  Na  Na7  1  0.519456  0.254687  0.081468  1
  Na  Na8  1  0.486926  0.088890  0.588733  1
  Na  Na9  1  0.990670  0.911049  0.912495  1
  Na  Na10  1  0.511710  0.917194  0.407336  1
  Na  Na11  1  0.019011  0.082367  0.091351  1
  Na  Na12  1  0.338090  0.154341  0.918613  1
  Na  Na13  1  0.839684  0.846324  0.579791  1
  Na  Na14  1  0.658553  0.844982  0.080738  1
  Na  Na15  1  0.160307  0.155596  0.418437  1
  Na  Na16  1  0.153985  0.840853  0.739166  1
  Na  Na17  1  0.654937  0.162397  0.759689  1
  Na  Na18  1  0.847791  0.163891  0.258066  1
  Na  Na19  1  0.346281  0.832188  0.241065  1
  Al  Al20  1  0.138156  0.485200  0.082695  1
  V  V21  1  0.635936  0.511403  0.420188  1
  V  V22  1  0.865743  0.511852  0.920679  1
  V  V23  1  0.367086  0.489756  0.581120  1
  As  As24  1  0.245217  0.763013  0.579795  1
  As  As25  1  0.742783  0.242306  0.921016  1
  As  As26  1  0.757426  0.237750  0.420671  1
  As  As27  1  0.255767  0.772613  0.078288  1
  As  As28  1  0.268302  0.195922  0.723391  1
  As  As29  1  0.769526  0.801750  0.778151  1
  As  As30  1  0.732344  0.800821  0.277922  1
  As  As31  1  0.234460  0.180904  0.228915  1
  As  As32  1  0.186698  0.481079  0.924124  1
  As  As33  1  0.691827  0.519481  0.571370  1
  As  As34  1  0.797488  0.521021  0.067173  1
  As  As35  1  0.311690  0.479744  0.431038  1
