# generated using pymatgen
data_Tb4Al18OsPd5
_symmetry_space_group_name_H-M   'P 1'
_cell_length_a   7.64118684
_cell_length_b   7.64118717
_cell_length_c   9.50405955
_cell_angle_alpha   90.04981538
_cell_angle_beta   90.04981448
_cell_angle_gamma   119.68805333
_symmetry_Int_Tables_number   1
_chemical_formula_structural   Tb4Al18OsPd5
_chemical_formula_sum   'Tb4 Al18 Os1 Pd5'
_cell_volume   482.07807007
_cell_formula_units_Z   1
loop_
 _symmetry_equiv_pos_site_id
 _symmetry_equiv_pos_as_xyz
  1  'x, y, z'
loop_
 _atom_site_type_symbol
 _atom_site_label
 _atom_site_symmetry_multiplicity
 _atom_site_fract_x
 _atom_site_fract_y
 _atom_site_fract_z
 _atom_site_occupancy
  Tb  Tb0  1  0.995286  0.669367  0.249091  1
  Tb  Tb1  1  0.006208  0.330794  0.750939  1
  Tb  Tb2  1  0.669206  0.993792  0.249061  1
  Tb  Tb3  1  0.330633  0.004714  0.750909  1
  Al  Al4  1  0.128406  0.130277  0.249147  1
  Al  Al5  1  0.869723  0.871594  0.750853  1
  Al  Al6  1  0.996068  0.333805  0.074636  1
  Al  Al7  1  0.995357  0.660393  0.925895  1
  Al  Al8  1  0.999134  0.666109  0.577425  1
  Al  Al9  1  0.333891  0.000866  0.422575  1
  Al  Al10  1  0.001016  0.334318  0.423339  1
  Al  Al11  1  0.665682  0.998984  0.576661  1
  Al  Al12  1  0.666195  0.003932  0.925364  1
  Al  Al13  1  0.339607  0.004643  0.074105  1
  Al  Al14  1  0.334205  0.334506  0.559869  1
  Al  Al15  1  0.665494  0.665795  0.440131  1
  Al  Al16  1  0.666994  0.661857  0.054472  1
  Al  Al17  1  0.338143  0.333006  0.945528  1
  Al  Al18  1  0.336542  0.545830  0.249195  1
  Al  Al19  1  0.661280  0.453476  0.753551  1
  Al  Al20  1  0.546524  0.338720  0.246449  1
  Al  Al21  1  0.454170  0.663458  0.750805  1
  Os  Os22  1  0.671874  0.328126  0.000000  1
  Pd  Pd23  1  0.328095  0.671905  0.000000  1
  Pd  Pd24  1  0.327935  0.672065  0.500000  1
  Pd  Pd25  1  0.671868  0.328132  0.500000  1
  Pd  Pd26  1  0.000486  0.999514  0.000000  1
  Pd  Pd27  1  0.999976  0.000024  0.500000  1
