# generated using pymatgen
data_Ti2AlCuPt12
_symmetry_space_group_name_H-M   'P 1'
_cell_length_a   5.57326209
_cell_length_b   5.57326159
_cell_length_c   7.81098200
_cell_angle_alpha   90.00000000
_cell_angle_beta   90.00000000
_cell_angle_gamma   90.01414594
_symmetry_Int_Tables_number   1
_chemical_formula_structural   Ti2AlCuPt12
_chemical_formula_sum   'Ti2 Al1 Cu1 Pt12'
_cell_volume   242.61883795
_cell_formula_units_Z   1
loop_
 _symmetry_equiv_pos_site_id
 _symmetry_equiv_pos_as_xyz
  1  'x, y, z'
loop_
 _atom_site_type_symbol
 _atom_site_label
 _atom_site_symmetry_multiplicity
 _atom_site_fract_x
 _atom_site_fract_y
 _atom_site_fract_z
 _atom_site_occupancy
  Ti  Ti0  1  0.500000  0.000000  0.249946  1
  Ti  Ti1  1  0.000000  0.500000  0.250040  1
  Al  Al2  1  0.000000  0.500000  0.749930  1
  Cu  Cu3  1  0.500000  0.000000  0.750169  1
  Pt  Pt4  1  0.248178  0.251822  0.001583  1
  Pt  Pt5  1  0.748717  0.248717  0.001974  1
  Pt  Pt6  1  0.251283  0.751283  0.001974  1
  Pt  Pt7  1  0.751822  0.748178  0.001583  1
  Pt  Pt8  1  0.000000  0.000000  0.249992  1
  Pt  Pt9  1  0.500000  0.500000  0.249992  1
  Pt  Pt10  1  0.750293  0.250293  0.498194  1
  Pt  Pt11  1  0.249762  0.250238  0.498210  1
  Pt  Pt12  1  0.750238  0.749762  0.498210  1
  Pt  Pt13  1  0.249707  0.749707  0.498194  1
  Pt  Pt14  1  0.000000  0.000000  0.750004  1
  Pt  Pt15  1  0.500000  0.500000  0.750004  1
