# generated using pymatgen
data_Yb3YPt2(RhO7)2
_symmetry_space_group_name_H-M   'P 1'
_cell_length_a   7.21865211
_cell_length_b   7.21865107
_cell_length_c   7.23308188
_cell_angle_alpha   60.16575339
_cell_angle_beta   60.16575141
_cell_angle_gamma   60.04197492
_symmetry_Int_Tables_number   1
_chemical_formula_structural   Yb3YPt2(RhO7)2
_chemical_formula_sum   'Yb3 Y1 Pt2 Rh2 O14'
_cell_volume   267.26515356
_cell_formula_units_Z   1
loop_
 _symmetry_equiv_pos_site_id
 _symmetry_equiv_pos_as_xyz
  1  'x, y, z'
loop_
 _atom_site_type_symbol
 _atom_site_label
 _atom_site_symmetry_multiplicity
 _atom_site_fract_x
 _atom_site_fract_y
 _atom_site_fract_z
 _atom_site_occupancy
  Yb  Yb0  1  0.125000  0.625000  0.125000  1
  Yb  Yb1  1  0.125000  0.125000  0.625000  1
  Yb  Yb2  1  0.625000  0.125000  0.125000  1
  Y  Y3  1  0.125000  0.125000  0.125000  1
  Pt  Pt4  1  0.125000  0.625000  0.625000  1
  Pt  Pt5  1  0.625000  0.125000  0.625000  1
  Rh  Rh6  1  0.625000  0.625000  0.625000  1
  Rh  Rh7  1  0.625000  0.625000  0.125000  1
  O  O8  1  0.294476  0.704029  0.708362  1
  O  O9  1  0.539125  0.956800  0.957715  1
  O  O10  1  0.701449  0.701449  0.297927  1
  O  O11  1  0.289136  0.289136  0.714904  1
  O  O12  1  0.001817  0.001817  0.002174  1
  O  O13  1  0.293200  0.710875  0.292285  1
  O  O14  1  0.704029  0.294476  0.708362  1
  O  O15  1  0.956800  0.539125  0.957715  1
  O  O16  1  0.548551  0.548551  0.952073  1
  O  O17  1  0.960864  0.960864  0.535096  1
  O  O18  1  0.248183  0.248183  0.247826  1
  O  O19  1  0.545971  0.955524  0.541638  1
  O  O20  1  0.710875  0.293200  0.292285  1
  O  O21  1  0.955524  0.545971  0.541638  1
