# generated using pymatgen
data_Ho5ErScFeO12
_symmetry_space_group_name_H-M   'P 1'
_cell_length_a   6.53794263
_cell_length_b   6.53937458
_cell_length_c   6.53966403
_cell_angle_alpha   92.62214737
_cell_angle_beta   92.62695559
_cell_angle_gamma   92.61160516
_symmetry_Int_Tables_number   1
_chemical_formula_structural   Ho5ErScFeO12
_chemical_formula_sum   'Ho5 Er1 Sc1 Fe1 O12'
_cell_volume   278.69246902
_cell_formula_units_Z   1
loop_
 _symmetry_equiv_pos_site_id
 _symmetry_equiv_pos_as_xyz
  1  'x, y, z'
loop_
 _atom_site_type_symbol
 _atom_site_label
 _atom_site_symmetry_multiplicity
 _atom_site_fract_x
 _atom_site_fract_y
 _atom_site_fract_z
 _atom_site_occupancy
  Ho  Ho0  1  0.927305  0.436608  0.743583  1
  Ho  Ho1  1  0.436862  0.743794  0.927466  1
  Ho  Ho2  1  0.256293  0.072426  0.563197  1
  Ho  Ho3  1  0.072400  0.563505  0.256303  1
  Ho  Ho4  1  0.563448  0.256124  0.072760  1
  Er  Er5  1  0.743723  0.927377  0.436623  1
  Sc  Sc6  1  0.999805  0.999938  0.000084  1
  Fe  Fe7  1  0.500201  0.500109  0.499917  1
  O  O8  1  0.589246  0.461198  0.801430  1
  O  O9  1  0.462098  0.801895  0.588846  1
  O  O10  1  0.801349  0.590345  0.461173  1
  O  O11  1  0.410707  0.538721  0.198530  1
  O  O12  1  0.539573  0.197877  0.410847  1
  O  O13  1  0.198604  0.410753  0.538829  1
  O  O14  1  0.067825  0.914293  0.308665  1
  O  O15  1  0.914253  0.308404  0.068520  1
  O  O16  1  0.691606  0.931176  0.086831  1
  O  O17  1  0.085867  0.691608  0.931349  1
  O  O18  1  0.930548  0.085194  0.690890  1
  O  O19  1  0.308287  0.068653  0.914156  1
