# generated using pymatgen
data_Tb11Zn(In3Ir)3
_symmetry_space_group_name_H-M   'P 1'
_cell_length_a   13.16638230
_cell_length_b   13.14081982
_cell_length_c   3.71586100
_cell_angle_alpha   90.00000000
_cell_angle_beta   90.00000000
_cell_angle_gamma   110.90043730
_symmetry_Int_Tables_number   1
_chemical_formula_structural   Tb11Zn(In3Ir)3
_chemical_formula_sum   'Tb11 Zn1 In9 Ir3'
_cell_volume   600.60515958
_cell_formula_units_Z   1
loop_
 _symmetry_equiv_pos_site_id
 _symmetry_equiv_pos_as_xyz
  1  'x, y, z'
loop_
 _atom_site_type_symbol
 _atom_site_label
 _atom_site_symmetry_multiplicity
 _atom_site_fract_x
 _atom_site_fract_y
 _atom_site_fract_z
 _atom_site_occupancy
  Tb  Tb0  1  0.417308  0.078064  0.000000  1
  Tb  Tb1  1  0.581537  0.923683  0.000000  1
  Tb  Tb2  1  0.079923  0.420253  0.000000  1
  Tb  Tb3  1  0.933855  0.586232  0.000000  1
  Tb  Tb4  1  0.159732  0.840748  0.000000  1
  Tb  Tb5  1  0.839327  0.157839  0.000000  1
  Tb  Tb6  1  0.372808  0.623894  0.000000  1
  Tb  Tb7  1  0.615884  0.360335  0.000000  1
  Tb  Tb8  1  0.311261  0.312829  0.000000  1
  Tb  Tb9  1  0.682482  0.697412  0.000000  1
  Tb  Tb10  1  0.999688  0.998972  0.000000  1
  Zn  Zn11  1  0.749640  0.546672  0.500000  1
  In  In12  1  0.366867  0.839887  0.500000  1
  In  In13  1  0.634416  0.158837  0.500000  1
  In  In14  1  0.844408  0.369049  0.500000  1
  In  In15  1  0.161917  0.634354  0.500000  1
  In  In16  1  0.217531  0.075127  0.500000  1
  In  In17  1  0.782604  0.925803  0.500000  1
  In  In18  1  0.074221  0.217881  0.500000  1
  In  In19  1  0.929132  0.782292  0.500000  1
  In  In20  1  0.499347  0.499549  0.500000  1
  Ir  Ir21  1  0.451059  0.246476  0.500000  1
  Ir  Ir22  1  0.550172  0.755518  0.500000  1
  Ir  Ir23  1  0.244886  0.448293  0.500000  1
