# generated using pymatgen
data_Rb4Zr6SiI18
_symmetry_space_group_name_H-M   'P 1'
_cell_length_a   11.75200463
_cell_length_b   11.75200485
_cell_length_c   11.47839868
_cell_angle_alpha   77.43924899
_cell_angle_beta   77.43924455
_cell_angle_gamma   117.47963832
_symmetry_Int_Tables_number   1
_chemical_formula_structural   Rb4Zr6SiI18
_chemical_formula_sum   'Rb4 Zr6 Si1 I18'
_cell_volume   1276.95193031
_cell_formula_units_Z   1
loop_
 _symmetry_equiv_pos_site_id
 _symmetry_equiv_pos_as_xyz
  1  'x, y, z'
loop_
 _atom_site_type_symbol
 _atom_site_label
 _atom_site_symmetry_multiplicity
 _atom_site_fract_x
 _atom_site_fract_y
 _atom_site_fract_z
 _atom_site_occupancy
  Rb  Rb0  1  0.771059  0.445865  0.677880  1
  Rb  Rb1  1  0.554135  0.228941  0.322120  1
  Rb  Rb2  1  0.228941  0.554135  0.322120  1
  Rb  Rb3  1  0.445865  0.771059  0.677880  1
  Zr  Zr4  1  0.120770  0.120770  0.137500  1
  Zr  Zr5  1  0.879230  0.879230  0.862500  1
  Zr  Zr6  1  0.950858  0.770379  0.144641  1
  Zr  Zr7  1  0.229621  0.049142  0.855359  1
  Zr  Zr8  1  0.049142  0.229621  0.855359  1
  Zr  Zr9  1  0.770379  0.950858  0.144641  1
  Si  Si10  1  0.000000  0.000000  0.000000  1
  I  I11  1  0.807754  0.601537  0.008343  1
  I  I12  1  0.398464  0.192246  0.991657  1
  I  I13  1  0.192246  0.398464  0.991657  1
  I  I14  1  0.601536  0.807754  0.008343  1
  I  I15  1  0.205408  0.794592  0.000000  1
  I  I16  1  0.794592  0.205408  0.000000  1
  I  I17  1  0.317187  0.317187  0.674153  1
  I  I18  1  0.682813  0.682813  0.325847  1
  I  I19  1  0.889094  0.492851  0.324254  1
  I  I20  1  0.507149  0.110906  0.675746  1
  I  I21  1  0.110906  0.507149  0.675746  1
  I  I22  1  0.492851  0.889094  0.324254  1
  I  I23  1  0.264300  0.264300  0.301312  1
  I  I24  1  0.735700  0.735700  0.698688  1
  I  I25  1  0.079104  0.875884  0.319001  1
  I  I26  1  0.124116  0.920896  0.680999  1
  I  I27  1  0.920896  0.124116  0.680999  1
  I  I28  1  0.875884  0.079104  0.319001  1
