# generated using pymatgen
data_Zr8Fe9Co(Si8W)2
_symmetry_space_group_name_H-M   'P 1'
_cell_length_a   9.73155784
_cell_length_b   9.74666584
_cell_length_c   13.00327222
_cell_angle_alpha   53.63908107
_cell_angle_beta   53.63059452
_cell_angle_gamma   31.10326658
_symmetry_Int_Tables_number   1
_chemical_formula_structural   Zr8Fe9Co(Si8W)2
_chemical_formula_sum   'Zr8 Fe9 Co1 Si16 W2'
_cell_volume   502.16740572
_cell_formula_units_Z   1
loop_
 _symmetry_equiv_pos_site_id
 _symmetry_equiv_pos_as_xyz
  1  'x, y, z'
loop_
 _atom_site_type_symbol
 _atom_site_label
 _atom_site_symmetry_multiplicity
 _atom_site_fract_x
 _atom_site_fract_y
 _atom_site_fract_z
 _atom_site_occupancy
  Zr  Zr0  1  0.038798  0.290010  0.641788  1
  Zr  Zr1  1  0.704712  0.961070  0.861391  1
  Zr  Zr2  1  0.961820  0.704695  0.360537  1
  Zr  Zr3  1  0.291311  0.038183  0.141099  1
  Zr  Zr4  1  0.294381  0.565588  0.642894  1
  Zr  Zr5  1  0.436949  0.705875  0.856133  1
  Zr  Zr6  1  0.707179  0.438710  0.353619  1
  Zr  Zr7  1  0.564532  0.295713  0.142552  1
  Fe  Fe8  1  0.899715  0.142567  0.582959  1
  Fe  Fe9  1  0.859132  0.095428  0.917687  1
  Fe  Fe10  1  0.091071  0.864140  0.418149  1
  Fe  Fe11  1  0.139730  0.903738  0.082595  1
  Fe  Fe12  1  0.831287  0.647353  0.776147  1
  Fe  Fe13  1  0.353122  0.172727  0.720524  1
  Fe  Fe14  1  0.171870  0.354184  0.221491  1
  Fe  Fe15  1  0.646281  0.831047  0.276514  1
  Fe  Fe16  1  0.239984  0.518494  0.938291  1
  Co  Co17  1  0.528234  0.228637  0.437263  1
  Si  Si18  1  0.962932  0.257838  0.894153  1
  Si  Si19  1  0.743176  0.030281  0.605265  1
  Si  Si20  1  0.031115  0.743779  0.103575  1
  Si  Si21  1  0.255914  0.965166  0.393804  1
  Si  Si22  1  0.139306  0.398047  0.892862  1
  Si  Si23  1  0.612655  0.863657  0.606852  1
  Si  Si24  1  0.866838  0.611797  0.104564  1
  Si  Si25  1  0.397616  0.140161  0.391563  1
  Si  Si26  1  0.097738  0.563679  0.564566  1
  Si  Si27  1  0.409133  0.935628  0.928200  1
  Si  Si28  1  0.934545  0.409458  0.429060  1
  Si  Si29  1  0.566047  0.093476  0.066110  1
  Si  Si30  1  0.617112  0.372985  0.756652  1
  Si  Si31  1  0.369152  0.619983  0.257287  1
  Si  Si32  1  0.115209  0.876430  0.755604  1
  Si  Si33  1  0.878953  0.114085  0.254910  1
  W  W34  1  0.493699  0.751420  0.561340  1
  W  W35  1  0.748751  0.493975  0.061999  1
