# generated using pymatgen
data_Ho5Tm7GaCo4Bi
_symmetry_space_group_name_H-M   'P 1'
_cell_length_a   8.27078796
_cell_length_b   8.26407342
_cell_length_c   8.26407295
_cell_angle_alpha   111.53117508
_cell_angle_beta   109.36902005
_cell_angle_gamma   107.50730276
_symmetry_Int_Tables_number   1
_chemical_formula_structural   Ho5Tm7GaCo4Bi
_chemical_formula_sum   'Ho5 Tm7 Ga1 Co4 Bi1'
_cell_volume   434.45344519
_cell_formula_units_Z   1
loop_
 _symmetry_equiv_pos_site_id
 _symmetry_equiv_pos_as_xyz
  1  'x, y, z'
loop_
 _atom_site_type_symbol
 _atom_site_label
 _atom_site_symmetry_multiplicity
 _atom_site_fract_x
 _atom_site_fract_y
 _atom_site_fract_z
 _atom_site_occupancy
  Ho  Ho0  1  0.434148  0.730375  0.703773  1
  Ho  Ho1  1  0.179245  0.778944  0.958755  1
  Ho  Ho2  1  0.820911  0.778854  0.599238  1
  Ho  Ho3  1  0.179245  0.220490  0.400301  1
  Ho  Ho4  1  0.820911  0.221673  0.042057  1
  Tm  Tm5  1  0.973611  0.269656  0.703954  1
  Tm  Tm6  1  0.026156  0.730312  0.295845  1
  Tm  Tm7  1  0.677060  0.860221  0.184241  1
  Tm  Tm8  1  0.323457  0.506989  0.183113  1
  Tm  Tm9  1  0.323457  0.140344  0.816469  1
  Tm  Tm10  1  0.677060  0.492818  0.816839  1
  Tm  Tm11  1  0.565443  0.269726  0.295717  1
  Ga  Ga12  1  0.998867  0.499269  0.499598  1
  Co  Co13  1  0.115089  0.115231  0.999857  1
  Co  Co14  1  0.885508  0.884948  0.000560  1
  Co  Co15  1  0.658097  0.500098  0.157999  1
  Co  Co16  1  0.341870  0.499708  0.842161  1
  Bi  Bi17  1  0.499867  0.000343  0.499524  1
