# generated using pymatgen
data_LaPr7(HgPt)2
_symmetry_space_group_name_H-M   'P 1'
_cell_length_a   10.07601649
_cell_length_b   10.07601573
_cell_length_c   10.08715736
_cell_angle_alpha   60.20535062
_cell_angle_beta   60.20535470
_cell_angle_gamma   60.15350593
_symmetry_Int_Tables_number   1
_chemical_formula_structural   LaPr7(HgPt)2
_chemical_formula_sum   'La2 Pr14 Hg4 Pt4'
_cell_volume   727.23869155
_cell_formula_units_Z   2
loop_
 _symmetry_equiv_pos_site_id
 _symmetry_equiv_pos_as_xyz
  1  'x, y, z'
loop_
 _atom_site_type_symbol
 _atom_site_label
 _atom_site_symmetry_multiplicity
 _atom_site_fract_x
 _atom_site_fract_y
 _atom_site_fract_z
 _atom_site_occupancy
  La  La0  1  0.349717  0.349717  0.350736  1
  La  La1  1  0.351259  0.351259  0.946600  1
  Pr  Pr2  1  0.352399  0.942362  0.353434  1
  Pr  Pr3  1  0.942362  0.352399  0.353434  1
  Pr  Pr4  1  0.810188  0.191459  0.190899  1
  Pr  Pr5  1  0.192207  0.808726  0.807856  1
  Pr  Pr6  1  0.191459  0.810188  0.190899  1
  Pr  Pr7  1  0.808726  0.192207  0.807856  1
  Pr  Pr8  1  0.191397  0.191397  0.809372  1
  Pr  Pr9  1  0.808003  0.808003  0.191783  1
  Pr  Pr10  1  0.938042  0.563807  0.563813  1
  Pr  Pr11  1  0.563525  0.935704  0.935311  1
  Pr  Pr12  1  0.563807  0.938042  0.563813  1
  Pr  Pr13  1  0.935704  0.563525  0.935311  1
  Pr  Pr14  1  0.563600  0.563600  0.938060  1
  Pr  Pr15  1  0.935832  0.935832  0.562990  1
  Hg  Hg16  1  0.585186  0.585186  0.583997  1
  Hg  Hg17  1  0.584898  0.584898  0.246040  1
  Hg  Hg18  1  0.584984  0.246197  0.584258  1
  Hg  Hg19  1  0.246197  0.584984  0.584258  1
  Pt  Pt20  1  0.143842  0.143842  0.143709  1
  Pt  Pt21  1  0.142860  0.142860  0.570429  1
  Pt  Pt22  1  0.143196  0.570605  0.142571  1
  Pt  Pt23  1  0.570605  0.143196  0.142571  1
