# generated using pymatgen
data_PrGdTeO6
_symmetry_space_group_name_H-M   'P 1'
_cell_length_a   5.47670800
_cell_length_b   9.37562900
_cell_length_c   10.24227000
_cell_angle_alpha   90.00000000
_cell_angle_beta   90.00000000
_cell_angle_gamma   90.00000000
_symmetry_Int_Tables_number   1
_chemical_formula_structural   PrGdTeO6
_chemical_formula_sum   'Pr4 Gd4 Te4 O24'
_cell_volume   525.91580227
_cell_formula_units_Z   4
loop_
 _symmetry_equiv_pos_site_id
 _symmetry_equiv_pos_as_xyz
  1  'x, y, z'
loop_
 _atom_site_type_symbol
 _atom_site_label
 _atom_site_symmetry_multiplicity
 _atom_site_fract_x
 _atom_site_fract_y
 _atom_site_fract_z
 _atom_site_occupancy
  Pr  Pr0  1  0.032972  0.218375  0.860855  1
  Pr  Pr1  1  0.532972  0.281625  0.139145  1
  Pr  Pr2  1  0.967028  0.718375  0.639145  1
  Pr  Pr3  1  0.467028  0.781625  0.360855  1
  Gd  Gd4  1  0.023399  0.104303  0.457968  1
  Gd  Gd5  1  0.523399  0.395697  0.542032  1
  Gd  Gd6  1  0.976601  0.604303  0.042032  1
  Gd  Gd7  1  0.476601  0.895697  0.957968  1
  Te  Te8  1  0.539205  0.007421  0.643795  1
  Te  Te9  1  0.039205  0.492579  0.356205  1
  Te  Te10  1  0.460795  0.507421  0.856205  1
  Te  Te11  1  0.960795  0.992579  0.143795  1
  O  O12  1  0.252251  0.420260  0.993298  1
  O  O13  1  0.752251  0.079740  0.006702  1
  O  O14  1  0.747749  0.920260  0.506702  1
  O  O15  1  0.247749  0.579740  0.493298  1
  O  O16  1  0.221587  0.110026  0.064693  1
  O  O17  1  0.721587  0.389974  0.935307  1
  O  O18  1  0.778413  0.610026  0.435307  1
  O  O19  1  0.278413  0.889974  0.564693  1
  O  O20  1  0.309532  0.359153  0.327879  1
  O  O21  1  0.809532  0.140847  0.672121  1
  O  O22  1  0.690468  0.859153  0.172121  1
  O  O23  1  0.190468  0.640847  0.827879  1
  O  O24  1  0.163951  0.949064  0.292512  1
  O  O25  1  0.663951  0.550936  0.707488  1
  O  O26  1  0.836049  0.449064  0.207488  1
  O  O27  1  0.336049  0.050936  0.792512  1
  O  O28  1  0.178024  0.635161  0.241352  1
  O  O29  1  0.678024  0.864839  0.758648  1
  O  O30  1  0.821976  0.135161  0.258648  1
  O  O31  1  0.321976  0.364839  0.741352  1
  O  O32  1  0.089446  0.843921  0.029388  1
  O  O33  1  0.589446  0.656079  0.970612  1
  O  O34  1  0.910554  0.343921  0.470612  1
  O  O35  1  0.410554  0.156079  0.529388  1
