# generated using pymatgen
data_Tb10(SnBi)3
_symmetry_space_group_name_H-M   'P 1'
_cell_length_a   9.11016318
_cell_length_b   9.13719775
_cell_length_c   6.51098100
_cell_angle_alpha   90.00000000
_cell_angle_beta   90.00000000
_cell_angle_gamma   119.94923153
_symmetry_Int_Tables_number   1
_chemical_formula_structural   Tb10(SnBi)3
_chemical_formula_sum   'Tb10 Sn3 Bi3'
_cell_volume   469.61092066
_cell_formula_units_Z   1
loop_
 _symmetry_equiv_pos_site_id
 _symmetry_equiv_pos_as_xyz
  1  'x, y, z'
loop_
 _atom_site_type_symbol
 _atom_site_label
 _atom_site_symmetry_multiplicity
 _atom_site_fract_x
 _atom_site_fract_y
 _atom_site_fract_z
 _atom_site_occupancy
  Tb  Tb0  1  0.759375  0.753617  0.250000  1
  Tb  Tb1  1  0.005265  0.245975  0.250000  1
  Tb  Tb2  1  0.764939  0.005799  0.750000  1
  Tb  Tb3  1  0.325679  0.659247  0.498616  1
  Tb  Tb4  1  0.236236  0.999691  0.250000  1
  Tb  Tb5  1  0.671846  0.337990  0.498579  1
  Tb  Tb6  1  0.999999  0.755721  0.750000  1
  Tb  Tb7  1  0.325679  0.659247  0.001384  1
  Tb  Tb8  1  0.237706  0.243320  0.750000  1
  Tb  Tb9  1  0.671846  0.337990  0.001421  1
  Sn  Sn10  1  0.997739  0.392360  0.750000  1
  Sn  Sn11  1  0.393079  0.390123  0.250000  1
  Sn  Sn12  1  0.001197  0.608653  0.250000  1
  Bi  Bi13  1  0.608639  0.611306  0.750000  1
  Bi  Bi14  1  0.391959  0.000545  0.750000  1
  Bi  Bi15  1  0.608816  0.998418  0.250000  1
