# generated using pymatgen
data_PrNd(ScSe3)2
_symmetry_space_group_name_H-M   'P 1'
_cell_length_a   6.80041202
_cell_length_b   7.52160502
_cell_length_c   10.04878900
_cell_angle_alpha   90.00000000
_cell_angle_beta   90.00000000
_cell_angle_gamma   90.00834493
_symmetry_Int_Tables_number   1
_chemical_formula_structural   PrNd(ScSe3)2
_chemical_formula_sum   'Pr2 Nd2 Sc4 Se12'
_cell_volume   513.99568427
_cell_formula_units_Z   2
loop_
 _symmetry_equiv_pos_site_id
 _symmetry_equiv_pos_as_xyz
  1  'x, y, z'
loop_
 _atom_site_type_symbol
 _atom_site_label
 _atom_site_symmetry_multiplicity
 _atom_site_fract_x
 _atom_site_fract_y
 _atom_site_fract_z
 _atom_site_occupancy
  Pr  Pr0  1  0.542652  0.396293  0.750000  1
  Pr  Pr1  1  0.457348  0.603707  0.250000  1
  Nd  Nd2  1  0.042544  0.103656  0.250000  1
  Nd  Nd3  1  0.957456  0.896344  0.750000  1
  Sc  Sc4  1  0.000000  0.500000  0.000000  1
  Sc  Sc5  1  0.000000  0.500000  0.500000  1
  Sc  Sc6  1  0.500000  0.000000  0.500000  1
  Sc  Sc7  1  0.500000  0.000000  0.000000  1
  Se  Se8  1  0.825006  0.184928  0.563431  1
  Se  Se9  1  0.174994  0.815072  0.063431  1
  Se  Se10  1  0.324076  0.313845  0.063332  1
  Se  Se11  1  0.675924  0.686155  0.563332  1
  Se  Se12  1  0.825006  0.184928  0.936569  1
  Se  Se13  1  0.174994  0.815072  0.436569  1
  Se  Se14  1  0.324076  0.313845  0.436668  1
  Se  Se15  1  0.675924  0.686155  0.936668  1
  Se  Se16  1  0.866089  0.461423  0.250000  1
  Se  Se17  1  0.133911  0.538577  0.750000  1
  Se  Se18  1  0.364167  0.037046  0.750000  1
  Se  Se19  1  0.635833  0.962954  0.250000  1
