# generated using pymatgen
data_Tm5LuReTe2
_symmetry_space_group_name_H-M   'P 1'
_cell_length_a   8.02503500
_cell_length_b   8.02620326
_cell_length_c   4.27871100
_cell_angle_alpha   90.00000000
_cell_angle_beta   90.00000000
_cell_angle_gamma   119.99517281
_symmetry_Int_Tables_number   1
_chemical_formula_structural   Tm5LuReTe2
_chemical_formula_sum   'Tm5 Lu1 Re1 Te2'
_cell_volume   238.68317005
_cell_formula_units_Z   1
loop_
 _symmetry_equiv_pos_site_id
 _symmetry_equiv_pos_as_xyz
  1  'x, y, z'
loop_
 _atom_site_type_symbol
 _atom_site_label
 _atom_site_symmetry_multiplicity
 _atom_site_fract_x
 _atom_site_fract_y
 _atom_site_fract_z
 _atom_site_occupancy
  Tm  Tm0  1  0.616653  0.000000  0.500000  1
  Tm  Tm1  1  0.382707  0.382545  0.500000  1
  Tm  Tm2  1  0.000162  0.617455  0.500000  1
  Tm  Tm3  1  0.000043  0.235750  0.000000  1
  Tm  Tm4  1  0.764293  0.764250  0.000000  1
  Lu  Lu5  1  0.235315  0.000000  0.000000  1
  Re  Re6  1  0.002122  0.000000  0.500000  1
  Te  Te7  1  0.665384  0.332063  0.000000  1
  Te  Te8  1  0.333322  0.667937  0.000000  1
