# generated using pymatgen
data_Tb4Pr4SeS11
_symmetry_space_group_name_H-M   'P 1'
_cell_length_a   3.98162100
_cell_length_b   10.59256300
_cell_length_c   10.96154300
_cell_angle_alpha   90.00052468
_cell_angle_beta   90.00000000
_cell_angle_gamma   90.00000000
_symmetry_Int_Tables_number   1
_chemical_formula_structural   Tb4Pr4SeS11
_chemical_formula_sum   'Tb4 Pr4 Se1 S11'
_cell_volume   462.30933819
_cell_formula_units_Z   1
loop_
 _symmetry_equiv_pos_site_id
 _symmetry_equiv_pos_as_xyz
  1  'x, y, z'
loop_
 _atom_site_type_symbol
 _atom_site_label
 _atom_site_symmetry_multiplicity
 _atom_site_fract_x
 _atom_site_fract_y
 _atom_site_fract_z
 _atom_site_occupancy
  Tb  Tb0  1  0.250000  0.184932  0.486964  1
  Tb  Tb1  1  0.750000  0.816041  0.506186  1
  Tb  Tb2  1  0.750000  0.684615  0.010689  1
  Tb  Tb3  1  0.250000  0.311884  0.996394  1
  Pr  Pr4  1  0.250000  0.995335  0.804800  1
  Pr  Pr5  1  0.750000  0.000029  0.192009  1
  Pr  Pr6  1  0.750000  0.508015  0.695233  1
  Pr  Pr7  1  0.250000  0.502745  0.307376  1
  Se  Se8  1  0.250000  0.296336  0.731765  1
  S  S9  1  0.750000  0.703925  0.268139  1
  S  S10  1  0.750000  0.795363  0.767945  1
  S  S11  1  0.250000  0.201675  0.231061  1
  S  S12  1  0.250000  0.945247  0.382347  1
  S  S13  1  0.750000  0.053724  0.612979  1
  S  S14  1  0.750000  0.444439  0.118011  1
  S  S15  1  0.250000  0.553765  0.889425  1
  S  S16  1  0.250000  0.866157  0.042459  1
  S  S17  1  0.750000  0.130315  0.956918  1
  S  S18  1  0.750000  0.369205  0.457366  1
  S  S19  1  0.250000  0.636252  0.541937  1
