# generated using pymatgen
data_Tb8Sb(Pd11Pt)2
_symmetry_space_group_name_H-M   'P 1'
_cell_length_a   8.42016202
_cell_length_b   8.40352600
_cell_length_c   8.42016202
_cell_angle_alpha   90.00000000
_cell_angle_beta   89.99310014
_cell_angle_gamma   90.00000000
_symmetry_Int_Tables_number   1
_chemical_formula_structural   Tb8Sb(Pd11Pt)2
_chemical_formula_sum   'Tb8 Sb1 Pd22 Pt2'
_cell_volume   595.80266426
_cell_formula_units_Z   1
loop_
 _symmetry_equiv_pos_site_id
 _symmetry_equiv_pos_as_xyz
  1  'x, y, z'
loop_
 _atom_site_type_symbol
 _atom_site_label
 _atom_site_symmetry_multiplicity
 _atom_site_fract_x
 _atom_site_fract_y
 _atom_site_fract_z
 _atom_site_occupancy
  Tb  Tb0  1  0.746858  0.746975  0.253142  1
  Tb  Tb1  1  0.746306  0.253624  0.746828  1
  Tb  Tb2  1  0.253675  0.746055  0.746325  1
  Tb  Tb3  1  0.746306  0.746376  0.746828  1
  Tb  Tb4  1  0.746858  0.253025  0.253142  1
  Tb  Tb5  1  0.253675  0.253945  0.746325  1
  Tb  Tb6  1  0.253172  0.746376  0.253694  1
  Tb  Tb7  1  0.253172  0.253624  0.253694  1
  Sb  Sb8  1  0.000267  0.000000  0.999733  1
  Pd  Pd9  1  0.999861  0.000000  0.306490  1
  Pd  Pd10  1  0.735282  0.000000  0.499887  1
  Pd  Pd11  1  0.735003  0.500000  0.000031  1
  Pd  Pd12  1  0.500137  0.000000  0.735398  1
  Pd  Pd13  1  0.999909  0.735488  0.499892  1
  Pd  Pd14  1  0.500113  0.000000  0.264718  1
  Pd  Pd15  1  0.999909  0.264512  0.499892  1
  Pd  Pd16  1  0.500108  0.735488  0.000091  1
  Pd  Pd17  1  0.500089  0.500000  0.254349  1
  Pd  Pd18  1  0.500146  0.254300  0.499854  1
  Pd  Pd19  1  0.500146  0.745700  0.499854  1
  Pd  Pd20  1  0.745651  0.500000  0.499911  1
  Pd  Pd21  1  0.306818  0.000000  0.000143  1
  Pd  Pd22  1  0.999857  0.000000  0.693182  1
  Pd  Pd23  1  0.999969  0.500000  0.264997  1
  Pd  Pd24  1  0.999862  0.306993  0.000138  1
  Pd  Pd25  1  0.999862  0.693007  0.000138  1
  Pd  Pd26  1  0.693510  0.000000  0.000139  1
  Pd  Pd27  1  0.264784  0.500000  0.000068  1
  Pd  Pd28  1  0.264602  0.000000  0.499863  1
  Pd  Pd29  1  0.999932  0.500000  0.735216  1
  Pd  Pd30  1  0.500108  0.264512  0.000091  1
  Pt  Pt31  1  0.253998  0.500000  0.499946  1
  Pt  Pt32  1  0.500054  0.500000  0.746002  1
