# generated using pymatgen
data_Ca7La5Ga4(GeRh2)4
_symmetry_space_group_name_H-M   'P 1'
_cell_length_a   5.70716095
_cell_length_b   8.02436752
_cell_length_c   13.93593002
_cell_angle_alpha   90.00373456
_cell_angle_beta   90.00383964
_cell_angle_gamma   89.63864511
_symmetry_Int_Tables_number   1
_chemical_formula_structural   Ca7La5Ga4(GeRh2)4
_chemical_formula_sum   'Ca7 La5 Ga4 Ge4 Rh8'
_cell_volume   638.20212980
_cell_formula_units_Z   1
loop_
 _symmetry_equiv_pos_site_id
 _symmetry_equiv_pos_as_xyz
  1  'x, y, z'
loop_
 _atom_site_type_symbol
 _atom_site_label
 _atom_site_symmetry_multiplicity
 _atom_site_fract_x
 _atom_site_fract_y
 _atom_site_fract_z
 _atom_site_occupancy
  Ca  Ca0  1  0.641785  0.256601  0.246617  1
  Ca  Ca1  1  0.358373  0.740416  0.750811  1
  Ca  Ca2  1  0.355023  0.746995  0.248035  1
  Ca  Ca3  1  0.644052  0.256628  0.750490  1
  Ca  Ca4  1  0.145256  0.401698  0.101336  1
  Ca  Ca5  1  0.857846  0.598368  0.898215  1
  Ca  Ca6  1  0.849215  0.603267  0.604019  1
  La  La7  1  0.842125  0.895635  0.401549  1
  La  La8  1  0.153077  0.401342  0.403217  1
  La  La9  1  0.159389  0.101550  0.601058  1
  La  La10  1  0.157856  0.107982  0.902305  1
  La  La11  1  0.840672  0.894352  0.097311  1
  Ga  Ga12  1  0.623296  0.254673  0.000826  1
  Ga  Ga13  1  0.377625  0.744690  0.998175  1
  Ga  Ga14  1  0.375220  0.748835  0.501952  1
  Ga  Ga15  1  0.634748  0.250757  0.502075  1
  Ge  Ge16  1  0.154016  0.098138  0.248717  1
  Ge  Ge17  1  0.844284  0.902832  0.751242  1
  Ge  Ge18  1  0.842452  0.604475  0.249126  1
  Ge  Ge19  1  0.151751  0.395944  0.749066  1
  Rh  Rh20  1  0.367279  0.029269  0.092412  1
  Rh  Rh21  1  0.632702  0.969866  0.906240  1
  Rh  Rh22  1  0.632468  0.968017  0.594150  1
  Rh  Rh23  1  0.628342  0.529002  0.407374  1
  Rh  Rh24  1  0.368466  0.033204  0.407554  1
  Rh  Rh25  1  0.357816  0.465115  0.588810  1
  Rh  Rh26  1  0.363644  0.466713  0.908406  1
  Rh  Rh27  1  0.641224  0.533636  0.088912  1
