# generated using pymatgen
data_Dy20Si13As3
_symmetry_space_group_name_H-M   'P 1'
_cell_length_a   7.56910413
_cell_length_b   7.63815545
_cell_length_c   14.56539408
_cell_angle_alpha   89.87890619
_cell_angle_beta   89.11307434
_cell_angle_gamma   90.00925241
_symmetry_Int_Tables_number   1
_chemical_formula_structural   Dy20Si13As3
_chemical_formula_sum   'Dy20 Si13 As3'
_cell_volume   841.98081955
_cell_formula_units_Z   1
loop_
 _symmetry_equiv_pos_site_id
 _symmetry_equiv_pos_as_xyz
  1  'x, y, z'
loop_
 _atom_site_type_symbol
 _atom_site_label
 _atom_site_symmetry_multiplicity
 _atom_site_fract_x
 _atom_site_fract_y
 _atom_site_fract_z
 _atom_site_occupancy
  Dy  Dy0  1  0.710707  0.998173  0.254274  1
  Dy  Dy1  1  0.212000  0.500726  0.250807  1
  Dy  Dy2  1  0.787467  0.498095  0.746407  1
  Dy  Dy3  1  0.289404  0.001916  0.751923  1
  Dy  Dy4  1  0.037517  0.825008  0.106454  1
  Dy  Dy5  1  0.523783  0.673869  0.397576  1
  Dy  Dy6  1  0.461560  0.325725  0.893494  1
  Dy  Dy7  1  0.976172  0.180181  0.601865  1
  Dy  Dy8  1  0.970707  0.177606  0.893999  1
  Dy  Dy9  1  0.479913  0.322760  0.600803  1
  Dy  Dy10  1  0.528749  0.677999  0.105600  1
  Dy  Dy11  1  0.018292  0.816335  0.398215  1
  Dy  Dy12  1  0.614412  0.837236  0.882453  1
  Dy  Dy13  1  0.122152  0.664056  0.618969  1
  Dy  Dy14  1  0.886634  0.336747  0.116905  1
  Dy  Dy15  1  0.377180  0.164142  0.382099  1
  Dy  Dy16  1  0.382632  0.164845  0.116938  1
  Dy  Dy17  1  0.877181  0.334685  0.380713  1
  Dy  Dy18  1  0.117095  0.665138  0.882762  1
  Dy  Dy19  1  0.624789  0.835174  0.618434  1
  Si  Si20  1  0.822776  0.627946  0.249580  1
  Si  Si21  1  0.323361  0.871585  0.250693  1
  Si  Si22  1  0.676399  0.129162  0.749657  1
  Si  Si23  1  0.175147  0.371854  0.749160  1
  Si  Si24  1  0.087871  0.110272  0.249302  1
  Si  Si25  1  0.588016  0.388218  0.248008  1
  Si  Si26  1  0.412824  0.612129  0.750335  1
  Si  Si27  1  0.912525  0.889966  0.750729  1
  Si  Si28  1  0.214588  0.465594  0.457641  1
  Si  Si29  1  0.224835  0.474836  0.045445  1
  Si  Si30  1  0.718165  0.032501  0.456718  1
  Si  Si31  1  0.275509  0.974636  0.954381  1
  Si  Si32  1  0.787302  0.533625  0.543172  1
  As  As33  1  0.772504  0.524254  0.953998  1
  As  As34  1  0.282562  0.968694  0.544866  1
  As  As35  1  0.727271  0.024311  0.045626  1
