# generated using pymatgen
data_HoEr3Ir8
_symmetry_space_group_name_H-M   'P 1'
_cell_length_a   5.34817200
_cell_length_b   5.34817216
_cell_length_c   8.68682800
_cell_angle_alpha   90.00000000
_cell_angle_beta   90.00000000
_cell_angle_gamma   119.99999901
_symmetry_Int_Tables_number   1
_chemical_formula_structural   HoEr3Ir8
_chemical_formula_sum   'Ho1 Er3 Ir8'
_cell_volume   215.18034694
_cell_formula_units_Z   1
loop_
 _symmetry_equiv_pos_site_id
 _symmetry_equiv_pos_as_xyz
  1  'x, y, z'
loop_
 _atom_site_type_symbol
 _atom_site_label
 _atom_site_symmetry_multiplicity
 _atom_site_fract_x
 _atom_site_fract_y
 _atom_site_fract_z
 _atom_site_occupancy
  Ho  Ho0  1  0.333334  0.666667  0.067044  1
  Er  Er1  1  0.333334  0.666667  0.432944  1
  Er  Er2  1  0.666667  0.333333  0.567052  1
  Er  Er3  1  0.666667  0.333333  0.932963  1
  Ir  Ir4  1  0.000000  0.000000  0.999967  1
  Ir  Ir5  1  0.340178  0.170089  0.250053  1
  Ir  Ir6  1  0.829910  0.170089  0.250053  1
  Ir  Ir7  1  0.829911  0.659820  0.250053  1
  Ir  Ir8  1  0.000000  0.000000  0.499975  1
  Ir  Ir9  1  0.170080  0.340159  0.749966  1
  Ir  Ir10  1  0.170081  0.829921  0.749966  1
  Ir  Ir11  1  0.659841  0.829921  0.749966  1
