# generated using pymatgen
data_Y8Ho12Sn13Sb3
_symmetry_space_group_name_H-M   'P 1'
_cell_length_a   8.08325251
_cell_length_b   8.15063070
_cell_length_c   15.36458898
_cell_angle_alpha   90.09114743
_cell_angle_beta   89.71738921
_cell_angle_gamma   90.02043335
_symmetry_Int_Tables_number   1
_chemical_formula_structural   Y8Ho12Sn13Sb3
_chemical_formula_sum   'Y8 Ho12 Sn13 Sb3'
_cell_volume   1012.26087056
_cell_formula_units_Z   1
loop_
 _symmetry_equiv_pos_site_id
 _symmetry_equiv_pos_as_xyz
  1  'x, y, z'
loop_
 _atom_site_type_symbol
 _atom_site_label
 _atom_site_symmetry_multiplicity
 _atom_site_fract_x
 _atom_site_fract_y
 _atom_site_fract_z
 _atom_site_occupancy
  Y  Y0  1  0.528238  0.325852  0.900123  1
  Y  Y1  1  0.033576  0.174889  0.601494  1
  Y  Y2  1  0.466657  0.674938  0.398393  1
  Y  Y3  1  0.970596  0.822094  0.099867  1
  Y  Y4  1  0.475547  0.676782  0.098365  1
  Y  Y5  1  0.975497  0.822792  0.400436  1
  Y  Y6  1  0.524725  0.322509  0.599531  1
  Y  Y7  1  0.024128  0.179759  0.900680  1
  Ho  Ho8  1  0.369724  0.838271  0.877672  1
  Ho  Ho9  1  0.872476  0.660509  0.622273  1
  Ho  Ho10  1  0.627942  0.160340  0.377718  1
  Ho  Ho11  1  0.130662  0.339051  0.123437  1
  Ho  Ho12  1  0.632113  0.162023  0.122463  1
  Ho  Ho13  1  0.130826  0.337835  0.377640  1
  Ho  Ho14  1  0.369735  0.838108  0.621884  1
  Ho  Ho15  1  0.868177  0.662034  0.876275  1
  Ho  Ho16  1  0.198895  0.501876  0.749885  1
  Ho  Ho17  1  0.698719  0.998406  0.752297  1
  Ho  Ho18  1  0.801092  0.498514  0.248478  1
  Ho  Ho19  1  0.301349  0.001520  0.251485  1
  Sn  Sn20  1  0.208977  0.535815  0.958123  1
  Sn  Sn21  1  0.711781  0.964587  0.957998  1
  Sn  Sn22  1  0.212237  0.535061  0.542151  1
  Sn  Sn23  1  0.287753  0.035136  0.457740  1
  Sn  Sn24  1  0.792373  0.464164  0.041902  1
  Sn  Sn25  1  0.565498  0.621489  0.748506  1
  Sn  Sn26  1  0.066304  0.878993  0.749804  1
  Sn  Sn27  1  0.434801  0.378531  0.250018  1
  Sn  Sn28  1  0.933847  0.121020  0.250645  1
  Sn  Sn29  1  0.334720  0.147790  0.750285  1
  Sn  Sn30  1  0.833630  0.352175  0.749100  1
  Sn  Sn31  1  0.665386  0.851720  0.250323  1
  Sn  Sn32  1  0.165371  0.647735  0.249682  1
  Sb  Sb33  1  0.286211  0.034287  0.043565  1
  Sb  Sb34  1  0.783788  0.466934  0.456530  1
  Sb  Sb35  1  0.716650  0.966462  0.543231  1
