# generated using pymatgen
data_Ta12Al8IrPt3C4
_symmetry_space_group_name_H-M   'P 1'
_cell_length_a   8.34907849
_cell_length_b   8.34907830
_cell_length_c   8.34907791
_cell_angle_alpha   59.89287434
_cell_angle_beta   59.89287349
_cell_angle_gamma   59.89287917
_symmetry_Int_Tables_number   1
_chemical_formula_structural   Ta12Al8IrPt3C4
_chemical_formula_sum   'Ta12 Al8 Ir1 Pt3 C4'
_cell_volume   410.52895728
_cell_formula_units_Z   1
loop_
 _symmetry_equiv_pos_site_id
 _symmetry_equiv_pos_as_xyz
  1  'x, y, z'
loop_
 _atom_site_type_symbol
 _atom_site_label
 _atom_site_symmetry_multiplicity
 _atom_site_fract_x
 _atom_site_fract_y
 _atom_site_fract_z
 _atom_site_occupancy
  Ta  Ta0  1  0.567967  0.932632  0.567967  1
  Ta  Ta1  1  0.317368  0.682033  0.682033  1
  Ta  Ta2  1  0.686369  0.316062  0.316062  1
  Ta  Ta3  1  0.316062  0.686369  0.316062  1
  Ta  Ta4  1  0.682033  0.682033  0.317368  1
  Ta  Ta5  1  0.316062  0.316062  0.686369  1
  Ta  Ta6  1  0.567967  0.567967  0.932632  1
  Ta  Ta7  1  0.932632  0.567967  0.567967  1
  Ta  Ta8  1  0.563631  0.933938  0.933938  1
  Ta  Ta9  1  0.933938  0.933938  0.563631  1
  Ta  Ta10  1  0.682033  0.317368  0.682033  1
  Ta  Ta11  1  0.933938  0.563631  0.933938  1
  Al  Al12  1  0.914938  0.914938  0.914938  1
  Al  Al13  1  0.998727  0.333111  0.333111  1
  Al  Al14  1  0.333111  0.998727  0.333111  1
  Al  Al15  1  0.333111  0.333111  0.998727  1
  Al  Al16  1  0.916889  0.251273  0.916889  1
  Al  Al17  1  0.916889  0.916889  0.251273  1
  Al  Al18  1  0.251273  0.916889  0.916889  1
  Al  Al19  1  0.335062  0.335062  0.335062  1
  Ir  Ir20  1  0.125000  0.125000  0.125000  1
  Pt  Pt21  1  0.625000  0.125000  0.125000  1
  Pt  Pt22  1  0.125000  0.625000  0.125000  1
  Pt  Pt23  1  0.125000  0.125000  0.625000  1
  C  C24  1  0.625000  0.625000  0.625000  1
  C  C25  1  0.125000  0.625000  0.625000  1
  C  C26  1  0.625000  0.125000  0.625000  1
  C  C27  1  0.625000  0.625000  0.125000  1
