# generated using pymatgen
data_EuGa3Au
_symmetry_space_group_name_H-M   'P 1'
_cell_length_a   6.21312986
_cell_length_b   6.21312970
_cell_length_c   6.21313038
_cell_angle_alpha   138.14426054
_cell_angle_beta   138.14426143
_cell_angle_gamma   60.68212915
_symmetry_Int_Tables_number   1
_chemical_formula_structural   EuGa3Au
_chemical_formula_sum   'Eu1 Ga3 Au1'
_cell_volume   105.63879023
_cell_formula_units_Z   1
loop_
 _symmetry_equiv_pos_site_id
 _symmetry_equiv_pos_as_xyz
  1  'x, y, z'
loop_
 _atom_site_type_symbol
 _atom_site_label
 _atom_site_symmetry_multiplicity
 _atom_site_fract_x
 _atom_site_fract_y
 _atom_site_fract_z
 _atom_site_occupancy
  Eu  Eu0  1  0.992762  0.992762  0.000000  1
  Ga  Ga1  1  0.749756  0.249756  0.500000  1
  Ga  Ga2  1  0.249756  0.749756  0.500000  1
  Ga  Ga3  1  0.386613  0.386613  0.000000  1
  Au  Au4  1  0.621113  0.621113  0.000000  1
