# generated using pymatgen
data_RbNb3InCl9
_symmetry_space_group_name_H-M   'P 1'
_cell_length_a   9.88254778
_cell_length_b   10.27525455
_cell_length_c   10.15589993
_cell_angle_alpha   121.22755068
_cell_angle_beta   94.50038556
_cell_angle_gamma   108.20919370
_symmetry_Int_Tables_number   1
_chemical_formula_structural   RbNb3InCl9
_chemical_formula_sum   'Rb2 Nb6 In2 Cl18'
_cell_volume   800.15766466
_cell_formula_units_Z   2
loop_
 _symmetry_equiv_pos_site_id
 _symmetry_equiv_pos_as_xyz
  1  'x, y, z'
loop_
 _atom_site_type_symbol
 _atom_site_label
 _atom_site_symmetry_multiplicity
 _atom_site_fract_x
 _atom_site_fract_y
 _atom_site_fract_z
 _atom_site_occupancy
  Rb  Rb0  1  0.669001  0.519448  0.725541  1
  Rb  Rb1  1  0.330978  0.480512  0.274443  1
  Nb  Nb2  1  0.126538  0.886435  0.363936  1
  Nb  Nb3  1  0.873445  0.113552  0.636038  1
  Nb  Nb4  1  0.130453  0.046963  0.704203  1
  Nb  Nb5  1  0.869533  0.953034  0.295805  1
  Nb  Nb6  1  0.144180  0.229548  0.554025  1
  Nb  Nb7  1  0.855778  0.770439  0.445970  1
  In  In8  1  0.356692  0.811453  0.959895  1
  In  In9  1  0.643581  0.188694  0.040268  1
  Cl  Cl10  1  0.299438  0.113000  0.963960  1
  Cl  Cl11  1  0.700614  0.886955  0.035987  1
  Cl  Cl12  1  0.332295  0.521120  0.625231  1
  Cl  Cl13  1  0.667664  0.478892  0.374797  1
  Cl  Cl14  1  0.978877  0.595902  0.277108  1
  Cl  Cl15  1  0.021097  0.404088  0.722891  1
  Cl  Cl16  1  0.015956  0.216510  0.324110  1
  Cl  Cl17  1  0.984011  0.783487  0.675877  1
  Cl  Cl18  1  0.677429  0.672181  0.194167  1
  Cl  Cl19  1  0.322546  0.327815  0.805811  1
  Cl  Cl20  1  0.285312  0.740726  0.194782  1
  Cl  Cl21  1  0.714663  0.259251  0.805201  1
  Cl  Cl22  1  0.301379  0.921717  0.580099  1
  Cl  Cl23  1  0.698593  0.078266  0.419874  1
  Cl  Cl24  1  0.002119  0.185598  0.900352  1
  Cl  Cl25  1  0.997854  0.814391  0.099633  1
  Cl  Cl26  1  0.319259  0.137258  0.403069  1
  Cl  Cl27  1  0.680713  0.862762  0.596931  1
