# generated using pymatgen
data_CaTbInS4
_symmetry_space_group_name_H-M   'P 1'
_cell_length_a   13.89592200
_cell_length_b   8.15383700
_cell_length_c   6.60983000
_cell_angle_alpha   90.00000000
_cell_angle_beta   90.00000000
_cell_angle_gamma   90.00000000
_symmetry_Int_Tables_number   1
_chemical_formula_structural   CaTbInS4
_chemical_formula_sum   'Ca4 Tb4 In4 S16'
_cell_volume   748.92733645
_cell_formula_units_Z   4
loop_
 _symmetry_equiv_pos_site_id
 _symmetry_equiv_pos_as_xyz
  1  'x, y, z'
loop_
 _atom_site_type_symbol
 _atom_site_label
 _atom_site_symmetry_multiplicity
 _atom_site_fract_x
 _atom_site_fract_y
 _atom_site_fract_z
 _atom_site_occupancy
  Ca  Ca0  1  0.731059  0.750000  0.008539  1
  Ca  Ca1  1  0.231059  0.750000  0.491460  1
  Ca  Ca2  1  0.768942  0.250000  0.508540  1
  Ca  Ca3  1  0.268941  0.250000  0.991461  1
  Tb  Tb4  1  0.000000  0.000000  0.000000  1
  Tb  Tb5  1  0.000000  0.499999  0.000000  1
  Tb  Tb6  1  0.500000  0.000000  0.500001  1
  Tb  Tb7  1  0.500000  0.499999  0.500001  1
  In  In8  1  0.593145  0.250000  0.086699  1
  In  In9  1  0.093145  0.250000  0.413300  1
  In  In10  1  0.906856  0.750000  0.586700  1
  In  In11  1  0.406855  0.750000  0.913299  1
  S  S12  1  0.912542  0.750000  0.216258  1
  S  S13  1  0.165318  0.011191  0.236319  1
  S  S14  1  0.165318  0.488809  0.236319  1
  S  S15  1  0.929563  0.250000  0.241168  1
  S  S16  1  0.429563  0.250000  0.258833  1
  S  S17  1  0.665318  0.011191  0.263682  1
  S  S18  1  0.665318  0.488809  0.263682  1
  S  S19  1  0.412543  0.750000  0.283742  1
  S  S20  1  0.587458  0.250000  0.716259  1
  S  S21  1  0.334681  0.511192  0.736319  1
  S  S22  1  0.334681  0.988808  0.736319  1
  S  S23  1  0.570438  0.750000  0.741169  1
  S  S24  1  0.070438  0.750000  0.758833  1
  S  S25  1  0.834682  0.511192  0.763681  1
  S  S26  1  0.834682  0.988808  0.763681  1
  S  S27  1  0.087458  0.250000  0.783742  1
