# generated using pymatgen
data_Dy3Ho3(TmAl2)2
_symmetry_space_group_name_H-M   'P 1'
_cell_length_a   5.07682800
_cell_length_b   6.54830719
_cell_length_c   9.38214013
_cell_angle_alpha   89.95611706
_cell_angle_beta   90.00000000
_cell_angle_gamma   90.00000000
_symmetry_Int_Tables_number   1
_chemical_formula_structural   Dy3Ho3(TmAl2)2
_chemical_formula_sum   'Dy3 Ho3 Tm2 Al4'
_cell_volume   311.90567888
_cell_formula_units_Z   1
loop_
 _symmetry_equiv_pos_site_id
 _symmetry_equiv_pos_as_xyz
  1  'x, y, z'
loop_
 _atom_site_type_symbol
 _atom_site_label
 _atom_site_symmetry_multiplicity
 _atom_site_fract_x
 _atom_site_fract_y
 _atom_site_fract_z
 _atom_site_occupancy
  Dy  Dy0  1  0.750000  0.687540  0.427940  1
  Dy  Dy1  1  0.250000  0.312517  0.573217  1
  Dy  Dy2  1  0.750000  0.186857  0.072030  1
  Ho  Ho3  1  0.250000  0.812623  0.926800  1
  Ho  Ho4  1  0.250000  0.471898  0.210782  1
  Ho  Ho5  1  0.250000  0.971479  0.288931  1
  Tm  Tm6  1  0.750000  0.528615  0.789574  1
  Tm  Tm7  1  0.750000  0.028051  0.710684  1
  Al  Al8  1  0.750000  0.208619  0.397600  1
  Al  Al9  1  0.250000  0.791576  0.603265  1
  Al  Al10  1  0.750000  0.708864  0.101887  1
  Al  Al11  1  0.250000  0.291359  0.897289  1
