# generated using pymatgen
data_TmLu15(In3Co)2
_symmetry_space_group_name_H-M   'P 1'
_cell_length_a   10.16230200
_cell_length_b   10.16230277
_cell_length_c   6.87365500
_cell_angle_alpha   90.00000000
_cell_angle_beta   90.00000000
_cell_angle_gamma   120.00000402
_symmetry_Int_Tables_number   1
_chemical_formula_structural   TmLu15(In3Co)2
_chemical_formula_sum   'Tm1 Lu15 In6 Co2'
_cell_volume   614.75570995
_cell_formula_units_Z   1
loop_
 _symmetry_equiv_pos_site_id
 _symmetry_equiv_pos_as_xyz
  1  'x, y, z'
loop_
 _atom_site_type_symbol
 _atom_site_label
 _atom_site_symmetry_multiplicity
 _atom_site_fract_x
 _atom_site_fract_y
 _atom_site_fract_z
 _atom_site_occupancy
  Tm  Tm0  1  0.000000  0.000000  0.994840  1
  Lu  Lu1  1  0.465018  0.534982  0.481244  1
  Lu  Lu2  1  0.069964  0.534982  0.481244  1
  Lu  Lu3  1  0.465018  0.930036  0.481244  1
  Lu  Lu4  1  0.535124  0.464876  0.981490  1
  Lu  Lu5  1  0.929750  0.464876  0.981490  1
  Lu  Lu6  1  0.535124  0.070250  0.981490  1
  Lu  Lu7  1  0.820467  0.179533  0.277362  1
  Lu  Lu8  1  0.359066  0.179533  0.277362  1
  Lu  Lu9  1  0.820467  0.640934  0.277362  1
  Lu  Lu10  1  0.179652  0.820348  0.775824  1
  Lu  Lu11  1  0.640696  0.820348  0.775824  1
  Lu  Lu12  1  0.179652  0.359304  0.775824  1
  Lu  Lu13  1  0.333333  0.666667  0.091905  1
  Lu  Lu14  1  0.666667  0.333333  0.591695  1
  Lu  Lu15  1  0.000000  0.000000  0.495302  1
  In  In16  1  0.162845  0.837155  0.235955  1
  In  In17  1  0.674309  0.837155  0.235955  1
  In  In18  1  0.162845  0.325691  0.235955  1
  In  In19  1  0.837286  0.162714  0.734428  1
  In  In20  1  0.325429  0.162714  0.734428  1
  In  In21  1  0.837286  0.674571  0.734428  1
  Co  Co22  1  0.333333  0.666667  0.706127  1
  Co  Co23  1  0.666667  0.333333  0.205772  1
