# generated using pymatgen
data_Cs4Mn3Hg3Te8
_symmetry_space_group_name_H-M   'P 1'
_cell_length_a   10.72862371
_cell_length_b   10.80301912
_cell_length_c   10.72862407
_cell_angle_alpha   142.80532259
_cell_angle_beta   105.32145922
_cell_angle_gamma   86.22220557
_symmetry_Int_Tables_number   1
_chemical_formula_structural   Cs4Mn3Hg3Te8
_chemical_formula_sum   'Cs4 Mn3 Hg3 Te8'
_cell_volume   702.33843845
_cell_formula_units_Z   1
loop_
 _symmetry_equiv_pos_site_id
 _symmetry_equiv_pos_as_xyz
  1  'x, y, z'
loop_
 _atom_site_type_symbol
 _atom_site_label
 _atom_site_symmetry_multiplicity
 _atom_site_fract_x
 _atom_site_fract_y
 _atom_site_fract_z
 _atom_site_occupancy
  Cs  Cs0  1  0.131159  0.226679  0.355529  1
  Cs  Cs1  1  0.372816  0.736571  0.108685  1
  Cs  Cs2  1  0.628851  0.273321  0.904480  1
  Cs  Cs3  1  0.872114  0.763429  0.636246  1
  Mn  Mn4  1  0.748918  0.250000  0.498918  1
  Mn  Mn5  1  0.246076  0.750000  0.496076  1
  Mn  Mn6  1  0.016290  0.250000  0.766290  1
  Hg  Hg7  1  0.531658  0.750000  0.781658  1
  Hg  Hg8  1  0.977316  0.750000  0.227316  1
  Hg  Hg9  1  0.465976  0.250000  0.215976  1
  Te  Te10  1  0.224398  0.084944  0.610318  1
  Te  Te11  1  0.267765  0.862366  0.840821  1
  Te  Te12  1  0.025374  0.415056  0.139454  1
  Te  Te13  1  0.478455  0.637634  0.405398  1
  Te  Te14  1  0.776065  0.939571  0.421809  1
  Te  Te15  1  0.732595  0.135248  0.157186  1
  Te  Te16  1  0.982238  0.560429  0.836492  1
  Te  Te17  1  0.521938  0.364752  0.597347  1
