# generated using pymatgen
data_Dy6Ho4CuRhPb6
_symmetry_space_group_name_H-M   'P 1'
_cell_length_a   9.18179706
_cell_length_b   9.18179662
_cell_length_c   6.75741800
_cell_angle_alpha   89.99927706
_cell_angle_beta   89.99927355
_cell_angle_gamma   120.01308025
_symmetry_Int_Tables_number   1
_chemical_formula_structural   Dy6Ho4CuRhPb6
_chemical_formula_sum   'Dy6 Ho4 Cu1 Rh1 Pb6'
_cell_volume   493.29818413
_cell_formula_units_Z   1
loop_
 _symmetry_equiv_pos_site_id
 _symmetry_equiv_pos_as_xyz
  1  'x, y, z'
loop_
 _atom_site_type_symbol
 _atom_site_label
 _atom_site_symmetry_multiplicity
 _atom_site_fract_x
 _atom_site_fract_y
 _atom_site_fract_z
 _atom_site_occupancy
  Dy  Dy0  1  0.754517  0.754517  0.238038  1
  Dy  Dy1  1  0.245483  0.245483  0.761962  1
  Dy  Dy2  1  0.333325  0.666675  0.000000  1
  Dy  Dy3  1  0.666675  0.333325  0.000000  1
  Dy  Dy4  1  0.666672  0.333328  0.500000  1
  Dy  Dy5  1  0.333328  0.666672  0.500000  1
  Ho  Ho6  1  0.245456  0.999999  0.238035  1
  Ho  Ho7  1  0.754544  0.000001  0.761965  1
  Ho  Ho8  1  0.999999  0.245456  0.238035  1
  Ho  Ho9  1  0.000001  0.754544  0.761965  1
  Cu  Cu10  1  0.000000  0.000000  0.500000  1
  Rh  Rh11  1  0.000000  0.000000  0.000000  1
  Pb  Pb12  1  0.604170  0.000075  0.252364  1
  Pb  Pb13  1  0.395830  0.999925  0.747636  1
  Pb  Pb14  1  0.000075  0.604170  0.252364  1
  Pb  Pb15  1  0.999925  0.395830  0.747636  1
  Pb  Pb16  1  0.395716  0.395716  0.252371  1
  Pb  Pb17  1  0.604284  0.604284  0.747629  1
