# generated using pymatgen
data_Sm2UO6
_symmetry_space_group_name_H-M   'P 1'
_cell_length_a   6.56540073
_cell_length_b   6.56540174
_cell_length_c   6.56540084
_cell_angle_alpha   145.44749629
_cell_angle_beta   130.90526384
_cell_angle_gamma   61.41792927
_symmetry_Int_Tables_number   1
_chemical_formula_structural   Sm2UO6
_chemical_formula_sum   'Sm2 U1 O6'
_cell_volume   120.07901827
_cell_formula_units_Z   1
loop_
 _symmetry_equiv_pos_site_id
 _symmetry_equiv_pos_as_xyz
  1  'x, y, z'
loop_
 _atom_site_type_symbol
 _atom_site_label
 _atom_site_symmetry_multiplicity
 _atom_site_fract_x
 _atom_site_fract_y
 _atom_site_fract_z
 _atom_site_occupancy
  Sm  Sm0  1  0.665020  0.665020  0.000000  1
  Sm  Sm1  1  0.334980  0.334980  0.000000  1
  U  U2  1  0.000000  0.000000  0.000000  1
  O  O3  1  0.915187  0.153208  0.761979  1
  O  O4  1  0.772279  0.500000  0.272279  1
  O  O5  1  0.391229  0.153208  0.238021  1
  O  O6  1  0.608771  0.846792  0.761979  1
  O  O7  1  0.227721  0.500000  0.727721  1
  O  O8  1  0.084813  0.846792  0.238021  1
