# generated using pymatgen
data_TbMg3P7N12
_symmetry_space_group_name_H-M   'P 1'
_cell_length_a   7.33174749
_cell_length_b   7.33174813
_cell_length_c   7.33174712
_cell_angle_alpha   109.50282953
_cell_angle_beta   109.50283088
_cell_angle_gamma   109.50281288
_symmetry_Int_Tables_number   1
_chemical_formula_structural   TbMg3P7N12
_chemical_formula_sum   'Tb1 Mg3 P7 N12'
_cell_volume   303.03403745
_cell_formula_units_Z   1
loop_
 _symmetry_equiv_pos_site_id
 _symmetry_equiv_pos_as_xyz
  1  'x, y, z'
loop_
 _atom_site_type_symbol
 _atom_site_label
 _atom_site_symmetry_multiplicity
 _atom_site_fract_x
 _atom_site_fract_y
 _atom_site_fract_z
 _atom_site_occupancy
  Tb  Tb0  1  0.331119  0.331119  0.331119  1
  Mg  Mg1  1  0.001585  0.653832  0.001585  1
  Mg  Mg2  1  0.653832  0.001585  0.001585  1
  Mg  Mg3  1  0.001585  0.001585  0.653832  1
  P  P4  1  0.504733  0.251339  0.756333  1
  P  P5  1  0.504733  0.756333  0.251339  1
  P  P6  1  0.756333  0.251339  0.504733  1
  P  P7  1  0.251339  0.504733  0.756333  1
  P  P8  1  0.756333  0.504733  0.251339  1
  P  P9  1  0.251339  0.756333  0.504733  1
  P  P10  1  0.968680  0.968680  0.968680  1
  N  N11  1  0.002457  0.726775  0.431999  1
  N  N12  1  0.282143  0.704729  0.282143  1
  N  N13  1  0.280737  0.573085  0.573085  1
  N  N14  1  0.573085  0.573085  0.280737  1
  N  N15  1  0.573085  0.280737  0.573085  1
  N  N16  1  0.726775  0.002457  0.431999  1
  N  N17  1  0.431999  0.002457  0.726775  1
  N  N18  1  0.726775  0.431999  0.002457  1
  N  N19  1  0.282143  0.282143  0.704729  1
  N  N20  1  0.704729  0.282143  0.282143  1
  N  N21  1  0.002457  0.431999  0.726775  1
  N  N22  1  0.431999  0.726775  0.002457  1
