# generated using pymatgen
data_GdNpB6W
_symmetry_space_group_name_H-M   'P 1'
_cell_length_a   3.61154000
_cell_length_b   9.39807300
_cell_length_c   11.47022000
_cell_angle_alpha   90.00000000
_cell_angle_beta   90.00000000
_cell_angle_gamma   90.00000000
_symmetry_Int_Tables_number   1
_chemical_formula_structural   GdNpB6W
_chemical_formula_sum   'Gd4 Np4 B24 W4'
_cell_volume   389.31666210
_cell_formula_units_Z   4
loop_
 _symmetry_equiv_pos_site_id
 _symmetry_equiv_pos_as_xyz
  1  'x, y, z'
loop_
 _atom_site_type_symbol
 _atom_site_label
 _atom_site_symmetry_multiplicity
 _atom_site_fract_x
 _atom_site_fract_y
 _atom_site_fract_z
 _atom_site_occupancy
  Gd  Gd0  1  0.000000  0.337571  0.407678  1
  Gd  Gd1  1  0.000000  0.662429  0.592322  1
  Gd  Gd2  1  0.000000  0.837571  0.092322  1
  Gd  Gd3  1  0.000000  0.162429  0.907678  1
  Np  Np4  1  0.000000  0.959320  0.401047  1
  Np  Np5  1  0.000000  0.040680  0.598953  1
  Np  Np6  1  0.000000  0.459320  0.098953  1
  Np  Np7  1  0.000000  0.540680  0.901047  1
  B  B8  1  0.500000  0.552561  0.431854  1
  B  B9  1  0.500000  0.447439  0.568146  1
  B  B10  1  0.500000  0.052561  0.068146  1
  B  B11  1  0.500000  0.947439  0.931854  1
  B  B12  1  0.500000  0.747184  0.423828  1
  B  B13  1  0.500000  0.252816  0.576172  1
  B  B14  1  0.500000  0.247184  0.076172  1
  B  B15  1  0.500000  0.752816  0.923828  1
  B  B16  1  0.500000  0.806847  0.275398  1
  B  B17  1  0.500000  0.193153  0.724602  1
  B  B18  1  0.500000  0.306847  0.224602  1
  B  B19  1  0.500000  0.693153  0.775398  1
  B  B20  1  0.500000  0.644349  0.186229  1
  B  B21  1  0.500000  0.355651  0.813771  1
  B  B22  1  0.500000  0.144349  0.313771  1
  B  B23  1  0.500000  0.855651  0.686229  1
  B  B24  1  0.500000  0.988416  0.222259  1
  B  B25  1  0.500000  0.011584  0.777741  1
  B  B26  1  0.500000  0.488416  0.277741  1
  B  B27  1  0.500000  0.511584  0.722259  1
  B  B28  1  0.500000  0.637973  0.038183  1
  B  B29  1  0.500000  0.362027  0.961817  1
  B  B30  1  0.500000  0.137973  0.461817  1
  B  B31  1  0.500000  0.862027  0.538183  1
  W  W32  1  0.000000  0.647919  0.317665  1
  W  W33  1  0.000000  0.352081  0.682335  1
  W  W34  1  0.000000  0.147919  0.182335  1
  W  W35  1  0.000000  0.852081  0.817665  1
