# generated using pymatgen
data_EuEr5VCo17P12
_symmetry_space_group_name_H-M   'P 1'
_cell_length_a   3.68874800
_cell_length_b   10.52260500
_cell_length_c   12.17446000
_cell_angle_alpha   90.00000000
_cell_angle_beta   90.00000000
_cell_angle_gamma   90.00000000
_symmetry_Int_Tables_number   1
_chemical_formula_structural   EuEr5VCo17P12
_chemical_formula_sum   'Eu1 Er5 V1 Co17 P12'
_cell_volume   472.55456423
_cell_formula_units_Z   1
loop_
 _symmetry_equiv_pos_site_id
 _symmetry_equiv_pos_as_xyz
  1  'x, y, z'
loop_
 _atom_site_type_symbol
 _atom_site_label
 _atom_site_symmetry_multiplicity
 _atom_site_fract_x
 _atom_site_fract_y
 _atom_site_fract_z
 _atom_site_occupancy
  Eu  Eu0  1  0.750000  0.250000  0.476274  1
  Er  Er1  1  0.250000  0.750000  0.523429  1
  Er  Er2  1  0.250000  0.931436  0.797012  1
  Er  Er3  1  0.250000  0.568564  0.797012  1
  Er  Er4  1  0.750000  0.068308  0.205286  1
  Er  Er5  1  0.750000  0.431692  0.205286  1
  V  V6  1  0.750000  0.750000  0.151855  1
  Co  Co7  1  0.250000  0.250000  0.841877  1
  Co  Co8  1  0.250000  0.250000  0.294921  1
  Co  Co9  1  0.750000  0.750000  0.701324  1
  Co  Co10  1  0.750000  0.250000  0.014182  1
  Co  Co11  1  0.250000  0.750000  0.985677  1
  Co  Co12  1  0.250000  0.416402  0.006336  1
  Co  Co13  1  0.250000  0.083598  0.006336  1
  Co  Co14  1  0.750000  0.582020  0.992151  1
  Co  Co15  1  0.750000  0.917980  0.992151  1
  Co  Co16  1  0.250000  0.456907  0.570700  1
  Co  Co17  1  0.250000  0.043093  0.570700  1
  Co  Co18  1  0.750000  0.549011  0.431013  1
  Co  Co19  1  0.750000  0.950989  0.431013  1
  Co  Co20  1  0.250000  0.870671  0.290756  1
  Co  Co21  1  0.250000  0.629329  0.290756  1
  Co  Co22  1  0.750000  0.128457  0.710651  1
  Co  Co23  1  0.750000  0.371543  0.710651  1
  P  P24  1  0.250000  0.250000  0.116817  1
  P  P25  1  0.750000  0.750000  0.881067  1
  P  P26  1  0.250000  0.250000  0.659539  1
  P  P27  1  0.750000  0.750000  0.346450  1
  P  P28  1  0.250000  0.442477  0.383328  1
  P  P29  1  0.250000  0.057523  0.383328  1
  P  P30  1  0.750000  0.561326  0.617436  1
  P  P31  1  0.750000  0.938674  0.617436  1
  P  P32  1  0.250000  0.905092  0.106382  1
  P  P33  1  0.250000  0.594908  0.106382  1
  P  P34  1  0.750000  0.098270  0.892243  1
  P  P35  1  0.750000  0.401730  0.892243  1
