# generated using pymatgen
data_Ca2Pr(NdIr)2
_symmetry_space_group_name_H-M   'P 1'
_cell_length_a   8.82217417
_cell_length_b   8.82217385
_cell_length_c   7.46102796
_cell_angle_alpha   83.26000117
_cell_angle_beta   83.26000295
_cell_angle_gamma   44.91694780
_symmetry_Int_Tables_number   1
_chemical_formula_structural   Ca2Pr(NdIr)2
_chemical_formula_sum   'Ca4 Pr2 Nd4 Ir4'
_cell_volume   406.69963681
_cell_formula_units_Z   2
loop_
 _symmetry_equiv_pos_site_id
 _symmetry_equiv_pos_as_xyz
  1  'x, y, z'
loop_
 _atom_site_type_symbol
 _atom_site_label
 _atom_site_symmetry_multiplicity
 _atom_site_fract_x
 _atom_site_fract_y
 _atom_site_fract_z
 _atom_site_occupancy
  Ca  Ca0  1  0.016303  0.800513  0.917571  1
  Ca  Ca1  1  0.199487  0.983697  0.582429  1
  Ca  Ca2  1  0.983526  0.199630  0.083183  1
  Ca  Ca3  1  0.800370  0.016474  0.416817  1
  Pr  Pr4  1  0.347655  0.211977  0.815955  1
  Pr  Pr5  1  0.788023  0.652345  0.684045  1
  Nd  Nd6  1  0.651513  0.787937  0.184192  1
  Nd  Nd7  1  0.212063  0.348487  0.315808  1
  Nd  Nd8  1  0.565313  0.434687  0.750000  1
  Nd  Nd9  1  0.434777  0.565223  0.250000  1
  Ir  Ir10  1  0.185430  0.587042  0.571071  1
  Ir  Ir11  1  0.412958  0.814570  0.928929  1
  Ir  Ir12  1  0.815513  0.412929  0.427096  1
  Ir  Ir13  1  0.587071  0.184487  0.072904  1
