# generated using pymatgen
data_Tb2B3Ru4C
_symmetry_space_group_name_H-M   'P 1'
_cell_length_a   6.64020053
_cell_length_b   5.84000881
_cell_length_c   5.53804392
_cell_angle_alpha   71.35170616
_cell_angle_beta   57.58539290
_cell_angle_gamma   52.20709844
_symmetry_Int_Tables_number   1
_chemical_formula_structural   Tb2B3Ru4C
_chemical_formula_sum   'Tb2 B3 Ru4 C1'
_cell_volume   143.25466428
_cell_formula_units_Z   1
loop_
 _symmetry_equiv_pos_site_id
 _symmetry_equiv_pos_as_xyz
  1  'x, y, z'
loop_
 _atom_site_type_symbol
 _atom_site_label
 _atom_site_symmetry_multiplicity
 _atom_site_fract_x
 _atom_site_fract_y
 _atom_site_fract_z
 _atom_site_occupancy
  Tb  Tb0  1  0.999346  0.000654  0.999346  1
  Tb  Tb1  1  0.250314  0.249686  0.250314  1
  B  B2  1  0.312728  0.687272  0.312728  1
  B  B3  1  0.936770  0.563230  0.936770  1
  B  B4  1  0.561032  0.938968  0.561032  1
  Ru  Ru5  1  0.612904  0.606890  0.883690  1
  Ru  Ru6  1  0.643404  0.627051  0.363173  1
  Ru  Ru7  1  0.363173  0.366371  0.643404  1
  Ru  Ru8  1  0.883691  0.896516  0.612903  1
  C  C9  1  0.686637  0.313363  0.686637  1
