# generated using pymatgen
data_Th3Zn2GaOs3
_symmetry_space_group_name_H-M   'P 1'
_cell_length_a   7.32266739
_cell_length_b   7.29684614
_cell_length_c   4.00790500
_cell_angle_alpha   90.00000000
_cell_angle_beta   90.00000000
_cell_angle_gamma   119.88342422
_symmetry_Int_Tables_number   1
_chemical_formula_structural   Th3Zn2GaOs3
_chemical_formula_sum   'Th3 Zn2 Ga1 Os3'
_cell_volume   185.67845484
_cell_formula_units_Z   1
loop_
 _symmetry_equiv_pos_site_id
 _symmetry_equiv_pos_as_xyz
  1  'x, y, z'
loop_
 _atom_site_type_symbol
 _atom_site_label
 _atom_site_symmetry_multiplicity
 _atom_site_fract_x
 _atom_site_fract_y
 _atom_site_fract_z
 _atom_site_occupancy
  Th  Th0  1  0.411777  0.411149  0.500000  1
  Th  Th1  1  0.588223  0.999372  0.500000  1
  Th  Th2  1  0.000000  0.584646  0.500000  1
  Zn  Zn3  1  0.761594  0.759560  0.000000  1
  Zn  Zn4  1  0.238406  0.997965  0.000000  1
  Ga  Ga5  1  0.000000  0.237425  0.000000  1
  Os  Os6  1  0.670129  0.332565  0.000000  1
  Os  Os7  1  0.329871  0.662436  0.000000  1
  Os  Os8  1  0.000000  0.014882  0.500000  1
