# generated using pymatgen
data_La6Pr10Mg2CdAgIr4
_symmetry_space_group_name_H-M   'P 1'
_cell_length_a   10.08297106
_cell_length_b   10.12982804
_cell_length_c   10.11897900
_cell_angle_alpha   59.72942336
_cell_angle_beta   60.18876282
_cell_angle_gamma   60.19332836
_symmetry_Int_Tables_number   1
_chemical_formula_structural   La6Pr10Mg2CdAgIr4
_chemical_formula_sum   'La6 Pr10 Mg2 Cd1 Ag1 Ir4'
_cell_volume   731.40739053
_cell_formula_units_Z   1
loop_
 _symmetry_equiv_pos_site_id
 _symmetry_equiv_pos_as_xyz
  1  'x, y, z'
loop_
 _atom_site_type_symbol
 _atom_site_label
 _atom_site_symmetry_multiplicity
 _atom_site_fract_x
 _atom_site_fract_y
 _atom_site_fract_z
 _atom_site_occupancy
  La  La0  1  0.345276  0.347381  0.348162  1
  La  La1  1  0.347611  0.345114  0.959167  1
  La  La2  1  0.347086  0.960842  0.344948  1
  La  La3  1  0.960287  0.346991  0.347454  1
  La  La4  1  0.812302  0.187466  0.187901  1
  La  La5  1  0.187800  0.812200  0.812220  1
  Pr  Pr6  1  0.190761  0.809246  0.190736  1
  Pr  Pr7  1  0.809441  0.190247  0.809232  1
  Pr  Pr8  1  0.192194  0.192375  0.807711  1
  Pr  Pr9  1  0.810450  0.809585  0.189903  1
  Pr  Pr10  1  0.937734  0.563243  0.563138  1
  Pr  Pr11  1  0.563080  0.939431  0.934097  1
  Pr  Pr12  1  0.562041  0.940903  0.561749  1
  Pr  Pr13  1  0.939179  0.562206  0.937071  1
  Pr  Pr14  1  0.563145  0.563413  0.936860  1
  Pr  Pr15  1  0.937289  0.940600  0.561044  1
  Mg  Mg16  1  0.576936  0.574198  0.579132  1
  Mg  Mg17  1  0.575239  0.575919  0.269756  1
  Cd  Cd18  1  0.257503  0.580774  0.580123  1
  Ag  Ag19  1  0.582510  0.255245  0.581849  1
  Ir  Ir20  1  0.137429  0.144722  0.142818  1
  Ir  Ir21  1  0.144454  0.137587  0.575145  1
  Ir  Ir22  1  0.144462  0.575621  0.136207  1
  Ir  Ir23  1  0.575787  0.144691  0.143572  1
