# generated using pymatgen
data_Sc6MnAl14(FeSi2)5
_symmetry_space_group_name_H-M   'P 1'
_cell_length_a   8.29731776
_cell_length_b   8.27747780
_cell_length_c   8.89007610
_cell_angle_alpha   90.00000066
_cell_angle_beta   90.14857967
_cell_angle_gamma   119.92093492
_symmetry_Int_Tables_number   1
_chemical_formula_structural   Sc6MnAl14(FeSi2)5
_chemical_formula_sum   'Sc6 Mn1 Al14 Fe5 Si10'
_cell_volume   529.19455937
_cell_formula_units_Z   1
loop_
 _symmetry_equiv_pos_site_id
 _symmetry_equiv_pos_as_xyz
  1  'x, y, z'
loop_
 _atom_site_type_symbol
 _atom_site_label
 _atom_site_symmetry_multiplicity
 _atom_site_fract_x
 _atom_site_fract_y
 _atom_site_fract_z
 _atom_site_occupancy
  Sc  Sc0  1  0.198172  0.799889  0.249499  1
  Sc  Sc1  1  0.198172  0.398282  0.249499  1
  Sc  Sc2  1  0.603165  0.801582  0.249224  1
  Sc  Sc3  1  0.801828  0.200111  0.750501  1
  Sc  Sc4  1  0.801828  0.601718  0.750501  1
  Sc  Sc5  1  0.396835  0.198418  0.750776  1
  Mn  Mn6  1  0.000000  0.500000  0.000000  1
  Al  Al7  1  0.161785  0.839396  0.922234  1
  Al  Al8  1  0.161785  0.322389  0.922234  1
  Al  Al9  1  0.677781  0.838890  0.921907  1
  Al  Al10  1  0.838215  0.160604  0.077766  1
  Al  Al11  1  0.838215  0.677611  0.077766  1
  Al  Al12  1  0.322219  0.161110  0.078093  1
  Al  Al13  1  0.838142  0.160559  0.422522  1
  Al  Al14  1  0.838142  0.677584  0.422522  1
  Al  Al15  1  0.322146  0.161073  0.422649  1
  Al  Al16  1  0.161858  0.839441  0.577478  1
  Al  Al17  1  0.161858  0.322416  0.577478  1
  Al  Al18  1  0.677854  0.838927  0.577351  1
  Al  Al19  1  0.000889  0.000445  0.249917  1
  Al  Al20  1  0.999111  0.999555  0.750083  1
  Fe  Fe21  1  0.500000  0.500000  0.500000  1
  Fe  Fe22  1  0.500000  0.000000  0.500000  1
  Fe  Fe23  1  0.000000  0.500000  0.500000  1
  Fe  Fe24  1  0.500000  0.500000  0.000000  1
  Fe  Fe25  1  0.500000  0.000000  0.000000  1
  Si  Si26  1  0.560577  0.438982  0.250240  1
  Si  Si27  1  0.560577  0.121594  0.250240  1
  Si  Si28  1  0.878529  0.439265  0.250036  1
  Si  Si29  1  0.439423  0.561018  0.749760  1
  Si  Si30  1  0.439423  0.878406  0.749760  1
  Si  Si31  1  0.121471  0.560735  0.749964  1
  Si  Si32  1  0.333910  0.666956  0.459934  1
  Si  Si33  1  0.666090  0.333044  0.540066  1
  Si  Si34  1  0.666549  0.333274  0.961202  1
  Si  Si35  1  0.333451  0.666726  0.038798  1
