# generated using pymatgen
data_Tm2Zn3Ag4
_symmetry_space_group_name_H-M   'P 1'
_cell_length_a   5.25852482
_cell_length_b   5.25852453
_cell_length_c   13.94956200
_cell_angle_alpha   90.00000000
_cell_angle_beta   90.00000000
_cell_angle_gamma   119.39005604
_symmetry_Int_Tables_number   1
_chemical_formula_structural   Tm2Zn3Ag4
_chemical_formula_sum   'Tm4 Zn6 Ag8'
_cell_volume   336.09002078
_cell_formula_units_Z   2
loop_
 _symmetry_equiv_pos_site_id
 _symmetry_equiv_pos_as_xyz
  1  'x, y, z'
loop_
 _atom_site_type_symbol
 _atom_site_label
 _atom_site_symmetry_multiplicity
 _atom_site_fract_x
 _atom_site_fract_y
 _atom_site_fract_z
 _atom_site_occupancy
  Tm  Tm0  1  0.821070  0.821070  0.116761  1
  Tm  Tm1  1  0.178930  0.178930  0.883239  1
  Tm  Tm2  1  0.821070  0.821070  0.383239  1
  Tm  Tm3  1  0.178930  0.178930  0.616761  1
  Zn  Zn4  1  0.169033  0.673914  0.750000  1
  Zn  Zn5  1  0.673914  0.169033  0.750000  1
  Zn  Zn6  1  0.675213  0.675213  0.750000  1
  Zn  Zn7  1  0.326086  0.830967  0.250000  1
  Zn  Zn8  1  0.830967  0.326086  0.250000  1
  Zn  Zn9  1  0.324787  0.324787  0.250000  1
  Ag  Ag10  1  0.162327  0.487714  0.078762  1
  Ag  Ag11  1  0.512286  0.837673  0.921238  1
  Ag  Ag12  1  0.487714  0.162327  0.078762  1
  Ag  Ag13  1  0.837673  0.512286  0.578762  1
  Ag  Ag14  1  0.487714  0.162327  0.421238  1
  Ag  Ag15  1  0.837673  0.512286  0.921238  1
  Ag  Ag16  1  0.512286  0.837673  0.578762  1
  Ag  Ag17  1  0.162327  0.487714  0.421238  1
