# generated using pymatgen
data_Tb17Ho(MgPb8)2
_symmetry_space_group_name_H-M   'P 1'
_cell_length_a   8.13244163
_cell_length_b   15.80323100
_cell_length_c   8.23781188
_cell_angle_alpha   90.00000000
_cell_angle_beta   89.72148493
_cell_angle_gamma   90.00000000
_symmetry_Int_Tables_number   1
_chemical_formula_structural   Tb17Ho(MgPb8)2
_chemical_formula_sum   'Tb17 Ho1 Mg2 Pb16'
_cell_volume   1058.70163132
_cell_formula_units_Z   1
loop_
 _symmetry_equiv_pos_site_id
 _symmetry_equiv_pos_as_xyz
  1  'x, y, z'
loop_
 _atom_site_type_symbol
 _atom_site_label
 _atom_site_symmetry_multiplicity
 _atom_site_fract_x
 _atom_site_fract_y
 _atom_site_fract_z
 _atom_site_occupancy
  Tb  Tb0  1  0.618702  0.620683  0.156128  1
  Tb  Tb1  1  0.126839  0.878755  0.336505  1
  Tb  Tb2  1  0.373301  0.121511  0.836361  1
  Tb  Tb3  1  0.880962  0.379004  0.655826  1
  Tb  Tb4  1  0.373301  0.378489  0.836361  1
  Tb  Tb5  1  0.880962  0.120996  0.655826  1
  Tb  Tb6  1  0.618702  0.879317  0.156128  1
  Tb  Tb7  1  0.126839  0.621245  0.336505  1
  Tb  Tb8  1  0.466377  0.597931  0.682528  1
  Tb  Tb9  1  0.970986  0.902978  0.824284  1
  Tb  Tb10  1  0.529511  0.097497  0.324104  1
  Tb  Tb11  1  0.033347  0.401885  0.182516  1
  Tb  Tb12  1  0.529511  0.402503  0.324104  1
  Tb  Tb13  1  0.033347  0.098115  0.182516  1
  Tb  Tb14  1  0.466377  0.902069  0.682528  1
  Tb  Tb15  1  0.970986  0.597022  0.824284  1
  Tb  Tb16  1  0.796167  0.750000  0.494785  1
  Ho  Ho17  1  0.703501  0.250000  0.994632  1
  Mg  Mg18  1  0.293053  0.750000  0.002121  1
  Mg  Mg19  1  0.207604  0.250000  0.502196  1
  Pb  Pb20  1  0.717706  0.455670  0.966975  1
  Pb  Pb21  1  0.216441  0.040305  0.536121  1
  Pb  Pb22  1  0.283814  0.959839  0.036014  1
  Pb  Pb23  1  0.782170  0.543716  0.466784  1
  Pb  Pb24  1  0.283814  0.540161  0.036014  1
  Pb  Pb25  1  0.782170  0.956284  0.466784  1
  Pb  Pb26  1  0.717706  0.044330  0.966975  1
  Pb  Pb27  1  0.216441  0.459695  0.536121  1
  Pb  Pb28  1  0.428270  0.750000  0.379780  1
  Pb  Pb29  1  0.933269  0.750000  0.117900  1
  Pb  Pb30  1  0.567246  0.250000  0.618686  1
  Pb  Pb31  1  0.070497  0.250000  0.880657  1
  Pb  Pb32  1  0.659411  0.750000  0.847384  1
  Pb  Pb33  1  0.156785  0.750000  0.654188  1
  Pb  Pb34  1  0.344227  0.250000  0.153774  1
  Pb  Pb35  1  0.839661  0.250000  0.345600  1
