# generated using pymatgen
data_Dy2LuZr3(SnRh)6
_symmetry_space_group_name_H-M   'P 1'
_cell_length_a   7.48671952
_cell_length_b   7.49975611
_cell_length_c   7.50295300
_cell_angle_alpha   90.00000000
_cell_angle_beta   90.00000000
_cell_angle_gamma   120.08152444
_symmetry_Int_Tables_number   1
_chemical_formula_structural   Dy2LuZr3(SnRh)6
_chemical_formula_sum   'Dy2 Lu1 Zr3 Sn6 Rh6'
_cell_volume   364.53917330
_cell_formula_units_Z   1
loop_
 _symmetry_equiv_pos_site_id
 _symmetry_equiv_pos_as_xyz
  1  'x, y, z'
loop_
 _atom_site_type_symbol
 _atom_site_label
 _atom_site_symmetry_multiplicity
 _atom_site_fract_x
 _atom_site_fract_y
 _atom_site_fract_z
 _atom_site_occupancy
  Dy  Dy0  1  0.593942  0.999285  0.750000  1
  Dy  Dy1  1  0.405413  0.406079  0.750000  1
  Lu  Lu2  1  0.000221  0.596248  0.750000  1
  Zr  Zr3  1  0.605617  0.001933  0.250000  1
  Zr  Zr4  1  0.395919  0.394597  0.250000  1
  Zr  Zr5  1  0.998335  0.602771  0.250000  1
  Sn  Sn6  1  0.265499  0.998831  0.006387  1
  Sn  Sn7  1  0.733832  0.733948  0.493514  1
  Sn  Sn8  1  0.000668  0.266641  0.496218  1
  Sn  Sn9  1  0.000668  0.266641  0.003782  1
  Sn  Sn10  1  0.733832  0.733948  0.006486  1
  Sn  Sn11  1  0.265499  0.998831  0.493613  1
  Rh  Rh12  1  0.668243  0.334689  0.028028  1
  Rh  Rh13  1  0.668243  0.334689  0.471972  1
  Rh  Rh14  1  0.332012  0.666538  0.032767  1
  Rh  Rh15  1  0.332012  0.666538  0.467233  1
  Rh  Rh16  1  0.999998  0.997047  0.750000  1
  Rh  Rh17  1  0.000044  0.000745  0.250000  1
