# generated using pymatgen
data_Nd2Ta2Bi2O11
_symmetry_space_group_name_H-M   'P 1'
_cell_length_a   6.68096172
_cell_length_b   7.75464444
_cell_length_c   9.92796023
_cell_angle_alpha   101.21023381
_cell_angle_beta   90.60873552
_cell_angle_gamma   89.97114853
_symmetry_Int_Tables_number   1
_chemical_formula_structural   Nd2Ta2Bi2O11
_chemical_formula_sum   'Nd4 Ta4 Bi4 O22'
_cell_volume   504.50982340
_cell_formula_units_Z   2
loop_
 _symmetry_equiv_pos_site_id
 _symmetry_equiv_pos_as_xyz
  1  'x, y, z'
loop_
 _atom_site_type_symbol
 _atom_site_label
 _atom_site_symmetry_multiplicity
 _atom_site_fract_x
 _atom_site_fract_y
 _atom_site_fract_z
 _atom_site_occupancy
  Nd  Nd0  1  0.748974  0.370094  0.482614  1
  Nd  Nd1  1  0.251026  0.629906  0.517386  1
  Nd  Nd2  1  0.759594  0.872874  0.487946  1
  Nd  Nd3  1  0.240406  0.127126  0.512054  1
  Ta  Ta4  1  0.914693  0.701650  0.807543  1
  Ta  Ta5  1  0.085307  0.298350  0.192457  1
  Ta  Ta6  1  0.915615  0.200967  0.810027  1
  Ta  Ta7  1  0.084385  0.799033  0.189973  1
  Bi  Bi8  1  0.432408  0.953588  0.816284  1
  Bi  Bi9  1  0.567592  0.046412  0.183716  1
  Bi  Bi10  1  0.394154  0.455067  0.827079  1
  Bi  Bi11  1  0.605846  0.544933  0.172921  1
  O  O12  1  0.217761  0.726321  0.762738  1
  O  O13  1  0.782239  0.273679  0.237262  1
  O  O14  1  0.634046  0.662500  0.838967  1
  O  O15  1  0.365954  0.337500  0.161033  1
  O  O16  1  0.634587  0.255829  0.844126  1
  O  O17  1  0.365413  0.744171  0.155874  1
  O  O18  1  0.893210  0.156203  0.596159  1
  O  O19  1  0.106790  0.843797  0.403841  1
  O  O20  1  0.216020  0.151598  0.760909  1
  O  O21  1  0.783980  0.848402  0.239091  1
  O  O22  1  0.898102  0.642098  0.596513  1
  O  O23  1  0.101898  0.357902  0.403487  1
  O  O24  1  0.023816  0.549703  0.195189  1
  O  O25  1  0.976184  0.450297  0.804811  1
  O  O26  1  0.997802  0.781731  0.999775  1
  O  O27  1  0.002198  0.218269  0.000225  1
  O  O28  1  0.571982  0.598805  0.389747  1
  O  O29  1  0.428018  0.401195  0.610253  1
  O  O30  1  0.160069  0.054560  0.216347  1
  O  O31  1  0.839931  0.945440  0.783653  1
  O  O32  1  0.547165  0.101127  0.398469  1
  O  O33  1  0.452835  0.898873  0.601531  1
