# generated using pymatgen
data_Na7Ga2As5
_symmetry_space_group_name_H-M   'P 1'
_cell_length_a   12.80012100
_cell_length_b   7.30594845
_cell_length_c   7.75594415
_cell_angle_alpha   61.89802586
_cell_angle_beta   90.00000000
_cell_angle_gamma   90.00000000
_symmetry_Int_Tables_number   1
_chemical_formula_structural   Na7Ga2As5
_chemical_formula_sum   'Na14 Ga4 As10'
_cell_volume   639.80615080
_cell_formula_units_Z   2
loop_
 _symmetry_equiv_pos_site_id
 _symmetry_equiv_pos_as_xyz
  1  'x, y, z'
loop_
 _atom_site_type_symbol
 _atom_site_label
 _atom_site_symmetry_multiplicity
 _atom_site_fract_x
 _atom_site_fract_y
 _atom_site_fract_z
 _atom_site_occupancy
  Na  Na0  1  0.250000  0.897083  0.404966  1
  Na  Na1  1  0.924785  0.891434  0.416334  1
  Na  Na2  1  0.923237  0.191871  0.883949  1
  Na  Na3  1  0.423237  0.808129  0.116051  1
  Na  Na4  1  0.750000  0.102917  0.595034  1
  Na  Na5  1  0.250000  0.438114  0.260404  1
  Na  Na6  1  0.750000  0.763871  0.147974  1
  Na  Na7  1  0.250000  0.236129  0.852026  1
  Na  Na8  1  0.075215  0.108566  0.583666  1
  Na  Na9  1  0.076763  0.808129  0.116051  1
  Na  Na10  1  0.424785  0.108566  0.583666  1
  Na  Na11  1  0.750000  0.561886  0.739596  1
  Na  Na12  1  0.576763  0.191871  0.883949  1
  Na  Na13  1  0.575215  0.891434  0.416334  1
  Ga  Ga14  1  0.088488  0.588281  0.833440  1
  Ga  Ga15  1  0.588488  0.411719  0.166560  1
  Ga  Ga16  1  0.911512  0.411719  0.166560  1
  Ga  Ga17  1  0.411512  0.588281  0.833440  1
  As  As18  1  0.095299  0.529141  0.534500  1
  As  As19  1  0.921524  0.771085  0.853583  1
  As  As20  1  0.421524  0.228915  0.146417  1
  As  As21  1  0.078476  0.228915  0.146417  1
  As  As22  1  0.904701  0.470859  0.465500  1
  As  As23  1  0.404701  0.529141  0.534500  1
  As  As24  1  0.595299  0.470859  0.465500  1
  As  As25  1  0.250000  0.800049  0.833968  1
  As  As26  1  0.750000  0.199951  0.166032  1
  As  As27  1  0.578476  0.771085  0.853583  1
