# generated using pymatgen
data_Ho8Tm11LuPt16
_symmetry_space_group_name_H-M   'P 1'
_cell_length_a   7.42570705
_cell_length_b   7.49638305
_cell_length_c   14.59942700
_cell_angle_alpha   90.00000000
_cell_angle_beta   90.00000000
_cell_angle_gamma   90.01277053
_symmetry_Int_Tables_number   1
_chemical_formula_structural   Ho8Tm11LuPt16
_chemical_formula_sum   'Ho8 Tm11 Lu1 Pt16'
_cell_volume   812.69087160
_cell_formula_units_Z   1
loop_
 _symmetry_equiv_pos_site_id
 _symmetry_equiv_pos_as_xyz
  1  'x, y, z'
loop_
 _atom_site_type_symbol
 _atom_site_label
 _atom_site_symmetry_multiplicity
 _atom_site_fract_x
 _atom_site_fract_y
 _atom_site_fract_z
 _atom_site_occupancy
  Ho  Ho0  1  0.501026  0.678934  0.592967  1
  Ho  Ho1  1  0.001251  0.820949  0.907053  1
  Ho  Ho2  1  0.499307  0.320749  0.093298  1
  Ho  Ho3  1  0.998654  0.178662  0.406662  1
  Ho  Ho4  1  0.499307  0.320749  0.406702  1
  Ho  Ho5  1  0.998654  0.178662  0.093338  1
  Ho  Ho6  1  0.501026  0.678934  0.907033  1
  Ho  Ho7  1  0.001251  0.820949  0.592947  1
  Tm  Tm8  1  0.655830  0.167649  0.622260  1
  Tm  Tm9  1  0.155807  0.332543  0.877769  1
  Tm  Tm10  1  0.344335  0.832739  0.122579  1
  Tm  Tm11  1  0.844117  0.667787  0.377437  1
  Tm  Tm12  1  0.344335  0.832739  0.377421  1
  Tm  Tm13  1  0.844117  0.667787  0.122563  1
  Tm  Tm14  1  0.655830  0.167649  0.877740  1
  Tm  Tm15  1  0.155807  0.332543  0.622231  1
  Tm  Tm16  1  0.818995  0.510115  0.750000  1
  Tm  Tm17  1  0.319153  0.990079  0.750000  1
  Tm  Tm18  1  0.180792  0.489788  0.250000  1
  Lu  Lu19  1  0.680914  0.009154  0.250000  1
  Pt  Pt20  1  0.683596  0.966838  0.457896  1
  Pt  Pt21  1  0.183627  0.533293  0.041987  1
  Pt  Pt22  1  0.316513  0.033373  0.958455  1
  Pt  Pt23  1  0.816419  0.466619  0.541439  1
  Pt  Pt24  1  0.316513  0.033373  0.541545  1
  Pt  Pt25  1  0.816419  0.466619  0.958561  1
  Pt  Pt26  1  0.683596  0.966838  0.042104  1
  Pt  Pt27  1  0.183627  0.533293  0.458013  1
  Pt  Pt28  1  0.453176  0.385595  0.750000  1
  Pt  Pt29  1  0.953432  0.114748  0.750000  1
  Pt  Pt30  1  0.546837  0.614933  0.250000  1
  Pt  Pt31  1  0.045645  0.886655  0.250000  1
  Pt  Pt32  1  0.682217  0.856761  0.750000  1
  Pt  Pt33  1  0.181911  0.643462  0.750000  1
  Pt  Pt34  1  0.319090  0.142946  0.250000  1
  Pt  Pt35  1  0.816871  0.355494  0.250000  1
