# generated using pymatgen
data_Dy2NiIrPb
_symmetry_space_group_name_H-M   'P 1'
_cell_length_a   7.47155300
_cell_length_b   7.47155371
_cell_length_c   3.82620800
_cell_angle_alpha   90.00000000
_cell_angle_beta   90.00000000
_cell_angle_gamma   149.15915399
_symmetry_Int_Tables_number   1
_chemical_formula_structural   Dy2NiIrPb
_chemical_formula_sum   'Dy2 Ni1 Ir1 Pb1'
_cell_volume   109.50038569
_cell_formula_units_Z   1
loop_
 _symmetry_equiv_pos_site_id
 _symmetry_equiv_pos_as_xyz
  1  'x, y, z'
loop_
 _atom_site_type_symbol
 _atom_site_label
 _atom_site_symmetry_multiplicity
 _atom_site_fract_x
 _atom_site_fract_y
 _atom_site_fract_z
 _atom_site_occupancy
  Dy  Dy0  1  0.361337  0.638663  0.500000  1
  Dy  Dy1  1  0.642057  0.357943  0.500000  1
  Ni  Ni2  1  0.194222  0.805778  0.000000  1
  Ir  Ir3  1  0.799550  0.200450  0.000000  1
  Pb  Pb4  1  0.002834  0.997166  0.000000  1
