# generated using pymatgen
data_Tb4Ce(CoO6)2
_symmetry_space_group_name_H-M   'P 1'
_cell_length_a   6.79062858
_cell_length_b   6.79063029
_cell_length_c   7.25603493
_cell_angle_alpha   74.51811583
_cell_angle_beta   74.51810353
_cell_angle_gamma   50.16589183
_symmetry_Int_Tables_number   1
_chemical_formula_structural   Tb4Ce(CoO6)2
_chemical_formula_sum   'Tb4 Ce1 Co2 O12'
_cell_volume   245.52345605
_cell_formula_units_Z   1
loop_
 _symmetry_equiv_pos_site_id
 _symmetry_equiv_pos_as_xyz
  1  'x, y, z'
loop_
 _atom_site_type_symbol
 _atom_site_label
 _atom_site_symmetry_multiplicity
 _atom_site_fract_x
 _atom_site_fract_y
 _atom_site_fract_z
 _atom_site_occupancy
  Tb  Tb0  1  0.693245  0.693245  0.147590  1
  Tb  Tb1  1  0.996482  0.996482  0.004375  1
  Tb  Tb2  1  0.307697  0.307697  0.854935  1
  Tb  Tb3  1  0.309001  0.309001  0.335256  1
  Ce  Ce4  1  0.690783  0.690783  0.663160  1
  Co  Co5  1  0.242418  0.757983  0.500087  1
  Co  Co6  1  0.757983  0.242418  0.500087  1
  O  O7  1  0.405377  0.901025  0.919852  1
  O  O8  1  0.585205  0.096390  0.579198  1
  O  O9  1  0.900608  0.419508  0.422179  1
  O  O10  1  0.095664  0.597091  0.076032  1
  O  O11  1  0.002297  0.002297  0.323424  1
  O  O12  1  0.499149  0.499149  0.679059  1
  O  O13  1  0.901025  0.405377  0.919852  1
  O  O14  1  0.096390  0.585205  0.579198  1
  O  O15  1  0.419508  0.900608  0.422179  1
  O  O16  1  0.597091  0.095664  0.076032  1
  O  O17  1  0.500027  0.500027  0.325770  1
  O  O18  1  0.000050  0.000050  0.671737  1
