# generated using pymatgen
data_Ta6Mn3Cr2IrN2
_symmetry_space_group_name_H-M   'P 1'
_cell_length_a   8.10595955
_cell_length_b   8.10595827
_cell_length_c   8.09994600
_cell_angle_alpha   60.02453254
_cell_angle_beta   60.02453777
_cell_angle_gamma   60.01424395
_symmetry_Int_Tables_number   1
_chemical_formula_structural   Ta6Mn3Cr2IrN2
_chemical_formula_sum   'Ta12 Mn6 Cr4 Ir2 N4'
_cell_volume   376.51618018
_cell_formula_units_Z   2
loop_
 _symmetry_equiv_pos_site_id
 _symmetry_equiv_pos_as_xyz
  1  'x, y, z'
loop_
 _atom_site_type_symbol
 _atom_site_label
 _atom_site_symmetry_multiplicity
 _atom_site_fract_x
 _atom_site_fract_y
 _atom_site_fract_z
 _atom_site_occupancy
  Ta  Ta0  1  0.806211  0.806211  0.193789  1
  Ta  Ta1  1  0.194582  0.194582  0.805418  1
  Ta  Ta2  1  0.805887  0.194215  0.806266  1
  Ta  Ta3  1  0.194215  0.805887  0.193631  1
  Ta  Ta4  1  0.194215  0.805887  0.806266  1
  Ta  Ta5  1  0.805887  0.194215  0.193631  1
  Ta  Ta6  1  0.444267  0.444267  0.055733  1
  Ta  Ta7  1  0.050030  0.050030  0.449970  1
  Ta  Ta8  1  0.445776  0.060092  0.445417  1
  Ta  Ta9  1  0.060092  0.445776  0.048714  1
  Ta  Ta10  1  0.060092  0.445776  0.445417  1
  Ta  Ta11  1  0.445776  0.060092  0.048714  1
  Mn  Mn12  1  0.421690  0.421690  0.731098  1
  Mn  Mn13  1  0.421690  0.421690  0.425519  1
  Mn  Mn14  1  0.513546  0.827598  0.829429  1
  Mn  Mn15  1  0.827598  0.513546  0.829429  1
  Mn  Mn16  1  0.827964  0.827964  0.515604  1
  Mn  Mn17  1  0.827964  0.827964  0.828471  1
  Cr  Cr18  1  0.118798  0.618079  0.631562  1
  Cr  Cr19  1  0.618079  0.118798  0.631562  1
  Cr  Cr20  1  0.626472  0.626472  0.110542  1
  Cr  Cr21  1  0.626472  0.626472  0.636514  1
  Ir  Ir22  1  0.745118  0.416550  0.419165  1
  Ir  Ir23  1  0.416550  0.745118  0.419165  1
  N  N24  1  0.625853  0.124637  0.124755  1
  N  N25  1  0.124637  0.625853  0.124755  1
  N  N26  1  0.125269  0.125269  0.623989  1
  N  N27  1  0.125269  0.125269  0.125474  1
