# generated using pymatgen
data_Yb2Ho(BPt2)3
_symmetry_space_group_name_H-M   'P 1'
_cell_length_a   5.41510000
_cell_length_b   5.42715593
_cell_length_c   7.67395500
_cell_angle_alpha   90.00000000
_cell_angle_beta   90.00000000
_cell_angle_gamma   119.92654358
_symmetry_Int_Tables_number   1
_chemical_formula_structural   Yb2Ho(BPt2)3
_chemical_formula_sum   'Yb2 Ho1 B3 Pt6'
_cell_volume   195.45628846
_cell_formula_units_Z   1
loop_
 _symmetry_equiv_pos_site_id
 _symmetry_equiv_pos_as_xyz
  1  'x, y, z'
loop_
 _atom_site_type_symbol
 _atom_site_label
 _atom_site_symmetry_multiplicity
 _atom_site_fract_x
 _atom_site_fract_y
 _atom_site_fract_z
 _atom_site_occupancy
  Yb  Yb0  1  0.500000  0.500000  0.836078  1
  Yb  Yb1  1  0.000000  0.500000  0.163922  1
  Ho  Ho2  1  0.500000  0.000000  0.500000  1
  B  B3  1  0.500000  0.500000  0.331332  1
  B  B4  1  0.500000  0.000000  0.000000  1
  B  B5  1  0.000000  0.500000  0.668668  1
  Pt  Pt6  1  0.152174  0.856693  0.831458  1
  Pt  Pt7  1  0.149702  0.299405  0.500000  1
  Pt  Pt8  1  0.704519  0.856693  0.168542  1
  Pt  Pt9  1  0.847826  0.143307  0.831458  1
  Pt  Pt10  1  0.850298  0.700595  0.500000  1
  Pt  Pt11  1  0.295481  0.143307  0.168542  1
