# generated using pymatgen
data_Sr3Eu(ScSe2)8
_symmetry_space_group_name_H-M   'P 1'
_cell_length_a   3.98351500
_cell_length_b   12.28470192
_cell_length_c   14.40302910
_cell_angle_alpha   89.95541950
_cell_angle_beta   90.00000000
_cell_angle_gamma   90.00000000
_symmetry_Int_Tables_number   1
_chemical_formula_structural   Sr3Eu(ScSe2)8
_chemical_formula_sum   'Sr3 Eu1 Sc8 Se16'
_cell_volume   704.83065855
_cell_formula_units_Z   1
loop_
 _symmetry_equiv_pos_site_id
 _symmetry_equiv_pos_as_xyz
  1  'x, y, z'
loop_
 _atom_site_type_symbol
 _atom_site_label
 _atom_site_symmetry_multiplicity
 _atom_site_fract_x
 _atom_site_fract_y
 _atom_site_fract_z
 _atom_site_occupancy
  Sr  Sr0  1  0.250000  0.238031  0.331164  1
  Sr  Sr1  1  0.750000  0.261702  0.830613  1
  Sr  Sr2  1  0.250000  0.738191  0.169139  1
  Eu  Eu3  1  0.750000  0.761743  0.669174  1
  Sc  Sc4  1  0.250000  0.080675  0.596937  1
  Sc  Sc5  1  0.250000  0.057640  0.110112  1
  Sc  Sc6  1  0.750000  0.418764  0.096680  1
  Sc  Sc7  1  0.750000  0.941565  0.889047  1
  Sc  Sc8  1  0.750000  0.443540  0.610534  1
  Sc  Sc9  1  0.250000  0.558192  0.390443  1
  Sc  Sc10  1  0.750000  0.917885  0.404169  1
  Sc  Sc11  1  0.250000  0.581922  0.902748  1
  Se  Se12  1  0.250000  0.873556  0.530752  1
  Se  Se13  1  0.250000  0.796287  0.835961  1
  Se  Se14  1  0.250000  0.970611  0.285634  1
  Se  Se15  1  0.750000  0.411523  0.425890  1
  Se  Se16  1  0.250000  0.471000  0.215146  1
  Se  Se17  1  0.250000  0.088588  0.924957  1
  Se  Se18  1  0.750000  0.202989  0.160299  1
  Se  Se19  1  0.750000  0.027073  0.714596  1
  Se  Se20  1  0.250000  0.591756  0.576048  1
  Se  Se21  1  0.750000  0.703092  0.339856  1
  Se  Se22  1  0.250000  0.297095  0.660183  1
  Se  Se23  1  0.250000  0.375544  0.971220  1
  Se  Se24  1  0.750000  0.624892  0.028056  1
  Se  Se25  1  0.750000  0.531174  0.784296  1
  Se  Se26  1  0.750000  0.124076  0.471893  1
  Se  Se27  1  0.750000  0.910891  0.074456  1
