# generated using pymatgen
data_Ce2Sc(B2C)3
_symmetry_space_group_name_H-M   'P 1'
_cell_length_a   6.56494700
_cell_length_b   6.56493900
_cell_length_c   3.55220500
_cell_angle_alpha   90.00000000
_cell_angle_beta   90.00000000
_cell_angle_gamma   120.00011256
_symmetry_Int_Tables_number   1
_chemical_formula_structural   Ce2Sc(B2C)3
_chemical_formula_sum   'Ce2 Sc1 B6 C3'
_cell_volume   132.58368323
_cell_formula_units_Z   1
loop_
 _symmetry_equiv_pos_site_id
 _symmetry_equiv_pos_as_xyz
  1  'x, y, z'
loop_
 _atom_site_type_symbol
 _atom_site_label
 _atom_site_symmetry_multiplicity
 _atom_site_fract_x
 _atom_site_fract_y
 _atom_site_fract_z
 _atom_site_occupancy
  Ce  Ce0  1  0.666660  0.333329  0.000000  1
  Ce  Ce1  1  0.333341  0.666673  0.000000  1
  Sc  Sc2  1  0.000107  0.000115  0.000000  1
  B  B3  1  0.273304  0.999982  0.500001  1
  B  B4  1  0.726682  0.999982  0.500001  1
  B  B5  1  0.273296  0.273312  0.500001  1
  B  B6  1  0.000019  0.273321  0.500001  1
  B  B7  1  0.726670  0.726687  0.500001  1
  B  B8  1  0.000019  0.726697  0.500001  1
  C  C9  1  0.499933  0.999891  0.500001  1
  C  C10  1  0.499938  0.500042  0.500001  1
  C  C11  1  0.000096  0.500033  0.500001  1
