# generated using pymatgen
data_Er16MgCd3Ir4
_symmetry_space_group_name_H-M   'P 1'
_cell_length_a   9.60914494
_cell_length_b   9.60914461
_cell_length_c   9.60914615
_cell_angle_alpha   59.52027782
_cell_angle_beta   59.52028001
_cell_angle_gamma   59.52027929
_symmetry_Int_Tables_number   1
_chemical_formula_structural   Er16MgCd3Ir4
_chemical_formula_sum   'Er16 Mg1 Cd3 Ir4'
_cell_volume   620.54833270
_cell_formula_units_Z   1
loop_
 _symmetry_equiv_pos_site_id
 _symmetry_equiv_pos_as_xyz
  1  'x, y, z'
loop_
 _atom_site_type_symbol
 _atom_site_label
 _atom_site_symmetry_multiplicity
 _atom_site_fract_x
 _atom_site_fract_y
 _atom_site_fract_z
 _atom_site_occupancy
  Er  Er0  1  0.600008  0.600008  0.600008  1
  Er  Er1  1  0.598694  0.598694  0.206034  1
  Er  Er2  1  0.598694  0.206034  0.598694  1
  Er  Er3  1  0.206034  0.598694  0.598694  1
  Er  Er4  1  0.059143  0.440074  0.440074  1
  Er  Er5  1  0.436519  0.061037  0.061037  1
  Er  Er6  1  0.440074  0.059143  0.440074  1
  Er  Er7  1  0.061037  0.436519  0.061037  1
  Er  Er8  1  0.440074  0.440074  0.059143  1
  Er  Er9  1  0.061037  0.061037  0.436519  1
  Er  Er10  1  0.189241  0.812656  0.812656  1
  Er  Er11  1  0.811962  0.187444  0.187444  1
  Er  Er12  1  0.812656  0.189241  0.812656  1
  Er  Er13  1  0.187444  0.811962  0.187444  1
  Er  Er14  1  0.812656  0.812656  0.189241  1
  Er  Er15  1  0.187444  0.187444  0.811962  1
  Mg  Mg16  1  0.825423  0.825423  0.825423  1
  Cd  Cd17  1  0.831441  0.831441  0.504187  1
  Cd  Cd18  1  0.831441  0.504187  0.831441  1
  Cd  Cd19  1  0.504187  0.831441  0.831441  1
  Ir  Ir20  1  0.392107  0.392107  0.392107  1
  Ir  Ir21  1  0.393495  0.393495  0.825695  1
  Ir  Ir22  1  0.393495  0.825695  0.393495  1
  Ir  Ir23  1  0.825695  0.393495  0.393495  1
