# generated using pymatgen
data_CaTb3(Ga2Ag)4
_symmetry_space_group_name_H-M   'P 1'
_cell_length_a   4.38866600
_cell_length_b   7.02344645
_cell_length_c   10.33149315
_cell_angle_alpha   89.52425754
_cell_angle_beta   90.00000000
_cell_angle_gamma   90.00000000
_symmetry_Int_Tables_number   1
_chemical_formula_structural   CaTb3(Ga2Ag)4
_chemical_formula_sum   'Ca1 Tb3 Ga8 Ag4'
_cell_volume   318.44242795
_cell_formula_units_Z   1
loop_
 _symmetry_equiv_pos_site_id
 _symmetry_equiv_pos_as_xyz
  1  'x, y, z'
loop_
 _atom_site_type_symbol
 _atom_site_label
 _atom_site_symmetry_multiplicity
 _atom_site_fract_x
 _atom_site_fract_y
 _atom_site_fract_z
 _atom_site_occupancy
  Ca  Ca0  1  0.250000  0.776691  0.827677  1
  Tb  Tb1  1  0.750000  0.220167  0.171406  1
  Tb  Tb2  1  0.750000  0.721797  0.328502  1
  Tb  Tb3  1  0.250000  0.280776  0.672387  1
  Ga  Ga4  1  0.250000  0.927653  0.155820  1
  Ga  Ga5  1  0.750000  0.074794  0.849130  1
  Ga  Ga6  1  0.750000  0.571598  0.649693  1
  Ga  Ga7  1  0.250000  0.425609  0.345473  1
  Ga  Ga8  1  0.250000  0.702730  0.534848  1
  Ga  Ga9  1  0.750000  0.293768  0.462520  1
  Ga  Ga10  1  0.750000  0.796725  0.037269  1
  Ga  Ga11  1  0.250000  0.205181  0.964585  1
  Ag  Ag12  1  0.250000  0.544373  0.098076  1
  Ag  Ag13  1  0.750000  0.457195  0.902924  1
  Ag  Ag14  1  0.750000  0.957030  0.596994  1
  Ag  Ag15  1  0.250000  0.043912  0.402697  1
