# generated using pymatgen
data_Yb4Sc4Mn(B8Ir)3
_symmetry_space_group_name_H-M   'P 1'
_cell_length_a   3.50831000
_cell_length_b   8.97721946
_cell_length_c   11.36022065
_cell_angle_alpha   90.00182793
_cell_angle_beta   90.00000000
_cell_angle_gamma   90.00000000
_symmetry_Int_Tables_number   1
_chemical_formula_structural   Yb4Sc4Mn(B8Ir)3
_chemical_formula_sum   'Yb4 Sc4 Mn1 B24 Ir3'
_cell_volume   357.78865889
_cell_formula_units_Z   1
loop_
 _symmetry_equiv_pos_site_id
 _symmetry_equiv_pos_as_xyz
  1  'x, y, z'
loop_
 _atom_site_type_symbol
 _atom_site_label
 _atom_site_symmetry_multiplicity
 _atom_site_fract_x
 _atom_site_fract_y
 _atom_site_fract_z
 _atom_site_occupancy
  Yb  Yb0  1  0.500000  0.320372  0.412242  1
  Yb  Yb1  1  0.500000  0.678211  0.584257  1
  Yb  Yb2  1  0.500000  0.177454  0.917749  1
  Yb  Yb3  1  0.500000  0.824146  0.086949  1
  Sc  Sc4  1  0.500000  0.440509  0.126862  1
  Sc  Sc5  1  0.500000  0.555304  0.874430  1
  Sc  Sc6  1  0.500000  0.054768  0.626071  1
  Sc  Sc7  1  0.500000  0.948928  0.370525  1
  Mn  Mn8  1  0.500000  0.140673  0.182428  1
  B  B9  1  0.000000  0.098146  0.473537  1
  B  B10  1  0.000000  0.902198  0.525981  1
  B  B11  1  0.000000  0.401802  0.973810  1
  B  B12  1  0.000000  0.598189  0.026633  1
  B  B13  1  0.000000  0.130190  0.315903  1
  B  B14  1  0.000000  0.869601  0.681570  1
  B  B15  1  0.000000  0.369732  0.818503  1
  B  B16  1  0.000000  0.630043  0.182470  1
  B  B17  1  0.000000  0.055964  0.069174  1
  B  B18  1  0.000000  0.945189  0.933768  1
  B  B19  1  0.000000  0.444425  0.566699  1
  B  B20  1  0.000000  0.555093  0.432478  1
  B  B21  1  0.000000  0.481918  0.285673  1
  B  B22  1  0.000000  0.517234  0.714002  1
  B  B23  1  0.000000  0.017174  0.786200  1
  B  B24  1  0.000000  0.984103  0.213644  1
  B  B25  1  0.000000  0.251401  0.082734  1
  B  B26  1  0.000000  0.748197  0.919335  1
  B  B27  1  0.000000  0.247350  0.580779  1
  B  B28  1  0.000000  0.753097  0.418394  1
  B  B29  1  0.000000  0.292867  0.234601  1
  B  B30  1  0.000000  0.706083  0.764081  1
  B  B31  1  0.000000  0.206108  0.736059  1
  B  B32  1  0.000000  0.794639  0.264297  1
  Ir  Ir33  1  0.500000  0.858790  0.817512  1
  Ir  Ir34  1  0.500000  0.359280  0.682006  1
  Ir  Ir35  1  0.500000  0.640817  0.318641  1
