# generated using pymatgen
data_Li2TmLu2AgPb3
_symmetry_space_group_name_H-M   'P 1'
_cell_length_a   7.29370900
_cell_length_b   7.28542827
_cell_length_c   4.60990600
_cell_angle_alpha   90.00000000
_cell_angle_beta   90.00000000
_cell_angle_gamma   120.03760150
_symmetry_Int_Tables_number   1
_chemical_formula_structural   Li2TmLu2AgPb3
_chemical_formula_sum   'Li2 Tm1 Lu2 Ag1 Pb3'
_cell_volume   212.06136014
_cell_formula_units_Z   1
loop_
 _symmetry_equiv_pos_site_id
 _symmetry_equiv_pos_as_xyz
  1  'x, y, z'
loop_
 _atom_site_type_symbol
 _atom_site_label
 _atom_site_symmetry_multiplicity
 _atom_site_fract_x
 _atom_site_fract_y
 _atom_site_fract_z
 _atom_site_occupancy
  Li  Li0  1  0.772047  0.768388  0.000000  1
  Li  Li1  1  0.003659  0.231612  0.000000  1
  Tm  Tm2  1  0.548399  0.000000  0.500000  1
  Lu  Lu3  1  0.435079  0.430879  0.500000  1
  Lu  Lu4  1  0.004200  0.569121  0.500000  1
  Ag  Ag5  1  0.236120  0.000000  0.000000  1
  Pb  Pb6  1  0.983766  0.000000  0.500000  1
  Pb  Pb7  1  0.336556  0.656381  0.000000  1
  Pb  Pb8  1  0.680176  0.343619  0.000000  1
