# generated using pymatgen
data_CaYEr2(Ir2O7)2
_symmetry_space_group_name_H-M   'P 1'
_cell_length_a   7.22717164
_cell_length_b   7.22153564
_cell_length_c   7.22153611
_cell_angle_alpha   60.17531492
_cell_angle_beta   60.22121609
_cell_angle_gamma   60.22122285
_symmetry_Int_Tables_number   1
_chemical_formula_structural   CaYEr2(Ir2O7)2
_chemical_formula_sum   'Ca1 Y1 Er2 Ir4 O14'
_cell_volume   267.75189774
_cell_formula_units_Z   1
loop_
 _symmetry_equiv_pos_site_id
 _symmetry_equiv_pos_as_xyz
  1  'x, y, z'
loop_
 _atom_site_type_symbol
 _atom_site_label
 _atom_site_symmetry_multiplicity
 _atom_site_fract_x
 _atom_site_fract_y
 _atom_site_fract_z
 _atom_site_occupancy
  Ca  Ca0  1  0.125000  0.125000  0.125000  1
  Y  Y1  1  0.625000  0.125000  0.125000  1
  Er  Er2  1  0.125000  0.625000  0.125000  1
  Er  Er3  1  0.125000  0.125000  0.625000  1
  Ir  Ir4  1  0.125000  0.625000  0.625000  1
  Ir  Ir5  1  0.625000  0.125000  0.625000  1
  Ir  Ir6  1  0.625000  0.625000  0.125000  1
  Ir  Ir7  1  0.625000  0.625000  0.625000  1
  O  O8  1  0.713845  0.708644  0.289706  1
  O  O9  1  0.292950  0.293301  0.697875  1
  O  O10  1  0.713845  0.289706  0.708644  1
  O  O11  1  0.292950  0.697875  0.293301  1
  O  O12  1  0.289138  0.711706  0.711706  1
  O  O13  1  0.700521  0.293453  0.293453  1
  O  O14  1  0.536155  0.541356  0.960294  1
  O  O15  1  0.957050  0.956699  0.552125  1
  O  O16  1  0.536155  0.960294  0.541356  1
  O  O17  1  0.957050  0.552125  0.956699  1
  O  O18  1  0.960862  0.538294  0.538294  1
  O  O19  1  0.549479  0.956547  0.956547  1
  O  O20  1  0.250593  0.254207  0.254207  1
  O  O21  1  0.999407  0.995793  0.995793  1
