# generated using pymatgen
data_Tb3NdAl18(CoNi)3
_symmetry_space_group_name_H-M   'P 1'
_cell_length_a   7.43551678
_cell_length_b   7.42528351
_cell_length_c   9.32872125
_cell_angle_alpha   90.03099292
_cell_angle_beta   89.98520372
_cell_angle_gamma   119.35092379
_symmetry_Int_Tables_number   1
_chemical_formula_structural   Tb3NdAl18(CoNi)3
_chemical_formula_sum   'Tb3 Nd1 Al18 Co3 Ni3'
_cell_volume   448.93182996
_cell_formula_units_Z   1
loop_
 _symmetry_equiv_pos_site_id
 _symmetry_equiv_pos_as_xyz
  1  'x, y, z'
loop_
 _atom_site_type_symbol
 _atom_site_label
 _atom_site_symmetry_multiplicity
 _atom_site_fract_x
 _atom_site_fract_y
 _atom_site_fract_z
 _atom_site_occupancy
  Tb  Tb0  1  0.005550  0.329572  0.750387  1
  Tb  Tb1  1  0.330150  0.006542  0.749945  1
  Tb  Tb2  1  0.992802  0.669286  0.249847  1
  Nd  Nd3  1  0.669923  0.994313  0.249974  1
  Al  Al4  1  0.665001  0.999951  0.927093  1
  Al  Al5  1  0.002508  0.668218  0.572309  1
  Al  Al6  1  0.125765  0.123444  0.249249  1
  Al  Al7  1  0.668121  0.669405  0.040186  1
  Al  Al8  1  0.330258  0.330375  0.548049  1
  Al  Al9  1  0.329463  0.331604  0.955300  1
  Al  Al10  1  0.669815  0.668158  0.456712  1
  Al  Al11  1  0.329437  0.994280  0.069078  1
  Al  Al12  1  0.000422  0.333035  0.429532  1
  Al  Al13  1  0.337378  0.550157  0.246072  1
  Al  Al14  1  0.002089  0.336303  0.068989  1
  Al  Al15  1  0.549802  0.342729  0.249470  1
  Al  Al16  1  0.660798  0.449218  0.750910  1
  Al  Al17  1  0.878029  0.876534  0.750655  1
  Al  Al18  1  0.005940  0.668626  0.928754  1
  Al  Al19  1  0.668202  0.001363  0.574374  1
  Al  Al20  1  0.329924  0.998326  0.429631  1
  Al  Al21  1  0.446990  0.658919  0.753326  1
  Co  Co22  1  0.000659  0.000584  0.998633  1
  Co  Co23  1  0.000964  0.000266  0.501402  1
  Co  Co24  1  0.328552  0.670206  0.998607  1
  Ni  Ni25  1  0.670172  0.329046  0.501357  1
  Ni  Ni26  1  0.672135  0.329367  0.999477  1
  Ni  Ni27  1  0.329152  0.670174  0.500681  1
