# generated using pymatgen
data_CoPd(BrO3)6
_symmetry_space_group_name_H-M   'P 1'
_cell_length_a   9.15242900
_cell_length_b   9.15242923
_cell_length_c   5.71740600
_cell_angle_alpha   90.00000000
_cell_angle_beta   90.00000000
_cell_angle_gamma   120.00000277
_symmetry_Int_Tables_number   1
_chemical_formula_structural   CoPd(BrO3)6
_chemical_formula_sum   'Co1 Pd1 Br6 O18'
_cell_volume   414.76528599
_cell_formula_units_Z   1
loop_
 _symmetry_equiv_pos_site_id
 _symmetry_equiv_pos_as_xyz
  1  'x, y, z'
loop_
 _atom_site_type_symbol
 _atom_site_label
 _atom_site_symmetry_multiplicity
 _atom_site_fract_x
 _atom_site_fract_y
 _atom_site_fract_z
 _atom_site_occupancy
  Co  Co0  1  0.666667  0.333333  0.133262  1
  Pd  Pd1  1  0.333333  0.666667  0.632086  1
  Br  Br2  1  0.346951  0.327662  0.467919  1
  Br  Br3  1  0.980710  0.653049  0.467919  1
  Br  Br4  1  0.021313  0.339565  0.957680  1
  Br  Br5  1  0.318252  0.978687  0.957680  1
  Br  Br6  1  0.660435  0.681748  0.957680  1
  Br  Br7  1  0.672338  0.019290  0.467919  1
  O  O8  1  0.818170  0.283793  0.902851  1
  O  O9  1  0.528524  0.799764  0.408455  1
  O  O10  1  0.271239  0.471476  0.408455  1
  O  O11  1  0.716207  0.534378  0.902851  1
  O  O12  1  0.465622  0.181830  0.902851  1
  O  O13  1  0.200236  0.728761  0.408455  1
  O  O14  1  0.429111  0.879600  0.831289  1
  O  O15  1  0.542207  0.426971  0.343427  1
  O  O16  1  0.822599  0.044392  0.288132  1
  O  O17  1  0.777061  0.839072  0.783127  1
  O  O18  1  0.062012  0.222939  0.783127  1
  O  O19  1  0.955608  0.778206  0.288132  1
  O  O20  1  0.221794  0.177401  0.288132  1
  O  O21  1  0.884765  0.457793  0.343427  1
  O  O22  1  0.573029  0.115235  0.343427  1
  O  O23  1  0.450489  0.570889  0.831289  1
  O  O24  1  0.120400  0.549511  0.831289  1
  O  O25  1  0.160928  0.937988  0.783127  1
