# generated using pymatgen
data_La3Nd10Th3(CdIr)4
_symmetry_space_group_name_H-M   'P 1'
_cell_length_a   10.00163442
_cell_length_b   10.03804660
_cell_length_c   10.03804600
_cell_angle_alpha   59.79815906
_cell_angle_beta   60.04639411
_cell_angle_gamma   60.04639644
_symmetry_Int_Tables_number   1
_chemical_formula_structural   La3Nd10Th3(CdIr)4
_chemical_formula_sum   'La3 Nd10 Th3 Cd4 Ir4'
_cell_volume   712.01768867
_cell_formula_units_Z   1
loop_
 _symmetry_equiv_pos_site_id
 _symmetry_equiv_pos_as_xyz
  1  'x, y, z'
loop_
 _atom_site_type_symbol
 _atom_site_label
 _atom_site_symmetry_multiplicity
 _atom_site_fract_x
 _atom_site_fract_y
 _atom_site_fract_z
 _atom_site_occupancy
  La  La0  1  0.954321  0.349174  0.349174  1
  La  La1  1  0.809945  0.190258  0.190258  1
  La  La2  1  0.190383  0.809911  0.809911  1
  Nd  Nd3  1  0.192139  0.808297  0.191299  1
  Nd  Nd4  1  0.808300  0.191632  0.808366  1
  Nd  Nd5  1  0.192139  0.191299  0.808297  1
  Nd  Nd6  1  0.808300  0.808366  0.191632  1
  Nd  Nd7  1  0.937947  0.563339  0.563339  1
  Nd  Nd8  1  0.562239  0.937482  0.937482  1
  Nd  Nd9  1  0.561962  0.937829  0.562490  1
  Nd  Nd10  1  0.938316  0.563017  0.935624  1
  Nd  Nd11  1  0.561962  0.562490  0.937829  1
  Nd  Nd12  1  0.938316  0.935624  0.563017  1
  Th  Th13  1  0.344063  0.347282  0.347282  1
  Th  Th14  1  0.346426  0.345118  0.961241  1
  Th  Th15  1  0.346426  0.961241  0.345118  1
  Cd  Cd16  1  0.578930  0.580613  0.580613  1
  Cd  Cd17  1  0.577739  0.581740  0.259835  1
  Cd  Cd18  1  0.577739  0.259835  0.581740  1
  Cd  Cd19  1  0.258263  0.580235  0.580235  1
  Ir  Ir20  1  0.149010  0.142120  0.142120  1
  Ir  Ir21  1  0.150793  0.140056  0.567026  1
  Ir  Ir22  1  0.150793  0.567026  0.140056  1
  Ir  Ir23  1  0.563545  0.146016  0.146016  1
