# generated using pymatgen
data_Dy4CoTc3B16
_symmetry_space_group_name_H-M   'P 1'
_cell_length_a   3.55227500
_cell_length_b   5.95414539
_cell_length_c   11.52521375
_cell_angle_alpha   89.95855682
_cell_angle_beta   90.00000000
_cell_angle_gamma   90.00000000
_symmetry_Int_Tables_number   1
_chemical_formula_structural   Dy4CoTc3B16
_chemical_formula_sum   'Dy4 Co1 Tc3 B16'
_cell_volume   243.76698718
_cell_formula_units_Z   1
loop_
 _symmetry_equiv_pos_site_id
 _symmetry_equiv_pos_as_xyz
  1  'x, y, z'
loop_
 _atom_site_type_symbol
 _atom_site_label
 _atom_site_symmetry_multiplicity
 _atom_site_fract_x
 _atom_site_fract_y
 _atom_site_fract_z
 _atom_site_occupancy
  Dy  Dy0  1  0.500000  0.374811  0.146903  1
  Dy  Dy1  1  0.500000  0.628153  0.851580  1
  Dy  Dy2  1  0.500000  0.127252  0.652025  1
  Dy  Dy3  1  0.500000  0.872814  0.347162  1
  Co  Co4  1  0.500000  0.862820  0.091695  1
  Tc  Tc5  1  0.500000  0.367086  0.411886  1
  Tc  Tc6  1  0.500000  0.631645  0.586227  1
  Tc  Tc7  1  0.500000  0.132458  0.913655  1
  B  B8  1  0.000000  0.111990  0.047612  1
  B  B9  1  0.000000  0.885963  0.953992  1
  B  B10  1  0.000000  0.386409  0.546838  1
  B  B11  1  0.000000  0.613812  0.452257  1
  B  B12  1  0.000000  0.135201  0.468334  1
  B  B13  1  0.000000  0.864568  0.531191  1
  B  B14  1  0.000000  0.365227  0.969846  1
  B  B15  1  0.000000  0.638363  0.032558  1
  B  B16  1  0.000000  0.024028  0.190898  1
  B  B17  1  0.000000  0.973409  0.808879  1
  B  B18  1  0.000000  0.476149  0.692717  1
  B  B19  1  0.000000  0.526730  0.306250  1
  B  B20  1  0.000000  0.212748  0.313393  1
  B  B21  1  0.000000  0.785484  0.686002  1
  B  B22  1  0.000000  0.285785  0.815582  1
  B  B23  1  0.000000  0.717095  0.182517  1
