# generated using pymatgen
data_Sr6Li17In6
_symmetry_space_group_name_H-M   'P 1'
_cell_length_a   10.20828700
_cell_length_b   10.20828753
_cell_length_c   10.20828700
_cell_angle_alpha   120.00000153
_cell_angle_beta   90.00000000
_cell_angle_gamma   120.00000153
_symmetry_Int_Tables_number   1
_chemical_formula_structural   Sr6Li17In6
_chemical_formula_sum   'Sr6 Li17 In6'
_cell_volume   752.21782222
_cell_formula_units_Z   1
loop_
 _symmetry_equiv_pos_site_id
 _symmetry_equiv_pos_as_xyz
  1  'x, y, z'
loop_
 _atom_site_type_symbol
 _atom_site_label
 _atom_site_symmetry_multiplicity
 _atom_site_fract_x
 _atom_site_fract_y
 _atom_site_fract_z
 _atom_site_occupancy
  Sr  Sr0  1  0.782194  0.000000  0.217805  1
  Sr  Sr1  1  0.217806  0.435612  0.217806  1
  Sr  Sr2  1  0.217806  0.000000  0.217806  1
  Sr  Sr3  1  0.782194  0.000000  0.782194  1
  Sr  Sr4  1  0.217805  0.000000  0.782194  1
  Sr  Sr5  1  0.782194  0.564389  0.782194  1
  Li  Li6  1  0.370166  0.740330  0.110497  1
  Li  Li7  1  0.826530  0.653059  0.173471  1
  Li  Li8  1  0.520412  0.346942  0.173471  1
  Li  Li9  1  0.826530  0.346942  0.173471  1
  Li  Li10  1  0.110497  0.740330  0.370166  1
  Li  Li11  1  0.629834  0.740330  0.370166  1
  Li  Li12  1  0.629834  0.259669  0.370166  1
  Li  Li13  1  0.826530  0.653059  0.479588  1
  Li  Li14  1  0.500000  0.000000  0.500000  1
  Li  Li15  1  0.173471  0.346942  0.520412  1
  Li  Li16  1  0.370166  0.740330  0.629834  1
  Li  Li17  1  0.370166  0.259669  0.629834  1
  Li  Li18  1  0.889503  0.259669  0.629834  1
  Li  Li19  1  0.173471  0.653059  0.826530  1
  Li  Li20  1  0.479588  0.653059  0.826530  1
  Li  Li21  1  0.173471  0.346942  0.826530  1
  Li  Li22  1  0.629834  0.259669  0.889503  1
  In  In23  1  0.500000  0.000000  0.000000  1
  In  In24  1  0.000000  0.500000  0.000000  1
  In  In25  1  0.500000  0.500000  0.000000  1
  In  In26  1  0.000000  0.000000  0.500000  1
  In  In27  1  0.000000  0.500000  0.500000  1
  In  In28  1  0.500000  0.500000  0.500000  1
