# generated using pymatgen
data_TbHoGa7Ni2Ag
_symmetry_space_group_name_H-M   'P 1'
_cell_length_a   4.16241580
_cell_length_b   6.47367618
_cell_length_c   8.03315275
_cell_angle_alpha   90.79034505
_cell_angle_beta   105.01532745
_cell_angle_gamma   90.00000044
_symmetry_Int_Tables_number   1
_chemical_formula_structural   TbHoGa7Ni2Ag
_chemical_formula_sum   'Tb1 Ho1 Ga7 Ni2 Ag1'
_cell_volume   209.05030068
_cell_formula_units_Z   1
loop_
 _symmetry_equiv_pos_site_id
 _symmetry_equiv_pos_as_xyz
  1  'x, y, z'
loop_
 _atom_site_type_symbol
 _atom_site_label
 _atom_site_symmetry_multiplicity
 _atom_site_fract_x
 _atom_site_fract_y
 _atom_site_fract_z
 _atom_site_occupancy
  Tb  Tb0  1  0.122676  0.238272  0.245352  1
  Ho  Ho1  1  0.877263  0.761699  0.754526  1
  Ga  Ga2  1  0.499819  0.999743  0.999638  1
  Ga  Ga3  1  0.069038  0.740236  0.138075  1
  Ga  Ga4  1  0.930724  0.259807  0.861450  1
  Ga  Ga5  1  0.685256  0.544685  0.370512  1
  Ga  Ga6  1  0.314968  0.455910  0.629936  1
  Ga  Ga7  1  0.686463  0.945887  0.372927  1
  Ga  Ga8  1  0.313844  0.053429  0.627688  1
  Ni  Ni9  1  0.221225  0.750546  0.442450  1
  Ni  Ni10  1  0.778916  0.249374  0.557832  1
  Ag  Ag11  1  0.499807  0.500411  0.999614  1
