# generated using pymatgen
data_La8Ho12Sn9Bi7
_symmetry_space_group_name_H-M   'P 1'
_cell_length_a   8.38621339
_cell_length_b   8.37904810
_cell_length_c   15.73010600
_cell_angle_alpha   90.04049453
_cell_angle_beta   90.04326794
_cell_angle_gamma   90.00230801
_symmetry_Int_Tables_number   1
_chemical_formula_structural   La8Ho12Sn9Bi7
_chemical_formula_sum   'La8 Ho12 Sn9 Bi7'
_cell_volume   1105.33013132
_cell_formula_units_Z   1
loop_
 _symmetry_equiv_pos_site_id
 _symmetry_equiv_pos_as_xyz
  1  'x, y, z'
loop_
 _atom_site_type_symbol
 _atom_site_label
 _atom_site_symmetry_multiplicity
 _atom_site_fract_x
 _atom_site_fract_y
 _atom_site_fract_z
 _atom_site_occupancy
  La  La0  1  0.470353  0.675637  0.599586  1
  La  La1  1  0.973855  0.821371  0.899408  1
  La  La2  1  0.525906  0.321472  0.101023  1
  La  La3  1  0.026500  0.181263  0.399404  1
  La  La4  1  0.521531  0.324278  0.400164  1
  La  La5  1  0.026217  0.179031  0.100751  1
  La  La6  1  0.473502  0.679141  0.899384  1
  La  La7  1  0.976073  0.819686  0.599672  1
  Ho  Ho8  1  0.636277  0.157715  0.626786  1
  Ho  Ho9  1  0.136182  0.342759  0.873279  1
  Ho  Ho10  1  0.364346  0.842437  0.126779  1
  Ho  Ho11  1  0.869610  0.657154  0.373640  1
  Ho  Ho12  1  0.360988  0.837256  0.374450  1
  Ho  Ho13  1  0.863934  0.657850  0.126708  1
  Ho  Ho14  1  0.636490  0.157401  0.872577  1
  Ho  Ho15  1  0.137907  0.345319  0.624578  1
  Ho  Ho16  1  0.805519  0.501629  0.750049  1
  Ho  Ho17  1  0.305615  0.998080  0.749851  1
  Ho  Ho18  1  0.194492  0.499093  0.253320  1
  Ho  Ho19  1  0.693847  0.001439  0.250724  1
  Sn  Sn20  1  0.206524  0.540471  0.455450  1
  Sn  Sn21  1  0.439504  0.371442  0.750169  1
  Sn  Sn22  1  0.940573  0.128975  0.749247  1
  Sn  Sn23  1  0.561754  0.628773  0.249758  1
  Sn  Sn24  1  0.060412  0.872732  0.248947  1
  Sn  Sn25  1  0.666447  0.854374  0.749340  1
  Sn  Sn26  1  0.166535  0.644988  0.750387  1
  Sn  Sn27  1  0.332635  0.143504  0.250038  1
  Sn  Sn28  1  0.831908  0.355666  0.249806  1
  Bi  Bi29  1  0.706744  0.958116  0.455707  1
  Bi  Bi30  1  0.206850  0.541816  0.044935  1
  Bi  Bi31  1  0.293330  0.042182  0.955702  1
  Bi  Bi32  1  0.794412  0.458167  0.543845  1
  Bi  Bi33  1  0.293601  0.041669  0.544471  1
  Bi  Bi34  1  0.792699  0.458280  0.955724  1
  Bi  Bi35  1  0.706930  0.958834  0.044337  1
