# generated using pymatgen
data_YbDy3Ir5Os3
_symmetry_space_group_name_H-M   'P 1'
_cell_length_a   5.32014400
_cell_length_b   5.32014276
_cell_length_c   8.80836600
_cell_angle_alpha   90.00000000
_cell_angle_beta   90.00000000
_cell_angle_gamma   119.99999528
_symmetry_Int_Tables_number   1
_chemical_formula_structural   YbDy3Ir5Os3
_chemical_formula_sum   'Yb1 Dy3 Ir5 Os3'
_cell_volume   215.90996046
_cell_formula_units_Z   1
loop_
 _symmetry_equiv_pos_site_id
 _symmetry_equiv_pos_as_xyz
  1  'x, y, z'
loop_
 _atom_site_type_symbol
 _atom_site_label
 _atom_site_symmetry_multiplicity
 _atom_site_fract_x
 _atom_site_fract_y
 _atom_site_fract_z
 _atom_site_occupancy
  Yb  Yb0  1  0.333333  0.666667  0.067501  1
  Dy  Dy1  1  0.333333  0.666667  0.424341  1
  Dy  Dy2  1  0.666667  0.333333  0.566173  1
  Dy  Dy3  1  0.666667  0.333333  0.939459  1
  Ir  Ir4  1  0.000000  0.000000  0.499637  1
  Ir  Ir5  1  0.000000  0.000000  0.000650  1
  Ir  Ir6  1  0.830515  0.169485  0.250847  1
  Ir  Ir7  1  0.830515  0.661030  0.250847  1
  Ir  Ir8  1  0.338970  0.169485  0.250847  1
  Os  Os9  1  0.171606  0.828394  0.749899  1
  Os  Os10  1  0.171606  0.343210  0.749899  1
  Os  Os11  1  0.656790  0.828394  0.749899  1
