# generated using pymatgen
data_Ho20IrRu3Pt8
_symmetry_space_group_name_H-M   'P 1'
_cell_length_a   10.95026100
_cell_length_b   10.95026100
_cell_length_c   6.39051000
_cell_angle_alpha   90.00000000
_cell_angle_beta   90.00000000
_cell_angle_gamma   90.00000000
_symmetry_Int_Tables_number   1
_chemical_formula_structural   Ho20IrRu3Pt8
_chemical_formula_sum   'Ho20 Ir1 Ru3 Pt8'
_cell_volume   766.27465323
_cell_formula_units_Z   1
loop_
 _symmetry_equiv_pos_site_id
 _symmetry_equiv_pos_as_xyz
  1  'x, y, z'
loop_
 _atom_site_type_symbol
 _atom_site_label
 _atom_site_symmetry_multiplicity
 _atom_site_fract_x
 _atom_site_fract_y
 _atom_site_fract_z
 _atom_site_occupancy
  Ho  Ho0  1  0.296537  0.086305  0.373307  1
  Ho  Ho1  1  0.296738  0.913674  0.873346  1
  Ho  Ho2  1  0.703262  0.086326  0.873346  1
  Ho  Ho3  1  0.703463  0.913695  0.373307  1
  Ho  Ho4  1  0.586326  0.796738  0.873346  1
  Ho  Ho5  1  0.586305  0.203463  0.373307  1
  Ho  Ho6  1  0.413695  0.796537  0.373307  1
  Ho  Ho7  1  0.413674  0.203262  0.873346  1
  Ho  Ho8  1  0.204536  0.412846  0.627575  1
  Ho  Ho9  1  0.204374  0.587106  0.125558  1
  Ho  Ho10  1  0.795626  0.412894  0.125558  1
  Ho  Ho11  1  0.795464  0.587154  0.627575  1
  Ho  Ho12  1  0.912894  0.704374  0.125558  1
  Ho  Ho13  1  0.912846  0.295464  0.627575  1
  Ho  Ho14  1  0.087154  0.704536  0.627575  1
  Ho  Ho15  1  0.087106  0.295626  0.125558  1
  Ho  Ho16  1  0.000000  0.000000  0.499976  1
  Ho  Ho17  1  0.000000  0.000000  0.999801  1
  Ho  Ho18  1  0.500000  0.500000  0.999801  1
  Ho  Ho19  1  0.500000  0.500000  0.499976  1
  Ir  Ir20  1  0.000000  0.500000  0.378656  1
  Ru  Ru21  1  0.500000  0.000000  0.123362  1
  Ru  Ru22  1  0.500000  0.000000  0.623146  1
  Ru  Ru23  1  0.000000  0.500000  0.877104  1
  Pt  Pt24  1  0.846354  0.153776  0.249905  1
  Pt  Pt25  1  0.846394  0.846089  0.749854  1
  Pt  Pt26  1  0.153606  0.153911  0.749854  1
  Pt  Pt27  1  0.153646  0.846224  0.249905  1
  Pt  Pt28  1  0.653911  0.346394  0.749854  1
  Pt  Pt29  1  0.653776  0.653646  0.249905  1
  Pt  Pt30  1  0.346224  0.346354  0.249905  1
  Pt  Pt31  1  0.346089  0.653606  0.749854  1
