# generated using pymatgen
data_Ho5Tl2In2CuPd
_symmetry_space_group_name_H-M   'P 1'
_cell_length_a   3.64049500
_cell_length_b   8.10692170
_cell_length_c   18.18781402
_cell_angle_alpha   89.74302739
_cell_angle_beta   90.00000000
_cell_angle_gamma   90.00000000
_symmetry_Int_Tables_number   1
_chemical_formula_structural   Ho5Tl2In2CuPd
_chemical_formula_sum   'Ho10 Tl4 In4 Cu2 Pd2'
_cell_volume   536.77533809
_cell_formula_units_Z   2
loop_
 _symmetry_equiv_pos_site_id
 _symmetry_equiv_pos_as_xyz
  1  'x, y, z'
loop_
 _atom_site_type_symbol
 _atom_site_label
 _atom_site_symmetry_multiplicity
 _atom_site_fract_x
 _atom_site_fract_y
 _atom_site_fract_z
 _atom_site_occupancy
  Ho  Ho0  1  0.000000  0.500000  0.500000  1
  Ho  Ho1  1  0.000000  0.000000  0.000000  1
  Ho  Ho2  1  0.000000  0.744514  0.281951  1
  Ho  Ho3  1  0.000000  0.255486  0.718049  1
  Ho  Ho4  1  0.000000  0.756563  0.782175  1
  Ho  Ho5  1  0.000000  0.243437  0.217825  1
  Ho  Ho6  1  0.000000  0.617906  0.085480  1
  Ho  Ho7  1  0.000000  0.382094  0.914520  1
  Ho  Ho8  1  0.000000  0.882689  0.584714  1
  Ho  Ho9  1  0.000000  0.117311  0.415286  1
  Tl  Tl10  1  0.500000  0.707544  0.932878  1
  Tl  Tl11  1  0.500000  0.292456  0.067122  1
  Tl  Tl12  1  0.500000  0.791826  0.433436  1
  Tl  Tl13  1  0.500000  0.208174  0.566564  1
  In  In14  1  0.500000  0.580854  0.651685  1
  In  In15  1  0.500000  0.419146  0.348315  1
  In  In16  1  0.500000  0.917301  0.149566  1
  In  In17  1  0.500000  0.082699  0.850434  1
  Cu  Cu18  1  0.500000  0.532789  0.198922  1
  Cu  Cu19  1  0.500000  0.467211  0.801078  1
  Pd  Pd20  1  0.500000  0.966517  0.698919  1
  Pd  Pd21  1  0.500000  0.033483  0.301081  1
