# generated using pymatgen
data_Er2Si5IrPd2
_symmetry_space_group_name_H-M   'P 1'
_cell_length_a   8.19542823
_cell_length_b   8.14929329
_cell_length_c   8.14929270
_cell_angle_alpha   137.84558061
_cell_angle_beta   104.27395741
_cell_angle_gamma   90.61001583
_symmetry_Int_Tables_number   1
_chemical_formula_structural   Er2Si5IrPd2
_chemical_formula_sum   'Er4 Si10 Ir2 Pd4'
_cell_volume   337.98039033
_cell_formula_units_Z   2
loop_
 _symmetry_equiv_pos_site_id
 _symmetry_equiv_pos_as_xyz
  1  'x, y, z'
loop_
 _atom_site_type_symbol
 _atom_site_label
 _atom_site_symmetry_multiplicity
 _atom_site_fract_x
 _atom_site_fract_y
 _atom_site_fract_z
 _atom_site_occupancy
  Er  Er0  1  0.638236  0.869662  0.768574  1
  Er  Er1  1  0.361764  0.130338  0.231426  1
  Er  Er2  1  0.101688  0.369401  0.732288  1
  Er  Er3  1  0.898312  0.630598  0.267712  1
  Si  Si4  1  0.275106  0.022346  0.750074  1
  Si  Si5  1  0.724894  0.977654  0.249926  1
  Si  Si6  1  0.724894  0.474968  0.747241  1
  Si  Si7  1  0.275106  0.525032  0.252759  1
  Si  Si8  1  0.454323  0.610956  0.843367  1
  Si  Si9  1  0.545677  0.389044  0.156633  1
  Si  Si10  1  0.764879  0.110761  0.654119  1
  Si  Si11  1  0.235121  0.889239  0.345881  1
  Si  Si12  1  0.000000  0.742622  0.742622  1
  Si  Si13  1  0.000000  0.257378  0.257378  1
  Ir  Ir14  1  0.250350  0.637752  0.612597  1
  Ir  Ir15  1  0.749650  0.362248  0.387403  1
  Pd  Pd16  1  0.025452  0.138774  0.886679  1
  Pd  Pd17  1  0.974548  0.861226  0.113321  1
  Pd  Pd18  1  0.500000  0.750025  0.250025  1
  Pd  Pd19  1  0.500000  0.249975  0.749975  1
