# generated using pymatgen
data_Y3Sn3RuPtRh
_symmetry_space_group_name_H-M   'P 1'
_cell_length_a   7.68019700
_cell_length_b   7.68019837
_cell_length_c   3.79951600
_cell_angle_alpha   90.00000000
_cell_angle_beta   90.00000000
_cell_angle_gamma   119.99999841
_symmetry_Int_Tables_number   1
_chemical_formula_structural   Y3Sn3RuPtRh
_chemical_formula_sum   'Y3 Sn3 Ru1 Pt1 Rh1'
_cell_volume   194.09024745
_cell_formula_units_Z   1
loop_
 _symmetry_equiv_pos_site_id
 _symmetry_equiv_pos_as_xyz
  1  'x, y, z'
loop_
 _atom_site_type_symbol
 _atom_site_label
 _atom_site_symmetry_multiplicity
 _atom_site_fract_x
 _atom_site_fract_y
 _atom_site_fract_z
 _atom_site_occupancy
  Y  Y0  1  0.406974  0.004047  0.500000  1
  Y  Y1  1  0.995953  0.402928  0.500000  1
  Y  Y2  1  0.597072  0.593026  0.500000  1
  Sn  Sn3  1  0.741309  0.004125  0.000000  1
  Sn  Sn4  1  0.995875  0.737184  0.000000  1
  Sn  Sn5  1  0.262816  0.258691  0.000000  1
  Ru  Ru6  1  0.000000  0.000000  0.500000  1
  Pt  Pt7  1  0.333333  0.666667  0.000000  1
  Rh  Rh8  1  0.666667  0.333333  0.000000  1
