# generated using pymatgen
data_Al2VNi3(Pt2Rh)2
_symmetry_space_group_name_H-M   'P 1'
_cell_length_a   3.85303000
_cell_length_b   3.90242700
_cell_length_c   10.84958100
_cell_angle_alpha   90.00000000
_cell_angle_beta   90.00000000
_cell_angle_gamma   90.00000000
_symmetry_Int_Tables_number   1
_chemical_formula_structural   Al2VNi3(Pt2Rh)2
_chemical_formula_sum   'Al2 V1 Ni3 Pt4 Rh2'
_cell_volume   163.13612594
_cell_formula_units_Z   1
loop_
 _symmetry_equiv_pos_site_id
 _symmetry_equiv_pos_as_xyz
  1  'x, y, z'
loop_
 _atom_site_type_symbol
 _atom_site_label
 _atom_site_symmetry_multiplicity
 _atom_site_fract_x
 _atom_site_fract_y
 _atom_site_fract_z
 _atom_site_occupancy
  Al  Al0  1  0.000000  0.000000  0.332868  1
  Al  Al1  1  0.000000  0.000000  0.667132  1
  V  V2  1  0.000000  0.000000  0.000000  1
  Ni  Ni3  1  0.500000  0.500000  0.000000  1
  Ni  Ni4  1  0.500000  0.500000  0.331064  1
  Ni  Ni5  1  0.500000  0.500000  0.668936  1
  Pt  Pt6  1  0.500000  0.000000  0.500000  1
  Pt  Pt7  1  0.000000  0.500000  0.164984  1
  Pt  Pt8  1  0.000000  0.500000  0.500000  1
  Pt  Pt9  1  0.000000  0.500000  0.835016  1
  Rh  Rh10  1  0.500000  0.000000  0.162538  1
  Rh  Rh11  1  0.500000  0.000000  0.837462  1
