# generated using pymatgen
data_Mo(PtRh3)2
_symmetry_space_group_name_H-M   'P 1'
_cell_length_a   6.15393691
_cell_length_b   6.15393729
_cell_length_c   6.15393796
_cell_angle_alpha   95.89776893
_cell_angle_beta   95.46427562
_cell_angle_gamma   143.32355955
_symmetry_Int_Tables_number   1
_chemical_formula_structural   Mo(PtRh3)2
_chemical_formula_sum   'Mo1 Pt2 Rh6'
_cell_volume   132.13246022
_cell_formula_units_Z   1
loop_
 _symmetry_equiv_pos_site_id
 _symmetry_equiv_pos_as_xyz
  1  'x, y, z'
loop_
 _atom_site_type_symbol
 _atom_site_label
 _atom_site_symmetry_multiplicity
 _atom_site_fract_x
 _atom_site_fract_y
 _atom_site_fract_z
 _atom_site_occupancy
  Mo  Mo0  1  0.000000  0.000000  0.000000  1
  Pt  Pt1  1  0.670380  0.000000  0.670380  1
  Pt  Pt2  1  0.329620  0.000000  0.329620  1
  Rh  Rh3  1  0.338970  0.337642  0.676611  1
  Rh  Rh4  1  0.661030  0.662358  0.323389  1
  Rh  Rh5  1  0.661030  0.337642  0.998671  1
  Rh  Rh6  1  0.338970  0.662358  0.001329  1
  Rh  Rh7  1  0.000000  0.326876  0.326876  1
  Rh  Rh8  1  0.000000  0.673124  0.673124  1
