# generated using pymatgen
data_TaTiNb4C5
_symmetry_space_group_name_H-M   'P 1'
_cell_length_a   5.46834766
_cell_length_b   5.46834804
_cell_length_c   5.49605545
_cell_angle_alpha   80.21532494
_cell_angle_beta   80.21531660
_cell_angle_gamma   119.69999818
_symmetry_Int_Tables_number   1
_chemical_formula_structural   TaTiNb4C5
_chemical_formula_sum   'Ta1 Ti1 Nb4 C5'
_cell_volume   134.33726466
_cell_formula_units_Z   1
loop_
 _symmetry_equiv_pos_site_id
 _symmetry_equiv_pos_as_xyz
  1  'x, y, z'
loop_
 _atom_site_type_symbol
 _atom_site_label
 _atom_site_symmetry_multiplicity
 _atom_site_fract_x
 _atom_site_fract_y
 _atom_site_fract_z
 _atom_site_occupancy
  Ta  Ta0  1  0.736818  0.736818  0.734924  1
  Ti  Ti1  1  0.267163  0.267163  0.267518  1
  Nb  Nb2  1  0.083136  0.436057  0.747988  1
  Nb  Nb3  1  0.561629  0.917822  0.252078  1
  Nb  Nb4  1  0.917822  0.561629  0.252078  1
  Nb  Nb5  1  0.436057  0.083136  0.747988  1
  C  C6  1  0.499552  0.499552  0.499055  1
  C  C7  1  0.659470  0.335924  0.001597  1
  C  C8  1  0.335924  0.659470  0.001597  1
  C  C9  1  0.837376  0.165054  0.497588  1
  C  C10  1  0.165054  0.837376  0.497588  1
