# generated using pymatgen
data_Na16Mn3V5P8(O4F)8
_symmetry_space_group_name_H-M   'P 1'
_cell_length_a   5.39585200
_cell_length_b   13.83818184
_cell_length_c   13.93814200
_cell_angle_alpha   59.92473824
_cell_angle_beta   90.00000000
_cell_angle_gamma   90.00000000
_symmetry_Int_Tables_number   1
_chemical_formula_structural   Na16Mn3V5P8(O4F)8
_chemical_formula_sum   'Na16 Mn3 V5 P8 O32 F8'
_cell_volume   900.62648742
_cell_formula_units_Z   1
loop_
 _symmetry_equiv_pos_site_id
 _symmetry_equiv_pos_as_xyz
  1  'x, y, z'
loop_
 _atom_site_type_symbol
 _atom_site_label
 _atom_site_symmetry_multiplicity
 _atom_site_fract_x
 _atom_site_fract_y
 _atom_site_fract_z
 _atom_site_occupancy
  Na  Na0  1  0.236923  0.921431  0.661425  1
  Na  Na1  1  0.234482  0.170954  0.169045  1
  Na  Na2  1  0.758497  0.330339  0.338523  1
  Na  Na3  1  0.265215  0.168553  0.669584  1
  Na  Na4  1  0.734751  0.081465  0.835515  1
  Na  Na5  1  0.261437  0.667123  0.162195  1
  Na  Na6  1  0.236949  0.418937  0.916099  1
  Na  Na7  1  0.262939  0.418109  0.416756  1
  Na  Na8  1  0.739472  0.579006  0.585883  1
  Na  Na9  1  0.238765  0.669873  0.659656  1
  Na  Na10  1  0.764497  0.080641  0.338541  1
  Na  Na11  1  0.760075  0.578877  0.085594  1
  Na  Na12  1  0.763413  0.833525  0.828206  1
  Na  Na13  1  0.735100  0.831536  0.331104  1
  Na  Na14  1  0.741612  0.330766  0.838144  1
  Na  Na15  1  0.264941  0.919888  0.163149  1
  Mn  Mn16  1  0.728656  0.575881  0.323655  1
  Mn  Mn17  1  0.770973  0.576520  0.823077  1
  Mn  Mn18  1  0.269465  0.923566  0.899237  1
  V  V19  1  0.223020  0.427458  0.180462  1
  V  V20  1  0.773196  0.072614  0.607778  1
  V  V21  1  0.727349  0.072560  0.108351  1
  V  V22  1  0.276885  0.427289  0.680603  1
  V  V23  1  0.228388  0.927713  0.391343  1
  P  P24  1  0.787761  0.338856  0.584621  1
  P  P25  1  0.781496  0.837574  0.076712  1
  P  P26  1  0.718335  0.838232  0.574919  1
  P  P27  1  0.215353  0.662047  0.414806  1
  P  P28  1  0.217665  0.160530  0.925116  1
  P  P29  1  0.283914  0.662524  0.914681  1
  P  P30  1  0.281557  0.161183  0.424292  1
  P  P31  1  0.712437  0.338812  0.084554  1
  O  O32  1  0.069046  0.850321  0.055981  1
  O  O33  1  0.642709  0.385971  0.648189  1
  O  O34  1  0.290466  0.597414  0.539065  1
  O  O35  1  0.283720  0.787626  0.363782  1
  O  O36  1  0.857575  0.385727  0.148236  1
  O  O37  1  0.699928  0.902730  0.135523  1
  O  O38  1  0.427070  0.350914  0.097316  1
  O  O39  1  0.927776  0.651541  0.403810  1
  O  O40  1  0.432734  0.853161  0.550564  1
  O  O41  1  0.717273  0.403797  0.459110  1
  O  O42  1  0.146922  0.614560  0.849607  1
  O  O43  1  0.861709  0.882201  0.464039  1
  O  O44  1  0.798868  0.902815  0.634521  1
  O  O45  1  0.202337  0.096359  0.364482  1
  O  O46  1  0.718146  0.711563  0.151655  1
  O  O47  1  0.571427  0.652039  0.903701  1
  O  O48  1  0.139666  0.116592  0.535337  1
  O  O49  1  0.359778  0.115497  0.036428  1
  O  O50  1  0.073215  0.350792  0.597483  1
  O  O51  1  0.931742  0.146486  0.948966  1
  O  O52  1  0.352454  0.613867  0.349959  1
  O  O53  1  0.783085  0.403737  0.959115  1
  O  O54  1  0.778774  0.212955  0.134441  1
  O  O55  1  0.219561  0.287153  0.348583  1
  O  O56  1  0.280486  0.286373  0.849414  1
  O  O57  1  0.720983  0.213233  0.634260  1
  O  O58  1  0.294953  0.095063  0.865640  1
  O  O59  1  0.776590  0.711628  0.651372  1
  O  O60  1  0.208818  0.597683  0.039014  1
  O  O61  1  0.215621  0.788179  0.864277  1
  O  O62  1  0.567388  0.147017  0.448034  1
  O  O63  1  0.645364  0.883313  0.963790  1
  F  F64  1  0.489851  0.506215  0.757219  1
  F  F65  1  0.011871  0.999024  0.236705  1
  F  F66  1  0.512690  0.001106  0.263240  1
  F  F67  1  0.992028  0.491234  0.740481  1
  F  F68  1  0.991208  0.002089  0.760931  1
  F  F69  1  0.009642  0.506421  0.257063  1
  F  F70  1  0.507993  0.491245  0.240396  1
  F  F71  1  0.493012  0.999975  0.734643  1
