# generated using pymatgen
data_HoSc4Co15(P3Os)4
_symmetry_space_group_name_H-M   'P 1'
_cell_length_a   11.89534369
_cell_length_b   11.91727062
_cell_length_c   3.67143500
_cell_angle_alpha   90.00000000
_cell_angle_beta   90.00000000
_cell_angle_gamma   119.83897811
_symmetry_Int_Tables_number   1
_chemical_formula_structural   HoSc4Co15(P3Os)4
_chemical_formula_sum   'Ho1 Sc4 Co15 P12 Os4'
_cell_volume   451.46351401
_cell_formula_units_Z   1
loop_
 _symmetry_equiv_pos_site_id
 _symmetry_equiv_pos_as_xyz
  1  'x, y, z'
loop_
 _atom_site_type_symbol
 _atom_site_label
 _atom_site_symmetry_multiplicity
 _atom_site_fract_x
 _atom_site_fract_y
 _atom_site_fract_z
 _atom_site_occupancy
  Ho  Ho0  1  0.333163  0.666324  0.000000  1
  Sc  Sc1  1  0.662536  0.333285  0.000000  1
  Sc  Sc2  1  0.818718  0.818571  0.500000  1
  Sc  Sc3  1  0.179552  0.000221  0.500000  1
  Sc  Sc4  1  0.000711  0.178055  0.500000  1
  Co  Co5  1  0.642152  0.516882  0.500000  1
  Co  Co6  1  0.480074  0.126137  0.500000  1
  Co  Co7  1  0.354736  0.873824  0.500000  1
  Co  Co8  1  0.519095  0.645442  0.500000  1
  Co  Co9  1  0.130225  0.483408  0.500000  1
  Co  Co10  1  0.804957  0.172682  0.000000  1
  Co  Co11  1  0.821288  0.626818  0.000000  1
  Co  Co12  1  0.373779  0.195428  0.000000  1
  Co  Co13  1  0.178410  0.809518  0.000000  1
  Co  Co14  1  0.628682  0.822498  0.000000  1
  Co  Co15  1  0.194749  0.370651  0.000000  1
  Co  Co16  1  0.283559  0.280949  0.500000  1
  Co  Co17  1  0.718298  0.999859  0.500000  1
  Co  Co18  1  0.999448  0.718752  0.500000  1
  Co  Co19  1  0.001072  0.000696  0.000000  1
  P  P20  1  0.677763  0.160421  0.500000  1
  P  P21  1  0.829792  0.522334  0.500000  1
  P  P22  1  0.482590  0.314656  0.500000  1
  P  P23  1  0.164803  0.686986  0.500000  1
  P  P24  1  0.521023  0.835705  0.500000  1
  P  P25  1  0.316517  0.478530  0.500000  1
  P  P26  1  0.176702  0.175217  0.000000  1
  P  P27  1  0.824688  0.998440  0.000000  1
  P  P28  1  0.998407  0.824092  0.000000  1
  P  P29  1  0.642957  0.643436  0.000000  1
  P  P30  1  0.356327  0.000729  0.000000  1
  P  P31  1  0.003469  0.357967  0.000000  1
  Os  Os32  1  0.870126  0.354531  0.500000  1
  Os  Os33  1  0.448800  0.448971  0.000000  1
  Os  Os34  1  0.550310  0.999484  0.000000  1
  Os  Os35  1  0.010520  0.558497  0.000000  1
