# generated using pymatgen
data_CaTh7TiSe17
_symmetry_space_group_name_H-M   'P 1'
_cell_length_a   8.43078442
_cell_length_b   8.44700526
_cell_length_c   11.19433553
_cell_angle_alpha   80.79448902
_cell_angle_beta   80.48793136
_cell_angle_gamma   65.37772160
_symmetry_Int_Tables_number   1
_chemical_formula_structural   CaTh7TiSe17
_chemical_formula_sum   'Ca1 Th7 Ti1 Se17'
_cell_volume   711.05133597
_cell_formula_units_Z   1
loop_
 _symmetry_equiv_pos_site_id
 _symmetry_equiv_pos_as_xyz
  1  'x, y, z'
loop_
 _atom_site_type_symbol
 _atom_site_label
 _atom_site_symmetry_multiplicity
 _atom_site_fract_x
 _atom_site_fract_y
 _atom_site_fract_z
 _atom_site_occupancy
  Ca  Ca0  1  0.810270  0.307878  0.295392  1
  Th  Th1  1  0.302626  0.815823  0.296067  1
  Th  Th2  1  0.183768  0.697085  0.702516  1
  Th  Th3  1  0.699502  0.186685  0.699485  1
  Th  Th4  1  0.204888  0.203591  0.540179  1
  Th  Th5  1  0.794654  0.793717  0.457706  1
  Th  Th6  1  0.681173  0.678814  0.983664  1
  Th  Th7  1  0.317991  0.322239  0.021052  1
  Ti  Ti8  1  0.998345  0.009542  0.006507  1
  Se  Se9  1  0.826891  0.430185  0.539090  1
  Se  Se10  1  0.432161  0.819280  0.534089  1
  Se  Se11  1  0.178520  0.566259  0.465896  1
  Se  Se12  1  0.570943  0.171425  0.471062  1
  Se  Se13  1  0.943387  0.321931  0.020887  1
  Se  Se14  1  0.321268  0.944349  0.023409  1
  Se  Se15  1  0.055485  0.679959  0.971706  1
  Se  Se16  1  0.680077  0.059091  0.972238  1
  Se  Se17  1  0.219575  0.200860  0.275545  1
  Se  Se18  1  0.788372  0.790690  0.725668  1
  Se  Se19  1  0.061012  0.055209  0.776149  1
  Se  Se20  1  0.944673  0.932865  0.224629  1
  Se  Se21  1  0.303568  0.303343  0.754870  1
  Se  Se22  1  0.688783  0.708262  0.243098  1
  Se  Se23  1  0.519252  0.520379  0.832688  1
  Se  Se24  1  0.468111  0.491164  0.160495  1
  Se  Se25  1  0.004707  0.989375  0.505909  1
