# generated using pymatgen
data_Tm12Fe2Hg2Os
_symmetry_space_group_name_H-M   'P 1'
_cell_length_a   8.21346753
_cell_length_b   8.21346679
_cell_length_c   8.21346823
_cell_angle_alpha   108.63154721
_cell_angle_beta   108.63154816
_cell_angle_gamma   111.16394583
_symmetry_Int_Tables_number   1
_chemical_formula_structural   Tm12Fe2Hg2Os
_chemical_formula_sum   'Tm12 Fe2 Hg2 Os1'
_cell_volume   426.25784901
_cell_formula_units_Z   1
loop_
 _symmetry_equiv_pos_site_id
 _symmetry_equiv_pos_as_xyz
  1  'x, y, z'
loop_
 _atom_site_type_symbol
 _atom_site_label
 _atom_site_symmetry_multiplicity
 _atom_site_fract_x
 _atom_site_fract_y
 _atom_site_fract_z
 _atom_site_occupancy
  Tm  Tm0  1  0.189988  0.430004  0.240015  1
  Tm  Tm1  1  0.810012  0.569996  0.759985  1
  Tm  Tm2  1  0.189988  0.949974  0.759985  1
  Tm  Tm3  1  0.949974  0.189988  0.759985  1
  Tm  Tm4  1  0.810012  0.050026  0.240015  1
  Tm  Tm5  1  0.050026  0.810012  0.240015  1
  Tm  Tm6  1  0.430004  0.189988  0.240015  1
  Tm  Tm7  1  0.569996  0.810012  0.759985  1
  Tm  Tm8  1  0.309066  0.309066  0.618134  1
  Tm  Tm9  1  0.690934  0.690934  0.381866  1
  Tm  Tm10  1  0.690934  0.309066  0.000000  1
  Tm  Tm11  1  0.309066  0.690934  0.000000  1
  Fe  Fe12  1  0.383125  0.383125  0.000000  1
  Fe  Fe13  1  0.616875  0.616875  0.000000  1
  Hg  Hg14  1  0.000000  0.500000  0.500000  1
  Hg  Hg15  1  0.500000  0.000000  0.500000  1
  Os  Os16  1  0.000000  0.000000  0.000000  1
