# generated using pymatgen
data_Dy6Er2Re(B8Os)3
_symmetry_space_group_name_H-M   'P 1'
_cell_length_a   3.65962900
_cell_length_b   9.14788266
_cell_length_c   11.53405542
_cell_angle_alpha   90.11438821
_cell_angle_beta   90.00000000
_cell_angle_gamma   90.00000000
_symmetry_Int_Tables_number   1
_chemical_formula_structural   Dy6Er2Re(B8Os)3
_chemical_formula_sum   'Dy6 Er2 Re1 B24 Os3'
_cell_volume   386.13468438
_cell_formula_units_Z   1
loop_
 _symmetry_equiv_pos_site_id
 _symmetry_equiv_pos_as_xyz
  1  'x, y, z'
loop_
 _atom_site_type_symbol
 _atom_site_label
 _atom_site_symmetry_multiplicity
 _atom_site_fract_x
 _atom_site_fract_y
 _atom_site_fract_z
 _atom_site_occupancy
  Dy  Dy0  1  0.000000  0.322674  0.414729  1
  Dy  Dy1  1  0.000000  0.679783  0.588174  1
  Dy  Dy2  1  0.000000  0.822280  0.083652  1
  Dy  Dy3  1  0.000000  0.176754  0.913279  1
  Dy  Dy4  1  0.000000  0.943227  0.371692  1
  Dy  Dy5  1  0.000000  0.055996  0.627892  1
  Er  Er6  1  0.000000  0.442988  0.127596  1
  Er  Er7  1  0.000000  0.556523  0.872903  1
  Re  Re8  1  0.000000  0.861838  0.821680  1
  B  B9  1  0.500000  0.553544  0.432986  1
  B  B10  1  0.500000  0.446575  0.567351  1
  B  B11  1  0.500000  0.053873  0.067276  1
  B  B12  1  0.500000  0.946871  0.933183  1
  B  B13  1  0.500000  0.747786  0.419212  1
  B  B14  1  0.500000  0.252288  0.580613  1
  B  B15  1  0.500000  0.248645  0.080734  1
  B  B16  1  0.500000  0.751011  0.919267  1
  B  B17  1  0.500000  0.789777  0.265972  1
  B  B18  1  0.500000  0.209791  0.733326  1
  B  B19  1  0.500000  0.291387  0.233585  1
  B  B20  1  0.500000  0.708035  0.766431  1
  B  B21  1  0.500000  0.630318  0.185168  1
  B  B22  1  0.500000  0.369176  0.814465  1
  B  B23  1  0.500000  0.132033  0.314418  1
  B  B24  1  0.500000  0.868303  0.685934  1
  B  B25  1  0.500000  0.983717  0.212444  1
  B  B26  1  0.500000  0.017346  0.787488  1
  B  B27  1  0.500000  0.482663  0.287312  1
  B  B28  1  0.500000  0.517288  0.713254  1
  B  B29  1  0.500000  0.604376  0.029688  1
  B  B30  1  0.500000  0.394020  0.970921  1
  B  B31  1  0.500000  0.107855  0.469786  1
  B  B32  1  0.500000  0.892753  0.529177  1
  Os  Os33  1  0.000000  0.636650  0.321045  1
  Os  Os34  1  0.000000  0.363342  0.678469  1
  Os  Os35  1  0.000000  0.138513  0.178897  1
