# generated using pymatgen
data_DyHo3CrOsC4
_symmetry_space_group_name_H-M   'P 1'
_cell_length_a   5.05051000
_cell_length_b   6.46614210
_cell_length_c   9.75883827
_cell_angle_alpha   90.12720668
_cell_angle_beta   90.00000000
_cell_angle_gamma   90.00000000
_symmetry_Int_Tables_number   1
_chemical_formula_structural   DyHo3CrOsC4
_chemical_formula_sum   'Dy2 Ho6 Cr2 Os2 C8'
_cell_volume   318.69667338
_cell_formula_units_Z   2
loop_
 _symmetry_equiv_pos_site_id
 _symmetry_equiv_pos_as_xyz
  1  'x, y, z'
loop_
 _atom_site_type_symbol
 _atom_site_label
 _atom_site_symmetry_multiplicity
 _atom_site_fract_x
 _atom_site_fract_y
 _atom_site_fract_z
 _atom_site_occupancy
  Dy  Dy0  1  0.750000  0.972547  0.715828  1
  Dy  Dy1  1  0.250000  0.027453  0.284172  1
  Ho  Ho2  1  0.250000  0.682332  0.558450  1
  Ho  Ho3  1  0.750000  0.317668  0.441550  1
  Ho  Ho4  1  0.750000  0.821620  0.054319  1
  Ho  Ho5  1  0.250000  0.178380  0.945681  1
  Ho  Ho6  1  0.250000  0.530942  0.215898  1
  Ho  Ho7  1  0.750000  0.469058  0.784102  1
  Cr  Cr8  1  0.250000  0.724748  0.861763  1
  Cr  Cr9  1  0.750000  0.275252  0.138237  1
  Os  Os10  1  0.750000  0.775721  0.362466  1
  Os  Os11  1  0.250000  0.224279  0.637534  1
  C  C12  1  0.250000  0.463586  0.763673  1
  C  C13  1  0.750000  0.536414  0.236327  1
  C  C14  1  0.750000  0.046387  0.255578  1
  C  C15  1  0.250000  0.953613  0.744422  1
  C  C16  1  0.250000  0.813280  0.039915  1
  C  C17  1  0.750000  0.186720  0.960085  1
  C  C18  1  0.750000  0.677687  0.548293  1
  C  C19  1  0.250000  0.322313  0.451707  1
