# generated using pymatgen
data_Tm3Mg2InGa2Ag
_symmetry_space_group_name_H-M   'P 1'
_cell_length_a   7.23929255
_cell_length_b   7.24418094
_cell_length_c   4.40119300
_cell_angle_alpha   90.00000000
_cell_angle_beta   90.00000000
_cell_angle_gamma   120.02233848
_symmetry_Int_Tables_number   1
_chemical_formula_structural   Tm3Mg2InGa2Ag
_chemical_formula_sum   'Tm3 Mg2 In1 Ga2 Ag1'
_cell_volume   199.84287074
_cell_formula_units_Z   1
loop_
 _symmetry_equiv_pos_site_id
 _symmetry_equiv_pos_as_xyz
  1  'x, y, z'
loop_
 _atom_site_type_symbol
 _atom_site_label
 _atom_site_symmetry_multiplicity
 _atom_site_fract_x
 _atom_site_fract_y
 _atom_site_fract_z
 _atom_site_occupancy
  Tm  Tm0  1  0.000000  0.573897  0.000000  1
  Tm  Tm1  1  0.425524  0.424660  0.000000  1
  Tm  Tm2  1  0.574476  0.999136  0.000000  1
  Mg  Mg3  1  0.755228  0.754982  0.500000  1
  Mg  Mg4  1  0.244772  0.999753  0.500000  1
  In  In5  1  0.000000  0.248605  0.500000  1
  Ga  Ga6  1  0.663925  0.333993  0.500000  1
  Ga  Ga7  1  0.336075  0.670069  0.500000  1
  Ag  Ag8  1  0.000000  0.994906  0.000000  1
