# generated using pymatgen
data_Pr7NdZnPd24
_symmetry_space_group_name_H-M   'P 1'
_cell_length_a   8.54120538
_cell_length_b   8.54120476
_cell_length_c   8.54120500
_cell_angle_alpha   89.98292102
_cell_angle_beta   90.01707898
_cell_angle_gamma   90.01707736
_symmetry_Int_Tables_number   1
_chemical_formula_structural   Pr7NdZnPd24
_chemical_formula_sum   'Pr7 Nd1 Zn1 Pd24'
_cell_volume   623.09947598
_cell_formula_units_Z   1
loop_
 _symmetry_equiv_pos_site_id
 _symmetry_equiv_pos_as_xyz
  1  'x, y, z'
loop_
 _atom_site_type_symbol
 _atom_site_label
 _atom_site_symmetry_multiplicity
 _atom_site_fract_x
 _atom_site_fract_y
 _atom_site_fract_z
 _atom_site_occupancy
  Pr  Pr0  1  0.250468  0.250515  0.250515  1
  Pr  Pr1  1  0.749449  0.749459  0.749459  1
  Pr  Pr2  1  0.749485  0.749532  0.250515  1
  Pr  Pr3  1  0.749485  0.250515  0.749532  1
  Pr  Pr4  1  0.250541  0.250551  0.749459  1
  Pr  Pr5  1  0.250541  0.749459  0.250551  1
  Pr  Pr6  1  0.250565  0.749435  0.749435  1
  Nd  Nd7  1  0.749277  0.250723  0.250723  1
  Zn  Zn8  1  0.000025  0.999975  0.999975  1
  Pd  Pd9  1  0.262357  0.500014  0.000043  1
  Pd  Pd10  1  0.737639  0.499779  0.000141  1
  Pd  Pd11  1  0.999859  0.262361  0.499779  1
  Pd  Pd12  1  0.500221  0.262361  0.000141  1
  Pd  Pd13  1  0.999957  0.737643  0.500014  1
  Pd  Pd14  1  0.499986  0.737643  0.000043  1
  Pd  Pd15  1  0.500221  0.000141  0.262361  1
  Pd  Pd16  1  0.262357  0.000043  0.500014  1
  Pd  Pd17  1  0.499986  0.000043  0.737643  1
  Pd  Pd18  1  0.737639  0.000141  0.499779  1
  Pd  Pd19  1  0.999859  0.499779  0.262361  1
  Pd  Pd20  1  0.999957  0.500014  0.737643  1
  Pd  Pd21  1  0.253481  0.499952  0.499952  1
  Pd  Pd22  1  0.746521  0.499854  0.499854  1
  Pd  Pd23  1  0.500146  0.253479  0.499854  1
  Pd  Pd24  1  0.500048  0.746519  0.499952  1
  Pd  Pd25  1  0.500146  0.499854  0.253479  1
  Pd  Pd26  1  0.500048  0.499952  0.746519  1
  Pd  Pd27  1  0.297918  0.000006  0.000006  1
  Pd  Pd28  1  0.702156  0.000166  0.000166  1
  Pd  Pd29  1  0.999834  0.297844  0.000166  1
  Pd  Pd30  1  0.999994  0.702082  0.000006  1
  Pd  Pd31  1  0.999834  0.000166  0.297844  1
  Pd  Pd32  1  0.999994  0.000006  0.702082  1
