# generated using pymatgen
data_Ce3Dy(AlRu2)2
_symmetry_space_group_name_H-M   'P 1'
_cell_length_a   5.82774286
_cell_length_b   5.82774338
_cell_length_c   6.90408438
_cell_angle_alpha   88.21309935
_cell_angle_beta   91.78689765
_cell_angle_gamma   118.91376861
_symmetry_Int_Tables_number   1
_chemical_formula_structural   Ce3Dy(AlRu2)2
_chemical_formula_sum   'Ce3 Dy1 Al2 Ru4'
_cell_volume   205.11762482
_cell_formula_units_Z   1
loop_
 _symmetry_equiv_pos_site_id
 _symmetry_equiv_pos_as_xyz
  1  'x, y, z'
loop_
 _atom_site_type_symbol
 _atom_site_label
 _atom_site_symmetry_multiplicity
 _atom_site_fract_x
 _atom_site_fract_y
 _atom_site_fract_z
 _atom_site_occupancy
  Ce  Ce0  1  0.661623  0.338377  0.927863  1
  Ce  Ce1  1  0.163189  0.836811  0.581021  1
  Ce  Ce2  1  0.836654  0.163346  0.422861  1
  Dy  Dy3  1  0.345523  0.654477  0.091654  1
  Al  Al4  1  0.995265  0.004735  0.001787  1
  Al  Al5  1  0.502579  0.497421  0.501749  1
  Ru  Ru6  1  0.864218  0.631357  0.250311  1
  Ru  Ru7  1  0.635182  0.872876  0.736222  1
  Ru  Ru8  1  0.127124  0.364818  0.736222  1
  Ru  Ru9  1  0.368643  0.135782  0.250311  1
