# generated using pymatgen
data_ErZn6Ag5Au
_symmetry_space_group_name_H-M   'P 1'
_cell_length_a   7.06104061
_cell_length_b   7.06103926
_cell_length_c   7.06103948
_cell_angle_alpha   97.71616747
_cell_angle_beta   97.69791386
_cell_angle_gamma   137.03617241
_symmetry_Int_Tables_number   1
_chemical_formula_structural   ErZn6Ag5Au
_chemical_formula_sum   'Er1 Zn6 Ag5 Au1'
_cell_volume   223.26824471
_cell_formula_units_Z   1
loop_
 _symmetry_equiv_pos_site_id
 _symmetry_equiv_pos_as_xyz
  1  'x, y, z'
loop_
 _atom_site_type_symbol
 _atom_site_label
 _atom_site_symmetry_multiplicity
 _atom_site_fract_x
 _atom_site_fract_y
 _atom_site_fract_z
 _atom_site_occupancy
  Er  Er0  1  0.005461  0.000000  0.005461  1
  Zn  Zn1  1  0.999883  0.499565  0.000634  1
  Zn  Zn2  1  0.501069  0.500435  0.500318  1
  Zn  Zn3  1  0.999883  0.999249  0.500318  1
  Zn  Zn4  1  0.501069  0.000751  0.000634  1
  Zn  Zn5  1  0.499080  0.723639  0.222720  1
  Zn  Zn6  1  0.499080  0.276361  0.775441  1
  Ag  Ag7  1  0.348981  0.000000  0.348981  1
  Ag  Ag8  1  0.000485  0.655570  0.656055  1
  Ag  Ag9  1  0.000485  0.344430  0.344915  1
  Ag  Ag10  1  0.654265  0.000000  0.654265  1
  Ag  Ag11  1  0.300836  0.500000  0.800836  1
  Au  Au12  1  0.689423  0.500000  0.189423  1
