# generated using pymatgen
data_Na4Sr2(IrO4)3
_symmetry_space_group_name_H-M   'P 1'
_cell_length_a   9.75350541
_cell_length_b   9.75760753
_cell_length_c   3.23957900
_cell_angle_alpha   90.00000000
_cell_angle_beta   90.00000000
_cell_angle_gamma   120.01913756
_symmetry_Int_Tables_number   1
_chemical_formula_structural   Na4Sr2(IrO4)3
_chemical_formula_sum   'Na4 Sr2 Ir3 O12'
_cell_volume   266.95588483
_cell_formula_units_Z   1
loop_
 _symmetry_equiv_pos_site_id
 _symmetry_equiv_pos_as_xyz
  1  'x, y, z'
loop_
 _atom_site_type_symbol
 _atom_site_label
 _atom_site_symmetry_multiplicity
 _atom_site_fract_x
 _atom_site_fract_y
 _atom_site_fract_z
 _atom_site_occupancy
  Na  Na0  1  0.999932  0.000035  0.000000  1
  Na  Na1  1  0.695776  0.000069  0.500000  1
  Na  Na2  1  0.999971  0.695668  0.500000  1
  Na  Na3  1  0.304191  0.304321  0.500000  1
  Sr  Sr4  1  0.333272  0.666548  0.500000  1
  Sr  Sr5  1  0.666770  0.333365  0.500000  1
  Ir  Ir6  1  0.322348  0.000006  0.000000  1
  Ir  Ir7  1  0.999993  0.322402  0.000000  1
  Ir  Ir8  1  0.677567  0.677576  0.000000  1
  O  O9  1  0.192106  0.999967  0.500000  1
  O  O10  1  0.000008  0.192259  0.500000  1
  O  O11  1  0.807761  0.807699  0.500000  1
  O  O12  1  0.449522  0.000051  0.500000  1
  O  O13  1  0.000000  0.449243  0.500000  1
  O  O14  1  0.550667  0.550732  0.500000  1
  O  O15  1  0.225721  0.435925  0.000000  1
  O  O16  1  0.564127  0.789752  0.000000  1
  O  O17  1  0.436048  0.225890  0.000000  1
  O  O18  1  0.210165  0.774111  0.000000  1
  O  O19  1  0.789773  0.564141  0.000000  1
  O  O20  1  0.774283  0.210241  0.000000  1
