# generated using pymatgen
data_DyHo2Th11Os6
_symmetry_space_group_name_H-M   'P 1'
_cell_length_a   9.89255447
_cell_length_b   9.96913297
_cell_length_c   6.36979729
_cell_angle_alpha   90.02847082
_cell_angle_beta   90.03177396
_cell_angle_gamma   120.14670519
_symmetry_Int_Tables_number   1
_chemical_formula_structural   DyHo2Th11Os6
_chemical_formula_sum   'Dy1 Ho2 Th11 Os6'
_cell_volume   543.22271840
_cell_formula_units_Z   1
loop_
 _symmetry_equiv_pos_site_id
 _symmetry_equiv_pos_as_xyz
  1  'x, y, z'
loop_
 _atom_site_type_symbol
 _atom_site_label
 _atom_site_symmetry_multiplicity
 _atom_site_fract_x
 _atom_site_fract_y
 _atom_site_fract_z
 _atom_site_occupancy
  Dy  Dy0  1  0.928171  0.463541  0.799928  1
  Ho  Ho1  1  0.460449  0.536400  0.299294  1
  Ho  Ho2  1  0.073555  0.535820  0.300948  1
  Th  Th3  1  0.252436  0.128394  0.509829  1
  Th  Th4  1  0.540710  0.080062  0.796192  1
  Th  Th5  1  0.746148  0.872374  0.013800  1
  Th  Th6  1  0.667313  0.333851  0.273848  1
  Th  Th7  1  0.126748  0.870033  0.009583  1
  Th  Th8  1  0.460682  0.918137  0.295771  1
  Th  Th9  1  0.537313  0.465920  0.801010  1
  Th  Th10  1  0.874411  0.130083  0.512280  1
  Th  Th11  1  0.125213  0.255103  0.014773  1
  Th  Th12  1  0.873530  0.745727  0.509486  1
  Th  Th13  1  0.332334  0.665277  0.769897  1
  Os  Os14  1  0.812708  0.628617  0.047373  1
  Os  Os15  1  0.813246  0.183195  0.046679  1
  Os  Os16  1  0.630135  0.813802  0.545879  1
  Os  Os17  1  0.371386  0.187185  0.041686  1
  Os  Os18  1  0.185928  0.369518  0.552707  1
  Os  Os19  1  0.187585  0.816961  0.543033  1
