# generated using pymatgen
data_Tm5CS4
_symmetry_space_group_name_H-M   'P 1'
_cell_length_a   6.56139504
_cell_length_b   6.56143305
_cell_length_c   6.56139900
_cell_angle_alpha   99.48082520
_cell_angle_beta   99.47995106
_cell_angle_gamma   132.11206488
_symmetry_Int_Tables_number   1
_chemical_formula_structural   Tm5CS4
_chemical_formula_sum   'Tm5 C1 S4'
_cell_volume   191.52114246
_cell_formula_units_Z   1
loop_
 _symmetry_equiv_pos_site_id
 _symmetry_equiv_pos_as_xyz
  1  'x, y, z'
loop_
 _atom_site_type_symbol
 _atom_site_label
 _atom_site_symmetry_multiplicity
 _atom_site_fract_x
 _atom_site_fract_y
 _atom_site_fract_z
 _atom_site_occupancy
  Tm  Tm0  1  0.407462  0.770798  0.178258  1
  Tm  Tm1  1  0.000000  0.000000  0.000000  1
  Tm  Tm2  1  0.592538  0.229202  0.821742  1
  Tm  Tm3  1  0.229210  0.407464  0.636671  1
  Tm  Tm4  1  0.770790  0.592536  0.363329  1
  C  C5  1  0.500000  0.500000  0.000000  1
  S  S6  1  0.093728  0.695649  0.789401  1
  S  S7  1  0.695665  0.906274  0.601951  1
  S  S8  1  0.304335  0.093726  0.398049  1
  S  S9  1  0.906272  0.304351  0.210599  1
