# generated using pymatgen
data_Sr8Zn3CuSi12
_symmetry_space_group_name_H-M   'P 1'
_cell_length_a   11.79920130
_cell_length_b   10.23381271
_cell_length_c   8.30400300
_cell_angle_alpha   78.28913774
_cell_angle_beta   58.03903754
_cell_angle_gamma   43.65298250
_symmetry_Int_Tables_number   1
_chemical_formula_structural   Sr8Zn3CuSi12
_chemical_formula_sum   'Sr8 Zn3 Cu1 Si12'
_cell_volume   558.80506338
_cell_formula_units_Z   1
loop_
 _symmetry_equiv_pos_site_id
 _symmetry_equiv_pos_as_xyz
  1  'x, y, z'
loop_
 _atom_site_type_symbol
 _atom_site_label
 _atom_site_symmetry_multiplicity
 _atom_site_fract_x
 _atom_site_fract_y
 _atom_site_fract_z
 _atom_site_occupancy
  Sr  Sr0  1  0.126122  0.128815  0.371941  1
  Sr  Sr1  1  0.876431  0.873443  0.124328  1
  Sr  Sr2  1  0.123547  0.126900  0.877324  1
  Sr  Sr3  1  0.372533  0.373559  0.125337  1
  Sr  Sr4  1  0.625510  0.620941  0.375349  1
  Sr  Sr5  1  0.375457  0.377490  0.626064  1
  Sr  Sr6  1  0.627885  0.628646  0.872081  1
  Sr  Sr7  1  0.871966  0.870991  0.627739  1
  Zn  Zn8  1  0.167142  0.833308  0.167546  1
  Zn  Zn9  1  0.417155  0.083768  0.417386  1
  Zn  Zn10  1  0.833334  0.166607  0.832341  1
  Cu  Cu11  1  0.082988  0.417415  0.083055  1
  Si  Si12  1  0.334620  0.661262  0.830017  1
  Si  Si13  1  0.169346  0.834178  0.663534  1
  Si  Si14  1  0.833635  0.169065  0.333277  1
  Si  Si15  1  0.660813  0.334024  0.174472  1
  Si  Si16  1  0.919129  0.583189  0.411197  1
  Si  Si17  1  0.076442  0.420917  0.587976  1
  Si  Si18  1  0.409195  0.087168  0.920194  1
  Si  Si19  1  0.920797  0.579755  0.919922  1
  Si  Si20  1  0.667583  0.333258  0.665848  1
  Si  Si21  1  0.333290  0.667325  0.333645  1
  Si  Si22  1  0.585960  0.914513  0.584947  1
  Si  Si23  1  0.589118  0.913463  0.074477  1
