# generated using pymatgen
data_PrCd(NiPt)2
_symmetry_space_group_name_H-M   'P 1'
_cell_length_a   5.18060428
_cell_length_b   5.25652872
_cell_length_c   5.25652798
_cell_angle_alpha   62.48006890
_cell_angle_beta   60.47665489
_cell_angle_gamma   60.47666382
_symmetry_Int_Tables_number   1
_chemical_formula_structural   PrCd(NiPt)2
_chemical_formula_sum   'Pr1 Cd1 Ni2 Pt2'
_cell_volume   103.74320514
_cell_formula_units_Z   1
loop_
 _symmetry_equiv_pos_site_id
 _symmetry_equiv_pos_as_xyz
  1  'x, y, z'
loop_
 _atom_site_type_symbol
 _atom_site_label
 _atom_site_symmetry_multiplicity
 _atom_site_fract_x
 _atom_site_fract_y
 _atom_site_fract_z
 _atom_site_occupancy
  Pr  Pr0  1  0.247625  0.252375  0.252375  1
  Cd  Cd1  1  0.006380  0.993620  0.993620  1
  Ni  Ni2  1  0.121889  0.627689  0.627689  1
  Ni  Ni3  1  0.622732  0.627689  0.627689  1
  Pt  Pt4  1  0.625687  0.626177  0.122450  1
  Pt  Pt5  1  0.625687  0.122450  0.626177  1
