# generated using pymatgen
data_ErInSn5Rh4
_symmetry_space_group_name_H-M   'P 1'
_cell_length_a   6.93184752
_cell_length_b   7.01827028
_cell_length_c   6.94720052
_cell_angle_alpha   120.32396636
_cell_angle_beta   119.91177743
_cell_angle_gamma   90.02597434
_symmetry_Int_Tables_number   1
_chemical_formula_structural   ErInSn5Rh4
_chemical_formula_sum   'Er1 In1 Sn5 Rh4'
_cell_volume   238.07481040
_cell_formula_units_Z   1
loop_
 _symmetry_equiv_pos_site_id
 _symmetry_equiv_pos_as_xyz
  1  'x, y, z'
loop_
 _atom_site_type_symbol
 _atom_site_label
 _atom_site_symmetry_multiplicity
 _atom_site_fract_x
 _atom_site_fract_y
 _atom_site_fract_z
 _atom_site_occupancy
  Er  Er0  1  0.000055  0.998979  0.000000  1
  In  In1  1  0.461819  0.124249  0.000000  1
  Sn  Sn2  1  0.131385  0.455917  0.000000  1
  Sn  Sn3  1  0.870809  0.871971  0.331300  1
  Sn  Sn4  1  0.499920  0.002430  0.501588  1
  Sn  Sn5  1  0.998332  0.500842  0.498412  1
  Sn  Sn6  1  0.539509  0.540671  0.668701  1
  Rh  Rh7  1  0.760967  0.395108  0.000000  1
  Rh  Rh8  1  0.388413  0.753192  0.000000  1
  Rh  Rh9  1  0.611832  0.615758  0.374874  1
  Rh  Rh10  1  0.236957  0.240884  0.625127  1
