# generated using pymatgen
data_Nb7B8OsRu5
_symmetry_space_group_name_H-M   'P 1'
_cell_length_a   9.62596812
_cell_length_b   9.62878126
_cell_length_c   3.12698900
_cell_angle_alpha   90.00000000
_cell_angle_beta   90.00000000
_cell_angle_gamma   120.04548477
_symmetry_Int_Tables_number   1
_chemical_formula_structural   Nb7B8OsRu5
_chemical_formula_sum   'Nb7 B8 Os1 Ru5'
_cell_volume   250.88430311
_cell_formula_units_Z   1
loop_
 _symmetry_equiv_pos_site_id
 _symmetry_equiv_pos_as_xyz
  1  'x, y, z'
loop_
 _atom_site_type_symbol
 _atom_site_label
 _atom_site_symmetry_multiplicity
 _atom_site_fract_x
 _atom_site_fract_y
 _atom_site_fract_z
 _atom_site_occupancy
  Nb  Nb0  1  0.999405  0.999568  0.000000  1
  Nb  Nb1  1  0.275850  0.914498  0.000000  1
  Nb  Nb2  1  0.638183  0.724487  0.000000  1
  Nb  Nb3  1  0.085531  0.361293  0.000000  1
  Nb  Nb4  1  0.724346  0.085890  0.000000  1
  Nb  Nb5  1  0.361077  0.275689  0.000000  1
  Nb  Nb6  1  0.915595  0.639441  0.000000  1
  B  B7  1  0.333179  0.666649  0.000000  1
  B  B8  1  0.666324  0.333473  0.000000  1
  B  B9  1  0.846887  0.780895  0.500000  1
  B  B10  1  0.935157  0.152579  0.500000  1
  B  B11  1  0.217544  0.064931  0.500000  1
  B  B12  1  0.151944  0.217617  0.500000  1
  B  B13  1  0.065880  0.847914  0.500000  1
  B  B14  1  0.781634  0.935179  0.500000  1
  Os  Os15  1  0.640219  0.486342  0.500000  1
  Ru  Ru16  1  0.845995  0.359682  0.500000  1
  Ru  Ru17  1  0.514537  0.153965  0.500000  1
  Ru  Ru18  1  0.360699  0.514542  0.500000  1
  Ru  Ru19  1  0.154181  0.639184  0.500000  1
  Ru  Ru20  1  0.485836  0.846181  0.500000  1
