# generated using pymatgen
data_TbCeDy(InNi)3
_symmetry_space_group_name_H-M   'P 1'
_cell_length_a   7.48943612
_cell_length_b   7.42515978
_cell_length_c   3.88443800
_cell_angle_alpha   90.00000000
_cell_angle_beta   90.00000000
_cell_angle_gamma   120.26648426
_symmetry_Int_Tables_number   1
_chemical_formula_structural   TbCeDy(InNi)3
_chemical_formula_sum   'Tb1 Ce1 Dy1 In3 Ni3'
_cell_volume   186.56977034
_cell_formula_units_Z   1
loop_
 _symmetry_equiv_pos_site_id
 _symmetry_equiv_pos_as_xyz
  1  'x, y, z'
loop_
 _atom_site_type_symbol
 _atom_site_label
 _atom_site_symmetry_multiplicity
 _atom_site_fract_x
 _atom_site_fract_y
 _atom_site_fract_z
 _atom_site_occupancy
  Tb  Tb0  1  0.411493  0.409908  0.000000  1
  Ce  Ce1  1  0.585535  0.000030  0.000000  1
  Dy  Dy2  1  0.001624  0.590282  0.000000  1
  In  In3  1  0.748647  0.743313  0.500000  1
  In  In4  1  0.005049  0.256928  0.500000  1
  In  In5  1  0.245469  0.999649  0.500000  1
  Ni  Ni6  1  0.343861  0.680557  0.500000  1
  Ni  Ni7  1  0.994547  0.999791  0.000000  1
  Ni  Ni8  1  0.663775  0.319543  0.500000  1
