# generated using pymatgen
data_Dy5As3P9Ir9Ru10
_symmetry_space_group_name_H-M   'P 1'
_cell_length_a   12.73724986
_cell_length_b   12.70725311
_cell_length_c   3.98022200
_cell_angle_alpha   90.00000000
_cell_angle_beta   90.00000000
_cell_angle_gamma   119.85992152
_symmetry_Int_Tables_number   1
_chemical_formula_structural   Dy5As3P9Ir9Ru10
_chemical_formula_sum   'Dy5 As3 P9 Ir9 Ru10'
_cell_volume   558.69728939
_cell_formula_units_Z   1
loop_
 _symmetry_equiv_pos_site_id
 _symmetry_equiv_pos_as_xyz
  1  'x, y, z'
loop_
 _atom_site_type_symbol
 _atom_site_label
 _atom_site_symmetry_multiplicity
 _atom_site_fract_x
 _atom_site_fract_y
 _atom_site_fract_z
 _atom_site_occupancy
  Dy  Dy0  1  0.667590  0.332517  0.000000  1
  Dy  Dy1  1  0.333542  0.666912  0.000000  1
  Dy  Dy2  1  0.815927  0.000755  0.500000  1
  Dy  Dy3  1  0.181982  0.184419  0.500000  1
  Dy  Dy4  1  0.000376  0.817125  0.500000  1
  As  As5  1  0.634378  0.997423  0.000000  1
  As  As6  1  0.362629  0.367849  0.000000  1
  As  As7  1  0.005410  0.637373  0.000000  1
  P  P8  1  0.689521  0.519841  0.500000  1
  P  P9  1  0.830523  0.307081  0.500000  1
  P  P10  1  0.313208  0.830631  0.500000  1
  P  P11  1  0.517323  0.687057  0.500000  1
  P  P12  1  0.181155  0.001441  0.000000  1
  P  P13  1  0.818846  0.818848  0.000000  1
  P  P14  1  0.996413  0.181612  0.000000  1
  P  P15  1  0.479315  0.167371  0.500000  1
  P  P16  1  0.169964  0.483123  0.500000  1
  Ir  Ir17  1  0.622090  0.797039  0.000000  1
  Ir  Ir18  1  0.176033  0.378278  0.000000  1
  Ir  Ir19  1  0.376172  0.179804  0.000000  1
  Ir  Ir20  1  0.201857  0.825595  0.000000  1
  Ir  Ir21  1  0.803602  0.623496  0.000000  1
  Ir  Ir22  1  0.864683  0.501785  0.500000  1
  Ir  Ir23  1  0.497322  0.360750  0.500000  1
  Ir  Ir24  1  0.637221  0.133116  0.500000  1
  Ir  Ir25  1  0.999600  0.000417  0.000000  1
  Ru  Ru26  1  0.131760  0.640483  0.500000  1
  Ru  Ru27  1  0.361127  0.491940  0.500000  1
  Ru  Ru28  1  0.507513  0.867586  0.500000  1
  Ru  Ru29  1  0.715355  0.713394  0.500000  1
  Ru  Ru30  1  0.000474  0.286031  0.500000  1
  Ru  Ru31  1  0.447750  0.002106  0.000000  1
  Ru  Ru32  1  0.555289  0.550155  0.000000  1
  Ru  Ru33  1  0.997757  0.446195  0.000000  1
  Ru  Ru34  1  0.820418  0.198663  0.000000  1
  Ru  Ru35  1  0.285873  0.001788  0.500000  1
