# generated using pymatgen
data_Tb4Al18Ni5Ru
_symmetry_space_group_name_H-M   'P 1'
_cell_length_a   7.45981282
_cell_length_b   7.45980707
_cell_length_c   9.33361173
_cell_angle_alpha   90.11500917
_cell_angle_beta   90.11515600
_cell_angle_gamma   119.61382960
_symmetry_Int_Tables_number   1
_chemical_formula_structural   Tb4Al18Ni5Ru
_chemical_formula_sum   'Tb4 Al18 Ni5 Ru1'
_cell_volume   451.55356950
_cell_formula_units_Z   1
loop_
 _symmetry_equiv_pos_site_id
 _symmetry_equiv_pos_as_xyz
  1  'x, y, z'
loop_
 _atom_site_type_symbol
 _atom_site_label
 _atom_site_symmetry_multiplicity
 _atom_site_fract_x
 _atom_site_fract_y
 _atom_site_fract_z
 _atom_site_occupancy
  Tb  Tb0  1  0.993804  0.669368  0.250137  1
  Tb  Tb1  1  0.006269  0.330586  0.749888  1
  Tb  Tb2  1  0.669414  0.993730  0.250113  1
  Tb  Tb3  1  0.330631  0.006195  0.749863  1
  Al  Al4  1  0.124511  0.125150  0.250240  1
  Al  Al5  1  0.874850  0.875488  0.749760  1
  Al  Al6  1  0.001350  0.333901  0.071736  1
  Al  Al7  1  0.002735  0.665999  0.929005  1
  Al  Al8  1  0.001613  0.666879  0.571988  1
  Al  Al9  1  0.333125  0.998391  0.428011  1
  Al  Al10  1  0.999218  0.334754  0.428150  1
  Al  Al11  1  0.665246  0.000782  0.571850  1
  Al  Al12  1  0.666099  0.998650  0.928265  1
  Al  Al13  1  0.333999  0.997263  0.070995  1
  Al  Al14  1  0.332110  0.333234  0.550827  1
  Al  Al15  1  0.666766  0.667891  0.449173  1
  Al  Al16  1  0.668016  0.667359  0.048119  1
  Al  Al17  1  0.332640  0.331983  0.951881  1
  Al  Al18  1  0.337866  0.551743  0.250195  1
  Al  Al19  1  0.661148  0.451243  0.748964  1
  Al  Al20  1  0.548756  0.338853  0.251038  1
  Al  Al21  1  0.448258  0.662132  0.749803  1
  Ni  Ni22  1  0.329761  0.670235  0.999996  1
  Ni  Ni23  1  0.328630  0.671370  0.500000  1
  Ni  Ni24  1  0.670877  0.329128  0.500000  1
  Ni  Ni25  1  0.000692  0.999307  0.000000  1
  Ni  Ni26  1  0.999515  0.000485  0.499999  1
  Ru  Ru27  1  0.672098  0.327901  0.000002  1
