# generated using pymatgen
data_Sr4Yb4Si3Sn
_symmetry_space_group_name_H-M   'P 1'
_cell_length_a   4.99494900
_cell_length_b   8.11637627
_cell_length_c   9.27311068
_cell_angle_alpha   89.49653035
_cell_angle_beta   90.00000000
_cell_angle_gamma   90.00000000
_symmetry_Int_Tables_number   1
_chemical_formula_structural   Sr4Yb4Si3Sn
_chemical_formula_sum   'Sr4 Yb4 Si3 Sn1'
_cell_volume   375.92560476
_cell_formula_units_Z   1
loop_
 _symmetry_equiv_pos_site_id
 _symmetry_equiv_pos_as_xyz
  1  'x, y, z'
loop_
 _atom_site_type_symbol
 _atom_site_label
 _atom_site_symmetry_multiplicity
 _atom_site_fract_x
 _atom_site_fract_y
 _atom_site_fract_z
 _atom_site_occupancy
  Sr  Sr0  1  0.750000  0.977887  0.675493  1
  Sr  Sr1  1  0.250000  0.023984  0.322341  1
  Sr  Sr2  1  0.750000  0.472842  0.817570  1
  Sr  Sr3  1  0.250000  0.516626  0.184878  1
  Yb  Yb4  1  0.750000  0.858418  0.082590  1
  Yb  Yb5  1  0.250000  0.157353  0.928695  1
  Yb  Yb6  1  0.750000  0.352927  0.427596  1
  Yb  Yb7  1  0.250000  0.642128  0.563516  1
  Si  Si8  1  0.750000  0.730831  0.393389  1
  Si  Si9  1  0.250000  0.266704  0.604306  1
  Si  Si10  1  0.750000  0.234132  0.110012  1
  Sn  Sn11  1  0.250000  0.766169  0.889614  1
