# generated using pymatgen
data_Hf3Zr3Ti4Ga5Ge
_symmetry_space_group_name_H-M   'P 1'
_cell_length_a   7.90264312
_cell_length_b   7.90954406
_cell_length_c   5.46091900
_cell_angle_alpha   90.00000000
_cell_angle_beta   90.00000000
_cell_angle_gamma   119.86939136
_symmetry_Int_Tables_number   1
_chemical_formula_structural   Hf3Zr3Ti4Ga5Ge
_chemical_formula_sum   'Hf3 Zr3 Ti4 Ga5 Ge1'
_cell_volume   295.99900939
_cell_formula_units_Z   1
loop_
 _symmetry_equiv_pos_site_id
 _symmetry_equiv_pos_as_xyz
  1  'x, y, z'
loop_
 _atom_site_type_symbol
 _atom_site_label
 _atom_site_symmetry_multiplicity
 _atom_site_fract_x
 _atom_site_fract_y
 _atom_site_fract_z
 _atom_site_occupancy
  Hf  Hf0  1  0.998262  0.756441  0.750000  1
  Hf  Hf1  1  0.755814  0.754476  0.250000  1
  Hf  Hf2  1  0.243962  0.245096  0.750000  1
  Zr  Zr3  1  0.242502  0.000044  0.250000  1
  Zr  Zr4  1  0.756254  0.999629  0.750000  1
  Zr  Zr5  1  0.000888  0.243462  0.250000  1
  Ti  Ti6  1  0.334270  0.667760  0.999851  1
  Ti  Ti7  1  0.666727  0.332272  0.999875  1
  Ti  Ti8  1  0.666727  0.332272  0.500125  1
  Ti  Ti9  1  0.334270  0.667760  0.500149  1
  Ga  Ga10  1  0.396849  0.000066  0.750000  1
  Ga  Ga11  1  0.999527  0.600380  0.250000  1
  Ga  Ga12  1  0.000832  0.401438  0.750000  1
  Ga  Ga13  1  0.401023  0.400646  0.250000  1
  Ga  Ga14  1  0.599866  0.598908  0.750000  1
  Ge  Ge15  1  0.602224  0.999350  0.250000  1
