# generated using pymatgen
data_Er10In3Fe
_symmetry_space_group_name_H-M   'P 1'
_cell_length_a   9.46458800
_cell_length_b   9.46458781
_cell_length_c   9.73401900
_cell_angle_alpha   90.00000000
_cell_angle_beta   90.00000000
_cell_angle_gamma   119.99999368
_symmetry_Int_Tables_number   1
_chemical_formula_structural   Er10In3Fe
_chemical_formula_sum   'Er20 In6 Fe2'
_cell_volume   755.13789907
_cell_formula_units_Z   2
loop_
 _symmetry_equiv_pos_site_id
 _symmetry_equiv_pos_as_xyz
  1  'x, y, z'
loop_
 _atom_site_type_symbol
 _atom_site_label
 _atom_site_symmetry_multiplicity
 _atom_site_fract_x
 _atom_site_fract_y
 _atom_site_fract_z
 _atom_site_occupancy
  Er  Er0  1  0.000000  0.000000  0.500000  1
  Er  Er1  1  0.000000  0.000000  0.000000  1
  Er  Er2  1  0.540094  0.459906  0.250000  1
  Er  Er3  1  0.540094  0.080188  0.250000  1
  Er  Er4  1  0.919812  0.459906  0.250000  1
  Er  Er5  1  0.459906  0.540094  0.750000  1
  Er  Er6  1  0.459906  0.919812  0.750000  1
  Er  Er7  1  0.080188  0.540094  0.750000  1
  Er  Er8  1  0.211687  0.788313  0.435519  1
  Er  Er9  1  0.211687  0.423376  0.435519  1
  Er  Er10  1  0.576624  0.788313  0.435519  1
  Er  Er11  1  0.788313  0.211687  0.564481  1
  Er  Er12  1  0.788313  0.576624  0.564481  1
  Er  Er13  1  0.423376  0.211687  0.564481  1
  Er  Er14  1  0.788313  0.211687  0.935519  1
  Er  Er15  1  0.788313  0.576624  0.935519  1
  Er  Er16  1  0.423376  0.211687  0.935519  1
  Er  Er17  1  0.211687  0.788313  0.064481  1
  Er  Er18  1  0.211687  0.423376  0.064481  1
  Er  Er19  1  0.576624  0.788313  0.064481  1
  In  In20  1  0.885029  0.114971  0.250000  1
  In  In21  1  0.885029  0.770059  0.250000  1
  In  In22  1  0.229941  0.114971  0.250000  1
  In  In23  1  0.114971  0.885029  0.750000  1
  In  In24  1  0.114971  0.229941  0.750000  1
  In  In25  1  0.770059  0.885029  0.750000  1
  Fe  Fe26  1  0.333333  0.666667  0.250000  1
  Fe  Fe27  1  0.666667  0.333333  0.750000  1
