# generated using pymatgen
data_Ca2YU5(ReB6)4
_symmetry_space_group_name_H-M   'P 1'
_cell_length_a   3.64297000
_cell_length_b   9.29574034
_cell_length_c   11.41775714
_cell_angle_alpha   89.96043838
_cell_angle_beta   90.00000000
_cell_angle_gamma   90.00000000
_symmetry_Int_Tables_number   1
_chemical_formula_structural   Ca2YU5(ReB6)4
_chemical_formula_sum   'Ca2 Y1 U5 Re4 B24'
_cell_volume   386.65201348
_cell_formula_units_Z   1
loop_
 _symmetry_equiv_pos_site_id
 _symmetry_equiv_pos_as_xyz
  1  'x, y, z'
loop_
 _atom_site_type_symbol
 _atom_site_label
 _atom_site_symmetry_multiplicity
 _atom_site_fract_x
 _atom_site_fract_y
 _atom_site_fract_z
 _atom_site_occupancy
  Ca  Ca0  1  0.000000  0.338174  0.408426  1
  Ca  Ca1  1  0.000000  0.661814  0.590676  1
  Y  Y2  1  0.000000  0.835375  0.092940  1
  U  U3  1  0.000000  0.163713  0.907340  1
  U  U4  1  0.000000  0.955503  0.396946  1
  U  U5  1  0.000000  0.043305  0.602779  1
  U  U6  1  0.000000  0.457706  0.104767  1
  U  U7  1  0.000000  0.543434  0.896150  1
  Re  Re8  1  0.000000  0.647655  0.316430  1
  Re  Re9  1  0.000000  0.350193  0.686788  1
  Re  Re10  1  0.000000  0.145315  0.176409  1
  Re  Re11  1  0.000000  0.858729  0.820660  1
  B  B12  1  0.500000  0.552357  0.430784  1
  B  B13  1  0.500000  0.446867  0.570553  1
  B  B14  1  0.500000  0.052909  0.067322  1
  B  B15  1  0.500000  0.950629  0.930429  1
  B  B16  1  0.500000  0.743082  0.422572  1
  B  B17  1  0.500000  0.256688  0.577846  1
  B  B18  1  0.500000  0.242604  0.075721  1
  B  B19  1  0.500000  0.756733  0.922442  1
  B  B20  1  0.500000  0.802273  0.275035  1
  B  B21  1  0.500000  0.196443  0.727087  1
  B  B22  1  0.500000  0.301717  0.224462  1
  B  B23  1  0.500000  0.698990  0.775362  1
  B  B24  1  0.500000  0.643692  0.188532  1
  B  B25  1  0.500000  0.354440  0.812584  1
  B  B26  1  0.500000  0.143550  0.310353  1
  B  B27  1  0.500000  0.856574  0.688919  1
  B  B28  1  0.500000  0.989763  0.219411  1
  B  B29  1  0.500000  0.013311  0.781477  1
  B  B30  1  0.500000  0.489583  0.280721  1
  B  B31  1  0.500000  0.510362  0.719618  1
  B  B32  1  0.500000  0.639875  0.038243  1
  B  B33  1  0.500000  0.356802  0.960661  1
  B  B34  1  0.500000  0.137598  0.461098  1
  B  B35  1  0.500000  0.862243  0.538453  1
