# generated using pymatgen
data_K3Sm(TaS4)2
_symmetry_space_group_name_H-M   'P 1'
_cell_length_a   9.05699362
_cell_length_b   10.34849670
_cell_length_c   11.23369187
_cell_angle_alpha   107.32012390
_cell_angle_beta   102.53282782
_cell_angle_gamma   113.83333276
_symmetry_Int_Tables_number   1
_chemical_formula_structural   K3Sm(TaS4)2
_chemical_formula_sum   'K6 Sm2 Ta4 S16'
_cell_volume   848.07976899
_cell_formula_units_Z   2
loop_
 _symmetry_equiv_pos_site_id
 _symmetry_equiv_pos_as_xyz
  1  'x, y, z'
loop_
 _atom_site_type_symbol
 _atom_site_label
 _atom_site_symmetry_multiplicity
 _atom_site_fract_x
 _atom_site_fract_y
 _atom_site_fract_z
 _atom_site_occupancy
  K  K0  1  0.000000  0.500000  0.000000  1
  K  K1  1  0.500000  0.500000  0.000000  1
  K  K2  1  0.253573  0.003573  0.007146  1
  K  K3  1  0.489367  0.739367  0.478734  1
  K  K4  1  0.510633  0.260633  0.521266  1
  K  K5  1  0.746427  0.996427  0.992855  1
  Sm  Sm6  1  0.991416  0.241416  0.482832  1
  Sm  Sm7  1  0.008584  0.758584  0.517168  1
  Ta  Ta8  1  0.746504  0.349378  0.253769  1
  Ta  Ta9  1  0.007265  0.904391  0.253769  1
  Ta  Ta10  1  0.992734  0.095609  0.746231  1
  Ta  Ta11  1  0.253496  0.650622  0.746231  1
  S  S12  1  0.644440  0.271172  0.026759  1
  S  S13  1  0.882320  0.755586  0.026759  1
  S  S14  1  0.656133  0.130740  0.294470  1
  S  S15  1  0.138337  0.163731  0.294470  1
  S  S16  1  0.043859  0.485839  0.352925  1
  S  S17  1  0.809066  0.867085  0.352925  1
  S  S18  1  0.651461  0.506659  0.358545  1
  S  S19  1  0.207085  0.851887  0.358545  1
  S  S20  1  0.792915  0.148113  0.641455  1
  S  S21  1  0.348540  0.493343  0.641455  1
  S  S22  1  0.190934  0.132915  0.647075  1
  S  S23  1  0.956141  0.514161  0.647075  1
  S  S24  1  0.861662  0.836269  0.705528  1
  S  S25  1  0.343867  0.869260  0.705528  1
  S  S26  1  0.117680  0.244413  0.973241  1
  S  S27  1  0.355561  0.728828  0.973241  1
