# generated using pymatgen
data_Ta4MnAl4V2Zn
_symmetry_space_group_name_H-M   'P 1'
_cell_length_a   4.97307354
_cell_length_b   5.02202356
_cell_length_c   8.34746500
_cell_angle_alpha   90.00000000
_cell_angle_beta   90.00000000
_cell_angle_gamma   119.61120872
_symmetry_Int_Tables_number   1
_chemical_formula_structural   Ta4MnAl4V2Zn
_chemical_formula_sum   'Ta4 Mn1 Al4 V2 Zn1'
_cell_volume   181.24958146
_cell_formula_units_Z   1
loop_
 _symmetry_equiv_pos_site_id
 _symmetry_equiv_pos_as_xyz
  1  'x, y, z'
loop_
 _atom_site_type_symbol
 _atom_site_label
 _atom_site_symmetry_multiplicity
 _atom_site_fract_x
 _atom_site_fract_y
 _atom_site_fract_z
 _atom_site_occupancy
  Ta  Ta0  1  0.667817  0.334293  0.305299  1
  Ta  Ta1  1  0.330916  0.661899  0.182890  1
  Ta  Ta2  1  0.330916  0.661899  0.817110  1
  Ta  Ta3  1  0.667817  0.334293  0.694701  1
  Mn  Mn4  1  0.347794  0.172214  0.000000  1
  Al  Al5  1  0.009032  0.000684  0.242776  1
  Al  Al6  1  0.009032  0.000684  0.757224  1
  Al  Al7  1  0.654672  0.833653  0.500000  1
  Al  Al8  1  0.167823  0.345753  0.500000  1
  V  V9  1  0.825101  0.648504  0.000000  1
  V  V10  1  0.822895  0.172542  0.000000  1
  Zn  Zn11  1  0.166229  0.833538  0.500000  1
