# generated using pymatgen
data_BaLi2Er2Al7
_symmetry_space_group_name_H-M   'P 1'
_cell_length_a   9.47652450
_cell_length_b   9.47652492
_cell_length_c   9.47652500
_cell_angle_alpha   34.53940493
_cell_angle_beta   34.53940123
_cell_angle_gamma   34.53939872
_symmetry_Int_Tables_number   1
_chemical_formula_structural   BaLi2Er2Al7
_chemical_formula_sum   'Ba1 Li2 Er2 Al7'
_cell_volume   244.07624319
_cell_formula_units_Z   1
loop_
 _symmetry_equiv_pos_site_id
 _symmetry_equiv_pos_as_xyz
  1  'x, y, z'
loop_
 _atom_site_type_symbol
 _atom_site_label
 _atom_site_symmetry_multiplicity
 _atom_site_fract_x
 _atom_site_fract_y
 _atom_site_fract_z
 _atom_site_occupancy
  Ba  Ba0  1  0.000000  0.000000  0.000000  1
  Li  Li1  1  0.664578  0.664578  0.664578  1
  Li  Li2  1  0.335422  0.335422  0.335422  1
  Er  Er3  1  0.859010  0.859010  0.859010  1
  Er  Er4  1  0.140990  0.140990  0.140990  1
  Al  Al5  1  0.409536  0.409536  0.921126  1
  Al  Al6  1  0.921126  0.409536  0.409536  1
  Al  Al7  1  0.409536  0.921126  0.409536  1
  Al  Al8  1  0.500000  0.500000  0.500000  1
  Al  Al9  1  0.590464  0.078874  0.590464  1
  Al  Al10  1  0.078874  0.590464  0.590464  1
  Al  Al11  1  0.590464  0.590464  0.078874  1
