# generated using pymatgen
data_Dy16Sc4(IrPt3)3
_symmetry_space_group_name_H-M   'P 1'
_cell_length_a   10.95552700
_cell_length_b   10.95552700
_cell_length_c   6.24233000
_cell_angle_alpha   90.00000000
_cell_angle_beta   90.00000000
_cell_angle_gamma   90.00000000
_symmetry_Int_Tables_number   1
_chemical_formula_structural   Dy16Sc4(IrPt3)3
_chemical_formula_sum   'Dy16 Sc4 Ir3 Pt9'
_cell_volume   749.22674325
_cell_formula_units_Z   1
loop_
 _symmetry_equiv_pos_site_id
 _symmetry_equiv_pos_as_xyz
  1  'x, y, z'
loop_
 _atom_site_type_symbol
 _atom_site_label
 _atom_site_symmetry_multiplicity
 _atom_site_fract_x
 _atom_site_fract_y
 _atom_site_fract_z
 _atom_site_occupancy
  Dy  Dy0  1  0.288940  0.086469  0.380626  1
  Dy  Dy1  1  0.288652  0.913258  0.875111  1
  Dy  Dy2  1  0.711348  0.086742  0.875111  1
  Dy  Dy3  1  0.711060  0.913531  0.380626  1
  Dy  Dy4  1  0.586742  0.788652  0.875111  1
  Dy  Dy5  1  0.586469  0.211060  0.380626  1
  Dy  Dy6  1  0.413531  0.788940  0.380626  1
  Dy  Dy7  1  0.413258  0.211348  0.875111  1
  Dy  Dy8  1  0.208855  0.414430  0.622305  1
  Dy  Dy9  1  0.208962  0.585773  0.122595  1
  Dy  Dy10  1  0.791038  0.414227  0.122595  1
  Dy  Dy11  1  0.791145  0.585570  0.622305  1
  Dy  Dy12  1  0.914227  0.708962  0.122595  1
  Dy  Dy13  1  0.914430  0.291145  0.622305  1
  Dy  Dy14  1  0.085570  0.708855  0.622305  1
  Dy  Dy15  1  0.085773  0.291038  0.122595  1
  Sc  Sc16  1  0.000000  0.000000  0.500014  1
  Sc  Sc17  1  0.000000  0.000000  0.000310  1
  Sc  Sc18  1  0.500000  0.500000  0.000310  1
  Sc  Sc19  1  0.500000  0.500000  0.500014  1
  Ir  Ir20  1  0.500000  0.000000  0.620471  1
  Ir  Ir21  1  0.000000  0.500000  0.877835  1
  Ir  Ir22  1  0.000000  0.500000  0.377812  1
  Pt  Pt23  1  0.852160  0.146967  0.249761  1
  Pt  Pt24  1  0.852465  0.852780  0.750145  1
  Pt  Pt25  1  0.147535  0.147220  0.750145  1
  Pt  Pt26  1  0.147840  0.853033  0.249761  1
  Pt  Pt27  1  0.647220  0.352465  0.750145  1
  Pt  Pt28  1  0.646967  0.647840  0.249761  1
  Pt  Pt29  1  0.353033  0.352160  0.249761  1
  Pt  Pt30  1  0.352780  0.647535  0.750145  1
  Pt  Pt31  1  0.500000  0.000000  0.121057  1
