# generated using pymatgen
data_La8LuHfIr6
_symmetry_space_group_name_H-M   'P 1'
_cell_length_a   11.36566200
_cell_length_b   11.36566200
_cell_length_c   6.46769900
_cell_angle_alpha   90.00000000
_cell_angle_beta   90.00000000
_cell_angle_gamma   90.00000000
_symmetry_Int_Tables_number   1
_chemical_formula_structural   La8LuHfIr6
_chemical_formula_sum   'La16 Lu2 Hf2 Ir12'
_cell_volume   835.48618515
_cell_formula_units_Z   2
loop_
 _symmetry_equiv_pos_site_id
 _symmetry_equiv_pos_as_xyz
  1  'x, y, z'
loop_
 _atom_site_type_symbol
 _atom_site_label
 _atom_site_symmetry_multiplicity
 _atom_site_fract_x
 _atom_site_fract_y
 _atom_site_fract_z
 _atom_site_occupancy
  La  La0  1  0.286730  0.086069  0.388699  1
  La  La1  1  0.286730  0.913931  0.888699  1
  La  La2  1  0.713270  0.086069  0.888699  1
  La  La3  1  0.713270  0.913931  0.388699  1
  La  La4  1  0.586215  0.785023  0.885136  1
  La  La5  1  0.586215  0.214977  0.385136  1
  La  La6  1  0.413785  0.785023  0.385136  1
  La  La7  1  0.413785  0.214977  0.885136  1
  La  La8  1  0.214977  0.413785  0.614864  1
  La  La9  1  0.214977  0.586215  0.114864  1
  La  La10  1  0.785023  0.413785  0.114864  1
  La  La11  1  0.785023  0.586215  0.614864  1
  La  La12  1  0.913931  0.713270  0.111301  1
  La  La13  1  0.913931  0.286730  0.611301  1
  La  La14  1  0.086069  0.713270  0.611301  1
  La  La15  1  0.086069  0.286730  0.111301  1
  Lu  Lu16  1  0.000000  0.000000  0.500000  1
  Lu  Lu17  1  0.000000  0.000000  0.000000  1
  Hf  Hf18  1  0.500000  0.500000  0.000000  1
  Hf  Hf19  1  0.500000  0.500000  0.500000  1
  Ir  Ir20  1  0.853637  0.146363  0.250000  1
  Ir  Ir21  1  0.853637  0.853637  0.750000  1
  Ir  Ir22  1  0.146363  0.146363  0.750000  1
  Ir  Ir23  1  0.146363  0.853637  0.250000  1
  Ir  Ir24  1  0.633953  0.366047  0.750000  1
  Ir  Ir25  1  0.633953  0.633953  0.250000  1
  Ir  Ir26  1  0.366047  0.366047  0.250000  1
  Ir  Ir27  1  0.366047  0.633953  0.750000  1
  Ir  Ir28  1  0.500000  0.000000  0.121906  1
  Ir  Ir29  1  0.500000  0.000000  0.621906  1
  Ir  Ir30  1  0.000000  0.500000  0.878094  1
  Ir  Ir31  1  0.000000  0.500000  0.378094  1
