# generated using pymatgen
data_LiTb6Ho10Tl2CdPt4
_symmetry_space_group_name_H-M   'P 1'
_cell_length_a   9.67120285
_cell_length_b   9.67120319
_cell_length_c   9.67120200
_cell_angle_alpha   59.97875405
_cell_angle_beta   59.97874603
_cell_angle_gamma   59.97875582
_symmetry_Int_Tables_number   1
_chemical_formula_structural   LiTb6Ho10Tl2CdPt4
_chemical_formula_sum   'Li1 Tb6 Ho10 Tl2 Cd1 Pt4'
_cell_volume   639.31833379
_cell_formula_units_Z   1
loop_
 _symmetry_equiv_pos_site_id
 _symmetry_equiv_pos_as_xyz
  1  'x, y, z'
loop_
 _atom_site_type_symbol
 _atom_site_label
 _atom_site_symmetry_multiplicity
 _atom_site_fract_x
 _atom_site_fract_y
 _atom_site_fract_z
 _atom_site_occupancy
  Li  Li0  1  0.571044  0.571220  0.571220  1
  Tb  Tb1  1  0.936299  0.564577  0.564577  1
  Tb  Tb2  1  0.561406  0.937633  0.937633  1
  Tb  Tb3  1  0.564799  0.935292  0.564055  1
  Tb  Tb4  1  0.939578  0.561171  0.935832  1
  Tb  Tb5  1  0.564799  0.564055  0.935292  1
  Tb  Tb6  1  0.939578  0.935832  0.561171  1
  Ho  Ho7  1  0.350277  0.350825  0.350825  1
  Ho  Ho8  1  0.351549  0.352108  0.945208  1
  Ho  Ho9  1  0.351549  0.945208  0.352108  1
  Ho  Ho10  1  0.944944  0.352113  0.352113  1
  Ho  Ho11  1  0.810228  0.191212  0.191212  1
  Ho  Ho12  1  0.187472  0.813401  0.813401  1
  Ho  Ho13  1  0.190385  0.810878  0.191369  1
  Ho  Ho14  1  0.813262  0.187782  0.813180  1
  Ho  Ho15  1  0.190385  0.191369  0.810878  1
  Ho  Ho16  1  0.813262  0.813180  0.187782  1
  Tl  Tl17  1  0.582791  0.586318  0.250964  1
  Tl  Tl18  1  0.582791  0.250964  0.586318  1
  Cd  Cd19  1  0.252381  0.583673  0.583673  1
  Pt  Pt20  1  0.143843  0.143836  0.143836  1
  Pt  Pt21  1  0.142960  0.143050  0.571360  1
  Pt  Pt22  1  0.142960  0.571360  0.143050  1
  Pt  Pt23  1  0.571458  0.142946  0.142946  1
