# generated using pymatgen
data_Tb2Er2AlGa23Pt8Rh
_symmetry_space_group_name_H-M   'P 1'
_cell_length_a   7.52294834
_cell_length_b   7.52190068
_cell_length_c   13.16863700
_cell_angle_alpha   84.54942673
_cell_angle_beta   100.90175870
_cell_angle_gamma   119.81568337
_symmetry_Int_Tables_number   1
_chemical_formula_structural   Tb2Er2AlGa23Pt8Rh
_chemical_formula_sum   'Tb2 Er2 Al1 Ga23 Pt8 Rh1'
_cell_volume   634.86464635
_cell_formula_units_Z   1
loop_
 _symmetry_equiv_pos_site_id
 _symmetry_equiv_pos_as_xyz
  1  'x, y, z'
loop_
 _atom_site_type_symbol
 _atom_site_label
 _atom_site_symmetry_multiplicity
 _atom_site_fract_x
 _atom_site_fract_y
 _atom_site_fract_z
 _atom_site_occupancy
  Tb  Tb0  1  0.730216  0.999565  0.190265  1
  Tb  Tb1  1  0.269757  0.000531  0.809706  1
  Er  Er2  1  0.061472  0.666664  0.190002  1
  Er  Er3  1  0.937625  0.333135  0.808962  1
  Al  Al4  1  0.146867  0.666518  0.441410  1
  Ga  Ga5  1  0.811167  0.872169  0.818848  1
  Ga  Ga6  1  0.188459  0.128399  0.181790  1
  Ga  Ga7  1  0.982173  0.669103  0.940518  1
  Ga  Ga8  1  0.018274  0.330900  0.059533  1
  Ga  Ga9  1  0.400156  0.662376  0.817187  1
  Ga  Ga10  1  0.599011  0.336669  0.183015  1
  Ga  Ga11  1  0.885054  0.665065  0.675002  1
  Ga  Ga12  1  0.114857  0.334430  0.324812  1
  Ga  Ga13  1  0.603456  0.460770  0.817131  1
  Ga  Ga14  1  0.397281  0.539542  0.183489  1
  Ga  Ga15  1  0.230163  0.337926  0.673103  1
  Ga  Ga16  1  0.769157  0.662134  0.326673  1
  Ga  Ga17  1  0.853976  0.334821  0.558009  1
  Ga  Ga18  1  0.184945  0.998102  0.558070  1
  Ga  Ga19  1  0.814895  0.000817  0.441726  1
  Ga  Ga20  1  0.349682  0.996906  0.060443  1
  Ga  Ga21  1  0.650575  0.003203  0.939826  1
  Ga  Ga22  1  0.558786  0.994229  0.674945  1
  Ga  Ga23  1  0.441785  0.006097  0.325049  1
  Ga  Ga24  1  0.519943  0.667962  0.561352  1
  Ga  Ga25  1  0.479124  0.331987  0.438451  1
  Ga  Ga26  1  0.693472  0.674324  0.053620  1
  Ga  Ga27  1  0.306692  0.325736  0.946595  1
  Pt  Pt28  1  0.330560  0.671131  0.000420  1
  Pt  Pt29  1  0.547088  0.324917  0.637871  1
  Pt  Pt30  1  0.449991  0.674797  0.362691  1
  Pt  Pt31  1  0.888108  0.007511  0.639616  1
  Pt  Pt32  1  0.112141  0.989437  0.360935  1
  Pt  Pt33  1  0.669936  0.328846  0.000219  1
  Pt  Pt34  1  0.204294  0.666538  0.637576  1
  Pt  Pt35  1  0.798520  0.336674  0.360902  1
  Rh  Rh36  1  0.000342  0.000072  0.000242  1
