# generated using pymatgen
data_SrYb2Ga8Ag3
_symmetry_space_group_name_H-M   'P 1'
_cell_length_a   4.44198318
_cell_length_b   8.45114161
_cell_length_c   8.45114071
_cell_angle_alpha   70.10411705
_cell_angle_beta   74.76350341
_cell_angle_gamma   74.76350156
_symmetry_Int_Tables_number   1
_chemical_formula_structural   SrYb2Ga8Ag3
_chemical_formula_sum   'Sr1 Yb2 Ga8 Ag3'
_cell_volume   282.52814395
_cell_formula_units_Z   1
loop_
 _symmetry_equiv_pos_site_id
 _symmetry_equiv_pos_as_xyz
  1  'x, y, z'
loop_
 _atom_site_type_symbol
 _atom_site_label
 _atom_site_symmetry_multiplicity
 _atom_site_fract_x
 _atom_site_fract_y
 _atom_site_fract_z
 _atom_site_occupancy
  Sr  Sr0  1  0.500000  0.500000  0.500000  1
  Yb  Yb1  1  0.800557  0.199443  0.199443  1
  Yb  Yb2  1  0.199443  0.800557  0.800557  1
  Ga  Ga3  1  0.644960  0.074396  0.635685  1
  Ga  Ga4  1  0.355040  0.925604  0.364315  1
  Ga  Ga5  1  0.644960  0.635685  0.074396  1
  Ga  Ga6  1  0.355040  0.364315  0.925604  1
  Ga  Ga7  1  0.836739  0.797580  0.528942  1
  Ga  Ga8  1  0.163261  0.202420  0.471058  1
  Ga  Ga9  1  0.836739  0.528942  0.797580  1
  Ga  Ga10  1  0.163261  0.471058  0.202420  1
  Ag  Ag11  1  0.500000  0.000000  0.000000  1
  Ag  Ag12  1  0.000000  0.807494  0.192506  1
  Ag  Ag13  1  0.000000  0.192506  0.807494  1
