# generated using pymatgen
data_Pr5GdTlIn5O18
_symmetry_space_group_name_H-M   'P 1'
_cell_length_a   6.59661671
_cell_length_b   6.59661798
_cell_length_c   12.53979595
_cell_angle_alpha   90.10428336
_cell_angle_beta   90.10428455
_cell_angle_gamma   120.00011664
_symmetry_Int_Tables_number   1
_chemical_formula_structural   Pr5GdTlIn5O18
_chemical_formula_sum   'Pr5 Gd1 Tl1 In5 O18'
_cell_volume   472.56363456
_cell_formula_units_Z   1
loop_
 _symmetry_equiv_pos_site_id
 _symmetry_equiv_pos_as_xyz
  1  'x, y, z'
loop_
 _atom_site_type_symbol
 _atom_site_label
 _atom_site_symmetry_multiplicity
 _atom_site_fract_x
 _atom_site_fract_y
 _atom_site_fract_z
 _atom_site_occupancy
  Pr  Pr0  1  0.665799  0.328942  0.961363  1
  Pr  Pr1  1  0.330765  0.667432  0.460626  1
  Pr  Pr2  1  0.667432  0.330765  0.460626  1
  Pr  Pr3  1  0.328942  0.665799  0.961363  1
  Pr  Pr4  1  0.002385  0.002385  0.999905  1
  Gd  Gd5  1  0.004910  0.004910  0.495596  1
  Tl  Tl6  1  0.667934  0.667934  0.725104  1
  In  In7  1  0.999602  0.331575  0.725476  1
  In  In8  1  0.333418  0.333418  0.228320  1
  In  In9  1  0.999308  0.667246  0.228165  1
  In  In10  1  0.331575  0.999602  0.725476  1
  In  In11  1  0.667246  0.999308  0.228165  1
  O  O12  1  0.690129  0.690129  0.895964  1
  O  O13  1  0.000053  0.306234  0.896103  1
  O  O14  1  0.302158  0.302158  0.396192  1
  O  O15  1  0.999275  0.698974  0.396014  1
  O  O16  1  0.306234  0.000053  0.896103  1
  O  O17  1  0.698974  0.999275  0.396014  1
  O  O18  1  0.652008  0.652008  0.555567  1
  O  O19  1  0.000163  0.352307  0.556417  1
  O  O20  1  0.360209  0.360209  0.061475  1
  O  O21  1  0.999278  0.640425  0.061242  1
  O  O22  1  0.352307  0.000163  0.556417  1
  O  O23  1  0.640425  0.999278  0.061242  1
  O  O24  1  0.016013  0.016013  0.694350  1
  O  O25  1  0.000537  0.000537  0.200419  1
  O  O26  1  0.666431  0.317017  0.751234  1
  O  O27  1  0.332779  0.666691  0.252808  1
  O  O28  1  0.666691  0.332779  0.252808  1
  O  O29  1  0.317017  0.666431  0.751234  1
