# generated using pymatgen
data_Y2Co3Si4Ir3
_symmetry_space_group_name_H-M   'P 1'
_cell_length_a   6.46385176
_cell_length_b   6.53861587
_cell_length_c   6.46385101
_cell_angle_alpha   131.58851059
_cell_angle_beta   113.52897772
_cell_angle_gamma   85.99412052
_symmetry_Int_Tables_number   1
_chemical_formula_structural   Y2Co3Si4Ir3
_chemical_formula_sum   'Y2 Co3 Si4 Ir3'
_cell_volume   179.59638845
_cell_formula_units_Z   1
loop_
 _symmetry_equiv_pos_site_id
 _symmetry_equiv_pos_as_xyz
  1  'x, y, z'
loop_
 _atom_site_type_symbol
 _atom_site_label
 _atom_site_symmetry_multiplicity
 _atom_site_fract_x
 _atom_site_fract_y
 _atom_site_fract_z
 _atom_site_occupancy
  Y  Y0  1  0.254041  0.529479  0.279715  1
  Y  Y1  1  0.750236  0.470521  0.724562  1
  Co  Co2  1  0.721638  0.000000  0.721638  1
  Co  Co3  1  0.221095  0.500000  0.721095  1
  Co  Co4  1  0.275860  0.000000  0.275860  1
  Si  Si5  1  0.078432  0.875767  0.807105  1
  Si  Si6  1  0.931338  0.124233  0.202665  1
  Si  Si7  1  0.564551  0.782696  0.204599  1
  Si  Si8  1  0.421903  0.217304  0.781855  1
  Ir  Ir9  1  0.779193  0.500000  0.279193  1
  Ir  Ir10  1  0.002635  0.012279  0.511354  1
  Ir  Ir11  1  0.499075  0.987721  0.990357  1
