# generated using pymatgen
data_La8Pr12Si15As
_symmetry_space_group_name_H-M   'P 1'
_cell_length_a   7.97849236
_cell_length_b   7.96816525
_cell_length_c   15.42384239
_cell_angle_alpha   89.93805920
_cell_angle_beta   89.65565078
_cell_angle_gamma   89.91690930
_symmetry_Int_Tables_number   1
_chemical_formula_structural   La8Pr12Si15As
_chemical_formula_sum   'La8 Pr12 Si15 As1'
_cell_volume   980.53521302
_cell_formula_units_Z   1
loop_
 _symmetry_equiv_pos_site_id
 _symmetry_equiv_pos_as_xyz
  1  'x, y, z'
loop_
 _atom_site_type_symbol
 _atom_site_label
 _atom_site_symmetry_multiplicity
 _atom_site_fract_x
 _atom_site_fract_y
 _atom_site_fract_z
 _atom_site_occupancy
  La  La0  1  0.377661  0.010514  0.446782  1
  La  La1  1  0.489738  0.876204  0.698341  1
  La  La2  1  0.511332  0.123319  0.198249  1
  La  La3  1  0.875955  0.488587  0.300892  1
  La  La4  1  0.124379  0.511064  0.802606  1
  La  La5  1  0.624688  0.987875  0.948412  1
  La  La6  1  0.008528  0.376656  0.549977  1
  La  La7  1  0.988452  0.623094  0.052149  1
  Pr  Pr8  1  0.310833  0.309680  0.999925  1
  Pr  Pr9  1  0.190123  0.808929  0.249858  1
  Pr  Pr10  1  0.804805  0.190653  0.751151  1
  Pr  Pr11  1  0.688188  0.689758  0.498572  1
  Pr  Pr12  1  0.131009  0.985150  0.875586  1
  Pr  Pr13  1  0.517784  0.628211  0.126160  1
  Pr  Pr14  1  0.481992  0.371518  0.627607  1
  Pr  Pr15  1  0.628746  0.518391  0.874159  1
  Pr  Pr16  1  0.371449  0.481013  0.373984  1
  Pr  Pr17  1  0.872145  0.017556  0.376545  1
  Pr  Pr18  1  0.982951  0.128592  0.124091  1
  Pr  Pr19  1  0.016419  0.870370  0.623333  1
  Si  Si20  1  0.331209  0.696815  0.952310  1
  Si  Si21  1  0.667090  0.303528  0.453602  1
  Si  Si22  1  0.698439  0.333116  0.047899  1
  Si  Si23  1  0.302538  0.667422  0.548042  1
  Si  Si24  1  0.803023  0.832795  0.202690  1
  Si  Si25  1  0.167788  0.196888  0.297141  1
  Si  Si26  1  0.835604  0.803035  0.797148  1
  Si  Si27  1  0.286899  0.921027  0.059297  1
  Si  Si28  1  0.578366  0.788084  0.309511  1
  Si  Si29  1  0.432379  0.211360  0.814843  1
  Si  Si30  1  0.788709  0.578947  0.689528  1
  Si  Si31  1  0.212002  0.422216  0.190448  1
  Si  Si32  1  0.708817  0.077140  0.560248  1
  Si  Si33  1  0.923654  0.288325  0.940249  1
  Si  Si34  1  0.078374  0.711927  0.440558  1
  As  As35  1  0.187931  0.170238  0.698108  1
