# generated using pymatgen
data_Ho2Th2Al24Pd5Pt4
_symmetry_space_group_name_H-M   'P 1'
_cell_length_a   7.60234935
_cell_length_b   7.61764744
_cell_length_c   13.21514814
_cell_angle_alpha   84.50873532
_cell_angle_beta   78.91947746
_cell_angle_gamma   59.96206512
_symmetry_Int_Tables_number   1
_chemical_formula_structural   Ho2Th2Al24Pd5Pt4
_chemical_formula_sum   'Ho2 Th2 Al24 Pd5 Pt4'
_cell_volume   650.17854322
_cell_formula_units_Z   1
loop_
 _symmetry_equiv_pos_site_id
 _symmetry_equiv_pos_as_xyz
  1  'x, y, z'
loop_
 _atom_site_type_symbol
 _atom_site_label
 _atom_site_symmetry_multiplicity
 _atom_site_fract_x
 _atom_site_fract_y
 _atom_site_fract_z
 _atom_site_occupancy
  Ho  Ho0  1  0.733700  0.498380  0.806732  1
  Ho  Ho1  1  0.266300  0.501620  0.193268  1
  Th  Th2  1  0.394743  0.168213  0.806724  1
  Th  Th3  1  0.605257  0.831787  0.193276  1
  Al  Al4  1  0.687997  0.830238  0.943861  1
  Al  Al5  1  0.312003  0.169762  0.056139  1
  Al  Al6  1  0.145585  0.833148  0.561553  1
  Al  Al7  1  0.854415  0.166852  0.438447  1
  Al  Al8  1  0.480937  0.167093  0.557748  1
  Al  Al9  1  0.519063  0.832907  0.442252  1
  Al  Al10  1  0.212458  0.169116  0.333287  1
  Al  Al11  1  0.787542  0.830884  0.666713  1
  Al  Al12  1  0.437987  0.510261  0.667317  1
  Al  Al13  1  0.562013  0.489739  0.332683  1
  Al  Al14  1  0.107641  0.160166  0.665648  1
  Al  Al15  1  0.892359  0.839834  0.334352  1
  Al  Al16  1  0.352187  0.502405  0.946113  1
  Al  Al17  1  0.647813  0.497595  0.053887  1
  Al  Al18  1  0.012382  0.167753  0.954389  1
  Al  Al19  1  0.987618  0.832247  0.045611  1
  Al  Al20  1  0.186279  0.500071  0.440915  1
  Al  Al21  1  0.813721  0.499929  0.559085  1
  Al  Al22  1  0.734575  0.167675  0.183417  1
  Al  Al23  1  0.265425  0.832325  0.816583  1
  Al  Al24  1  0.059361  0.633769  0.814699  1
  Al  Al25  1  0.940639  0.366231  0.185301  1
  Al  Al26  1  0.859897  0.040963  0.815964  1
  Al  Al27  1  0.140103  0.959037  0.184036  1
  Pd  Pd28  1  0.120455  0.491892  0.638498  1
  Pd  Pd29  1  0.879545  0.508108  0.361502  1
  Pd  Pd30  1  0.656532  0.171170  0.999837  1
  Pd  Pd31  1  0.343468  0.828830  0.000163  1
  Pd  Pd32  1  0.000000  0.500000  0.000000  1
  Pt  Pt33  1  0.537465  0.166274  0.361486  1
  Pt  Pt34  1  0.462535  0.833726  0.638514  1
  Pt  Pt35  1  0.778337  0.175163  0.637501  1
  Pt  Pt36  1  0.221663  0.824837  0.362499  1
