# generated using pymatgen
data_SmCuIO6
_symmetry_space_group_name_H-M   'P 1'
_cell_length_a   5.18369700
_cell_length_b   5.18368267
_cell_length_c   10.06703900
_cell_angle_alpha   89.99782254
_cell_angle_beta   90.00016580
_cell_angle_gamma   119.99951077
_symmetry_Int_Tables_number   1
_chemical_formula_structural   SmCuIO6
_chemical_formula_sum   'Sm2 Cu2 I2 O12'
_cell_volume   234.26776724
_cell_formula_units_Z   2
loop_
 _symmetry_equiv_pos_site_id
 _symmetry_equiv_pos_as_xyz
  1  'x, y, z'
loop_
 _atom_site_type_symbol
 _atom_site_label
 _atom_site_symmetry_multiplicity
 _atom_site_fract_x
 _atom_site_fract_y
 _atom_site_fract_z
 _atom_site_occupancy
  Sm  Sm0  1  0.009610  0.008246  0.000103  1
  Sm  Sm1  1  0.006559  0.010010  0.499893  1
  Cu  Cu2  1  0.340750  0.676862  0.249886  1
  Cu  Cu3  1  0.674764  0.341652  0.750137  1
  I  I4  1  0.671386  0.337216  0.250108  1
  I  I5  1  0.335864  0.670385  0.749866  1
  O  O6  1  0.671200  0.616801  0.132442  1
  O  O7  1  0.991197  0.348889  0.150168  1
  O  O8  1  0.386131  0.017049  0.140757  1
  O  O9  1  0.952154  0.617788  0.367542  1
  O  O10  1  0.363428  0.350891  0.348983  1
  O  O11  1  0.635998  0.018833  0.360537  1
  O  O12  1  0.343825  0.986807  0.649539  1
  O  O13  1  0.012153  0.379695  0.643297  1
  O  O14  1  0.610483  0.665538  0.630230  1
  O  O15  1  0.620710  0.951643  0.865613  1
  O  O16  1  0.020812  0.637765  0.861491  1
  O  O17  1  0.352981  0.363936  0.849409  1
