# generated using pymatgen
data_Cs3Lu(PS4)2
_symmetry_space_group_name_H-M   'P 1'
_cell_length_a   9.96012570
_cell_length_b   6.96060000
_cell_length_c   12.04021790
_cell_angle_alpha   90.00000000
_cell_angle_beta   88.47692167
_cell_angle_gamma   90.00000000
_symmetry_Int_Tables_number   1
_chemical_formula_structural   Cs3Lu(PS4)2
_chemical_formula_sum   'Cs6 Lu2 P4 S16'
_cell_volume   834.43474590
_cell_formula_units_Z   2
loop_
 _symmetry_equiv_pos_site_id
 _symmetry_equiv_pos_as_xyz
  1  'x, y, z'
loop_
 _atom_site_type_symbol
 _atom_site_label
 _atom_site_symmetry_multiplicity
 _atom_site_fract_x
 _atom_site_fract_y
 _atom_site_fract_z
 _atom_site_occupancy
  Cs  Cs0  1  0.364524  0.802182  0.086951  1
  Cs  Cs1  1  0.396439  0.308619  0.343106  1
  Cs  Cs2  1  0.837413  0.308862  0.433182  1
  Cs  Cs3  1  0.162587  0.808862  0.566819  1
  Cs  Cs4  1  0.603561  0.808619  0.656894  1
  Cs  Cs5  1  0.635477  0.302182  0.913049  1
  Lu  Lu6  1  0.889870  0.787998  0.141444  1
  Lu  Lu7  1  0.110130  0.287998  0.858556  1
  P  P8  1  0.080223  0.329177  0.146551  1
  P  P9  1  0.645448  0.808436  0.306052  1
  P  P10  1  0.354552  0.308435  0.693948  1
  P  P11  1  0.919777  0.829177  0.853449  1
  S  S12  1  0.938189  0.398978  0.031404  1
  S  S13  1  0.255161  0.305341  0.052684  1
  S  S14  1  0.675884  0.038379  0.200486  1
  S  S15  1  0.671281  0.567244  0.206238  1
  S  S16  1  0.048838  0.083270  0.238333  1
  S  S17  1  0.080216  0.564022  0.251221  1
  S  S18  1  0.462099  0.812089  0.383006  1
  S  S19  1  0.807596  0.807684  0.407093  1
  S  S20  1  0.192405  0.307683  0.592907  1
  S  S21  1  0.537900  0.312088  0.616994  1
  S  S22  1  0.919784  0.064021  0.748779  1
  S  S23  1  0.951162  0.583270  0.761667  1
  S  S24  1  0.328719  0.067245  0.793762  1
  S  S25  1  0.324116  0.538377  0.799514  1
  S  S26  1  0.744838  0.805342  0.947316  1
  S  S27  1  0.061811  0.898978  0.968595  1
