# generated using pymatgen
data_Li7Mg4
_symmetry_space_group_name_H-M   'P 1'
_cell_length_a   16.62235496
_cell_length_b   16.62235494
_cell_length_c   6.16633735
_cell_angle_alpha   89.72756907
_cell_angle_beta   89.72756836
_cell_angle_gamma   15.05540587
_symmetry_Int_Tables_number   1
_chemical_formula_structural   Li7Mg4
_chemical_formula_sum   'Li14 Mg8'
_cell_volume   442.55570339
_cell_formula_units_Z   2
loop_
 _symmetry_equiv_pos_site_id
 _symmetry_equiv_pos_as_xyz
  1  'x, y, z'
loop_
 _atom_site_type_symbol
 _atom_site_label
 _atom_site_symmetry_multiplicity
 _atom_site_fract_x
 _atom_site_fract_y
 _atom_site_fract_z
 _atom_site_occupancy
  Li  Li0  1  0.044463  0.044463  0.456932  1
  Li  Li1  1  0.044340  0.044340  0.948105  1
  Li  Li2  1  0.498351  0.498351  0.470144  1
  Li  Li3  1  0.498094  0.498094  0.956063  1
  Li  Li4  1  0.771374  0.771374  0.951969  1
  Li  Li5  1  0.865179  0.865179  0.952084  1
  Li  Li6  1  0.412076  0.412076  0.953484  1
  Li  Li7  1  0.131206  0.131206  0.957237  1
  Li  Li8  1  0.677661  0.677661  0.443519  1
  Li  Li9  1  0.865455  0.865455  0.459985  1
  Li  Li10  1  0.412385  0.412385  0.465465  1
  Li  Li11  1  0.131123  0.131123  0.445994  1
  Li  Li12  1  0.677604  0.677604  0.954186  1
  Li  Li13  1  0.954910  0.954910  0.710094  1
  Mg  Mg14  1  0.586026  0.586026  0.202835  1
  Mg  Mg15  1  0.771490  0.771490  0.452510  1
  Mg  Mg16  1  0.324715  0.324715  0.203772  1
  Mg  Mg17  1  0.218023  0.218023  0.701555  1
  Mg  Mg18  1  0.589202  0.589202  0.702884  1
  Mg  Mg19  1  0.955470  0.955470  0.210031  1
  Mg  Mg20  1  0.321771  0.321771  0.710859  1
  Mg  Mg21  1  0.221639  0.221639  0.193984  1
