# generated using pymatgen
data_Dy3Y3(WO7)2
_symmetry_space_group_name_H-M   'P 1'
_cell_length_a   6.49494665
_cell_length_b   6.48274538
_cell_length_c   7.49171100
_cell_angle_alpha   89.99872949
_cell_angle_beta   89.99773782
_cell_angle_gamma   109.03924157
_symmetry_Int_Tables_number   1
_chemical_formula_structural   Dy3Y3(WO7)2
_chemical_formula_sum   'Dy3 Y3 W2 O14'
_cell_volume   298.18315141
_cell_formula_units_Z   1
loop_
 _symmetry_equiv_pos_site_id
 _symmetry_equiv_pos_as_xyz
  1  'x, y, z'
loop_
 _atom_site_type_symbol
 _atom_site_label
 _atom_site_symmetry_multiplicity
 _atom_site_fract_x
 _atom_site_fract_y
 _atom_site_fract_z
 _atom_site_occupancy
  Dy  Dy0  1  0.533158  0.001451  0.502746  1
  Dy  Dy1  1  0.001351  0.533650  0.997332  1
  Dy  Dy2  1  0.467016  0.998628  0.002680  1
  Y  Y3  1  0.518576  0.518585  0.249822  1
  Y  Y4  1  0.481492  0.481401  0.750153  1
  Y  Y5  1  0.998958  0.466842  0.497264  1
  W  W6  1  0.000756  0.000666  0.249941  1
  W  W7  1  0.999271  0.999293  0.750132  1
  O  O8  1  0.066160  0.317433  0.216820  1
  O  O9  1  0.681636  0.933291  0.782486  1
  O  O10  1  0.933713  0.682656  0.717685  1
  O  O11  1  0.318204  0.066703  0.282518  1
  O  O12  1  0.674677  0.919336  0.222259  1
  O  O13  1  0.080041  0.324382  0.778410  1
  O  O14  1  0.325338  0.080728  0.722281  1
  O  O15  1  0.919766  0.675570  0.277487  1
  O  O16  1  0.368201  0.630857  0.499992  1
  O  O17  1  0.631993  0.369155  0.999988  1
  O  O18  1  0.362506  0.636292  0.000018  1
  O  O19  1  0.637140  0.363655  0.500002  1
  O  O20  1  0.924684  0.073997  0.499993  1
  O  O21  1  0.075363  0.925428  0.999991  1
