# generated using pymatgen
data_Dy2Pa(AlPt)3
_symmetry_space_group_name_H-M   'P 1'
_cell_length_a   7.23813300
_cell_length_b   7.20567127
_cell_length_c   3.99795300
_cell_angle_alpha   90.00000000
_cell_angle_beta   90.00000000
_cell_angle_gamma   120.14914186
_symmetry_Int_Tables_number   1
_chemical_formula_structural   Dy2Pa(AlPt)3
_chemical_formula_sum   'Dy2 Pa1 Al3 Pt3'
_cell_volume   180.30786708
_cell_formula_units_Z   1
loop_
 _symmetry_equiv_pos_site_id
 _symmetry_equiv_pos_as_xyz
  1  'x, y, z'
loop_
 _atom_site_type_symbol
 _atom_site_label
 _atom_site_symmetry_multiplicity
 _atom_site_fract_x
 _atom_site_fract_y
 _atom_site_fract_z
 _atom_site_occupancy
  Dy  Dy0  1  0.415467  0.413767  0.500000  1
  Dy  Dy1  1  0.001700  0.586233  0.500000  1
  Pa  Pa2  1  0.579391  0.000000  0.500000  1
  Al  Al3  1  0.758657  0.752347  0.000000  1
  Al  Al4  1  0.006311  0.247653  0.000000  1
  Al  Al5  1  0.232336  0.000000  0.000000  1
  Pt  Pt6  1  0.349901  0.683509  0.000000  1
  Pt  Pt7  1  0.666393  0.316491  0.000000  1
  Pt  Pt8  1  0.989844  0.000000  0.500000  1
