# generated using pymatgen
data_Nd9Dy3In20
_symmetry_space_group_name_H-M   'P 1'
_cell_length_a   6.68418838
_cell_length_b   10.56735900
_cell_length_c   12.46999800
_cell_angle_alpha   90.00000000
_cell_angle_beta   89.95162911
_cell_angle_gamma   90.00000000
_symmetry_Int_Tables_number   1
_chemical_formula_structural   Nd9Dy3In20
_chemical_formula_sum   'Nd9 Dy3 In20'
_cell_volume   880.80824650
_cell_formula_units_Z   1
loop_
 _symmetry_equiv_pos_site_id
 _symmetry_equiv_pos_as_xyz
  1  'x, y, z'
loop_
 _atom_site_type_symbol
 _atom_site_label
 _atom_site_symmetry_multiplicity
 _atom_site_fract_x
 _atom_site_fract_y
 _atom_site_fract_z
 _atom_site_occupancy
  Nd  Nd0  1  0.349832  0.750000  0.059816  1
  Nd  Nd1  1  0.887873  0.490410  0.143710  1
  Nd  Nd2  1  0.612361  0.011328  0.643117  1
  Nd  Nd3  1  0.110158  0.991217  0.855567  1
  Nd  Nd4  1  0.389417  0.509382  0.356370  1
  Nd  Nd5  1  0.110158  0.508783  0.855567  1
  Nd  Nd6  1  0.389417  0.990618  0.356370  1
  Nd  Nd7  1  0.887873  0.009590  0.143710  1
  Nd  Nd8  1  0.612361  0.488672  0.643117  1
  Dy  Dy9  1  0.150650  0.750000  0.558687  1
  Dy  Dy10  1  0.649528  0.250000  0.940217  1
  Dy  Dy11  1  0.849936  0.250000  0.440902  1
  In  In12  1  0.617239  0.750000  0.505673  1
  In  In13  1  0.876597  0.750000  0.002362  1
  In  In14  1  0.384305  0.250000  0.496378  1
  In  In15  1  0.113465  0.250000  0.996208  1
  In  In16  1  0.659743  0.750000  0.246296  1
  In  In17  1  0.846579  0.750000  0.743056  1
  In  In18  1  0.346604  0.250000  0.755470  1
  In  In19  1  0.153473  0.250000  0.256157  1
  In  In20  1  0.111910  0.750000  0.287807  1
  In  In21  1  0.389104  0.750000  0.782162  1
  In  In22  1  0.889943  0.250000  0.715924  1
  In  In23  1  0.612709  0.250000  0.216710  1
  In  In24  1  0.874306  0.544672  0.404589  1
  In  In25  1  0.624767  0.956362  0.902408  1
  In  In26  1  0.126734  0.044950  0.595982  1
  In  In27  1  0.373575  0.451315  0.096342  1
  In  In28  1  0.126734  0.455050  0.595982  1
  In  In29  1  0.373575  0.048685  0.096342  1
  In  In30  1  0.874306  0.955328  0.404589  1
  In  In31  1  0.624767  0.543638  0.902408  1
