# generated using pymatgen
data_Li2Pr16MgTlIr4
_symmetry_space_group_name_H-M   'P 1'
_cell_length_a   10.05349957
_cell_length_b   10.06079563
_cell_length_c   10.06079536
_cell_angle_alpha   60.21244552
_cell_angle_beta   60.28598670
_cell_angle_gamma   60.28598599
_symmetry_Int_Tables_number   1
_chemical_formula_structural   Li2Pr16MgTlIr4
_chemical_formula_sum   'Li2 Pr16 Mg1 Tl1 Ir4'
_cell_volume   723.81767388
_cell_formula_units_Z   1
loop_
 _symmetry_equiv_pos_site_id
 _symmetry_equiv_pos_as_xyz
  1  'x, y, z'
loop_
 _atom_site_type_symbol
 _atom_site_label
 _atom_site_symmetry_multiplicity
 _atom_site_fract_x
 _atom_site_fract_y
 _atom_site_fract_z
 _atom_site_occupancy
  Li  Li0  1  0.577606  0.578410  0.269320  1
  Li  Li1  1  0.577606  0.269320  0.578410  1
  Pr  Pr2  1  0.344880  0.345924  0.345924  1
  Pr  Pr3  1  0.346044  0.347482  0.958644  1
  Pr  Pr4  1  0.346044  0.958644  0.347482  1
  Pr  Pr5  1  0.956452  0.348076  0.348076  1
  Pr  Pr6  1  0.812681  0.185400  0.185400  1
  Pr  Pr7  1  0.191976  0.807997  0.807997  1
  Pr  Pr8  1  0.186162  0.812081  0.187174  1
  Pr  Pr9  1  0.807862  0.192236  0.808118  1
  Pr  Pr10  1  0.186162  0.187174  0.812081  1
  Pr  Pr11  1  0.807862  0.808118  0.192236  1
  Pr  Pr12  1  0.942253  0.561142  0.561142  1
  Pr  Pr13  1  0.560850  0.939135  0.939135  1
  Pr  Pr14  1  0.560095  0.940460  0.561855  1
  Pr  Pr15  1  0.940807  0.562017  0.937523  1
  Pr  Pr16  1  0.560095  0.561855  0.940460  1
  Pr  Pr17  1  0.940807  0.937523  0.562017  1
  Mg  Mg18  1  0.273203  0.574588  0.574588  1
  Tl  Tl19  1  0.583002  0.579870  0.579870  1
  Ir  Ir20  1  0.139690  0.142278  0.142278  1
  Ir  Ir21  1  0.141887  0.142765  0.574980  1
  Ir  Ir22  1  0.141887  0.574980  0.142765  1
  Ir  Ir23  1  0.574088  0.142528  0.142528  1
