# generated using pymatgen
data_La4Y12MgHg3Pd4
_symmetry_space_group_name_H-M   'P 1'
_cell_length_a   9.84831397
_cell_length_b   9.90225008
_cell_length_c   9.90225000
_cell_angle_alpha   60.00000694
_cell_angle_beta   59.81867376
_cell_angle_gamma   59.81867182
_symmetry_Int_Tables_number   1
_chemical_formula_structural   La4Y12MgHg3Pd4
_chemical_formula_sum   'La4 Y12 Mg1 Hg3 Pd4'
_cell_volume   680.95582171
_cell_formula_units_Z   1
loop_
 _symmetry_equiv_pos_site_id
 _symmetry_equiv_pos_as_xyz
  1  'x, y, z'
loop_
 _atom_site_type_symbol
 _atom_site_label
 _atom_site_symmetry_multiplicity
 _atom_site_fract_x
 _atom_site_fract_y
 _atom_site_fract_z
 _atom_site_occupancy
  La  La0  1  0.357810  0.355150  0.355150  1
  La  La1  1  0.357810  0.355150  0.931891  1
  La  La2  1  0.357810  0.931891  0.355150  1
  La  La3  1  0.918253  0.360582  0.360582  1
  Y  Y4  1  0.812250  0.186874  0.186874  1
  Y  Y5  1  0.183379  0.815456  0.815456  1
  Y  Y6  1  0.183379  0.815456  0.185710  1
  Y  Y7  1  0.812250  0.186874  0.814001  1
  Y  Y8  1  0.183379  0.185710  0.815456  1
  Y  Y9  1  0.812250  0.814001  0.186874  1
  Y  Y10  1  0.933234  0.567522  0.567522  1
  Y  Y11  1  0.567538  0.932860  0.932860  1
  Y  Y12  1  0.567538  0.932860  0.566743  1
  Y  Y13  1  0.933234  0.567522  0.931723  1
  Y  Y14  1  0.567538  0.566743  0.932860  1
  Y  Y15  1  0.933234  0.931723  0.567522  1
  Mg  Mg16  1  0.274015  0.575327  0.575327  1
  Hg  Hg17  1  0.584210  0.593413  0.593413  1
  Hg  Hg18  1  0.584210  0.593413  0.228963  1
  Hg  Hg19  1  0.584210  0.228963  0.593413  1
  Pd  Pd20  1  0.140691  0.144067  0.144067  1
  Pd  Pd21  1  0.140691  0.144067  0.571175  1
  Pd  Pd22  1  0.140691  0.571175  0.144067  1
  Pd  Pd23  1  0.570390  0.143203  0.143203  1
