# generated using pymatgen
data_Ca3TmAl18(Pd2Pt)2
_symmetry_space_group_name_H-M   'P 1'
_cell_length_a   7.64590339
_cell_length_b   7.64194982
_cell_length_c   9.49212500
_cell_angle_alpha   90.02972180
_cell_angle_beta   90.01186837
_cell_angle_gamma   119.54258378
_symmetry_Int_Tables_number   1
_chemical_formula_structural   Ca3TmAl18(Pd2Pt)2
_chemical_formula_sum   'Ca3 Tm1 Al18 Pd4 Pt2'
_cell_volume   482.51443946
_cell_formula_units_Z   1
loop_
 _symmetry_equiv_pos_site_id
 _symmetry_equiv_pos_as_xyz
  1  'x, y, z'
loop_
 _atom_site_type_symbol
 _atom_site_label
 _atom_site_symmetry_multiplicity
 _atom_site_fract_x
 _atom_site_fract_y
 _atom_site_fract_z
 _atom_site_occupancy
  Ca  Ca0  1  0.994427  0.669884  0.250442  1
  Ca  Ca1  1  0.004369  0.329754  0.749742  1
  Ca  Ca2  1  0.672093  0.996857  0.250417  1
  Tm  Tm3  1  0.329523  0.002727  0.749873  1
  Al  Al4  1  0.132620  0.132526  0.250274  1
  Al  Al5  1  0.872124  0.869195  0.749670  1
  Al  Al6  1  0.001425  0.335332  0.075418  1
  Al  Al7  1  0.999720  0.665195  0.921501  1
  Al  Al8  1  0.000039  0.664883  0.578133  1
  Al  Al9  1  0.334930  0.999439  0.424652  1
  Al  Al10  1  0.000537  0.335260  0.424988  1
  Al  Al11  1  0.664929  0.000465  0.578086  1
  Al  Al12  1  0.664668  0.999759  0.921582  1
  Al  Al13  1  0.334813  0.000438  0.075440  1
  Al  Al14  1  0.332004  0.331014  0.557769  1
  Al  Al15  1  0.666970  0.667104  0.446725  1
  Al  Al16  1  0.666573  0.666849  0.054564  1
  Al  Al17  1  0.332773  0.331475  0.940961  1
  Al  Al18  1  0.340204  0.547156  0.249999  1
  Al  Al19  1  0.655222  0.451022  0.750111  1
  Al  Al20  1  0.544274  0.340616  0.250055  1
  Al  Al21  1  0.455766  0.663826  0.749959  1
  Pd  Pd22  1  0.670603  0.327790  0.999242  1
  Pd  Pd23  1  0.328365  0.671737  0.998542  1
  Pd  Pd24  1  0.001045  0.000280  0.998880  1
  Pd  Pd25  1  0.001161  0.000188  0.501124  1
  Pt  Pt26  1  0.328022  0.671742  0.501213  1
  Pt  Pt27  1  0.670800  0.327486  0.500637  1
