# generated using pymatgen
data_Ho20Fe3CuBi8
_symmetry_space_group_name_H-M   'P 1'
_cell_length_a   7.94477681
_cell_length_b   8.92475800
_cell_length_c   12.31246119
_cell_angle_alpha   90.00000000
_cell_angle_beta   89.84372868
_cell_angle_gamma   90.00000000
_symmetry_Int_Tables_number   1
_chemical_formula_structural   Ho20Fe3CuBi8
_chemical_formula_sum   'Ho20 Fe3 Cu1 Bi8'
_cell_volume   873.01440374
_cell_formula_units_Z   1
loop_
 _symmetry_equiv_pos_site_id
 _symmetry_equiv_pos_as_xyz
  1  'x, y, z'
loop_
 _atom_site_type_symbol
 _atom_site_label
 _atom_site_symmetry_multiplicity
 _atom_site_fract_x
 _atom_site_fract_y
 _atom_site_fract_z
 _atom_site_occupancy
  Ho  Ho0  1  0.335400  0.750000  0.715268  1
  Ho  Ho1  1  0.654603  0.250000  0.298347  1
  Ho  Ho2  1  0.848368  0.250000  0.799255  1
  Ho  Ho3  1  0.152036  0.750000  0.197944  1
  Ho  Ho4  1  0.881041  0.750000  0.807053  1
  Ho  Ho5  1  0.113318  0.250000  0.188557  1
  Ho  Ho6  1  0.384737  0.250000  0.687457  1
  Ho  Ho7  1  0.625224  0.750000  0.303671  1
  Ho  Ho8  1  0.675774  0.529193  0.564755  1
  Ho  Ho9  1  0.322110  0.449194  0.436273  1
  Ho  Ho10  1  0.174264  0.467907  0.939111  1
  Ho  Ho11  1  0.322110  0.050806  0.436273  1
  Ho  Ho12  1  0.825504  0.541697  0.061438  1
  Ho  Ho13  1  0.675774  0.970807  0.564755  1
  Ho  Ho14  1  0.825504  0.958303  0.061438  1
  Ho  Ho15  1  0.174264  0.032093  0.939111  1
  Ho  Ho16  1  0.042566  0.750000  0.498167  1
  Ho  Ho17  1  0.947333  0.250000  0.502421  1
  Ho  Ho18  1  0.560851  0.250000  0.005833  1
  Ho  Ho19  1  0.451080  0.750000  0.998564  1
  Fe  Fe20  1  0.077076  0.750000  0.985008  1
  Fe  Fe21  1  0.930908  0.250000  0.008577  1
  Fe  Fe22  1  0.572911  0.250000  0.508839  1
  Cu  Cu23  1  0.425149  0.750000  0.489803  1
  Bi  Bi24  1  0.570510  0.506949  0.827614  1
  Bi  Bi25  1  0.428157  0.490848  0.174843  1
  Bi  Bi26  1  0.073143  0.490404  0.671816  1
  Bi  Bi27  1  0.428157  0.009152  0.174843  1
  Bi  Bi28  1  0.929237  0.508860  0.326766  1
  Bi  Bi29  1  0.570510  0.993051  0.827614  1
  Bi  Bi30  1  0.929237  0.991140  0.326766  1
  Bi  Bi31  1  0.073143  0.009596  0.671816  1
