# generated using pymatgen
data_Na6Ce2ThCl18
_symmetry_space_group_name_H-M   'P 1'
_cell_length_a   12.20595800
_cell_length_b   12.20595862
_cell_length_c   6.37260300
_cell_angle_alpha   90.00000000
_cell_angle_beta   90.00000000
_cell_angle_gamma   119.99999290
_symmetry_Int_Tables_number   1
_chemical_formula_structural   Na6Ce2ThCl18
_chemical_formula_sum   'Na6 Ce2 Th1 Cl18'
_cell_volume   822.22616157
_cell_formula_units_Z   1
loop_
 _symmetry_equiv_pos_site_id
 _symmetry_equiv_pos_as_xyz
  1  'x, y, z'
loop_
 _atom_site_type_symbol
 _atom_site_label
 _atom_site_symmetry_multiplicity
 _atom_site_fract_x
 _atom_site_fract_y
 _atom_site_fract_z
 _atom_site_occupancy
  Na  Na0  1  0.662721  0.002307  0.999467  1
  Na  Na1  1  0.339586  0.002307  0.999467  1
  Na  Na2  1  0.997693  0.660414  0.999467  1
  Na  Na3  1  0.662721  0.660414  0.999467  1
  Na  Na4  1  0.339586  0.337279  0.999467  1
  Na  Na5  1  0.997693  0.337279  0.999467  1
  Ce  Ce6  1  0.666667  0.333333  0.504037  1
  Ce  Ce7  1  0.000000  0.000000  0.000490  1
  Th  Th8  1  0.333333  0.666667  0.496374  1
  Cl  Cl9  1  0.564003  0.128009  0.746368  1
  Cl  Cl10  1  0.769680  0.230320  0.267783  1
  Cl  Cl11  1  0.790314  0.895156  0.225313  1
  Cl  Cl12  1  0.438398  0.561602  0.249761  1
  Cl  Cl13  1  0.769680  0.539362  0.267783  1
  Cl  Cl14  1  0.104844  0.209686  0.225313  1
  Cl  Cl15  1  0.227946  0.772054  0.736714  1
  Cl  Cl16  1  0.564003  0.435997  0.746368  1
  Cl  Cl17  1  0.227946  0.455889  0.736714  1
  Cl  Cl18  1  0.123205  0.561602  0.249761  1
  Cl  Cl19  1  0.209838  0.104919  0.774822  1
  Cl  Cl20  1  0.104844  0.895156  0.225313  1
  Cl  Cl21  1  0.544111  0.772054  0.736714  1
  Cl  Cl22  1  0.438398  0.876795  0.249761  1
  Cl  Cl23  1  0.895081  0.104919  0.774822  1
  Cl  Cl24  1  0.871991  0.435997  0.746368  1
  Cl  Cl25  1  0.460638  0.230320  0.267783  1
  Cl  Cl26  1  0.895081  0.790162  0.774822  1
