# generated using pymatgen
data_YbEr2Th(B6Os)2
_symmetry_space_group_name_H-M   'P 1'
_cell_length_a   3.67969200
_cell_length_b   9.18467167
_cell_length_c   11.58171645
_cell_angle_alpha   89.69669739
_cell_angle_beta   90.00000000
_cell_angle_gamma   90.00000000
_symmetry_Int_Tables_number   1
_chemical_formula_structural   YbEr2Th(B6Os)2
_chemical_formula_sum   'Yb2 Er4 Th2 B24 Os4'
_cell_volume   391.41903993
_cell_formula_units_Z   2
loop_
 _symmetry_equiv_pos_site_id
 _symmetry_equiv_pos_as_xyz
  1  'x, y, z'
loop_
 _atom_site_type_symbol
 _atom_site_label
 _atom_site_symmetry_multiplicity
 _atom_site_fract_x
 _atom_site_fract_y
 _atom_site_fract_z
 _atom_site_occupancy
  Yb  Yb0  1  0.000000  0.324562  0.415259  1
  Yb  Yb1  1  0.000000  0.675438  0.584741  1
  Er  Er2  1  0.000000  0.942899  0.374723  1
  Er  Er3  1  0.000000  0.057101  0.625277  1
  Er  Er4  1  0.000000  0.444221  0.129239  1
  Er  Er5  1  0.000000  0.555779  0.870761  1
  Th  Th6  1  0.000000  0.820112  0.087505  1
  Th  Th7  1  0.000000  0.179888  0.912495  1
  B  B8  1  0.500000  0.554351  0.432895  1
  B  B9  1  0.500000  0.445649  0.567105  1
  B  B10  1  0.500000  0.056518  0.070724  1
  B  B11  1  0.500000  0.943482  0.929276  1
  B  B12  1  0.500000  0.747049  0.420146  1
  B  B13  1  0.500000  0.252951  0.579854  1
  B  B14  1  0.500000  0.250588  0.083946  1
  B  B15  1  0.500000  0.749412  0.916054  1
  B  B16  1  0.500000  0.789470  0.269162  1
  B  B17  1  0.500000  0.210530  0.730838  1
  B  B18  1  0.500000  0.291079  0.236460  1
  B  B19  1  0.500000  0.708921  0.763540  1
  B  B20  1  0.500000  0.629435  0.187319  1
  B  B21  1  0.500000  0.370565  0.812681  1
  B  B22  1  0.500000  0.131788  0.316778  1
  B  B23  1  0.500000  0.868212  0.683222  1
  B  B24  1  0.500000  0.985955  0.216294  1
  B  B25  1  0.500000  0.014045  0.783706  1
  B  B26  1  0.500000  0.482831  0.289280  1
  B  B27  1  0.500000  0.517169  0.710720  1
  B  B28  1  0.500000  0.602461  0.027992  1
  B  B29  1  0.500000  0.397539  0.972008  1
  B  B30  1  0.500000  0.103898  0.471383  1
  B  B31  1  0.500000  0.896102  0.528617  1
  Os  Os32  1  0.000000  0.639380  0.319528  1
  Os  Os33  1  0.000000  0.360620  0.680472  1
  Os  Os34  1  0.000000  0.138086  0.179638  1
  Os  Os35  1  0.000000  0.861914  0.820362  1
