# generated using pymatgen
data_Ho6Ga7Co11Ru5
_symmetry_space_group_name_H-M   'P 1'
_cell_length_a   8.60976084
_cell_length_b   8.58579438
_cell_length_c   8.58579200
_cell_angle_alpha   60.00000148
_cell_angle_beta   60.09204081
_cell_angle_gamma   60.09204627
_symmetry_Int_Tables_number   1
_chemical_formula_structural   Ho6Ga7Co11Ru5
_chemical_formula_sum   'Ho6 Ga7 Co11 Ru5'
_cell_volume   449.40691355
_cell_formula_units_Z   1
loop_
 _symmetry_equiv_pos_site_id
 _symmetry_equiv_pos_as_xyz
  1  'x, y, z'
loop_
 _atom_site_type_symbol
 _atom_site_label
 _atom_site_symmetry_multiplicity
 _atom_site_fract_x
 _atom_site_fract_y
 _atom_site_fract_z
 _atom_site_occupancy
  Ho  Ho0  1  0.717708  0.283321  0.283321  1
  Ho  Ho1  1  0.717708  0.283321  0.715650  1
  Ho  Ho2  1  0.717708  0.715650  0.283321  1
  Ho  Ho3  1  0.281971  0.715841  0.715841  1
  Ho  Ho4  1  0.281971  0.715841  0.286347  1
  Ho  Ho5  1  0.281971  0.286347  0.715841  1
  Ga  Ga6  1  0.995464  0.001512  0.001512  1
  Ga  Ga7  1  0.503502  0.998175  0.998175  1
  Ga  Ga8  1  0.503502  0.998175  0.500149  1
  Ga  Ga9  1  0.503502  0.500149  0.998175  1
  Ga  Ga10  1  0.998148  0.502367  0.502367  1
  Ga  Ga11  1  0.998148  0.502367  0.997117  1
  Ga  Ga12  1  0.998148  0.997117  0.502367  1
  Co  Co13  1  0.872190  0.383112  0.872349  1
  Co  Co14  1  0.872190  0.872349  0.383112  1
  Co  Co15  1  0.872190  0.872349  0.872349  1
  Co  Co16  1  0.038008  0.320664  0.320664  1
  Co  Co17  1  0.319017  0.039689  0.320648  1
  Co  Co18  1  0.319017  0.320648  0.039689  1
  Co  Co19  1  0.319017  0.320648  0.320648  1
  Co  Co20  1  0.960687  0.679771  0.679771  1
  Co  Co21  1  0.684614  0.960059  0.677663  1
  Co  Co22  1  0.684614  0.677663  0.960059  1
  Co  Co23  1  0.684614  0.677663  0.677663  1
  Ru  Ru24  1  0.624309  0.125231  0.125231  1
  Ru  Ru25  1  0.123597  0.623630  0.126387  1
  Ru  Ru26  1  0.123597  0.126387  0.623630  1
  Ru  Ru27  1  0.123597  0.126387  0.126387  1
  Ru  Ru28  1  0.379293  0.873569  0.873569  1
