# generated using pymatgen
data_Tb5Dy5Tm6(In3Ir)2
_symmetry_space_group_name_H-M   'P 1'
_cell_length_a   10.36516372
_cell_length_b   10.36516247
_cell_length_c   7.11810042
_cell_angle_alpha   89.94127105
_cell_angle_beta   90.05872527
_cell_angle_gamma   119.98456066
_symmetry_Int_Tables_number   1
_chemical_formula_structural   Tb5Dy5Tm6(In3Ir)2
_chemical_formula_sum   'Tb5 Dy5 Tm6 In6 Ir2'
_cell_volume   662.39075637
_cell_formula_units_Z   1
loop_
 _symmetry_equiv_pos_site_id
 _symmetry_equiv_pos_as_xyz
  1  'x, y, z'
loop_
 _atom_site_type_symbol
 _atom_site_label
 _atom_site_symmetry_multiplicity
 _atom_site_fract_x
 _atom_site_fract_y
 _atom_site_fract_z
 _atom_site_occupancy
  Tb  Tb0  1  0.532651  0.067198  0.514338  1
  Tb  Tb1  1  0.932802  0.467349  0.514338  1
  Tb  Tb2  1  0.533108  0.466892  0.514121  1
  Tb  Tb3  1  0.465627  0.931900  0.013566  1
  Tb  Tb4  1  0.068100  0.534373  0.013566  1
  Dy  Dy5  1  0.823961  0.176039  0.219738  1
  Dy  Dy6  1  0.665864  0.334136  0.895883  1
  Dy  Dy7  1  0.333756  0.666244  0.396246  1
  Dy  Dy8  1  0.000678  0.999322  0.500925  1
  Dy  Dy9  1  0.000138  0.999862  0.999448  1
  Tm  Tm10  1  0.465612  0.534388  0.014062  1
  Tm  Tm11  1  0.177434  0.353950  0.720112  1
  Tm  Tm12  1  0.646050  0.822566  0.720112  1
  Tm  Tm13  1  0.176854  0.823146  0.719187  1
  Tm  Tm14  1  0.822362  0.645938  0.218305  1
  Tm  Tm15  1  0.354062  0.177638  0.218305  1
  In  In16  1  0.837902  0.675860  0.763105  1
  In  In17  1  0.324140  0.162098  0.763105  1
  In  In18  1  0.837720  0.162280  0.760539  1
  In  In19  1  0.164967  0.326211  0.262729  1
  In  In20  1  0.673789  0.835033  0.262729  1
  In  In21  1  0.162292  0.837708  0.263339  1
  Ir  Ir22  1  0.665852  0.334148  0.287971  1
  Ir  Ir23  1  0.334279  0.665721  0.788434  1
