# generated using pymatgen
data_Tb7Th(TcB6)4
_symmetry_space_group_name_H-M   'P 1'
_cell_length_a   3.73191300
_cell_length_b   9.20833633
_cell_length_c   11.60973909
_cell_angle_alpha   90.03378439
_cell_angle_beta   90.00000000
_cell_angle_gamma   90.00000000
_symmetry_Int_Tables_number   1
_chemical_formula_structural   Tb7Th(TcB6)4
_chemical_formula_sum   'Tb7 Th1 Tc4 B24'
_cell_volume   398.96524824
_cell_formula_units_Z   1
loop_
 _symmetry_equiv_pos_site_id
 _symmetry_equiv_pos_as_xyz
  1  'x, y, z'
loop_
 _atom_site_type_symbol
 _atom_site_label
 _atom_site_symmetry_multiplicity
 _atom_site_fract_x
 _atom_site_fract_y
 _atom_site_fract_z
 _atom_site_occupancy
  Tb  Tb0  1  0.000000  0.676979  0.587139  1
  Tb  Tb1  1  0.000000  0.824105  0.085000  1
  Tb  Tb2  1  0.000000  0.175277  0.914051  1
  Tb  Tb3  1  0.000000  0.941352  0.368512  1
  Tb  Tb4  1  0.000000  0.056516  0.632187  1
  Tb  Tb5  1  0.000000  0.443132  0.129338  1
  Tb  Tb6  1  0.000000  0.557877  0.869615  1
  Th  Th7  1  0.000000  0.323325  0.414109  1
  Tc  Tc8  1  0.000000  0.638751  0.320613  1
  Tc  Tc9  1  0.000000  0.361775  0.679896  1
  Tc  Tc10  1  0.000000  0.138561  0.178611  1
  Tc  Tc11  1  0.000000  0.861439  0.820855  1
  B  B12  1  0.500000  0.555794  0.432245  1
  B  B13  1  0.500000  0.446835  0.569527  1
  B  B14  1  0.500000  0.053228  0.066699  1
  B  B15  1  0.500000  0.946387  0.932666  1
  B  B16  1  0.500000  0.749204  0.418095  1
  B  B17  1  0.500000  0.251652  0.584855  1
  B  B18  1  0.500000  0.248050  0.080634  1
  B  B19  1  0.500000  0.751693  0.918189  1
  B  B20  1  0.500000  0.791366  0.265213  1
  B  B21  1  0.500000  0.208776  0.735741  1
  B  B22  1  0.500000  0.289856  0.232274  1
  B  B23  1  0.500000  0.708692  0.765724  1
  B  B24  1  0.500000  0.632308  0.185123  1
  B  B25  1  0.500000  0.369058  0.814638  1
  B  B26  1  0.500000  0.129830  0.312086  1
  B  B27  1  0.500000  0.868513  0.686549  1
  B  B28  1  0.500000  0.983014  0.210792  1
  B  B29  1  0.500000  0.016185  0.788828  1
  B  B30  1  0.500000  0.486282  0.286828  1
  B  B31  1  0.500000  0.517142  0.712974  1
  B  B32  1  0.500000  0.602419  0.027998  1
  B  B33  1  0.500000  0.398273  0.971217  1
  B  B34  1  0.500000  0.098201  0.472581  1
  B  B35  1  0.500000  0.898149  0.528595  1
