# generated using pymatgen
data_KNdH6Rh
_symmetry_space_group_name_H-M   'P 1'
_cell_length_a   7.63257300
_cell_length_b   7.63257300
_cell_length_c   7.63257300
_cell_angle_alpha   90.00000000
_cell_angle_beta   90.00000000
_cell_angle_gamma   90.00000000
_symmetry_Int_Tables_number   1
_chemical_formula_structural   KNdH6Rh
_chemical_formula_sum   'K4 Nd4 H24 Rh4'
_cell_volume   444.64447481
_cell_formula_units_Z   4
loop_
 _symmetry_equiv_pos_site_id
 _symmetry_equiv_pos_as_xyz
  1  'x, y, z'
loop_
 _atom_site_type_symbol
 _atom_site_label
 _atom_site_symmetry_multiplicity
 _atom_site_fract_x
 _atom_site_fract_y
 _atom_site_fract_z
 _atom_site_occupancy
  K  K0  1  0.000000  0.000000  0.500000  1
  K  K1  1  0.000000  0.500000  0.000000  1
  K  K2  1  0.500000  0.000000  0.000000  1
  K  K3  1  0.000000  0.000000  0.000000  1
  Nd  Nd4  1  0.500000  0.500000  0.500000  1
  Nd  Nd5  1  0.000000  0.500000  0.500000  1
  Nd  Nd6  1  0.500000  0.000000  0.500000  1
  Nd  Nd7  1  0.500000  0.500000  0.000000  1
  H  H8  1  0.734522  0.734522  0.496647  1
  H  H9  1  0.265478  0.265478  0.496647  1
  H  H10  1  0.048209  0.727677  0.727677  1
  H  H11  1  0.272323  0.951791  0.727677  1
  H  H12  1  0.727677  0.048209  0.727677  1
  H  H13  1  0.951791  0.272323  0.727677  1
  H  H14  1  0.734522  0.496647  0.734522  1
  H  H15  1  0.496647  0.734522  0.734522  1
  H  H16  1  0.503353  0.265478  0.734522  1
  H  H17  1  0.265478  0.503353  0.734522  1
  H  H18  1  0.272323  0.727677  0.951791  1
  H  H19  1  0.727677  0.272323  0.951791  1
  H  H20  1  0.727677  0.727677  0.048209  1
  H  H21  1  0.272323  0.272323  0.048209  1
  H  H22  1  0.265478  0.496647  0.265478  1
  H  H23  1  0.503353  0.734522  0.265478  1
  H  H24  1  0.496647  0.265478  0.265478  1
  H  H25  1  0.734522  0.503353  0.265478  1
  H  H26  1  0.951791  0.727677  0.272323  1
  H  H27  1  0.727677  0.951791  0.272323  1
  H  H28  1  0.272323  0.048209  0.272323  1
  H  H29  1  0.048209  0.272323  0.272323  1
  H  H30  1  0.265478  0.734522  0.503353  1
  H  H31  1  0.734522  0.265478  0.503353  1
  Rh  Rh32  1  0.271862  0.728138  0.728138  1
  Rh  Rh33  1  0.728138  0.271862  0.728138  1
  Rh  Rh34  1  0.728138  0.728138  0.271862  1
  Rh  Rh35  1  0.271862  0.271862  0.271862  1
