# generated using pymatgen
data_Ac6MgCd22Sb
_symmetry_space_group_name_H-M   'P 1'
_cell_length_a   10.37209632
_cell_length_b   10.37209682
_cell_length_c   10.37209600
_cell_angle_alpha   60.00000262
_cell_angle_beta   60.00000103
_cell_angle_gamma   60.00000411
_symmetry_Int_Tables_number   1
_chemical_formula_structural   Ac6MgCd22Sb
_chemical_formula_sum   'Ac6 Mg1 Cd22 Sb1'
_cell_volume   789.01390848
_cell_formula_units_Z   1
loop_
 _symmetry_equiv_pos_site_id
 _symmetry_equiv_pos_as_xyz
  1  'x, y, z'
loop_
 _atom_site_type_symbol
 _atom_site_label
 _atom_site_symmetry_multiplicity
 _atom_site_fract_x
 _atom_site_fract_y
 _atom_site_fract_z
 _atom_site_occupancy
  Ac  Ac0  1  0.779416  0.779416  0.220584  1
  Ac  Ac1  1  0.220584  0.779416  0.220584  1
  Ac  Ac2  1  0.779416  0.220584  0.220584  1
  Ac  Ac3  1  0.220584  0.220584  0.779416  1
  Ac  Ac4  1  0.779416  0.220584  0.779416  1
  Ac  Ac5  1  0.220584  0.779416  0.779416  1
  Mg  Mg6  1  0.500000  0.500000  0.500000  1
  Cd  Cd7  1  0.830463  0.830463  0.508608  1
  Cd  Cd8  1  0.830463  0.508608  0.830463  1
  Cd  Cd9  1  0.508608  0.830463  0.830463  1
  Cd  Cd10  1  0.830463  0.830463  0.830463  1
  Cd  Cd11  1  0.169537  0.169537  0.491392  1
  Cd  Cd12  1  0.169537  0.491392  0.169537  1
  Cd  Cd13  1  0.491392  0.169537  0.169537  1
  Cd  Cd14  1  0.169537  0.169537  0.169537  1
  Cd  Cd15  1  0.623246  0.623246  0.130265  1
  Cd  Cd16  1  0.623246  0.130265  0.623246  1
  Cd  Cd17  1  0.130265  0.623246  0.623246  1
  Cd  Cd18  1  0.623246  0.623246  0.623246  1
  Cd  Cd19  1  0.376754  0.376754  0.869735  1
  Cd  Cd20  1  0.376754  0.869735  0.376754  1
  Cd  Cd21  1  0.869735  0.376754  0.376754  1
  Cd  Cd22  1  0.376754  0.376754  0.376754  1
  Cd  Cd23  1  0.000000  0.000000  0.500000  1
  Cd  Cd24  1  0.500000  0.000000  0.500000  1
  Cd  Cd25  1  0.000000  0.500000  0.500000  1
  Cd  Cd26  1  0.500000  0.500000  0.000000  1
  Cd  Cd27  1  0.000000  0.500000  0.000000  1
  Cd  Cd28  1  0.500000  0.000000  0.000000  1
  Sb  Sb29  1  0.000000  0.000000  0.000000  1
