# generated using pymatgen
data_Tb2Y2MoOs7
_symmetry_space_group_name_H-M   'P 1'
_cell_length_a   5.31062812
_cell_length_b   5.31062773
_cell_length_c   8.91460800
_cell_angle_alpha   90.00167843
_cell_angle_beta   89.99832326
_cell_angle_gamma   118.19100817
_symmetry_Int_Tables_number   1
_chemical_formula_structural   Tb2Y2MoOs7
_chemical_formula_sum   'Tb2 Y2 Mo1 Os7'
_cell_volume   221.59298637
_cell_formula_units_Z   1
loop_
 _symmetry_equiv_pos_site_id
 _symmetry_equiv_pos_as_xyz
  1  'x, y, z'
loop_
 _atom_site_type_symbol
 _atom_site_label
 _atom_site_symmetry_multiplicity
 _atom_site_fract_x
 _atom_site_fract_y
 _atom_site_fract_z
 _atom_site_occupancy
  Tb  Tb0  1  0.329912  0.670088  0.437969  1
  Tb  Tb1  1  0.665978  0.334022  0.565816  1
  Y  Y2  1  0.666070  0.333930  0.934039  1
  Y  Y3  1  0.329856  0.670144  0.062274  1
  Mo  Mo4  1  0.833824  0.166176  0.249760  1
  Os  Os5  1  0.993178  0.006822  0.501965  1
  Os  Os6  1  0.993307  0.006693  0.997979  1
  Os  Os7  1  0.826096  0.652197  0.249772  1
  Os  Os8  1  0.347803  0.173904  0.249772  1
  Os  Os9  1  0.178956  0.821044  0.750206  1
  Os  Os10  1  0.172055  0.337035  0.750223  1
  Os  Os11  1  0.662965  0.827945  0.750223  1
