# generated using pymatgen
data_Sc4FeCo9(P6Rh5)2
_symmetry_space_group_name_H-M   'P 1'
_cell_length_a   3.70200800
_cell_length_b   10.47159624
_cell_length_c   12.09055226
_cell_angle_alpha   90.02414432
_cell_angle_beta   90.00000000
_cell_angle_gamma   90.00000000
_symmetry_Int_Tables_number   1
_chemical_formula_structural   Sc4FeCo9(P6Rh5)2
_chemical_formula_sum   'Sc4 Fe1 Co9 P12 Rh10'
_cell_volume   468.70149787
_cell_formula_units_Z   1
loop_
 _symmetry_equiv_pos_site_id
 _symmetry_equiv_pos_as_xyz
  1  'x, y, z'
loop_
 _atom_site_type_symbol
 _atom_site_label
 _atom_site_symmetry_multiplicity
 _atom_site_fract_x
 _atom_site_fract_y
 _atom_site_fract_z
 _atom_site_occupancy
  Sc  Sc0  1  0.250000  0.586584  0.713937  1
  Sc  Sc1  1  0.250000  0.914411  0.212853  1
  Sc  Sc2  1  0.750000  0.423792  0.290245  1
  Sc  Sc3  1  0.750000  0.073664  0.789502  1
  Fe  Fe4  1  0.250000  0.877395  0.695761  1
  Co  Co5  1  0.750000  0.776414  0.823290  1
  Co  Co6  1  0.750000  0.721890  0.321292  1
  Co  Co7  1  0.250000  0.621862  0.197239  1
  Co  Co8  1  0.750000  0.110686  0.301661  1
  Co  Co9  1  0.750000  0.389132  0.802129  1
  Co  Co10  1  0.250000  0.463793  0.930186  1
  Co  Co11  1  0.250000  0.036754  0.431022  1
  Co  Co12  1  0.750000  0.539371  0.068653  1
  Co  Co13  1  0.750000  0.960320  0.567729  1
  P  P14  1  0.250000  0.431958  0.112224  1
  P  P15  1  0.250000  0.066770  0.613061  1
  P  P16  1  0.750000  0.578731  0.886953  1
  P  P17  1  0.750000  0.921186  0.386237  1
  P  P18  1  0.250000  0.269792  0.869663  1
  P  P19  1  0.250000  0.229370  0.369660  1
  P  P20  1  0.750000  0.729289  0.139658  1
  P  P21  1  0.750000  0.771163  0.641677  1
  P  P22  1  0.250000  0.604377  0.377105  1
  P  P23  1  0.250000  0.895789  0.875429  1
  P  P24  1  0.750000  0.405499  0.619836  1
  P  P25  1  0.750000  0.095112  0.119433  1
  Rh  Rh26  1  0.250000  0.712724  0.985339  1
  Rh  Rh27  1  0.250000  0.789561  0.482384  1
  Rh  Rh28  1  0.750000  0.283902  0.007935  1
  Rh  Rh29  1  0.750000  0.217688  0.506723  1
  Rh  Rh30  1  0.250000  0.413234  0.474875  1
  Rh  Rh31  1  0.250000  0.086908  0.975012  1
  Rh  Rh32  1  0.750000  0.597593  0.525675  1
  Rh  Rh33  1  0.750000  0.903361  0.025009  1
  Rh  Rh34  1  0.250000  0.227210  0.180387  1
  Rh  Rh35  1  0.250000  0.272715  0.680233  1
