# generated using pymatgen
data_CaGd3(ZnPt)4
_symmetry_space_group_name_H-M   'P 1'
_cell_length_a   4.09896400
_cell_length_b   7.00542255
_cell_length_c   8.30925600
_cell_angle_alpha   89.97735297
_cell_angle_beta   90.00000000
_cell_angle_gamma   90.00000000
_symmetry_Int_Tables_number   1
_chemical_formula_structural   CaGd3(ZnPt)4
_chemical_formula_sum   'Ca1 Gd3 Zn4 Pt4'
_cell_volume   238.60005822
_cell_formula_units_Z   1
loop_
 _symmetry_equiv_pos_site_id
 _symmetry_equiv_pos_as_xyz
  1  'x, y, z'
loop_
 _atom_site_type_symbol
 _atom_site_label
 _atom_site_symmetry_multiplicity
 _atom_site_fract_x
 _atom_site_fract_y
 _atom_site_fract_z
 _atom_site_occupancy
  Ca  Ca0  1  0.750000  0.458322  0.815237  1
  Gd  Gd1  1  0.250000  0.041783  0.317086  1
  Gd  Gd2  1  0.250000  0.542068  0.181685  1
  Gd  Gd3  1  0.750000  0.958325  0.686128  1
  Zn  Zn4  1  0.250000  0.140991  0.936831  1
  Zn  Zn5  1  0.250000  0.636069  0.564438  1
  Zn  Zn6  1  0.750000  0.861349  0.061685  1
  Zn  Zn7  1  0.750000  0.362792  0.437617  1
  Pt  Pt8  1  0.250000  0.251564  0.619013  1
  Pt  Pt9  1  0.250000  0.761922  0.876683  1
  Pt  Pt10  1  0.750000  0.743792  0.376507  1
  Pt  Pt11  1  0.750000  0.241022  0.127087  1
