# generated using pymatgen
data_Li29ZnSi7Ge
_symmetry_space_group_name_H-M   'P 1'
_cell_length_a   9.14456017
_cell_length_b   9.16749889
_cell_length_c   9.08999692
_cell_angle_alpha   109.17178181
_cell_angle_beta   109.56311883
_cell_angle_gamma   109.81825032
_symmetry_Int_Tables_number   1
_chemical_formula_structural   Li29ZnSi7Ge
_chemical_formula_sum   'Li29 Zn1 Si7 Ge1'
_cell_volume   585.59200189
_cell_formula_units_Z   1
loop_
 _symmetry_equiv_pos_site_id
 _symmetry_equiv_pos_as_xyz
  1  'x, y, z'
loop_
 _atom_site_type_symbol
 _atom_site_label
 _atom_site_symmetry_multiplicity
 _atom_site_fract_x
 _atom_site_fract_y
 _atom_site_fract_z
 _atom_site_occupancy
  Li  Li0  1  0.123905  0.750253  0.876343  1
  Li  Li1  1  0.723803  0.342018  0.810466  1
  Li  Li2  1  0.616723  0.773302  0.587394  1
  Li  Li3  1  0.034807  0.916954  0.692674  1
  Li  Li4  1  0.086417  0.275829  0.117040  1
  Li  Li5  1  0.913428  0.690215  0.030547  1
  Li  Li6  1  0.275235  0.116639  0.084749  1
  Li  Li7  1  0.197605  0.419524  0.535886  1
  Li  Li8  1  0.778836  0.586661  0.620660  1
  Li  Li9  1  0.690099  0.028462  0.912767  1
  Li  Li10  1  0.527231  0.186796  0.413012  1
  Li  Li11  1  0.622658  0.375231  0.247552  1
  Li  Li12  1  0.470689  0.164192  0.884437  1
  Li  Li13  1  0.876111  0.125451  0.752348  1
  Li  Li14  1  0.968989  0.380559  0.658541  1
  Li  Li15  1  0.413658  0.531230  0.189806  1
  Li  Li16  1  0.117976  0.087331  0.276642  1
  Li  Li17  1  0.305018  0.837170  0.220230  1
  Li  Li18  1  0.752100  0.874583  0.125072  1
  Li  Li19  1  0.883937  0.469805  0.159449  1
  Li  Li20  1  0.584181  0.619851  0.776615  1
  Li  Li21  1  0.380448  0.656834  0.962443  1
  Li  Li22  1  0.809750  0.725674  0.341477  1
  Li  Li23  1  0.656447  0.961480  0.379146  1
  Li  Li24  1  0.155678  0.882555  0.465522  1
  Li  Li25  1  0.223016  0.309001  0.842228  1
  Li  Li26  1  0.372862  0.251120  0.626656  1
  Li  Li27  1  0.844368  0.222585  0.307420  1
  Li  Li28  1  0.252369  0.623769  0.377438  1
  Zn  Zn29  1  0.334424  0.816734  0.726949  1
  Si  Si30  1  0.585889  0.500945  0.001044  1
  Si  Si31  1  0.497024  0.996534  0.075826  1
  Si  Si32  1  0.998417  0.086336  0.499679  1
  Si  Si33  1  0.009946  0.591002  0.506360  1
  Si  Si34  1  0.084930  0.499875  0.999505  1
  Si  Si35  1  0.417946  0.410876  0.412995  1
  Si  Si36  1  0.915978  0.916091  0.915662  1
  Ge  Ge37  1  0.497107  0.996531  0.587420  1
