# generated using pymatgen
data_CeNd15(HgPt)4
_symmetry_space_group_name_H-M   'P 1'
_cell_length_a   10.00864921
_cell_length_b   10.00864813
_cell_length_c   10.00864839
_cell_angle_alpha   59.84693857
_cell_angle_beta   59.84694113
_cell_angle_gamma   59.84694574
_symmetry_Int_Tables_number   1
_chemical_formula_structural   CeNd15(HgPt)4
_chemical_formula_sum   'Ce1 Nd15 Hg4 Pt4'
_cell_volume   706.48046748
_cell_formula_units_Z   1
loop_
 _symmetry_equiv_pos_site_id
 _symmetry_equiv_pos_as_xyz
  1  'x, y, z'
loop_
 _atom_site_type_symbol
 _atom_site_label
 _atom_site_symmetry_multiplicity
 _atom_site_fract_x
 _atom_site_fract_y
 _atom_site_fract_z
 _atom_site_occupancy
  Ce  Ce0  1  0.349535  0.349535  0.349535  1
  Nd  Nd1  1  0.353222  0.353222  0.941100  1
  Nd  Nd2  1  0.353222  0.941100  0.353222  1
  Nd  Nd3  1  0.941100  0.353222  0.353222  1
  Nd  Nd4  1  0.808901  0.191615  0.191615  1
  Nd  Nd5  1  0.191656  0.808839  0.808839  1
  Nd  Nd6  1  0.191615  0.808901  0.191615  1
  Nd  Nd7  1  0.808839  0.191656  0.808839  1
  Nd  Nd8  1  0.191615  0.191615  0.808901  1
  Nd  Nd9  1  0.808839  0.808839  0.191656  1
  Nd  Nd10  1  0.941608  0.562470  0.562470  1
  Nd  Nd11  1  0.562938  0.935788  0.935788  1
  Nd  Nd12  1  0.562470  0.941608  0.562470  1
  Nd  Nd13  1  0.935788  0.562938  0.935788  1
  Nd  Nd14  1  0.562470  0.562470  0.941608  1
  Nd  Nd15  1  0.935788  0.935788  0.562938  1
  Hg  Hg16  1  0.585302  0.585302  0.585302  1
  Hg  Hg17  1  0.583152  0.583152  0.246294  1
  Hg  Hg18  1  0.583152  0.246294  0.583152  1
  Hg  Hg19  1  0.246294  0.583152  0.583152  1
  Pt  Pt20  1  0.143824  0.143824  0.143824  1
  Pt  Pt21  1  0.145706  0.145706  0.567255  1
  Pt  Pt22  1  0.145706  0.567255  0.145706  1
  Pt  Pt23  1  0.567255  0.145706  0.145706  1
