# generated using pymatgen
data_Sc2Al9Tc5
_symmetry_space_group_name_H-M   'P 1'
_cell_length_a   7.62770307
_cell_length_b   7.62770369
_cell_length_c   7.62770641
_cell_angle_alpha   130.73700963
_cell_angle_beta   130.73700652
_cell_angle_gamma   72.23126619
_symmetry_Int_Tables_number   1
_chemical_formula_structural   Sc2Al9Tc5
_chemical_formula_sum   'Sc2 Al9 Tc5'
_cell_volume   249.10125526
_cell_formula_units_Z   1
loop_
 _symmetry_equiv_pos_site_id
 _symmetry_equiv_pos_as_xyz
  1  'x, y, z'
loop_
 _atom_site_type_symbol
 _atom_site_label
 _atom_site_symmetry_multiplicity
 _atom_site_fract_x
 _atom_site_fract_y
 _atom_site_fract_z
 _atom_site_occupancy
  Sc  Sc0  1  0.000000  0.500000  0.500000  1
  Sc  Sc1  1  0.500000  0.000000  0.500000  1
  Al  Al2  1  0.426669  0.861641  0.000000  1
  Al  Al3  1  0.138360  0.138360  0.565028  1
  Al  Al4  1  0.861641  0.426669  0.000000  1
  Al  Al5  1  0.861640  0.861640  0.434972  1
  Al  Al6  1  0.573331  0.138359  0.000000  1
  Al  Al7  1  0.138359  0.573331  0.000000  1
  Al  Al8  1  0.573331  0.573331  0.434972  1
  Al  Al9  1  0.000000  0.000000  0.000000  1
  Al  Al10  1  0.426669  0.426669  0.565028  1
  Tc  Tc11  1  0.201417  0.201417  0.000002  1
  Tc  Tc12  1  0.798583  0.798583  0.999998  1
  Tc  Tc13  1  0.249999  0.750001  0.500000  1
  Tc  Tc14  1  0.750001  0.249999  0.500000  1
  Tc  Tc15  1  0.500000  0.500000  0.000000  1
