# generated using pymatgen
data_Ho5Er7IrOs3
_symmetry_space_group_name_H-M   'P 1'
_cell_length_a   6.30839905
_cell_length_b   7.34481195
_cell_length_c   8.97882429
_cell_angle_alpha   89.99164773
_cell_angle_beta   90.05993798
_cell_angle_gamma   90.03696629
_symmetry_Int_Tables_number   1
_chemical_formula_structural   Ho5Er7IrOs3
_chemical_formula_sum   'Ho5 Er7 Ir1 Os3'
_cell_volume   416.02456895
_cell_formula_units_Z   1
loop_
 _symmetry_equiv_pos_site_id
 _symmetry_equiv_pos_as_xyz
  1  'x, y, z'
loop_
 _atom_site_type_symbol
 _atom_site_label
 _atom_site_symmetry_multiplicity
 _atom_site_fract_x
 _atom_site_fract_y
 _atom_site_fract_z
 _atom_site_occupancy
  Ho  Ho0  1  0.333543  0.674330  0.062235  1
  Ho  Ho1  1  0.870569  0.537308  0.250214  1
  Ho  Ho2  1  0.629122  0.038959  0.250077  1
  Ho  Ho3  1  0.129315  0.461893  0.749796  1
  Ho  Ho4  1  0.370401  0.961983  0.749832  1
  Er  Er5  1  0.168014  0.176615  0.437878  1
  Er  Er6  1  0.667791  0.324878  0.562987  1
  Er  Er7  1  0.830431  0.824399  0.935175  1
  Er  Er8  1  0.667865  0.324660  0.936811  1
  Er  Er9  1  0.830514  0.824327  0.564684  1
  Er  Er10  1  0.333610  0.674004  0.437943  1
  Er  Er11  1  0.168061  0.176550  0.062076  1
  Ir  Ir12  1  0.041091  0.883153  0.250331  1
  Os  Os13  1  0.458865  0.382638  0.250267  1
  Os  Os14  1  0.960500  0.116698  0.750095  1
  Os  Os15  1  0.540307  0.617605  0.749599  1
