# generated using pymatgen
data_Hf12Zn5Cu3(PdN)4
_symmetry_space_group_name_H-M   'P 1'
_cell_length_a   8.49456868
_cell_length_b   8.49162205
_cell_length_c   8.49456700
_cell_angle_alpha   59.98850760
_cell_angle_beta   59.99995591
_cell_angle_gamma   59.98849772
_symmetry_Int_Tables_number   1
_chemical_formula_structural   Hf12Zn5Cu3(PdN)4
_chemical_formula_sum   'Hf12 Zn5 Cu3 Pd4 N4'
_cell_volume   433.19416403
_cell_formula_units_Z   1
loop_
 _symmetry_equiv_pos_site_id
 _symmetry_equiv_pos_as_xyz
  1  'x, y, z'
loop_
 _atom_site_type_symbol
 _atom_site_label
 _atom_site_symmetry_multiplicity
 _atom_site_fract_x
 _atom_site_fract_y
 _atom_site_fract_z
 _atom_site_occupancy
  Hf  Hf0  1  0.812254  0.188914  0.186576  1
  Hf  Hf1  1  0.188497  0.811803  0.188497  1
  Hf  Hf2  1  0.811202  0.811803  0.188497  1
  Hf  Hf3  1  0.188497  0.811804  0.811202  1
  Hf  Hf4  1  0.812255  0.188914  0.812255  1
  Hf  Hf5  1  0.186576  0.188913  0.812255  1
  Hf  Hf6  1  0.439444  0.061353  0.059759  1
  Hf  Hf7  1  0.064708  0.435596  0.064708  1
  Hf  Hf8  1  0.434989  0.435596  0.064708  1
  Hf  Hf9  1  0.064708  0.435595  0.434989  1
  Hf  Hf10  1  0.439443  0.061353  0.439444  1
  Hf  Hf11  1  0.059759  0.061353  0.439444  1
  Zn  Zn12  1  0.829852  0.510444  0.829852  1
  Zn  Zn13  1  0.626006  0.614623  0.133364  1
  Zn  Zn14  1  0.626006  0.614624  0.626006  1
  Zn  Zn15  1  0.133364  0.614623  0.626006  1
  Zn  Zn16  1  0.622228  0.133316  0.622228  1
  Cu  Cu17  1  0.414273  0.413908  0.757546  1
  Cu  Cu18  1  0.414274  0.413908  0.414274  1
  Cu  Cu19  1  0.757546  0.413907  0.414274  1
  Pd  Pd20  1  0.413000  0.760998  0.413000  1
  Pd  Pd21  1  0.837856  0.837214  0.487073  1
  Pd  Pd22  1  0.837857  0.837215  0.837857  1
  Pd  Pd23  1  0.487073  0.837214  0.837856  1
  N  N24  1  0.124864  0.125636  0.624637  1
  N  N25  1  0.124864  0.125636  0.124863  1
  N  N26  1  0.624636  0.125636  0.124864  1
  N  N27  1  0.123967  0.628100  0.123967  1
