# generated using pymatgen
data_V3Zn(SiRh5)2
_symmetry_space_group_name_H-M   'P 1'
_cell_length_a   3.93162700
_cell_length_b   5.36924147
_cell_length_c   10.40694772
_cell_angle_alpha   90.57981018
_cell_angle_beta   90.00000000
_cell_angle_gamma   90.00000000
_symmetry_Int_Tables_number   1
_chemical_formula_structural   V3Zn(SiRh5)2
_chemical_formula_sum   'V3 Zn1 Si2 Rh10'
_cell_volume   219.67790596
_cell_formula_units_Z   1
loop_
 _symmetry_equiv_pos_site_id
 _symmetry_equiv_pos_as_xyz
  1  'x, y, z'
loop_
 _atom_site_type_symbol
 _atom_site_label
 _atom_site_symmetry_multiplicity
 _atom_site_fract_x
 _atom_site_fract_y
 _atom_site_fract_z
 _atom_site_occupancy
  V  V0  1  0.500000  0.840058  0.362909  1
  V  V1  1  0.500000  0.668500  0.851469  1
  V  V2  1  0.500000  0.335397  0.141597  1
  Zn  Zn3  1  0.500000  0.163755  0.642669  1
  Si  Si4  1  0.000000  0.503759  0.498141  1
  Si  Si5  1  0.000000  0.997036  0.001452  1
  Rh  Rh6  1  0.500000  0.319278  0.389172  1
  Rh  Rh7  1  0.500000  0.676255  0.602135  1
  Rh  Rh8  1  0.500000  0.810236  0.106326  1
  Rh  Rh9  1  0.500000  0.187144  0.903060  1
  Rh  Rh10  1  0.000000  0.424385  0.740891  1
  Rh  Rh11  1  0.000000  0.581665  0.259886  1
  Rh  Rh12  1  0.000000  0.911205  0.767722  1
  Rh  Rh13  1  0.000000  0.082049  0.236575  1
  Rh  Rh14  1  0.000000  0.500520  0.000921  1
  Rh  Rh15  1  0.000000  0.998758  0.495075  1
