# generated using pymatgen
data_Y3Er7(In2Ru)4
_symmetry_space_group_name_H-M   'P 1'
_cell_length_a   18.30834917
_cell_length_b   8.10590452
_cell_length_c   3.52678300
_cell_angle_alpha   90.00000000
_cell_angle_beta   90.00000000
_cell_angle_gamma   89.95906397
_symmetry_Int_Tables_number   1
_chemical_formula_structural   Y3Er7(In2Ru)4
_chemical_formula_sum   'Y3 Er7 In8 Ru4'
_cell_volume   523.39467287
_cell_formula_units_Z   1
loop_
 _symmetry_equiv_pos_site_id
 _symmetry_equiv_pos_as_xyz
  1  'x, y, z'
loop_
 _atom_site_type_symbol
 _atom_site_label
 _atom_site_symmetry_multiplicity
 _atom_site_fract_x
 _atom_site_fract_y
 _atom_site_fract_z
 _atom_site_occupancy
  Y  Y0  1  0.000111  0.999904  0.000000  1
  Y  Y1  1  0.499613  0.499467  0.000000  1
  Y  Y2  1  0.588089  0.883760  0.000000  1
  Er  Er3  1  0.410711  0.115551  0.000000  1
  Er  Er4  1  0.221562  0.239465  0.000000  1
  Er  Er5  1  0.722189  0.260804  0.000000  1
  Er  Er6  1  0.911192  0.384674  0.000000  1
  Er  Er7  1  0.088815  0.615545  0.000000  1
  Er  Er8  1  0.278054  0.739245  0.000000  1
  Er  Er9  1  0.778414  0.760756  0.000000  1
  In  In10  1  0.850307  0.072051  0.500000  1
  In  In11  1  0.568629  0.207930  0.500000  1
  In  In12  1  0.068353  0.293710  0.500000  1
  In  In13  1  0.349634  0.427792  0.500000  1
  In  In14  1  0.650439  0.569658  0.500000  1
  In  In15  1  0.931749  0.706326  0.500000  1
  In  In16  1  0.430872  0.793397  0.500000  1
  In  In17  1  0.150073  0.928052  0.500000  1
  Ru  Ru18  1  0.303054  0.012803  0.500000  1
  Ru  Ru19  1  0.803583  0.487707  0.500000  1
  Ru  Ru20  1  0.196561  0.512870  0.500000  1
  Ru  Ru21  1  0.697997  0.988537  0.500000  1
