# generated using pymatgen
data_Tm5ScC2I7
_symmetry_space_group_name_H-M   'P 1'
_cell_length_a   10.90439299
_cell_length_b   10.90439343
_cell_length_c   12.79431417
_cell_angle_alpha   58.53329584
_cell_angle_beta   58.53329425
_cell_angle_gamma   20.57507154
_symmetry_Int_Tables_number   1
_chemical_formula_structural   Tm5ScC2I7
_chemical_formula_sum   'Tm5 Sc1 C2 I7'
_cell_volume   453.19850758
_cell_formula_units_Z   1
loop_
 _symmetry_equiv_pos_site_id
 _symmetry_equiv_pos_as_xyz
  1  'x, y, z'
loop_
 _atom_site_type_symbol
 _atom_site_label
 _atom_site_symmetry_multiplicity
 _atom_site_fract_x
 _atom_site_fract_y
 _atom_site_fract_z
 _atom_site_occupancy
  Tm  Tm0  1  0.306302  0.306302  0.380603  1
  Tm  Tm1  1  0.136927  0.136927  0.447795  1
  Tm  Tm2  1  0.861504  0.861504  0.555763  1
  Tm  Tm3  1  0.693655  0.693655  0.622817  1
  Tm  Tm4  1  0.761617  0.761617  0.199276  1
  Sc  Sc5  1  0.240229  0.240229  0.792223  1
  C  C6  1  0.280242  0.280242  0.594940  1
  C  C7  1  0.718933  0.718933  0.407165  1
  I  I8  1  0.159441  0.159441  0.183734  1
  I  I9  1  0.834209  0.834209  0.819308  1
  I  I10  1  0.059832  0.059832  0.719223  1
  I  I11  1  0.939540  0.939540  0.283568  1
  I  I12  1  0.499799  0.499799  0.500872  1
  I  I13  1  0.385069  0.385069  0.076223  1
  I  I14  1  0.622702  0.622702  0.916490  1
