# generated using pymatgen
data_ErZr7(Nb3Ge4)4
_symmetry_space_group_name_H-M   'P 1'
_cell_length_a   6.87744633
_cell_length_b   7.01253949
_cell_length_c   13.39623243
_cell_angle_alpha   90.07424750
_cell_angle_beta   89.96448802
_cell_angle_gamma   90.00385561
_symmetry_Int_Tables_number   1
_chemical_formula_structural   ErZr7(Nb3Ge4)4
_chemical_formula_sum   'Er1 Zr7 Nb12 Ge16'
_cell_volume   646.07770590
_cell_formula_units_Z   1
loop_
 _symmetry_equiv_pos_site_id
 _symmetry_equiv_pos_as_xyz
  1  'x, y, z'
loop_
 _atom_site_type_symbol
 _atom_site_label
 _atom_site_symmetry_multiplicity
 _atom_site_fract_x
 _atom_site_fract_y
 _atom_site_fract_z
 _atom_site_occupancy
  Er  Er0  1  0.993608  0.173269  0.091671  1
  Zr  Zr1  1  0.493154  0.326611  0.091864  1
  Zr  Zr2  1  0.990092  0.175597  0.407633  1
  Zr  Zr3  1  0.508853  0.674776  0.591405  1
  Zr  Zr4  1  0.009302  0.822637  0.905921  1
  Zr  Zr5  1  0.509077  0.676142  0.907024  1
  Zr  Zr6  1  0.009508  0.825715  0.591523  1
  Zr  Zr7  1  0.491239  0.324570  0.409052  1
  Nb  Nb8  1  0.663272  0.008889  0.749340  1
  Nb  Nb9  1  0.163186  0.492784  0.749944  1
  Nb  Nb10  1  0.337115  0.990958  0.251579  1
  Nb  Nb11  1  0.836105  0.508895  0.252265  1
  Nb  Nb12  1  0.839727  0.334400  0.624444  1
  Nb  Nb13  1  0.339447  0.165884  0.875214  1
  Nb  Nb14  1  0.160442  0.665811  0.125521  1
  Nb  Nb15  1  0.658772  0.832164  0.375884  1
  Nb  Nb16  1  0.160399  0.666400  0.376679  1
  Nb  Nb17  1  0.657722  0.831664  0.125517  1
  Nb  Nb18  1  0.837316  0.336108  0.874395  1
  Nb  Nb19  1  0.340191  0.165915  0.624724  1
  Ge  Ge20  1  0.804741  0.648666  0.749036  1
  Ge  Ge21  1  0.305490  0.852081  0.749563  1
  Ge  Ge22  1  0.196605  0.352795  0.251099  1
  Ge  Ge23  1  0.693216  0.148418  0.250435  1
  Ge  Ge24  1  0.537008  0.386388  0.749647  1
  Ge  Ge25  1  0.037267  0.114837  0.750252  1
  Ge  Ge26  1  0.461791  0.613087  0.250612  1
  Ge  Ge27  1  0.961577  0.884163  0.251246  1
  Ge  Ge28  1  0.681792  0.039525  0.539633  1
  Ge  Ge29  1  0.182359  0.462939  0.958881  1
  Ge  Ge30  1  0.323569  0.957584  0.039143  1
  Ge  Ge31  1  0.819222  0.539208  0.460659  1
  Ge  Ge32  1  0.317996  0.961625  0.460372  1
  Ge  Ge33  1  0.818239  0.541793  0.039105  1
  Ge  Ge34  1  0.679543  0.038210  0.958714  1
  Ge  Ge35  1  0.181056  0.459490  0.540002  1
