# generated using pymatgen
data_Ti2AlPtRh4
_symmetry_space_group_name_H-M   'P 1'
_cell_length_a   4.04213200
_cell_length_b   5.42417200
_cell_length_c   10.65301641
_cell_angle_alpha   90.96881194
_cell_angle_beta   90.00000000
_cell_angle_gamma   90.00000000
_symmetry_Int_Tables_number   1
_chemical_formula_structural   Ti2AlPtRh4
_chemical_formula_sum   'Ti4 Al2 Pt2 Rh8'
_cell_volume   233.53633054
_cell_formula_units_Z   2
loop_
 _symmetry_equiv_pos_site_id
 _symmetry_equiv_pos_as_xyz
  1  'x, y, z'
loop_
 _atom_site_type_symbol
 _atom_site_label
 _atom_site_symmetry_multiplicity
 _atom_site_fract_x
 _atom_site_fract_y
 _atom_site_fract_z
 _atom_site_occupancy
  Ti  Ti0  1  0.500000  0.332157  0.137691  1
  Ti  Ti1  1  0.500000  0.667843  0.862309  1
  Ti  Ti2  1  0.500000  0.818229  0.362981  1
  Ti  Ti3  1  0.500000  0.181771  0.637019  1
  Al  Al4  1  0.000000  0.000000  0.000000  1
  Al  Al5  1  0.000000  0.500000  0.500000  1
  Pt  Pt6  1  0.000000  0.076051  0.243059  1
  Pt  Pt7  1  0.000000  0.923949  0.756941  1
  Rh  Rh8  1  0.000000  0.000000  0.500000  1
  Rh  Rh9  1  0.000000  0.500000  0.000000  1
  Rh  Rh10  1  0.000000  0.577218  0.257478  1
  Rh  Rh11  1  0.000000  0.422782  0.742522  1
  Rh  Rh12  1  0.500000  0.309546  0.390417  1
  Rh  Rh13  1  0.500000  0.690454  0.609583  1
  Rh  Rh14  1  0.500000  0.810841  0.108611  1
  Rh  Rh15  1  0.500000  0.189159  0.891389  1
