# generated using pymatgen
data_Er20Cd6CoNi
_symmetry_space_group_name_H-M   'P 1'
_cell_length_a   9.50538900
_cell_length_b   9.50538932
_cell_length_c   9.66947800
_cell_angle_alpha   90.00000000
_cell_angle_beta   90.00000000
_cell_angle_gamma   119.99999542
_symmetry_Int_Tables_number   1
_chemical_formula_structural   Er20Cd6CoNi
_chemical_formula_sum   'Er20 Cd6 Co1 Ni1'
_cell_volume   756.61245329
_cell_formula_units_Z   1
loop_
 _symmetry_equiv_pos_site_id
 _symmetry_equiv_pos_as_xyz
  1  'x, y, z'
loop_
 _atom_site_type_symbol
 _atom_site_label
 _atom_site_symmetry_multiplicity
 _atom_site_fract_x
 _atom_site_fract_y
 _atom_site_fract_z
 _atom_site_occupancy
  Er  Er0  1  0.000000  0.000000  0.499773  1
  Er  Er1  1  0.000000  0.000000  0.000227  1
  Er  Er2  1  0.542545  0.457455  0.250000  1
  Er  Er3  1  0.542545  0.085090  0.250000  1
  Er  Er4  1  0.914910  0.457455  0.250000  1
  Er  Er5  1  0.456571  0.543429  0.750000  1
  Er  Er6  1  0.456571  0.913142  0.750000  1
  Er  Er7  1  0.086858  0.543429  0.750000  1
  Er  Er8  1  0.211785  0.788215  0.436471  1
  Er  Er9  1  0.211785  0.423571  0.436471  1
  Er  Er10  1  0.576429  0.788215  0.436471  1
  Er  Er11  1  0.789208  0.210792  0.562363  1
  Er  Er12  1  0.789208  0.578415  0.562363  1
  Er  Er13  1  0.421585  0.210792  0.562363  1
  Er  Er14  1  0.789208  0.210792  0.937637  1
  Er  Er15  1  0.789208  0.578415  0.937637  1
  Er  Er16  1  0.421585  0.210792  0.937637  1
  Er  Er17  1  0.211785  0.788215  0.063529  1
  Er  Er18  1  0.211785  0.423571  0.063529  1
  Er  Er19  1  0.576429  0.788215  0.063529  1
  Cd  Cd20  1  0.884874  0.115126  0.250000  1
  Cd  Cd21  1  0.884874  0.769749  0.250000  1
  Cd  Cd22  1  0.230251  0.115126  0.250000  1
  Cd  Cd23  1  0.115234  0.884766  0.750000  1
  Cd  Cd24  1  0.115234  0.230468  0.750000  1
  Cd  Cd25  1  0.769532  0.884766  0.750000  1
  Co  Co26  1  0.333333  0.666667  0.250000  1
  Ni  Ni27  1  0.666667  0.333333  0.750000  1
