# generated using pymatgen
data_TbGeSbO6
_symmetry_space_group_name_H-M   'P 1'
_cell_length_a   5.14087109
_cell_length_b   5.14085408
_cell_length_c   4.96357223
_cell_angle_alpha   90.02536857
_cell_angle_beta   90.02542691
_cell_angle_gamma   119.97261878
_symmetry_Int_Tables_number   1
_chemical_formula_structural   TbGeSbO6
_chemical_formula_sum   'Tb1 Ge1 Sb1 O6'
_cell_volume   113.63616248
_cell_formula_units_Z   1
loop_
 _symmetry_equiv_pos_site_id
 _symmetry_equiv_pos_as_xyz
  1  'x, y, z'
loop_
 _atom_site_type_symbol
 _atom_site_label
 _atom_site_symmetry_multiplicity
 _atom_site_fract_x
 _atom_site_fract_y
 _atom_site_fract_z
 _atom_site_occupancy
  Tb  Tb0  1  0.517476  0.482530  0.500004  1
  Ge  Ge1  1  0.850694  0.149307  0.000002  1
  Sb  Sb2  1  0.184187  0.815815  0.000005  1
  O  O3  1  0.148557  0.125210  0.218813  1
  O  O4  1  0.529233  0.852596  0.219550  1
  O  O5  1  0.875879  0.471514  0.219363  1
  O  O6  1  0.528486  0.124121  0.780645  1
  O  O7  1  0.147407  0.470770  0.780456  1
  O  O8  1  0.874795  0.851446  0.781193  1
