# generated using pymatgen
data_Tb2Tm(SnRh)3
_symmetry_space_group_name_H-M   'P 1'
_cell_length_a   7.70118700
_cell_length_b   7.67259315
_cell_length_c   3.73014100
_cell_angle_alpha   90.00000000
_cell_angle_beta   90.00000000
_cell_angle_gamma   120.12335242
_symmetry_Int_Tables_number   1
_chemical_formula_structural   Tb2Tm(SnRh)3
_chemical_formula_sum   'Tb2 Tm1 Sn3 Rh3'
_cell_volume   190.64023121
_cell_formula_units_Z   1
loop_
 _symmetry_equiv_pos_site_id
 _symmetry_equiv_pos_as_xyz
  1  'x, y, z'
loop_
 _atom_site_type_symbol
 _atom_site_label
 _atom_site_symmetry_multiplicity
 _atom_site_fract_x
 _atom_site_fract_y
 _atom_site_fract_z
 _atom_site_occupancy
  Tb  Tb0  1  0.000176  0.403980  0.000000  1
  Tb  Tb1  1  0.596196  0.596020  0.000000  1
  Tm  Tm2  1  0.403116  0.000000  0.000000  1
  Sn  Sn3  1  0.265576  0.263258  0.500000  1
  Sn  Sn4  1  0.002318  0.736742  0.500000  1
  Sn  Sn5  1  0.733269  0.000000  0.500000  1
  Rh  Rh6  1  0.664804  0.330900  0.500000  1
  Rh  Rh7  1  0.333903  0.669100  0.500000  1
  Rh  Rh8  1  0.000642  0.000000  0.000000  1
