# generated using pymatgen
data_LiNb12Si7(OsN)4
_symmetry_space_group_name_H-M   'P 1'
_cell_length_a   8.17773546
_cell_length_b   8.17773580
_cell_length_c   8.17773563
_cell_angle_alpha   60.26887593
_cell_angle_beta   60.26887428
_cell_angle_gamma   60.26887020
_symmetry_Int_Tables_number   1
_chemical_formula_structural   LiNb12Si7(OsN)4
_chemical_formula_sum   'Li1 Nb12 Si7 Os4 N4'
_cell_volume   389.06229238
_cell_formula_units_Z   1
loop_
 _symmetry_equiv_pos_site_id
 _symmetry_equiv_pos_as_xyz
  1  'x, y, z'
loop_
 _atom_site_type_symbol
 _atom_site_label
 _atom_site_symmetry_multiplicity
 _atom_site_fract_x
 _atom_site_fract_y
 _atom_site_fract_z
 _atom_site_occupancy
  Li  Li0  1  0.830793  0.830793  0.830793  1
  Nb  Nb1  1  0.807869  0.807869  0.196468  1
  Nb  Nb2  1  0.186127  0.186127  0.811829  1
  Nb  Nb3  1  0.807869  0.196468  0.807869  1
  Nb  Nb4  1  0.186127  0.811829  0.186127  1
  Nb  Nb5  1  0.196468  0.807869  0.807869  1
  Nb  Nb6  1  0.811829  0.186127  0.186127  1
  Nb  Nb7  1  0.438128  0.438128  0.061386  1
  Nb  Nb8  1  0.059603  0.059603  0.440323  1
  Nb  Nb9  1  0.438128  0.061386  0.438128  1
  Nb  Nb10  1  0.059603  0.440323  0.059603  1
  Nb  Nb11  1  0.061386  0.438128  0.438128  1
  Nb  Nb12  1  0.440323  0.059603  0.059603  1
  Si  Si13  1  0.758031  0.414674  0.414674  1
  Si  Si14  1  0.414674  0.758031  0.414674  1
  Si  Si15  1  0.414674  0.414674  0.758031  1
  Si  Si16  1  0.414463  0.414463  0.414463  1
  Si  Si17  1  0.499773  0.837868  0.837868  1
  Si  Si18  1  0.837868  0.499773  0.837868  1
  Si  Si19  1  0.837868  0.837868  0.499773  1
  Os  Os20  1  0.135745  0.619681  0.619681  1
  Os  Os21  1  0.619681  0.135745  0.619681  1
  Os  Os22  1  0.619681  0.619681  0.135745  1
  Os  Os23  1  0.627081  0.627081  0.627081  1
  N  N24  1  0.627707  0.121873  0.121873  1
  N  N25  1  0.121873  0.627707  0.121873  1
  N  N26  1  0.121873  0.121873  0.627707  1
  N  N27  1  0.124759  0.124759  0.124759  1
