# generated using pymatgen
data_CsBe2P3O10
_symmetry_space_group_name_H-M   'P 1'
_cell_length_a   7.64710605
_cell_length_b   7.64710663
_cell_length_c   9.11498833
_cell_angle_alpha   69.50325729
_cell_angle_beta   69.50325428
_cell_angle_gamma   72.08868170
_symmetry_Int_Tables_number   1
_chemical_formula_structural   CsBe2P3O10
_chemical_formula_sum   'Cs2 Be4 P6 O20'
_cell_volume   457.16791669
_cell_formula_units_Z   2
loop_
 _symmetry_equiv_pos_site_id
 _symmetry_equiv_pos_as_xyz
  1  'x, y, z'
loop_
 _atom_site_type_symbol
 _atom_site_label
 _atom_site_symmetry_multiplicity
 _atom_site_fract_x
 _atom_site_fract_y
 _atom_site_fract_z
 _atom_site_occupancy
  Cs  Cs0  1  0.703607  0.296393  0.250000  1
  Cs  Cs1  1  0.296393  0.703607  0.750000  1
  Be  Be2  1  0.698845  0.801082  0.928729  1
  Be  Be3  1  0.301155  0.198918  0.071271  1
  Be  Be4  1  0.198918  0.301155  0.571271  1
  Be  Be5  1  0.801082  0.698845  0.428729  1
  P  P6  1  0.867627  0.508518  0.746342  1
  P  P7  1  0.508518  0.867627  0.246342  1
  P  P8  1  0.132373  0.491482  0.253658  1
  P  P9  1  0.134678  0.865322  0.250000  1
  P  P10  1  0.865322  0.134678  0.750000  1
  P  P11  1  0.491482  0.132373  0.753658  1
  O  O12  1  0.607704  0.749610  0.124155  1
  O  O13  1  0.392296  0.250390  0.875845  1
  O  O14  1  0.250390  0.392296  0.375845  1
  O  O15  1  0.917215  0.535446  0.331120  1
  O  O16  1  0.703178  0.190240  0.657653  1
  O  O17  1  0.056469  0.147165  0.625321  1
  O  O18  1  0.809760  0.296822  0.842347  1
  O  O19  1  0.188439  0.399283  0.116488  1
  O  O20  1  0.749610  0.607704  0.624155  1
  O  O21  1  0.296822  0.809760  0.342347  1
  O  O22  1  0.535446  0.917215  0.831120  1
  O  O23  1  0.852835  0.943531  0.874679  1
  O  O24  1  0.464554  0.082785  0.168880  1
  O  O25  1  0.082785  0.464554  0.668880  1
  O  O26  1  0.600717  0.811561  0.383512  1
  O  O27  1  0.943531  0.852835  0.374679  1
  O  O28  1  0.190240  0.703178  0.157653  1
  O  O29  1  0.399283  0.188439  0.616488  1
  O  O30  1  0.811561  0.600717  0.883512  1
  O  O31  1  0.147165  0.056469  0.125321  1
