# generated using pymatgen
data_Sr2Cd14Rh3
_symmetry_space_group_name_H-M   'P 1'
_cell_length_a   7.56910616
_cell_length_b   7.56910802
_cell_length_c   7.56910615
_cell_angle_alpha   83.12942893
_cell_angle_beta   83.12944303
_cell_angle_gamma   83.12941820
_symmetry_Int_Tables_number   1
_chemical_formula_structural   Sr2Cd14Rh3
_chemical_formula_sum   'Sr2 Cd14 Rh3'
_cell_volume   424.99203447
_cell_formula_units_Z   1
loop_
 _symmetry_equiv_pos_site_id
 _symmetry_equiv_pos_as_xyz
  1  'x, y, z'
loop_
 _atom_site_type_symbol
 _atom_site_label
 _atom_site_symmetry_multiplicity
 _atom_site_fract_x
 _atom_site_fract_y
 _atom_site_fract_z
 _atom_site_occupancy
  Sr  Sr0  1  0.337427  0.337427  0.337427  1
  Sr  Sr1  1  0.662573  0.662573  0.662573  1
  Cd  Cd2  1  0.293864  0.706136  0.000000  1
  Cd  Cd3  1  0.858331  0.346792  0.346792  1
  Cd  Cd4  1  0.653208  0.141669  0.653208  1
  Cd  Cd5  1  0.108322  0.108322  0.108322  1
  Cd  Cd6  1  0.293864  0.000000  0.706136  1
  Cd  Cd7  1  0.706136  0.293864  0.000000  1
  Cd  Cd8  1  0.346792  0.346792  0.858331  1
  Cd  Cd9  1  0.891678  0.891678  0.891678  1
  Cd  Cd10  1  0.000000  0.706136  0.293864  1
  Cd  Cd11  1  0.706136  0.000000  0.293864  1
  Cd  Cd12  1  0.346792  0.858331  0.346792  1
  Cd  Cd13  1  0.141669  0.653208  0.653208  1
  Cd  Cd14  1  0.653208  0.653208  0.141669  1
  Cd  Cd15  1  0.000000  0.293864  0.706136  1
  Rh  Rh16  1  0.000000  0.000000  0.500000  1
  Rh  Rh17  1  0.500000  0.000000  0.000000  1
  Rh  Rh18  1  0.000000  0.500000  0.000000  1
