# generated using pymatgen
data_V6Si6TcOs11
_symmetry_space_group_name_H-M   'P 1'
_cell_length_a   4.22498900
_cell_length_b   5.98218400
_cell_length_c   12.67160900
_cell_angle_alpha   90.00084193
_cell_angle_beta   89.99980559
_cell_angle_gamma   90.00255817
_symmetry_Int_Tables_number   1
_chemical_formula_structural   V6Si6TcOs11
_chemical_formula_sum   'V6 Si6 Tc1 Os11'
_cell_volume   320.27062917
_cell_formula_units_Z   1
loop_
 _symmetry_equiv_pos_site_id
 _symmetry_equiv_pos_as_xyz
  1  'x, y, z'
loop_
 _atom_site_type_symbol
 _atom_site_label
 _atom_site_symmetry_multiplicity
 _atom_site_fract_x
 _atom_site_fract_y
 _atom_site_fract_z
 _atom_site_occupancy
  V  V0  1  0.000018  0.494807  0.999992  1
  V  V1  1  0.499738  0.002704  0.164338  1
  V  V2  1  0.999760  0.500216  0.333139  1
  V  V3  1  0.499996  0.999799  0.500016  1
  V  V4  1  0.000262  0.500221  0.666871  1
  V  V5  1  0.500240  0.002716  0.835650  1
  Si  Si6  1  0.999999  0.001085  0.999992  1
  Si  Si7  1  0.499717  0.499608  0.165836  1
  Si  Si8  1  0.999709  0.999594  0.333280  1
  Si  Si9  1  0.500002  0.500488  0.500012  1
  Si  Si10  1  0.000295  0.999592  0.666729  1
  Si  Si11  1  0.500281  0.499624  0.834147  1
  Tc  Tc12  1  0.500003  0.250632  0.999991  1
  Os  Os13  1  0.499994  0.749836  0.000000  1
  Os  Os14  1  0.999771  0.249282  0.168286  1
  Os  Os15  1  0.999788  0.749994  0.166785  1
  Os  Os16  1  0.499805  0.250238  0.334119  1
  Os  Os17  1  0.499775  0.749661  0.333012  1
  Os  Os18  1  0.999993  0.249823  0.500023  1
  Os  Os19  1  0.000005  0.750902  0.500022  1
  Os  Os20  1  0.500231  0.250276  0.665885  1
  Os  Os21  1  0.500207  0.749623  0.666997  1
  Os  Os22  1  0.000197  0.249325  0.831682  1
  Os  Os23  1  0.000218  0.749960  0.833195  1
