# generated using pymatgen
data_Zr11Sc(TcIr)6
_symmetry_space_group_name_H-M   'P 1'
_cell_length_a   4.65275000
_cell_length_b   6.56701000
_cell_length_c   13.99700700
_cell_angle_alpha   89.99986471
_cell_angle_beta   90.00007788
_cell_angle_gamma   89.99997024
_symmetry_Int_Tables_number   1
_chemical_formula_structural   Zr11Sc(TcIr)6
_chemical_formula_sum   'Zr11 Sc1 Tc6 Ir6'
_cell_volume   427.67373080
_cell_formula_units_Z   1
loop_
 _symmetry_equiv_pos_site_id
 _symmetry_equiv_pos_as_xyz
  1  'x, y, z'
loop_
 _atom_site_type_symbol
 _atom_site_label
 _atom_site_symmetry_multiplicity
 _atom_site_fract_x
 _atom_site_fract_y
 _atom_site_fract_z
 _atom_site_occupancy
  Zr  Zr0  1  0.499999  0.749006  0.000001  1
  Zr  Zr1  1  0.999985  0.249834  0.164299  1
  Zr  Zr2  1  0.999986  0.750257  0.165616  1
  Zr  Zr3  1  0.499988  0.250617  0.332622  1
  Zr  Zr4  1  0.499987  0.750225  0.332800  1
  Zr  Zr5  1  0.000000  0.249602  0.499999  1
  Zr  Zr6  1  0.000000  0.750086  0.499999  1
  Zr  Zr7  1  0.500011  0.250619  0.667378  1
  Zr  Zr8  1  0.500014  0.750225  0.667200  1
  Zr  Zr9  1  0.000015  0.249833  0.835703  1
  Zr  Zr10  1  0.000014  0.750257  0.834386  1
  Sc  Sc11  1  0.499999  0.249762  0.000001  1
  Tc  Tc12  1  0.000001  0.997770  0.000000  1
  Tc  Tc13  1  0.499987  0.501025  0.167128  1
  Tc  Tc14  1  0.999988  0.000081  0.333315  1
  Tc  Tc15  1  0.500000  0.500096  0.499999  1
  Tc  Tc16  1  0.000011  0.000080  0.666684  1
  Tc  Tc17  1  0.500013  0.501023  0.832870  1
  Ir  Ir18  1  0.000000  0.498130  0.000001  1
  Ir  Ir19  1  0.499985  0.000988  0.166429  1
  Ir  Ir20  1  0.999987  0.499509  0.333223  1
  Ir  Ir21  1  0.500000  0.000480  0.500000  1
  Ir  Ir22  1  0.000013  0.499509  0.666777  1
  Ir  Ir23  1  0.500015  0.000988  0.833571  1
