# generated using pymatgen
data_YbAg3RuPt3O14
_symmetry_space_group_name_H-M   'P 1'
_cell_length_a   7.24818000
_cell_length_b   7.17417256
_cell_length_c   7.17417300
_cell_angle_alpha   60.00000258
_cell_angle_beta   60.33719182
_cell_angle_gamma   60.33719029
_symmetry_Int_Tables_number   1
_chemical_formula_structural   YbAg3RuPt3O14
_chemical_formula_sum   'Yb1 Ag3 Ru1 Pt3 O14'
_cell_volume   265.12604112
_cell_formula_units_Z   1
loop_
 _symmetry_equiv_pos_site_id
 _symmetry_equiv_pos_as_xyz
  1  'x, y, z'
loop_
 _atom_site_type_symbol
 _atom_site_label
 _atom_site_symmetry_multiplicity
 _atom_site_fract_x
 _atom_site_fract_y
 _atom_site_fract_z
 _atom_site_occupancy
  Yb  Yb0  1  0.625000  0.125000  0.125000  1
  Ag  Ag1  1  0.125000  0.125000  0.125000  1
  Ag  Ag2  1  0.125000  0.125000  0.625000  1
  Ag  Ag3  1  0.125000  0.625000  0.125000  1
  Ru  Ru4  1  0.125000  0.625000  0.625000  1
  Pt  Pt5  1  0.625000  0.625000  0.625000  1
  Pt  Pt6  1  0.625000  0.625000  0.125000  1
  Pt  Pt7  1  0.625000  0.125000  0.625000  1
  O  O8  1  0.033823  0.988725  0.988725  1
  O  O9  1  0.216177  0.261275  0.261275  1
  O  O10  1  0.301947  0.308576  0.694738  1
  O  O11  1  0.531979  0.538616  0.964702  1
  O  O12  1  0.718021  0.285298  0.711384  1
  O  O13  1  0.718021  0.285298  0.285298  1
  O  O14  1  0.301947  0.694738  0.694738  1
  O  O15  1  0.301947  0.694738  0.308576  1
  O  O16  1  0.718021  0.711384  0.285298  1
  O  O17  1  0.948053  0.555262  0.555262  1
  O  O18  1  0.531979  0.964702  0.964702  1
  O  O19  1  0.948053  0.941424  0.555262  1
  O  O20  1  0.948053  0.555262  0.941424  1
  O  O21  1  0.531979  0.964702  0.538616  1
