# generated using pymatgen
data_Tb3Ce3(Dy3Co2)2
_symmetry_space_group_name_H-M   'P 1'
_cell_length_a   6.29133954
_cell_length_b   6.79616609
_cell_length_c   9.47531570
_cell_angle_alpha   89.97977163
_cell_angle_beta   90.11279919
_cell_angle_gamma   92.09389881
_symmetry_Int_Tables_number   1
_chemical_formula_structural   Tb3Ce3(Dy3Co2)2
_chemical_formula_sum   'Tb3 Ce3 Dy6 Co4'
_cell_volume   404.86464971
_cell_formula_units_Z   1
loop_
 _symmetry_equiv_pos_site_id
 _symmetry_equiv_pos_as_xyz
  1  'x, y, z'
loop_
 _atom_site_type_symbol
 _atom_site_label
 _atom_site_symmetry_multiplicity
 _atom_site_fract_x
 _atom_site_fract_y
 _atom_site_fract_z
 _atom_site_occupancy
  Tb  Tb0  1  0.673784  0.329001  0.932642  1
  Tb  Tb1  1  0.641078  0.046053  0.249878  1
  Tb  Tb2  1  0.175357  0.169582  0.430001  1
  Ce  Ce3  1  0.149510  0.438219  0.749882  1
  Ce  Ce4  1  0.355623  0.937205  0.750014  1
  Ce  Ce5  1  0.847789  0.558671  0.249884  1
  Dy  Dy6  1  0.829987  0.829138  0.569069  1
  Dy  Dy7  1  0.175193  0.169413  0.070176  1
  Dy  Dy8  1  0.830327  0.829008  0.931048  1
  Dy  Dy9  1  0.673367  0.329204  0.567406  1
  Dy  Dy10  1  0.322780  0.669454  0.066626  1
  Dy  Dy11  1  0.322821  0.669736  0.433674  1
  Co  Co12  1  0.512933  0.633877  0.749365  1
  Co  Co13  1  0.982920  0.136741  0.750369  1
  Co  Co14  1  0.026075  0.855525  0.249368  1
  Co  Co15  1  0.480458  0.399178  0.250598  1
