# generated using pymatgen
data_Tm6P13(Ir2Rh3)4
_symmetry_space_group_name_H-M   'P 1'
_cell_length_a   13.29610600
_cell_length_b   13.29610501
_cell_length_c   3.92613100
_cell_angle_alpha   90.00000000
_cell_angle_beta   90.00000000
_cell_angle_gamma   119.99999749
_symmetry_Int_Tables_number   1
_chemical_formula_structural   Tm6P13(Ir2Rh3)4
_chemical_formula_sum   'Tm6 P13 Ir8 Rh12'
_cell_volume   601.09668666
_cell_formula_units_Z   1
loop_
 _symmetry_equiv_pos_site_id
 _symmetry_equiv_pos_as_xyz
  1  'x, y, z'
loop_
 _atom_site_type_symbol
 _atom_site_label
 _atom_site_symmetry_multiplicity
 _atom_site_fract_x
 _atom_site_fract_y
 _atom_site_fract_z
 _atom_site_occupancy
  Tm  Tm0  1  0.528424  0.717162  0.248249  1
  Tm  Tm1  1  0.282838  0.811262  0.248249  1
  Tm  Tm2  1  0.188738  0.471576  0.248249  1
  Tm  Tm3  1  0.471258  0.282695  0.751390  1
  Tm  Tm4  1  0.717305  0.188563  0.751390  1
  Tm  Tm5  1  0.811437  0.528742  0.751390  1
  P  P6  1  0.526666  0.139878  0.250290  1
  P  P7  1  0.860122  0.386788  0.250290  1
  P  P8  1  0.613212  0.473334  0.250290  1
  P  P9  1  0.944600  0.713253  0.255220  1
  P  P10  1  0.286747  0.231348  0.255220  1
  P  P11  1  0.768652  0.055400  0.255220  1
  P  P12  1  0.387011  0.526903  0.750000  1
  P  P13  1  0.473097  0.860107  0.750000  1
  P  P14  1  0.139893  0.612989  0.750000  1
  P  P15  1  0.713296  0.769496  0.745554  1
  P  P16  1  0.230504  0.943799  0.745554  1
  P  P17  1  0.056201  0.286704  0.745554  1
  P  P18  1  0.000000  0.000000  0.000716  1
  Ir  Ir19  1  0.333333  0.666667  0.751833  1
  Ir  Ir20  1  0.919048  0.249224  0.253425  1
  Ir  Ir21  1  0.750776  0.669824  0.253425  1
  Ir  Ir22  1  0.330176  0.080952  0.253425  1
  Ir  Ir23  1  0.437651  0.021279  0.751509  1
  Ir  Ir24  1  0.978721  0.416372  0.751509  1
  Ir  Ir25  1  0.583628  0.562349  0.751509  1
  Ir  Ir26  1  0.666667  0.333333  0.247829  1
  Rh  Rh27  1  0.094722  0.186327  0.248031  1
  Rh  Rh28  1  0.813673  0.908394  0.248031  1
  Rh  Rh29  1  0.091606  0.905278  0.248031  1
  Rh  Rh30  1  0.021813  0.584238  0.248300  1
  Rh  Rh31  1  0.415762  0.437575  0.248300  1
  Rh  Rh32  1  0.562425  0.978187  0.248300  1
  Rh  Rh33  1  0.669805  0.919749  0.745856  1
  Rh  Rh34  1  0.080251  0.750055  0.745856  1
  Rh  Rh35  1  0.249945  0.330195  0.745856  1
  Rh  Rh36  1  0.904588  0.812767  0.752049  1
  Rh  Rh37  1  0.187233  0.091822  0.752049  1
  Rh  Rh38  1  0.908178  0.095412  0.752049  1
