# generated using pymatgen
data_Tb3Th(AgSb2)4
_symmetry_space_group_name_H-M   'P 1'
_cell_length_a   4.35731800
_cell_length_b   4.35729356
_cell_length_c   21.75456000
_cell_angle_alpha   89.93784279
_cell_angle_beta   90.00000000
_cell_angle_gamma   90.00000000
_symmetry_Int_Tables_number   1
_chemical_formula_structural   Tb3Th(AgSb2)4
_chemical_formula_sum   'Tb3 Th1 Ag4 Sb8'
_cell_volume   413.03430612
_cell_formula_units_Z   1
loop_
 _symmetry_equiv_pos_site_id
 _symmetry_equiv_pos_as_xyz
  1  'x, y, z'
loop_
 _atom_site_type_symbol
 _atom_site_label
 _atom_site_symmetry_multiplicity
 _atom_site_fract_x
 _atom_site_fract_y
 _atom_site_fract_z
 _atom_site_occupancy
  Tb  Tb0  1  0.750000  0.742403  0.386790  1
  Tb  Tb1  1  0.250000  0.258200  0.617300  1
  Tb  Tb2  1  0.750000  0.756771  0.880916  1
  Th  Th3  1  0.250000  0.243990  0.113107  1
  Ag  Ag4  1  0.750000  0.240640  0.252594  1
  Ag  Ag5  1  0.250000  0.740255  0.252604  1
  Ag  Ag6  1  0.750000  0.259675  0.749453  1
  Ag  Ag7  1  0.250000  0.759700  0.749455  1
  Sb  Sb8  1  0.250000  0.748388  0.997400  1
  Sb  Sb9  1  0.750000  0.742982  0.159789  1
  Sb  Sb10  1  0.250000  0.241463  0.341972  1
  Sb  Sb11  1  0.750000  0.248347  0.501067  1
  Sb  Sb12  1  0.250000  0.750801  0.501100  1
  Sb  Sb13  1  0.750000  0.758681  0.659106  1
  Sb  Sb14  1  0.250000  0.257869  0.839929  1
  Sb  Sb15  1  0.750000  0.249836  0.997421  1
