# generated using pymatgen
data_Er5OsWC7
_symmetry_space_group_name_H-M   'P 1'
_cell_length_a   8.24181360
_cell_length_b   8.24181402
_cell_length_c   3.43891300
_cell_angle_alpha   90.00000000
_cell_angle_beta   90.00000000
_cell_angle_gamma   122.07432706
_symmetry_Int_Tables_number   1
_chemical_formula_structural   Er5OsWC7
_chemical_formula_sum   'Er5 Os1 W1 C7'
_cell_volume   197.94052499
_cell_formula_units_Z   1
loop_
 _symmetry_equiv_pos_site_id
 _symmetry_equiv_pos_as_xyz
  1  'x, y, z'
loop_
 _atom_site_type_symbol
 _atom_site_label
 _atom_site_symmetry_multiplicity
 _atom_site_fract_x
 _atom_site_fract_y
 _atom_site_fract_z
 _atom_site_occupancy
  Er  Er0  1  0.501865  0.498135  0.000000  1
  Er  Er1  1  0.074112  0.334985  0.500000  1
  Er  Er2  1  0.921835  0.662339  0.500000  1
  Er  Er3  1  0.665015  0.925888  0.500000  1
  Er  Er4  1  0.337661  0.078165  0.500000  1
  Os  Os5  1  0.711568  0.288432  0.000000  1
  W  W6  1  0.285852  0.714148  0.000000  1
  C  C7  1  0.630139  0.369861  0.500000  1
  C  C8  1  0.377262  0.622738  0.500000  1
  C  C9  1  0.999331  0.000669  0.000000  1
  C  C10  1  0.168909  0.170458  0.000000  1
  C  C11  1  0.829542  0.831091  0.000000  1
  C  C12  1  0.998725  0.501816  0.000000  1
  C  C13  1  0.498184  0.001275  0.000000  1
