# generated using pymatgen
data_Be6Co12Si5Ge
_symmetry_space_group_name_H-M   'P 1'
_cell_length_a   3.80403900
_cell_length_b   5.39343000
_cell_length_c   11.44676900
_cell_angle_alpha   89.99883009
_cell_angle_beta   90.00179968
_cell_angle_gamma   89.99991233
_symmetry_Int_Tables_number   1
_chemical_formula_structural   Be6Co12Si5Ge
_chemical_formula_sum   'Be6 Co12 Si5 Ge1'
_cell_volume   234.85127691
_cell_formula_units_Z   1
loop_
 _symmetry_equiv_pos_site_id
 _symmetry_equiv_pos_as_xyz
  1  'x, y, z'
loop_
 _atom_site_type_symbol
 _atom_site_label
 _atom_site_symmetry_multiplicity
 _atom_site_fract_x
 _atom_site_fract_y
 _atom_site_fract_z
 _atom_site_occupancy
  Be  Be0  1  0.000000  0.000000  0.000000  1
  Be  Be1  1  0.499694  0.499999  0.169466  1
  Be  Be2  1  0.999632  0.999960  0.334307  1
  Be  Be3  1  0.499999  0.500001  0.500000  1
  Be  Be4  1  0.000368  0.000040  0.665693  1
  Be  Be5  1  0.500306  0.500003  0.830534  1
  Co  Co6  1  0.500005  0.244016  0.999995  1
  Co  Co7  1  0.499993  0.755984  0.000005  1
  Co  Co8  1  0.999743  0.247437  0.169887  1
  Co  Co9  1  0.999738  0.752566  0.169908  1
  Co  Co10  1  0.499748  0.249992  0.334427  1
  Co  Co11  1  0.499752  0.749995  0.334427  1
  Co  Co12  1  0.999991  0.249903  0.500025  1
  Co  Co13  1  0.000009  0.750096  0.499975  1
  Co  Co14  1  0.500248  0.250005  0.665573  1
  Co  Co15  1  0.500252  0.750008  0.665573  1
  Co  Co16  1  0.000262  0.247433  0.830092  1
  Co  Co17  1  0.000257  0.752562  0.830113  1
  Si  Si18  1  0.499722  0.999984  0.167877  1
  Si  Si19  1  0.999751  0.500069  0.334330  1
  Si  Si20  1  0.499999  0.000000  0.500000  1
  Si  Si21  1  0.000249  0.499933  0.665670  1
  Si  Si22  1  0.500278  0.000016  0.832123  1
  Ge  Ge23  1  0.000000  0.500001  0.000000  1
