# generated using pymatgen
data_Dy3Y2Ho7Os4
_symmetry_space_group_name_H-M   'P 1'
_cell_length_a   6.31144906
_cell_length_b   7.37885034
_cell_length_c   9.05581554
_cell_angle_alpha   90.00023781
_cell_angle_beta   90.08591388
_cell_angle_gamma   90.03457559
_symmetry_Int_Tables_number   1
_chemical_formula_structural   Dy3Y2Ho7Os4
_chemical_formula_sum   'Dy3 Y2 Ho7 Os4'
_cell_volume   421.73999034
_cell_formula_units_Z   1
loop_
 _symmetry_equiv_pos_site_id
 _symmetry_equiv_pos_as_xyz
  1  'x, y, z'
loop_
 _atom_site_type_symbol
 _atom_site_label
 _atom_site_symmetry_multiplicity
 _atom_site_fract_x
 _atom_site_fract_y
 _atom_site_fract_z
 _atom_site_occupancy
  Dy  Dy0  1  0.331015  0.675753  0.062424  1
  Dy  Dy1  1  0.129653  0.461314  0.749753  1
  Dy  Dy2  1  0.370229  0.961662  0.749787  1
  Y  Y3  1  0.870294  0.537806  0.250282  1
  Y  Y4  1  0.629730  0.038177  0.250156  1
  Ho  Ho5  1  0.168742  0.175431  0.437377  1
  Ho  Ho6  1  0.668504  0.324560  0.563240  1
  Ho  Ho7  1  0.831596  0.824770  0.936552  1
  Ho  Ho8  1  0.668752  0.324281  0.936567  1
  Ho  Ho9  1  0.831590  0.824604  0.563216  1
  Ho  Ho10  1  0.331017  0.675341  0.437724  1
  Ho  Ho11  1  0.168565  0.175395  0.062711  1
  Os  Os12  1  0.043184  0.884773  0.250342  1
  Os  Os13  1  0.456634  0.383932  0.250316  1
  Os  Os14  1  0.959438  0.116237  0.750084  1
  Os  Os15  1  0.541059  0.615967  0.749469  1
