# generated using pymatgen
data_SmAl8Cu3Pd
_symmetry_space_group_name_H-M   'P 1'
_cell_length_a   6.79522554
_cell_length_b   6.79522631
_cell_length_c   6.79662400
_cell_angle_alpha   98.55554369
_cell_angle_beta   98.55554467
_cell_angle_gamma   134.71139104
_symmetry_Int_Tables_number   1
_chemical_formula_structural   SmAl8Cu3Pd
_chemical_formula_sum   'Sm1 Al8 Cu3 Pd1'
_cell_volume   205.70711896
_cell_formula_units_Z   1
loop_
 _symmetry_equiv_pos_site_id
 _symmetry_equiv_pos_as_xyz
  1  'x, y, z'
loop_
 _atom_site_type_symbol
 _atom_site_label
 _atom_site_symmetry_multiplicity
 _atom_site_fract_x
 _atom_site_fract_y
 _atom_site_fract_z
 _atom_site_occupancy
  Sm  Sm0  1  0.000000  0.000000  0.000000  1
  Al  Al1  1  0.998300  0.347782  0.347838  1
  Al  Al2  1  0.001700  0.652218  0.652162  1
  Al  Al3  1  0.652218  0.001700  0.652162  1
  Al  Al4  1  0.347782  0.998300  0.347838  1
  Al  Al5  1  0.499607  0.276642  0.780613  1
  Al  Al6  1  0.500393  0.723358  0.219387  1
  Al  Al7  1  0.723358  0.500393  0.219387  1
  Al  Al8  1  0.276642  0.499607  0.780613  1
  Cu  Cu9  1  0.000000  0.000000  0.500000  1
  Cu  Cu10  1  0.500000  0.000000  0.000000  1
  Cu  Cu11  1  0.000000  0.500000  0.000000  1
  Pd  Pd12  1  0.500000  0.500000  0.500000  1
