# generated using pymatgen
data_Tb10Cd3In4HgPd4
_symmetry_space_group_name_H-M   'P 1'
_cell_length_a   8.09226203
_cell_length_b   18.45896707
_cell_length_c   3.64114700
_cell_angle_alpha   90.00000000
_cell_angle_beta   90.00000000
_cell_angle_gamma   89.99017250
_symmetry_Int_Tables_number   1
_chemical_formula_structural   Tb10Cd3In4HgPd4
_chemical_formula_sum   'Tb10 Cd3 In4 Hg1 Pd4'
_cell_volume   543.89559075
_cell_formula_units_Z   1
loop_
 _symmetry_equiv_pos_site_id
 _symmetry_equiv_pos_as_xyz
  1  'x, y, z'
loop_
 _atom_site_type_symbol
 _atom_site_label
 _atom_site_symmetry_multiplicity
 _atom_site_fract_x
 _atom_site_fract_y
 _atom_site_fract_z
 _atom_site_occupancy
  Tb  Tb0  1  0.496639  0.501174  0.000000  1
  Tb  Tb1  1  0.000184  0.999896  0.000000  1
  Tb  Tb2  1  0.745107  0.281286  0.000000  1
  Tb  Tb3  1  0.255273  0.717133  0.000000  1
  Tb  Tb4  1  0.754977  0.781643  0.000000  1
  Tb  Tb5  1  0.244792  0.218533  0.000000  1
  Tb  Tb6  1  0.613473  0.083555  0.000000  1
  Tb  Tb7  1  0.386564  0.916171  0.000000  1
  Tb  Tb8  1  0.889771  0.583437  0.000000  1
  Tb  Tb9  1  0.113693  0.416651  0.000000  1
  Cd  Cd10  1  0.711600  0.931419  0.500000  1
  Cd  Cd11  1  0.288442  0.068725  0.500000  1
  Cd  Cd12  1  0.786697  0.431346  0.500000  1
  In  In13  1  0.577599  0.648874  0.500000  1
  In  In14  1  0.425549  0.351480  0.500000  1
  In  In15  1  0.925010  0.148288  0.500000  1
  In  In16  1  0.075231  0.851419  0.500000  1
  Hg  Hg17  1  0.211825  0.568070  0.500000  1
  Pd  Pd18  1  0.528243  0.196754  0.500000  1
  Pd  Pd19  1  0.471490  0.802921  0.500000  1
  Pd  Pd20  1  0.969676  0.697737  0.500000  1
  Pd  Pd21  1  0.028163  0.303488  0.500000  1
