# generated using pymatgen
data_TbDy2Y3Ta2O14
_symmetry_space_group_name_H-M   'P 1'
_cell_length_a   6.51292748
_cell_length_b   6.51287696
_cell_length_c   7.48692333
_cell_angle_alpha   89.98517475
_cell_angle_beta   90.02396228
_cell_angle_gamma   108.57249304
_symmetry_Int_Tables_number   1
_chemical_formula_structural   TbDy2Y3Ta2O14
_chemical_formula_sum   'Tb1 Dy2 Y3 Ta2 O14'
_cell_volume   301.04041326
_cell_formula_units_Z   1
loop_
 _symmetry_equiv_pos_site_id
 _symmetry_equiv_pos_as_xyz
  1  'x, y, z'
loop_
 _atom_site_type_symbol
 _atom_site_label
 _atom_site_symmetry_multiplicity
 _atom_site_fract_x
 _atom_site_fract_y
 _atom_site_fract_z
 _atom_site_occupancy
  Tb  Tb0  1  0.537504  0.537818  0.500440  1
  Dy  Dy1  1  0.000015  0.464733  0.741499  1
  Dy  Dy2  1  0.535265  0.000089  0.758879  1
  Y  Y3  1  0.999988  0.534765  0.241299  1
  Y  Y4  1  0.465234  0.000130  0.258259  1
  Y  Y5  1  0.462003  0.462325  0.999585  1
  Ta  Ta6  1  0.002463  0.002479  0.500378  1
  Ta  Ta7  1  0.997606  0.997625  0.999631  1
  O  O8  1  0.931807  0.068188  0.749944  1
  O  O9  1  0.640330  0.359832  0.750341  1
  O  O10  1  0.306483  0.047537  0.544848  1
  O  O11  1  0.952642  0.693678  0.955118  1
  O  O12  1  0.629246  0.370773  0.249378  1
  O  O13  1  0.917957  0.672390  0.524840  1
  O  O14  1  0.327426  0.081701  0.975105  1
  O  O15  1  0.081774  0.327457  0.023767  1
  O  O16  1  0.672354  0.917875  0.476292  1
  O  O17  1  0.370682  0.629329  0.750631  1
  O  O18  1  0.692995  0.950790  0.043243  1
  O  O19  1  0.049389  0.307165  0.456789  1
  O  O20  1  0.360176  0.639982  0.249675  1
  O  O21  1  0.066655  0.933341  0.250061  1
