# generated using pymatgen
data_Gd2WC2
_symmetry_space_group_name_H-M   'P 1'
_cell_length_a   5.76586700
_cell_length_b   5.76586700
_cell_length_c   10.01587300
_cell_angle_alpha   90.00000000
_cell_angle_beta   90.00000000
_cell_angle_gamma   90.00000000
_symmetry_Int_Tables_number   1
_chemical_formula_structural   Gd2WC2
_chemical_formula_sum   'Gd8 W4 C8'
_cell_volume   332.97992403
_cell_formula_units_Z   4
loop_
 _symmetry_equiv_pos_site_id
 _symmetry_equiv_pos_as_xyz
  1  'x, y, z'
loop_
 _atom_site_type_symbol
 _atom_site_label
 _atom_site_symmetry_multiplicity
 _atom_site_fract_x
 _atom_site_fract_y
 _atom_site_fract_z
 _atom_site_occupancy
  Gd  Gd0  1  0.198714  0.801286  0.157245  1
  Gd  Gd1  1  0.801286  0.198714  0.842755  1
  Gd  Gd2  1  0.198714  0.801286  0.842755  1
  Gd  Gd3  1  0.301286  0.301286  0.342755  1
  Gd  Gd4  1  0.698714  0.698714  0.342755  1
  Gd  Gd5  1  0.301286  0.301286  0.657245  1
  Gd  Gd6  1  0.801286  0.198714  0.157245  1
  Gd  Gd7  1  0.698714  0.698714  0.657245  1
  W  W8  1  0.322795  0.322795  0.000000  1
  W  W9  1  0.177205  0.822795  0.500000  1
  W  W10  1  0.677205  0.677205  0.000000  1
  W  W11  1  0.822795  0.177205  0.500000  1
  C  C12  1  0.000000  0.500000  0.500000  1
  C  C13  1  0.000000  0.000000  0.349542  1
  C  C14  1  0.500000  0.000000  0.000000  1
  C  C15  1  0.000000  0.000000  0.650458  1
  C  C16  1  0.500000  0.500000  0.849542  1
  C  C17  1  0.500000  0.500000  0.150458  1
  C  C18  1  0.500000  0.000000  0.500000  1
  C  C19  1  0.000000  0.500000  0.000000  1
