# generated using pymatgen
data_Er5Sc7In2Fe2Tc
_symmetry_space_group_name_H-M   'P 1'
_cell_length_a   8.03196006
_cell_length_b   8.00785195
_cell_length_c   8.03195898
_cell_angle_alpha   108.70917144
_cell_angle_beta   108.67671465
_cell_angle_gamma   111.16492227
_symmetry_Int_Tables_number   1
_chemical_formula_structural   Er5Sc7In2Fe2Tc
_chemical_formula_sum   'Er5 Sc7 In2 Fe2 Tc1'
_cell_volume   396.82266999
_cell_formula_units_Z   1
loop_
 _symmetry_equiv_pos_site_id
 _symmetry_equiv_pos_as_xyz
  1  'x, y, z'
loop_
 _atom_site_type_symbol
 _atom_site_label
 _atom_site_symmetry_multiplicity
 _atom_site_fract_x
 _atom_site_fract_y
 _atom_site_fract_z
 _atom_site_occupancy
  Er  Er0  1  0.304777  0.302504  0.609421  1
  Er  Er1  1  0.701130  0.697344  0.393758  1
  Er  Er2  1  0.693083  0.302504  0.997727  1
  Er  Er3  1  0.303585  0.697344  0.996214  1
  Er  Er4  1  0.194220  0.435369  0.241148  1
  Sc  Sc5  1  0.807706  0.573854  0.766147  1
  Sc  Sc6  1  0.191222  0.956348  0.765127  1
  Sc  Sc7  1  0.954419  0.189075  0.760857  1
  Sc  Sc8  1  0.806874  0.041791  0.234915  1
  Sc  Sc9  1  0.043066  0.810689  0.233793  1
  Sc  Sc10  1  0.428218  0.189075  0.234655  1
  Sc  Sc11  1  0.576896  0.810689  0.767623  1
  In  In12  1  0.994218  0.497986  0.503768  1
  In  In13  1  0.499336  0.998572  0.499235  1
  Fe  Fe14  1  0.379496  0.377403  0.997908  1
  Fe  Fe15  1  0.623292  0.623648  0.000355  1
  Tc  Tc16  1  0.998460  0.995807  0.997348  1
