# generated using pymatgen
data_Tb16Cd4CoRu3
_symmetry_space_group_name_H-M   'P 1'
_cell_length_a   9.68003952
_cell_length_b   9.68004011
_cell_length_c   9.61038766
_cell_angle_alpha   59.75996114
_cell_angle_beta   59.75995792
_cell_angle_gamma   60.00000487
_symmetry_Int_Tables_number   1
_chemical_formula_structural   Tb16Cd4CoRu3
_chemical_formula_sum   'Tb16 Cd4 Co1 Ru3'
_cell_volume   634.44639620
_cell_formula_units_Z   1
loop_
 _symmetry_equiv_pos_site_id
 _symmetry_equiv_pos_as_xyz
  1  'x, y, z'
loop_
 _atom_site_type_symbol
 _atom_site_label
 _atom_site_symmetry_multiplicity
 _atom_site_fract_x
 _atom_site_fract_y
 _atom_site_fract_z
 _atom_site_occupancy
  Tb  Tb0  1  0.438441  0.438441  0.057199  1
  Tb  Tb1  1  0.594127  0.594127  0.600179  1
  Tb  Tb2  1  0.187070  0.814475  0.811385  1
  Tb  Tb3  1  0.061015  0.061015  0.438347  1
  Tb  Tb4  1  0.438441  0.065918  0.057199  1
  Tb  Tb5  1  0.814475  0.187070  0.811385  1
  Tb  Tb6  1  0.439623  0.061015  0.438347  1
  Tb  Tb7  1  0.594127  0.211566  0.600179  1
  Tb  Tb8  1  0.811822  0.811822  0.187692  1
  Tb  Tb9  1  0.211566  0.594127  0.600179  1
  Tb  Tb10  1  0.811822  0.188664  0.187692  1
  Tb  Tb11  1  0.061015  0.439623  0.438347  1
  Tb  Tb12  1  0.188664  0.811822  0.187692  1
  Tb  Tb13  1  0.595989  0.595989  0.212032  1
  Tb  Tb14  1  0.187070  0.187070  0.811385  1
  Tb  Tb15  1  0.065918  0.438441  0.057199  1
  Cd  Cd16  1  0.830446  0.830446  0.508661  1
  Cd  Cd17  1  0.830071  0.830071  0.829520  1
  Cd  Cd18  1  0.510336  0.830071  0.829520  1
  Cd  Cd19  1  0.830071  0.510336  0.829520  1
  Co  Co20  1  0.389849  0.389849  0.830455  1
  Ru  Ru21  1  0.388229  0.388229  0.391962  1
  Ru  Ru22  1  0.831580  0.388229  0.391962  1
  Ru  Ru23  1  0.388229  0.831580  0.391962  1
