# generated using pymatgen
data_Y3ZnGa7Ag3
_symmetry_space_group_name_H-M   'P 1'
_cell_length_a   4.34230647
_cell_length_b   8.32775335
_cell_length_c   8.33087627
_cell_angle_alpha   70.60047522
_cell_angle_beta   74.89341263
_cell_angle_gamma   74.88762836
_symmetry_Int_Tables_number   1
_chemical_formula_structural   Y3ZnGa7Ag3
_chemical_formula_sum   'Y3 Zn1 Ga7 Ag3'
_cell_volume   269.27155718
_cell_formula_units_Z   1
loop_
 _symmetry_equiv_pos_site_id
 _symmetry_equiv_pos_as_xyz
  1  'x, y, z'
loop_
 _atom_site_type_symbol
 _atom_site_label
 _atom_site_symmetry_multiplicity
 _atom_site_fract_x
 _atom_site_fract_y
 _atom_site_fract_z
 _atom_site_occupancy
  Y  Y0  1  0.998992  0.000795  0.001221  1
  Y  Y1  1  0.299945  0.698348  0.701763  1
  Y  Y2  1  0.701081  0.299306  0.298531  1
  Zn  Zn3  1  0.339760  0.293057  0.027422  1
  Ga  Ga4  1  0.659517  0.709548  0.971418  1
  Ga  Ga5  1  0.341471  0.032457  0.284602  1
  Ga  Ga6  1  0.658606  0.971946  0.710842  1
  Ga  Ga7  1  0.144255  0.573701  0.137789  1
  Ga  Ga8  1  0.858155  0.418200  0.865489  1
  Ga  Ga9  1  0.142545  0.138951  0.575960  1
  Ga  Ga10  1  0.857498  0.861591  0.423411  1
  Ag  Ag11  1  0.499448  0.305834  0.695270  1
  Ag  Ag12  1  0.499433  0.695681  0.305454  1
  Ag  Ag13  1  0.999294  0.500585  0.500828  1
