# generated using pymatgen
data_Sc4CrTc4Os3
_symmetry_space_group_name_H-M   'P 1'
_cell_length_a   5.25302102
_cell_length_b   5.11361248
_cell_length_c   8.64370200
_cell_angle_alpha   90.00000000
_cell_angle_beta   90.00000000
_cell_angle_gamma   120.35128628
_symmetry_Int_Tables_number   1
_chemical_formula_structural   Sc4CrTc4Os3
_chemical_formula_sum   'Sc4 Cr1 Tc4 Os3'
_cell_volume   200.36374776
_cell_formula_units_Z   1
loop_
 _symmetry_equiv_pos_site_id
 _symmetry_equiv_pos_as_xyz
  1  'x, y, z'
loop_
 _atom_site_type_symbol
 _atom_site_label
 _atom_site_symmetry_multiplicity
 _atom_site_fract_x
 _atom_site_fract_y
 _atom_site_fract_z
 _atom_site_occupancy
  Sc  Sc0  1  0.667890  0.335412  0.683973  1
  Sc  Sc1  1  0.331514  0.663413  0.811909  1
  Sc  Sc2  1  0.331514  0.663413  0.188091  1
  Sc  Sc3  1  0.667890  0.335412  0.316027  1
  Cr  Cr4  1  0.168644  0.340707  0.500000  1
  Tc  Tc5  1  0.169405  0.821353  0.500000  1
  Tc  Tc6  1  0.346810  0.173466  0.000000  1
  Tc  Tc7  1  0.830023  0.659245  0.000000  1
  Tc  Tc8  1  0.828132  0.170951  0.000000  1
  Os  Os9  1  0.006700  0.008135  0.256165  1
  Os  Os10  1  0.006700  0.008135  0.743835  1
  Os  Os11  1  0.645336  0.819799  0.500000  1
