# generated using pymatgen
data_Ca5Dy(Si3Os)8
_symmetry_space_group_name_H-M   'P 1'
_cell_length_a   10.18233045
_cell_length_b   10.18232973
_cell_length_c   8.19394207
_cell_angle_alpha   89.99606239
_cell_angle_beta   89.99607498
_cell_angle_gamma   132.55378623
_symmetry_Int_Tables_number   1
_chemical_formula_structural   Ca5Dy(Si3Os)8
_chemical_formula_sum   'Ca5 Dy1 Si24 Os8'
_cell_volume   625.81241908
_cell_formula_units_Z   1
loop_
 _symmetry_equiv_pos_site_id
 _symmetry_equiv_pos_as_xyz
  1  'x, y, z'
loop_
 _atom_site_type_symbol
 _atom_site_label
 _atom_site_symmetry_multiplicity
 _atom_site_fract_x
 _atom_site_fract_y
 _atom_site_fract_z
 _atom_site_occupancy
  Ca  Ca0  1  0.500000  0.500000  0.500000  1
  Ca  Ca1  1  0.501182  0.001081  0.749956  1
  Ca  Ca2  1  0.998919  0.498818  0.250044  1
  Ca  Ca3  1  0.498818  0.998919  0.250044  1
  Ca  Ca4  1  0.001081  0.501182  0.749956  1
  Dy  Dy5  1  0.000000  0.000000  0.000000  1
  Si  Si6  1  0.793883  0.206117  0.500000  1
  Si  Si7  1  0.293739  0.706261  0.000000  1
  Si  Si8  1  0.206117  0.793883  0.500000  1
  Si  Si9  1  0.706261  0.293739  0.000000  1
  Si  Si10  1  0.334889  0.334889  0.831164  1
  Si  Si11  1  0.665111  0.665111  0.168836  1
  Si  Si12  1  0.167625  0.167625  0.333676  1
  Si  Si13  1  0.832375  0.832375  0.666324  1
  Si  Si14  1  0.124295  0.890364  0.728551  1
  Si  Si15  1  0.109636  0.875705  0.271449  1
  Si  Si16  1  0.609170  0.375884  0.229797  1
  Si  Si17  1  0.624116  0.390830  0.770203  1
  Si  Si18  1  0.875705  0.109636  0.271449  1
  Si  Si19  1  0.890364  0.124295  0.728551  1
  Si  Si20  1  0.390830  0.624116  0.770203  1
  Si  Si21  1  0.375884  0.609170  0.229797  1
  Si  Si22  1  0.346678  0.113378  0.507448  1
  Si  Si23  1  0.886622  0.653322  0.492552  1
  Si  Si24  1  0.389745  0.155048  0.006703  1
  Si  Si25  1  0.844952  0.610255  0.993297  1
  Si  Si26  1  0.653322  0.886622  0.492552  1
  Si  Si27  1  0.113378  0.346678  0.507448  1
  Si  Si28  1  0.610255  0.844952  0.993297  1
  Si  Si29  1  0.155048  0.389745  0.006703  1
  Os  Os30  1  0.668876  0.331124  0.500000  1
  Os  Os31  1  0.167962  0.832038  0.000000  1
  Os  Os32  1  0.331124  0.668876  0.500000  1
  Os  Os33  1  0.832038  0.167962  0.000000  1
  Os  Os34  1  0.125340  0.125340  0.627560  1
  Os  Os35  1  0.874660  0.874660  0.372440  1
  Os  Os36  1  0.370889  0.370889  0.123462  1
  Os  Os37  1  0.629111  0.629111  0.876538  1
