# generated using pymatgen
data_Tm16Lu4(Ir3Rh)3
_symmetry_space_group_name_H-M   'P 1'
_cell_length_a   10.70557200
_cell_length_b   10.70557200
_cell_length_c   6.29840600
_cell_angle_alpha   90.00000000
_cell_angle_beta   90.00000000
_cell_angle_gamma   90.00000000
_symmetry_Int_Tables_number   1
_chemical_formula_structural   Tm16Lu4(Ir3Rh)3
_chemical_formula_sum   'Tm16 Lu4 Ir9 Rh3'
_cell_volume   721.85572546
_cell_formula_units_Z   1
loop_
 _symmetry_equiv_pos_site_id
 _symmetry_equiv_pos_as_xyz
  1  'x, y, z'
loop_
 _atom_site_type_symbol
 _atom_site_label
 _atom_site_symmetry_multiplicity
 _atom_site_fract_x
 _atom_site_fract_y
 _atom_site_fract_z
 _atom_site_occupancy
  Tm  Tm0  1  0.290436  0.087732  0.377500  1
  Tm  Tm1  1  0.290416  0.912176  0.877480  1
  Tm  Tm2  1  0.709584  0.087824  0.877480  1
  Tm  Tm3  1  0.709564  0.912268  0.377500  1
  Tm  Tm4  1  0.587824  0.790416  0.877480  1
  Tm  Tm5  1  0.587732  0.209564  0.377500  1
  Tm  Tm6  1  0.412268  0.790436  0.377500  1
  Tm  Tm7  1  0.412176  0.209584  0.877480  1
  Tm  Tm8  1  0.209116  0.412363  0.621877  1
  Tm  Tm9  1  0.209261  0.587769  0.123361  1
  Tm  Tm10  1  0.790739  0.412231  0.123361  1
  Tm  Tm11  1  0.790884  0.587637  0.621877  1
  Tm  Tm12  1  0.912231  0.709261  0.123361  1
  Tm  Tm13  1  0.912363  0.290884  0.621877  1
  Tm  Tm14  1  0.087637  0.709116  0.621877  1
  Tm  Tm15  1  0.087769  0.290739  0.123361  1
  Lu  Lu16  1  0.000000  0.000000  0.500131  1
  Lu  Lu17  1  0.000000  0.000000  0.000052  1
  Lu  Lu18  1  0.500000  0.500000  0.000052  1
  Lu  Lu19  1  0.500000  0.500000  0.500131  1
  Ir  Ir20  1  0.846732  0.152704  0.249753  1
  Ir  Ir21  1  0.846792  0.847215  0.749962  1
  Ir  Ir22  1  0.153208  0.152785  0.749962  1
  Ir  Ir23  1  0.153268  0.847296  0.249753  1
  Ir  Ir24  1  0.652785  0.346792  0.749962  1
  Ir  Ir25  1  0.652704  0.653268  0.249753  1
  Ir  Ir26  1  0.347296  0.346732  0.249753  1
  Ir  Ir27  1  0.347215  0.653208  0.749962  1
  Ir  Ir28  1  0.000000  0.500000  0.377035  1
  Rh  Rh29  1  0.500000  0.000000  0.122698  1
  Rh  Rh30  1  0.500000  0.000000  0.622718  1
  Rh  Rh31  1  0.000000  0.500000  0.877453  1
