# generated using pymatgen
data_YHoAl16Pt9
_symmetry_space_group_name_H-M   'P 1'
_cell_length_a   11.15289286
_cell_length_b   11.15289340
_cell_length_c   11.15289401
_cell_angle_alpha   158.63693673
_cell_angle_beta   115.09022169
_cell_angle_gamma   69.18597800
_symmetry_Int_Tables_number   1
_chemical_formula_structural   YHoAl16Pt9
_chemical_formula_sum   'Y1 Ho1 Al16 Pt9'
_cell_volume   454.36275386
_cell_formula_units_Z   1
loop_
 _symmetry_equiv_pos_site_id
 _symmetry_equiv_pos_as_xyz
  1  'x, y, z'
loop_
 _atom_site_type_symbol
 _atom_site_label
 _atom_site_symmetry_multiplicity
 _atom_site_fract_x
 _atom_site_fract_y
 _atom_site_fract_z
 _atom_site_occupancy
  Y  Y0  1  0.228324  0.228324  0.000000  1
  Ho  Ho1  1  0.771761  0.771761  0.000000  1
  Al  Al2  1  0.271419  0.391250  0.880169  1
  Al  Al3  1  0.091827  0.920233  0.171594  1
  Al  Al4  1  0.513052  0.204323  0.308729  1
  Al  Al5  1  0.251406  0.079757  0.171650  1
  Al  Al6  1  0.912777  0.412777  0.500000  1
  Al  Al7  1  0.728624  0.608814  0.119811  1
  Al  Al8  1  0.895594  0.204323  0.691271  1
  Al  Al9  1  0.487053  0.795659  0.691394  1
  Al  Al10  1  0.386086  0.999995  0.386091  1
  Al  Al11  1  0.613903  0.999995  0.613909  1
  Al  Al12  1  0.489003  0.608814  0.880189  1
  Al  Al13  1  0.104265  0.795659  0.308606  1
  Al  Al14  1  0.908107  0.079757  0.828350  1
  Al  Al15  1  0.748640  0.920233  0.828406  1
  Al  Al16  1  0.511080  0.391250  0.119831  1
  Al  Al17  1  0.087162  0.587162  0.500000  1
  Pt  Pt18  1  0.747898  0.499985  0.247912  1
  Pt  Pt19  1  0.022263  0.339060  0.683203  1
  Pt  Pt20  1  0.626887  0.126887  0.500000  1
  Pt  Pt21  1  0.252073  0.499985  0.752088  1
  Pt  Pt22  1  0.373301  0.873301  0.500000  1
  Pt  Pt23  1  0.000013  0.000013  0.000000  1
  Pt  Pt24  1  0.655858  0.339060  0.316797  1
  Pt  Pt25  1  0.344364  0.660811  0.683553  1
  Pt  Pt26  1  0.977258  0.660811  0.316447  1
