# generated using pymatgen
data_Nd4Lu6Bi5Sb
_symmetry_space_group_name_H-M   'P 1'
_cell_length_a   8.30160620
_cell_length_b   9.58039200
_cell_length_c   12.10279400
_cell_angle_alpha   90.00000000
_cell_angle_beta   89.94966538
_cell_angle_gamma   90.00000000
_symmetry_Int_Tables_number   1
_chemical_formula_structural   Nd4Lu6Bi5Sb
_chemical_formula_sum   'Nd8 Lu12 Bi10 Sb2'
_cell_volume   962.56680683
_cell_formula_units_Z   2
loop_
 _symmetry_equiv_pos_site_id
 _symmetry_equiv_pos_as_xyz
  1  'x, y, z'
loop_
 _atom_site_type_symbol
 _atom_site_label
 _atom_site_symmetry_multiplicity
 _atom_site_fract_x
 _atom_site_fract_y
 _atom_site_fract_z
 _atom_site_occupancy
  Nd  Nd0  1  0.353320  0.250000  0.285456  1
  Nd  Nd1  1  0.646680  0.750000  0.714544  1
  Nd  Nd2  1  0.147838  0.750000  0.781794  1
  Nd  Nd3  1  0.852162  0.250000  0.218206  1
  Nd  Nd4  1  0.188125  0.250000  0.778554  1
  Nd  Nd5  1  0.811875  0.750000  0.221446  1
  Nd  Nd6  1  0.319337  0.750000  0.283318  1
  Nd  Nd7  1  0.680663  0.250000  0.716682  1
  Lu  Lu8  1  0.025288  0.250000  0.510552  1
  Lu  Lu9  1  0.974712  0.750000  0.489448  1
  Lu  Lu10  1  0.476547  0.750000  0.011546  1
  Lu  Lu11  1  0.523453  0.250000  0.988454  1
  Lu  Lu12  1  0.191269  0.065935  0.057816  1
  Lu  Lu13  1  0.808731  0.934065  0.942184  1
  Lu  Lu14  1  0.314021  0.935444  0.555221  1
  Lu  Lu15  1  0.808731  0.565935  0.942184  1
  Lu  Lu16  1  0.685979  0.064556  0.444779  1
  Lu  Lu17  1  0.191269  0.434065  0.057816  1
  Lu  Lu18  1  0.685979  0.435444  0.444779  1
  Lu  Lu19  1  0.314021  0.564556  0.555221  1
  Bi  Bi20  1  0.096832  0.750000  0.043257  1
  Bi  Bi21  1  0.903168  0.250000  0.956743  1
  Bi  Bi22  1  0.064488  0.003497  0.332004  1
  Bi  Bi23  1  0.935512  0.996503  0.667996  1
  Bi  Bi24  1  0.435928  0.995114  0.831851  1
  Bi  Bi25  1  0.935512  0.503497  0.667996  1
  Bi  Bi26  1  0.564072  0.004886  0.168149  1
  Bi  Bi27  1  0.064488  0.496503  0.332004  1
  Bi  Bi28  1  0.564072  0.495114  0.168149  1
  Bi  Bi29  1  0.435928  0.504886  0.831851  1
  Sb  Sb30  1  0.400243  0.250000  0.541979  1
  Sb  Sb31  1  0.599757  0.750000  0.458021  1
