# generated using pymatgen
data_Mn4Cu2AsPd9
_symmetry_space_group_name_H-M   'P 1'
_cell_length_a   6.77356561
_cell_length_b   6.77356568
_cell_length_c   6.77356476
_cell_angle_alpha   106.34394741
_cell_angle_beta   106.34394299
_cell_angle_gamma   115.92500312
_symmetry_Int_Tables_number   1
_chemical_formula_structural   Mn4Cu2AsPd9
_chemical_formula_sum   'Mn4 Cu2 As1 Pd9'
_cell_volume   236.93637791
_cell_formula_units_Z   1
loop_
 _symmetry_equiv_pos_site_id
 _symmetry_equiv_pos_as_xyz
  1  'x, y, z'
loop_
 _atom_site_type_symbol
 _atom_site_label
 _atom_site_symmetry_multiplicity
 _atom_site_fract_x
 _atom_site_fract_y
 _atom_site_fract_z
 _atom_site_occupancy
  Mn  Mn0  1  0.231022  0.231022  0.462045  1
  Mn  Mn1  1  0.768978  0.768978  0.537955  1
  Mn  Mn2  1  0.231022  0.768978  0.000000  1
  Mn  Mn3  1  0.768978  0.231022  0.000000  1
  Cu  Cu4  1  0.500000  0.000000  0.500000  1
  Cu  Cu5  1  0.000000  0.500000  0.500000  1
  As  As6  1  0.500000  0.500000  0.000000  1
  Pd  Pd7  1  0.522686  0.271176  0.251509  1
  Pd  Pd8  1  0.477314  0.728824  0.748491  1
  Pd  Pd9  1  0.019666  0.271176  0.748491  1
  Pd  Pd10  1  0.271176  0.019666  0.748491  1
  Pd  Pd11  1  0.980334  0.728824  0.251509  1
  Pd  Pd12  1  0.728824  0.980334  0.251509  1
  Pd  Pd13  1  0.271176  0.522686  0.251509  1
  Pd  Pd14  1  0.728824  0.477314  0.748491  1
  Pd  Pd15  1  0.000000  0.000000  0.000000  1
