# generated using pymatgen
data_Nb(PdPt3)2
_symmetry_space_group_name_H-M   'P 1'
_cell_length_a   6.32698680
_cell_length_b   6.32698588
_cell_length_c   6.28692139
_cell_angle_alpha   95.96294505
_cell_angle_beta   95.31554311
_cell_angle_gamma   143.58307187
_symmetry_Int_Tables_number   1
_chemical_formula_structural   Nb(PdPt3)2
_chemical_formula_sum   'Nb1 Pd2 Pt6'
_cell_volume   141.82338409
_cell_formula_units_Z   1
loop_
 _symmetry_equiv_pos_site_id
 _symmetry_equiv_pos_as_xyz
  1  'x, y, z'
loop_
 _atom_site_type_symbol
 _atom_site_label
 _atom_site_symmetry_multiplicity
 _atom_site_fract_x
 _atom_site_fract_y
 _atom_site_fract_z
 _atom_site_occupancy
  Nb  Nb0  1  0.000770  0.002531  0.003301  1
  Pd  Pd1  1  0.000032  0.669593  0.669625  1
  Pd  Pd2  1  0.336384  0.335157  0.671542  1
  Pt  Pt3  1  0.660981  0.336753  0.997732  1
  Pt  Pt4  1  0.336883  0.661681  0.998562  1
  Pt  Pt5  1  0.663472  0.663603  0.327073  1
  Pt  Pt6  1  0.329825  0.999598  0.329423  1
  Pt  Pt7  1  0.000188  0.330810  0.330998  1
  Pt  Pt8  1  0.671467  0.000277  0.671743  1
