# generated using pymatgen
data_PrZn2Cu3
_symmetry_space_group_name_H-M   'P 1'
_cell_length_a   5.25879843
_cell_length_b   5.29312946
_cell_length_c   4.15880400
_cell_angle_alpha   90.00000000
_cell_angle_beta   90.00000000
_cell_angle_gamma   120.21617439
_symmetry_Int_Tables_number   1
_chemical_formula_structural   PrZn2Cu3
_chemical_formula_sum   'Pr1 Zn2 Cu3'
_cell_volume   100.03407656
_cell_formula_units_Z   1
loop_
 _symmetry_equiv_pos_site_id
 _symmetry_equiv_pos_as_xyz
  1  'x, y, z'
loop_
 _atom_site_type_symbol
 _atom_site_label
 _atom_site_symmetry_multiplicity
 _atom_site_fract_x
 _atom_site_fract_y
 _atom_site_fract_z
 _atom_site_occupancy
  Pr  Pr0  1  0.000000  0.000000  0.000000  1
  Zn  Zn1  1  0.500000  0.000000  0.500000  1
  Zn  Zn2  1  0.500000  0.500000  0.500000  1
  Cu  Cu3  1  0.328474  0.664238  0.000000  1
  Cu  Cu4  1  0.671526  0.335762  0.000000  1
  Cu  Cu5  1  0.000000  0.500000  0.500000  1
