# generated using pymatgen
data_Er2Ni12AsP6
_symmetry_space_group_name_H-M   'P 1'
_cell_length_a   9.12270100
_cell_length_b   9.12270091
_cell_length_c   3.65809500
_cell_angle_alpha   90.00000000
_cell_angle_beta   90.00000000
_cell_angle_gamma   119.99999671
_symmetry_Int_Tables_number   1
_chemical_formula_structural   Er2Ni12AsP6
_chemical_formula_sum   'Er2 Ni12 As1 P6'
_cell_volume   263.65287013
_cell_formula_units_Z   1
loop_
 _symmetry_equiv_pos_site_id
 _symmetry_equiv_pos_as_xyz
  1  'x, y, z'
loop_
 _atom_site_type_symbol
 _atom_site_label
 _atom_site_symmetry_multiplicity
 _atom_site_fract_x
 _atom_site_fract_y
 _atom_site_fract_z
 _atom_site_occupancy
  Er  Er0  1  0.666667  0.333333  0.500000  1
  Er  Er1  1  0.333333  0.666667  0.000000  1
  Ni  Ni2  1  0.617756  0.565460  0.000000  1
  Ni  Ni3  1  0.842648  0.714124  0.500000  1
  Ni  Ni4  1  0.947703  0.382244  0.000000  1
  Ni  Ni5  1  0.285876  0.128525  0.500000  1
  Ni  Ni6  1  0.135708  0.243525  0.000000  1
  Ni  Ni7  1  0.107817  0.864292  0.000000  1
  Ni  Ni8  1  0.756475  0.892183  0.000000  1
  Ni  Ni9  1  0.374945  0.438079  0.500000  1
  Ni  Ni10  1  0.561921  0.936866  0.500000  1
  Ni  Ni11  1  0.063134  0.625055  0.500000  1
  Ni  Ni12  1  0.871475  0.157352  0.500000  1
  Ni  Ni13  1  0.434540  0.052297  0.000000  1
  As  As14  1  0.000000  0.000000  0.500000  1
  P  P15  1  0.703711  0.112418  0.000000  1
  P  P16  1  0.113752  0.407345  0.500000  1
  P  P17  1  0.592655  0.706408  0.500000  1
  P  P18  1  0.293592  0.886248  0.500000  1
  P  P19  1  0.887582  0.591293  0.000000  1
  P  P20  1  0.408707  0.296289  0.000000  1
