# generated using pymatgen
data_Nd8Cd2CoRu
_symmetry_space_group_name_H-M   'P 1'
_cell_length_a   9.92849087
_cell_length_b   9.86135466
_cell_length_c   9.86135356
_cell_angle_alpha   59.67458110
_cell_angle_beta   59.77453323
_cell_angle_gamma   59.77454109
_symmetry_Int_Tables_number   1
_chemical_formula_structural   Nd8Cd2CoRu
_chemical_formula_sum   'Nd16 Cd4 Co2 Ru2'
_cell_volume   678.70447975
_cell_formula_units_Z   2
loop_
 _symmetry_equiv_pos_site_id
 _symmetry_equiv_pos_as_xyz
  1  'x, y, z'
loop_
 _atom_site_type_symbol
 _atom_site_label
 _atom_site_symmetry_multiplicity
 _atom_site_fract_x
 _atom_site_fract_y
 _atom_site_fract_z
 _atom_site_occupancy
  Nd  Nd0  1  0.441267  0.438538  0.056467  1
  Nd  Nd1  1  0.591284  0.598694  0.598694  1
  Nd  Nd2  1  0.186368  0.813632  0.813632  1
  Nd  Nd3  1  0.063728  0.056467  0.438538  1
  Nd  Nd4  1  0.440418  0.059582  0.059582  1
  Nd  Nd5  1  0.813635  0.189087  0.808172  1
  Nd  Nd6  1  0.441267  0.056467  0.438538  1
  Nd  Nd7  1  0.594693  0.209991  0.600622  1
  Nd  Nd8  1  0.813635  0.808172  0.189087  1
  Nd  Nd9  1  0.211326  0.598694  0.598694  1
  Nd  Nd10  1  0.807949  0.192051  0.192051  1
  Nd  Nd11  1  0.059716  0.440284  0.440284  1
  Nd  Nd12  1  0.189106  0.808172  0.189087  1
  Nd  Nd13  1  0.594693  0.600622  0.209991  1
  Nd  Nd14  1  0.189106  0.189087  0.808172  1
  Nd  Nd15  1  0.063728  0.438538  0.056467  1
  Cd  Cd16  1  0.830226  0.828603  0.510944  1
  Cd  Cd17  1  0.830233  0.829118  0.829118  1
  Cd  Cd18  1  0.511529  0.829118  0.829118  1
  Cd  Cd19  1  0.830226  0.510944  0.828603  1
  Co  Co20  1  0.388197  0.830784  0.392822  1
  Co  Co21  1  0.388197  0.392822  0.830784  1
  Ru  Ru22  1  0.386457  0.390265  0.390265  1
  Ru  Ru23  1  0.833014  0.390265  0.390265  1
