# generated using pymatgen
data_Y2TmAl12Os3Pt
_symmetry_space_group_name_H-M   'P 1'
_cell_length_a   8.82081727
_cell_length_b   8.80692666
_cell_length_c   9.56453333
_cell_angle_alpha   90.02404041
_cell_angle_beta   90.16529676
_cell_angle_gamma   119.62753063
_symmetry_Int_Tables_number   1
_chemical_formula_structural   Y2TmAl12Os3Pt
_chemical_formula_sum   'Y4 Tm2 Al24 Os6 Pt2'
_cell_volume   645.86633060
_cell_formula_units_Z   2
loop_
 _symmetry_equiv_pos_site_id
 _symmetry_equiv_pos_as_xyz
  1  'x, y, z'
loop_
 _atom_site_type_symbol
 _atom_site_label
 _atom_site_symmetry_multiplicity
 _atom_site_fract_x
 _atom_site_fract_y
 _atom_site_fract_z
 _atom_site_occupancy
  Y  Y0  1  0.616598  0.809849  0.252237  1
  Y  Y1  1  0.383402  0.190151  0.747763  1
  Y  Y2  1  0.190292  0.805821  0.251945  1
  Y  Y3  1  0.809708  0.194179  0.748055  1
  Tm  Tm4  1  0.190516  0.390954  0.254119  1
  Tm  Tm5  1  0.809484  0.609046  0.745881  1
  Al  Al6  1  0.328454  0.664581  0.026405  1
  Al  Al7  1  0.671546  0.335419  0.973595  1
  Al  Al8  1  0.666466  0.332190  0.523828  1
  Al  Al9  1  0.333534  0.667810  0.476172  1
  Al  Al10  1  0.164866  0.328538  0.574734  1
  Al  Al11  1  0.835134  0.671462  0.425266  1
  Al  Al12  1  0.672682  0.835796  0.575015  1
  Al  Al13  1  0.841687  0.674715  0.077224  1
  Al  Al14  1  0.327318  0.164204  0.424985  1
  Al  Al15  1  0.158313  0.325285  0.922776  1
  Al  Al16  1  0.164370  0.836252  0.576438  1
  Al  Al17  1  0.323417  0.163020  0.079623  1
  Al  Al18  1  0.835630  0.163748  0.423562  1
  Al  Al19  1  0.676583  0.836980  0.920377  1
  Al  Al20  1  0.841863  0.168548  0.078872  1
  Al  Al21  1  0.158137  0.831452  0.921128  1
  Al  Al22  1  0.561732  0.125402  0.251920  1
  Al  Al23  1  0.438268  0.874598  0.748080  1
  Al  Al24  1  0.876421  0.439684  0.249078  1
  Al  Al25  1  0.123579  0.560316  0.750922  1
  Al  Al26  1  0.561950  0.437538  0.252252  1
  Al  Al27  1  0.438050  0.562462  0.747748  1
  Al  Al28  1  0.999323  0.003855  0.250413  1
  Al  Al29  1  0.000677  0.996145  0.749587  1
  Os  Os30  1  0.000000  0.500000  0.000000  1
  Os  Os31  1  0.500000  0.000000  0.500000  1
  Os  Os32  1  0.000000  0.500000  0.500000  1
  Os  Os33  1  0.500000  0.500000  0.500000  1
  Os  Os34  1  0.000000  0.000000  0.000000  1
  Os  Os35  1  0.000000  0.000000  0.500000  1
  Pt  Pt36  1  0.500000  0.000000  0.000000  1
  Pt  Pt37  1  0.500000  0.500000  0.000000  1
