# generated using pymatgen
data_Ho20Cd3Ni2Pd3
_symmetry_space_group_name_H-M   'P 1'
_cell_length_a   9.47809900
_cell_length_b   9.47809917
_cell_length_c   9.46337400
_cell_angle_alpha   90.00000000
_cell_angle_beta   90.00000000
_cell_angle_gamma   119.99999591
_symmetry_Int_Tables_number   1
_chemical_formula_structural   Ho20Cd3Ni2Pd3
_chemical_formula_sum   'Ho20 Cd3 Ni2 Pd3'
_cell_volume   736.23954873
_cell_formula_units_Z   1
loop_
 _symmetry_equiv_pos_site_id
 _symmetry_equiv_pos_as_xyz
  1  'x, y, z'
loop_
 _atom_site_type_symbol
 _atom_site_label
 _atom_site_symmetry_multiplicity
 _atom_site_fract_x
 _atom_site_fract_y
 _atom_site_fract_z
 _atom_site_occupancy
  Ho  Ho0  1  0.000000  0.000000  0.451975  1
  Ho  Ho1  1  0.000000  0.000000  0.048025  1
  Ho  Ho2  1  0.543132  0.456868  0.250000  1
  Ho  Ho3  1  0.543132  0.086264  0.250000  1
  Ho  Ho4  1  0.913736  0.456868  0.250000  1
  Ho  Ho5  1  0.456845  0.543155  0.750000  1
  Ho  Ho6  1  0.456845  0.913689  0.750000  1
  Ho  Ho7  1  0.086311  0.543155  0.750000  1
  Ho  Ho8  1  0.209771  0.790229  0.437971  1
  Ho  Ho9  1  0.209771  0.419543  0.437971  1
  Ho  Ho10  1  0.580457  0.790229  0.437971  1
  Ho  Ho11  1  0.791089  0.208911  0.559438  1
  Ho  Ho12  1  0.791089  0.582177  0.559438  1
  Ho  Ho13  1  0.417823  0.208911  0.559438  1
  Ho  Ho14  1  0.791089  0.208911  0.940562  1
  Ho  Ho15  1  0.791089  0.582177  0.940562  1
  Ho  Ho16  1  0.417823  0.208911  0.940562  1
  Ho  Ho17  1  0.209771  0.790229  0.062029  1
  Ho  Ho18  1  0.209771  0.419543  0.062029  1
  Ho  Ho19  1  0.580457  0.790229  0.062029  1
  Cd  Cd20  1  0.108958  0.891042  0.750000  1
  Cd  Cd21  1  0.108958  0.217918  0.750000  1
  Cd  Cd22  1  0.782082  0.891042  0.750000  1
  Ni  Ni23  1  0.333333  0.666667  0.250000  1
  Ni  Ni24  1  0.666667  0.333333  0.750000  1
  Pd  Pd25  1  0.870670  0.129330  0.250000  1
  Pd  Pd26  1  0.870670  0.741339  0.250000  1
  Pd  Pd27  1  0.258661  0.129330  0.250000  1
