# generated using pymatgen
data_DyEr4Bi3
_symmetry_space_group_name_H-M   'P 1'
_cell_length_a   8.22527400
_cell_length_b   9.48335800
_cell_length_c   11.97407700
_cell_angle_alpha   90.00000000
_cell_angle_beta   90.00000000
_cell_angle_gamma   90.00000000
_symmetry_Int_Tables_number   1
_chemical_formula_structural   DyEr4Bi3
_chemical_formula_sum   'Dy4 Er16 Bi12'
_cell_volume   934.01653846
_cell_formula_units_Z   4
loop_
 _symmetry_equiv_pos_site_id
 _symmetry_equiv_pos_as_xyz
  1  'x, y, z'
loop_
 _atom_site_type_symbol
 _atom_site_label
 _atom_site_symmetry_multiplicity
 _atom_site_fract_x
 _atom_site_fract_y
 _atom_site_fract_z
 _atom_site_occupancy
  Dy  Dy0  1  0.312327  0.250000  0.218652  1
  Dy  Dy1  1  0.812327  0.250000  0.281348  1
  Dy  Dy2  1  0.687673  0.750000  0.781348  1
  Dy  Dy3  1  0.187673  0.750000  0.718652  1
  Er  Er4  1  0.352502  0.750000  0.215970  1
  Er  Er5  1  0.852502  0.750000  0.284030  1
  Er  Er6  1  0.647498  0.250000  0.784030  1
  Er  Er7  1  0.147498  0.250000  0.715970  1
  Er  Er8  1  0.692892  0.564637  0.058782  1
  Er  Er9  1  0.192892  0.935363  0.441218  1
  Er  Er10  1  0.307108  0.064637  0.941218  1
  Er  Er11  1  0.807108  0.435363  0.558782  1
  Er  Er12  1  0.307108  0.435363  0.941218  1
  Er  Er13  1  0.807108  0.064637  0.558782  1
  Er  Er14  1  0.692892  0.935363  0.058782  1
  Er  Er15  1  0.192892  0.564637  0.441218  1
  Er  Er16  1  0.475691  0.250000  0.488717  1
  Er  Er17  1  0.975691  0.250000  0.011283  1
  Er  Er18  1  0.524309  0.750000  0.511283  1
  Er  Er19  1  0.024309  0.750000  0.988717  1
  Bi  Bi20  1  0.406504  0.750000  0.957595  1
  Bi  Bi21  1  0.906504  0.750000  0.542405  1
  Bi  Bi22  1  0.593496  0.250000  0.042405  1
  Bi  Bi23  1  0.093496  0.250000  0.457595  1
  Bi  Bi24  1  0.564970  0.994992  0.325605  1
  Bi  Bi25  1  0.064970  0.505008  0.174395  1
  Bi  Bi26  1  0.435030  0.494992  0.674395  1
  Bi  Bi27  1  0.935030  0.005008  0.825605  1
  Bi  Bi28  1  0.435030  0.005008  0.674395  1
  Bi  Bi29  1  0.935030  0.494992  0.825605  1
  Bi  Bi30  1  0.564970  0.505008  0.325605  1
  Bi  Bi31  1  0.064970  0.994992  0.174395  1
