# generated using pymatgen
data_Hf5Sc(SiRu)6
_symmetry_space_group_name_H-M   'P 1'
_cell_length_a   7.62277859
_cell_length_b   7.61461508
_cell_length_c   7.62277862
_cell_angle_alpha   127.77294706
_cell_angle_beta   122.67207889
_cell_angle_gamma   81.26464413
_symmetry_Int_Tables_number   1
_chemical_formula_structural   Hf5Sc(SiRu)6
_chemical_formula_sum   'Hf5 Sc1 Si6 Ru6'
_cell_volume   283.57454066
_cell_formula_units_Z   1
loop_
 _symmetry_equiv_pos_site_id
 _symmetry_equiv_pos_as_xyz
  1  'x, y, z'
loop_
 _atom_site_type_symbol
 _atom_site_label
 _atom_site_symmetry_multiplicity
 _atom_site_fract_x
 _atom_site_fract_y
 _atom_site_fract_z
 _atom_site_occupancy
  Hf  Hf0  1  0.532452  0.257861  0.225410  1
  Hf  Hf1  1  0.747589  0.834704  0.587115  1
  Hf  Hf2  1  0.252748  0.838855  0.086108  1
  Hf  Hf3  1  0.052859  0.256805  0.703945  1
  Hf  Hf4  1  0.947035  0.650258  0.203224  1
  Sc  Sc5  1  0.467490  0.692590  0.725100  1
  Si  Si6  1  0.272699  0.270113  0.497414  1
  Si  Si7  1  0.727209  0.223684  0.996476  1
  Si  Si8  1  0.327786  0.587802  0.251640  1
  Si  Si9  1  0.672711  0.922025  0.258336  1
  Si  Si10  1  0.163688  0.922025  0.749314  1
  Si  Si11  1  0.836162  0.587802  0.760016  1
  Ru  Ru12  1  0.499942  0.499538  0.000826  1
  Ru  Ru13  1  0.998713  0.499538  0.499596  1
  Ru  Ru14  1  0.098080  0.251796  0.102673  1
  Ru  Ru15  1  0.902871  0.006204  0.155362  1
  Ru  Ru16  1  0.350842  0.006204  0.603333  1
  Ru  Ru17  1  0.649123  0.251796  0.653717  1
