# generated using pymatgen
data_BeNi3(BrO3)8
_symmetry_space_group_name_H-M   'P 1'
_cell_length_a   5.68180695
_cell_length_b   10.29389126
_cell_length_c   10.34514953
_cell_angle_alpha   118.87070219
_cell_angle_beta   89.85205910
_cell_angle_gamma   90.46572457
_symmetry_Int_Tables_number   1
_chemical_formula_structural   BeNi3(BrO3)8
_chemical_formula_sum   'Be1 Ni3 Br8 O24'
_cell_volume   529.84523762
_cell_formula_units_Z   1
loop_
 _symmetry_equiv_pos_site_id
 _symmetry_equiv_pos_as_xyz
  1  'x, y, z'
loop_
 _atom_site_type_symbol
 _atom_site_label
 _atom_site_symmetry_multiplicity
 _atom_site_fract_x
 _atom_site_fract_y
 _atom_site_fract_z
 _atom_site_occupancy
  Be  Be0  1  0.306725  0.755126  0.506330  1
  Ni  Ni1  1  0.632902  0.239534  0.497380  1
  Ni  Ni2  1  0.128313  0.264948  0.006019  1
  Ni  Ni3  1  0.631757  0.732655  0.989279  1
  Br  Br4  1  0.246884  0.423882  0.354685  1
  Br  Br5  1  0.771759  0.588226  0.648635  1
  Br  Br6  1  0.254498  0.912865  0.836464  1
  Br  Br7  1  0.750056  0.083142  0.147627  1
  Br  Br8  1  0.786739  0.089718  0.692360  1
  Br  Br9  1  0.272176  0.903432  0.316751  1
  Br  Br10  1  0.278077  0.413561  0.809543  1
  Br  Br11  1  0.781395  0.584388  0.185321  1
  O  O12  1  0.416096  0.881836  0.954020  1
  O  O13  1  0.936233  0.104046  0.030762  1
  O  O14  1  0.392876  0.798782  0.669193  1
  O  O15  1  0.850184  0.205007  0.318626  1
  O  O16  1  0.356298  0.307290  0.186470  1
  O  O17  1  0.866522  0.702564  0.824551  1
  O  O18  1  0.928527  0.240241  0.830485  1
  O  O19  1  0.406365  0.764660  0.171176  1
  O  O20  1  0.931751  0.939200  0.665426  1
  O  O21  1  0.410244  0.060610  0.347155  1
  O  O22  1  0.349473  0.083373  0.874630  1
  O  O23  1  0.834171  0.916707  0.127703  1
  O  O24  1  0.426002  0.268737  0.674289  1
  O  O25  1  0.923280  0.725753  0.321433  1
  O  O26  1  0.346695  0.401321  0.962895  1
  O  O27  1  0.844503  0.595874  0.029675  1
  O  O28  1  0.420870  0.568847  0.833801  1
  O  O29  1  0.926058  0.429276  0.162226  1
  O  O30  1  0.369673  0.592288  0.382307  1
  O  O31  1  0.854757  0.416598  0.618266  1
  O  O32  1  0.404121  0.389502  0.471259  1
  O  O33  1  0.958771  0.625469  0.546379  1
  O  O34  1  0.851589  0.106810  0.539579  1
  O  O35  1  0.363261  0.883732  0.467295  1
