# generated using pymatgen
data_Cs6CaS4
_symmetry_space_group_name_H-M   'P 1'
_cell_length_a   11.10079100
_cell_length_b   11.10079038
_cell_length_c   8.52773900
_cell_angle_alpha   90.00000000
_cell_angle_beta   90.00000000
_cell_angle_gamma   120.00000484
_symmetry_Int_Tables_number   1
_chemical_formula_structural   Cs6CaS4
_chemical_formula_sum   'Cs12 Ca2 S8'
_cell_volume   910.06484470
_cell_formula_units_Z   2
loop_
 _symmetry_equiv_pos_site_id
 _symmetry_equiv_pos_as_xyz
  1  'x, y, z'
loop_
 _atom_site_type_symbol
 _atom_site_label
 _atom_site_symmetry_multiplicity
 _atom_site_fract_x
 _atom_site_fract_y
 _atom_site_fract_z
 _atom_site_occupancy
  Cs  Cs0  1  0.532483  0.064965  0.364669  1
  Cs  Cs1  1  0.467517  0.532483  0.864669  1
  Cs  Cs2  1  0.935035  0.467517  0.364669  1
  Cs  Cs3  1  0.532483  0.467517  0.364669  1
  Cs  Cs4  1  0.145453  0.854547  0.542274  1
  Cs  Cs5  1  0.290905  0.145453  0.042274  1
  Cs  Cs6  1  0.064965  0.532483  0.864669  1
  Cs  Cs7  1  0.854547  0.709095  0.042274  1
  Cs  Cs8  1  0.854547  0.145453  0.042274  1
  Cs  Cs9  1  0.709095  0.854547  0.542274  1
  Cs  Cs10  1  0.145453  0.290905  0.542274  1
  Cs  Cs11  1  0.467517  0.935035  0.864669  1
  Ca  Ca12  1  0.666667  0.333333  0.752224  1
  Ca  Ca13  1  0.333333  0.666667  0.252224  1
  S  S14  1  0.803327  0.196673  0.653448  1
  S  S15  1  0.606656  0.803327  0.153448  1
  S  S16  1  0.196673  0.393344  0.153448  1
  S  S17  1  0.803327  0.606656  0.653448  1
  S  S18  1  0.393344  0.196673  0.653448  1
  S  S19  1  0.196673  0.803327  0.153448  1
  S  S20  1  0.666667  0.333333  0.074299  1
  S  S21  1  0.333333  0.666667  0.574299  1
