# generated using pymatgen
data_Hf18Ti2FeRe6P
_symmetry_space_group_name_H-M   'P 1'
_cell_length_a   8.59185500
_cell_length_b   8.59185501
_cell_length_c   8.50131600
_cell_angle_alpha   90.00000000
_cell_angle_beta   90.00000000
_cell_angle_gamma   119.99999610
_symmetry_Int_Tables_number   1
_chemical_formula_structural   Hf18Ti2FeRe6P
_chemical_formula_sum   'Hf18 Ti2 Fe1 Re6 P1'
_cell_volume   543.48891058
_cell_formula_units_Z   1
loop_
 _symmetry_equiv_pos_site_id
 _symmetry_equiv_pos_as_xyz
  1  'x, y, z'
loop_
 _atom_site_type_symbol
 _atom_site_label
 _atom_site_symmetry_multiplicity
 _atom_site_fract_x
 _atom_site_fract_y
 _atom_site_fract_z
 _atom_site_occupancy
  Hf  Hf0  1  0.201740  0.798260  0.441955  1
  Hf  Hf1  1  0.201740  0.403479  0.441955  1
  Hf  Hf2  1  0.596521  0.798260  0.441955  1
  Hf  Hf3  1  0.803932  0.196068  0.549613  1
  Hf  Hf4  1  0.803932  0.607865  0.549613  1
  Hf  Hf5  1  0.392135  0.196068  0.549613  1
  Hf  Hf6  1  0.803932  0.196068  0.950387  1
  Hf  Hf7  1  0.803932  0.607865  0.950387  1
  Hf  Hf8  1  0.392135  0.196068  0.950387  1
  Hf  Hf9  1  0.201740  0.798260  0.058045  1
  Hf  Hf10  1  0.201740  0.403479  0.058045  1
  Hf  Hf11  1  0.596521  0.798260  0.058045  1
  Hf  Hf12  1  0.541080  0.458920  0.250000  1
  Hf  Hf13  1  0.541080  0.082161  0.250000  1
  Hf  Hf14  1  0.917839  0.458920  0.250000  1
  Hf  Hf15  1  0.458432  0.541568  0.750000  1
  Hf  Hf16  1  0.458432  0.916864  0.750000  1
  Hf  Hf17  1  0.083136  0.541568  0.750000  1
  Ti  Ti18  1  0.000000  0.000000  0.498521  1
  Ti  Ti19  1  0.000000  0.000000  0.001479  1
  Fe  Fe20  1  0.333333  0.666667  0.250000  1
  Re  Re21  1  0.886907  0.113093  0.250000  1
  Re  Re22  1  0.886907  0.773815  0.250000  1
  Re  Re23  1  0.226185  0.113093  0.250000  1
  Re  Re24  1  0.112221  0.887779  0.750000  1
  Re  Re25  1  0.112221  0.224440  0.750000  1
  Re  Re26  1  0.775560  0.887779  0.750000  1
  P  P27  1  0.666667  0.333333  0.750000  1
