# generated using pymatgen
data_SrZnGePd3
_symmetry_space_group_name_H-M   'P 1'
_cell_length_a   5.71795242
_cell_length_b   6.92924349
_cell_length_c   6.92924200
_cell_angle_alpha   67.85221549
_cell_angle_beta   65.54657392
_cell_angle_gamma   65.54657225
_symmetry_Int_Tables_number   1
_chemical_formula_structural   SrZnGePd3
_chemical_formula_sum   'Sr2 Zn2 Ge2 Pd6'
_cell_volume   220.38228513
_cell_formula_units_Z   2
loop_
 _symmetry_equiv_pos_site_id
 _symmetry_equiv_pos_as_xyz
  1  'x, y, z'
loop_
 _atom_site_type_symbol
 _atom_site_label
 _atom_site_symmetry_multiplicity
 _atom_site_fract_x
 _atom_site_fract_y
 _atom_site_fract_z
 _atom_site_occupancy
  Sr  Sr0  1  0.538818  0.744973  0.744973  1
  Sr  Sr1  1  0.461182  0.255027  0.255027  1
  Zn  Zn2  1  0.218429  0.575632  0.575632  1
  Zn  Zn3  1  0.781571  0.424368  0.424368  1
  Ge  Ge4  1  0.114172  0.090821  0.090821  1
  Ge  Ge5  1  0.885828  0.909179  0.909179  1
  Pd  Pd6  1  0.500000  0.210872  0.789128  1
  Pd  Pd7  1  0.000000  0.732601  0.267399  1
  Pd  Pd8  1  0.500000  0.789128  0.210872  1
  Pd  Pd9  1  0.000000  0.267399  0.732601  1
  Pd  Pd10  1  0.000000  0.500000  0.000000  1
  Pd  Pd11  1  0.000000  0.000000  0.500000  1
