# generated using pymatgen
data_Zr4SbP2Se
_symmetry_space_group_name_H-M   'P 1'
_cell_length_a   3.81918600
_cell_length_b   3.81918728
_cell_length_c   13.04815400
_cell_angle_alpha   90.00000000
_cell_angle_beta   90.00000000
_cell_angle_gamma   120.00000622
_symmetry_Int_Tables_number   1
_chemical_formula_structural   Zr4SbP2Se
_chemical_formula_sum   'Zr4 Sb1 P2 Se1'
_cell_volume   164.82437716
_cell_formula_units_Z   1
loop_
 _symmetry_equiv_pos_site_id
 _symmetry_equiv_pos_as_xyz
  1  'x, y, z'
loop_
 _atom_site_type_symbol
 _atom_site_label
 _atom_site_symmetry_multiplicity
 _atom_site_fract_x
 _atom_site_fract_y
 _atom_site_fract_z
 _atom_site_occupancy
  Zr  Zr0  1  0.666667  0.333333  0.597217  1
  Zr  Zr1  1  0.333333  0.666667  0.390058  1
  Zr  Zr2  1  0.333333  0.666667  0.109942  1
  Zr  Zr3  1  0.666667  0.333333  0.902783  1
  Sb  Sb4  1  0.333333  0.666667  0.750000  1
  P  P5  1  0.000000  0.000000  0.494393  1
  P  P6  1  0.000000  0.000000  0.005607  1
  Se  Se7  1  0.666667  0.333333  0.250000  1
