# generated using pymatgen
data_LaNd15(CdPt)4
_symmetry_space_group_name_H-M   'P 1'
_cell_length_a   10.03576880
_cell_length_b   10.03576877
_cell_length_c   10.03576816
_cell_angle_alpha   60.18276464
_cell_angle_beta   60.18276355
_cell_angle_gamma   60.18276707
_symmetry_Int_Tables_number   1
_chemical_formula_structural   LaNd15(CdPt)4
_chemical_formula_sum   'La1 Nd15 Cd4 Pt4'
_cell_volume   717.67980492
_cell_formula_units_Z   1
loop_
 _symmetry_equiv_pos_site_id
 _symmetry_equiv_pos_as_xyz
  1  'x, y, z'
loop_
 _atom_site_type_symbol
 _atom_site_label
 _atom_site_symmetry_multiplicity
 _atom_site_fract_x
 _atom_site_fract_y
 _atom_site_fract_z
 _atom_site_occupancy
  La  La0  1  0.348586  0.348586  0.348586  1
  Nd  Nd1  1  0.351285  0.351285  0.945774  1
  Nd  Nd2  1  0.351285  0.945774  0.351285  1
  Nd  Nd3  1  0.945774  0.351285  0.351285  1
  Nd  Nd4  1  0.810838  0.191231  0.191231  1
  Nd  Nd5  1  0.191522  0.808625  0.808625  1
  Nd  Nd6  1  0.191231  0.810838  0.191231  1
  Nd  Nd7  1  0.808625  0.191522  0.808625  1
  Nd  Nd8  1  0.191231  0.191231  0.810838  1
  Nd  Nd9  1  0.808625  0.808625  0.191522  1
  Nd  Nd10  1  0.938344  0.564213  0.564213  1
  Nd  Nd11  1  0.563083  0.935245  0.935245  1
  Nd  Nd12  1  0.564213  0.938344  0.564213  1
  Nd  Nd13  1  0.935245  0.563083  0.935245  1
  Nd  Nd14  1  0.564213  0.564213  0.938344  1
  Nd  Nd15  1  0.935245  0.935245  0.563083  1
  Cd  Cd16  1  0.580632  0.580632  0.580632  1
  Cd  Cd17  1  0.581375  0.581375  0.257478  1
  Cd  Cd18  1  0.581375  0.257478  0.581375  1
  Cd  Cd19  1  0.257478  0.581375  0.581375  1
  Pt  Pt20  1  0.143571  0.143571  0.143571  1
  Pt  Pt21  1  0.142137  0.142137  0.571947  1
  Pt  Pt22  1  0.142137  0.571947  0.142137  1
  Pt  Pt23  1  0.571947  0.142137  0.142137  1
