# generated using pymatgen
data_YHo2Er13(In3Co)2
_symmetry_space_group_name_H-M   'P 1'
_cell_length_a   10.27299800
_cell_length_b   10.28397707
_cell_length_c   6.97513100
_cell_angle_alpha   90.01994033
_cell_angle_beta   90.00000000
_cell_angle_gamma   119.96467782
_symmetry_Int_Tables_number   1
_chemical_formula_structural   YHo2Er13(In3Co)2
_chemical_formula_sum   'Y1 Ho2 Er13 In6 Co2'
_cell_volume   638.40420187
_cell_formula_units_Z   1
loop_
 _symmetry_equiv_pos_site_id
 _symmetry_equiv_pos_as_xyz
  1  'x, y, z'
loop_
 _atom_site_type_symbol
 _atom_site_label
 _atom_site_symmetry_multiplicity
 _atom_site_fract_x
 _atom_site_fract_y
 _atom_site_fract_z
 _atom_site_occupancy
  Y  Y0  1  0.534260  0.068519  0.791086  1
  Ho  Ho1  1  0.929635  0.464654  0.791337  1
  Ho  Ho2  1  0.535020  0.464654  0.791337  1
  Er  Er3  1  0.464318  0.928636  0.291619  1
  Er  Er4  1  0.070579  0.535506  0.292167  1
  Er  Er5  1  0.464928  0.535506  0.292167  1
  Er  Er6  1  0.821929  0.643859  0.498143  1
  Er  Er7  1  0.356834  0.179020  0.496929  1
  Er  Er8  1  0.822187  0.179020  0.496929  1
  Er  Er9  1  0.178551  0.357102  0.999275  1
  Er  Er10  1  0.643366  0.820866  0.999342  1
  Er  Er11  1  0.177501  0.820866  0.999342  1
  Er  Er12  1  0.666894  0.333786  0.182417  1
  Er  Er13  1  0.333021  0.666043  0.682704  1
  Er  Er14  1  0.000129  0.000256  0.779438  1
  Er  Er15  1  0.999881  0.999762  0.279452  1
  In  In16  1  0.836772  0.673545  0.039193  1
  In  In17  1  0.325250  0.162358  0.039542  1
  In  In18  1  0.837107  0.162358  0.039542  1
  In  In19  1  0.163264  0.326528  0.540688  1
  In  In20  1  0.674360  0.837594  0.540540  1
  In  In21  1  0.163235  0.837594  0.540540  1
  Co  Co22  1  0.667608  0.335214  0.564935  1
  Co  Co23  1  0.333376  0.666753  0.067244  1
