# generated using pymatgen
data_Sm4Si7
_symmetry_space_group_name_H-M   'P 1'
_cell_length_a   7.44454531
_cell_length_b   7.44454561
_cell_length_c   11.55659300
_cell_angle_alpha   90.00000000
_cell_angle_beta   90.00000000
_cell_angle_gamma   134.52444717
_symmetry_Int_Tables_number   1
_chemical_formula_structural   Sm4Si7
_chemical_formula_sum   'Sm8 Si14'
_cell_volume   456.63171024
_cell_formula_units_Z   2
loop_
 _symmetry_equiv_pos_site_id
 _symmetry_equiv_pos_as_xyz
  1  'x, y, z'
loop_
 _atom_site_type_symbol
 _atom_site_label
 _atom_site_symmetry_multiplicity
 _atom_site_fract_x
 _atom_site_fract_y
 _atom_site_fract_z
 _atom_site_occupancy
  Sm  Sm0  1  0.500739  0.500739  0.500000  1
  Sm  Sm1  1  0.499261  0.499261  0.000000  1
  Sm  Sm2  1  0.002436  0.997564  0.250000  1
  Sm  Sm3  1  0.997564  0.002436  0.750000  1
  Sm  Sm4  1  0.009860  0.504475  0.622184  1
  Sm  Sm5  1  0.504475  0.009860  0.377816  1
  Sm  Sm6  1  0.990140  0.495525  0.122184  1
  Sm  Sm7  1  0.495525  0.990140  0.877816  1
  Si  Si8  1  0.566513  0.433487  0.250000  1
  Si  Si9  1  0.433487  0.566513  0.750000  1
  Si  Si10  1  0.874576  0.557923  0.860547  1
  Si  Si11  1  0.557923  0.874576  0.139453  1
  Si  Si12  1  0.125424  0.442077  0.360547  1
  Si  Si13  1  0.442077  0.125424  0.639453  1
  Si  Si14  1  0.088230  0.425358  0.871323  1
  Si  Si15  1  0.425358  0.088230  0.128677  1
  Si  Si16  1  0.913324  0.085778  0.494684  1
  Si  Si17  1  0.085778  0.913324  0.505316  1
  Si  Si18  1  0.086676  0.914222  0.994684  1
  Si  Si19  1  0.914222  0.086676  0.005316  1
  Si  Si20  1  0.574642  0.911770  0.628677  1
  Si  Si21  1  0.911770  0.574642  0.371323  1
