# generated using pymatgen
data_CaTb6CuI12
_symmetry_space_group_name_H-M   'P 1'
_cell_length_a   9.79723773
_cell_length_b   9.79723681
_cell_length_c   9.79723700
_cell_angle_alpha   107.06898902
_cell_angle_beta   107.06899348
_cell_angle_gamma   107.06898328
_symmetry_Int_Tables_number   1
_chemical_formula_structural   CaTb6CuI12
_chemical_formula_sum   'Ca1 Tb6 Cu1 I12'
_cell_volume   781.69240079
_cell_formula_units_Z   1
loop_
 _symmetry_equiv_pos_site_id
 _symmetry_equiv_pos_as_xyz
  1  'x, y, z'
loop_
 _atom_site_type_symbol
 _atom_site_label
 _atom_site_symmetry_multiplicity
 _atom_site_fract_x
 _atom_site_fract_y
 _atom_site_fract_z
 _atom_site_occupancy
  Ca  Ca0  1  0.500000  0.500000  0.500000  1
  Tb  Tb1  1  0.097889  0.301411  0.025952  1
  Tb  Tb2  1  0.025952  0.097889  0.301411  1
  Tb  Tb3  1  0.301411  0.025952  0.097889  1
  Tb  Tb4  1  0.902111  0.698589  0.974048  1
  Tb  Tb5  1  0.974048  0.902111  0.698589  1
  Tb  Tb6  1  0.698589  0.974048  0.902111  1
  Cu  Cu7  1  0.000000  0.000000  0.000000  1
  I  I8  1  0.457832  0.379132  0.149892  1
  I  I9  1  0.149892  0.457832  0.379132  1
  I  I10  1  0.379132  0.149892  0.457832  1
  I  I11  1  0.542168  0.620868  0.850108  1
  I  I12  1  0.850108  0.542168  0.620868  1
  I  I13  1  0.620868  0.850108  0.542168  1
  I  I14  1  0.774184  0.319881  0.926826  1
  I  I15  1  0.926826  0.774184  0.319881  1
  I  I16  1  0.319881  0.926826  0.774184  1
  I  I17  1  0.225816  0.680119  0.073174  1
  I  I18  1  0.073174  0.225816  0.680119  1
  I  I19  1  0.680119  0.073174  0.225816  1
