# generated using pymatgen
data_Y4Al4IrPdRh2
_symmetry_space_group_name_H-M   'P 1'
_cell_length_a   4.29539900
_cell_length_b   6.91487380
_cell_length_c   7.91358043
_cell_angle_alpha   89.84685402
_cell_angle_beta   90.00000000
_cell_angle_gamma   90.00000000
_symmetry_Int_Tables_number   1
_chemical_formula_structural   Y4Al4IrPdRh2
_chemical_formula_sum   'Y4 Al4 Ir1 Pd1 Rh2'
_cell_volume   235.04945020
_cell_formula_units_Z   1
loop_
 _symmetry_equiv_pos_site_id
 _symmetry_equiv_pos_as_xyz
  1  'x, y, z'
loop_
 _atom_site_type_symbol
 _atom_site_label
 _atom_site_symmetry_multiplicity
 _atom_site_fract_x
 _atom_site_fract_y
 _atom_site_fract_z
 _atom_site_occupancy
  Y  Y0  1  0.250000  0.026952  0.322906  1
  Y  Y1  1  0.250000  0.538194  0.181930  1
  Y  Y2  1  0.750000  0.968643  0.679989  1
  Y  Y3  1  0.750000  0.470751  0.815823  1
  Al  Al4  1  0.250000  0.137932  0.935458  1
  Al  Al5  1  0.250000  0.639623  0.561637  1
  Al  Al6  1  0.750000  0.855956  0.063307  1
  Al  Al7  1  0.750000  0.363213  0.439743  1
  Ir  Ir8  1  0.750000  0.732163  0.380054  1
  Pd  Pd9  1  0.750000  0.228511  0.118550  1
  Rh  Rh10  1  0.250000  0.269158  0.617740  1
  Rh  Rh11  1  0.250000  0.768904  0.882864  1
