# generated using pymatgen
data_Yb3YIr2(RhO7)2
_symmetry_space_group_name_H-M   'P 1'
_cell_length_a   7.23731514
_cell_length_b   7.22559390
_cell_length_c   7.22559454
_cell_angle_alpha   59.76602244
_cell_angle_beta   59.84480582
_cell_angle_gamma   59.84481279
_symmetry_Int_Tables_number   1
_chemical_formula_structural   Yb3YIr2(RhO7)2
_chemical_formula_sum   'Yb3 Y1 Ir2 Rh2 O14'
_cell_volume   266.08271694
_cell_formula_units_Z   1
loop_
 _symmetry_equiv_pos_site_id
 _symmetry_equiv_pos_as_xyz
  1  'x, y, z'
loop_
 _atom_site_type_symbol
 _atom_site_label
 _atom_site_symmetry_multiplicity
 _atom_site_fract_x
 _atom_site_fract_y
 _atom_site_fract_z
 _atom_site_occupancy
  Yb  Yb0  1  0.125000  0.625000  0.125000  1
  Yb  Yb1  1  0.125000  0.125000  0.625000  1
  Yb  Yb2  1  0.125000  0.125000  0.125000  1
  Y  Y3  1  0.625000  0.125000  0.125000  1
  Ir  Ir4  1  0.125000  0.625000  0.625000  1
  Ir  Ir5  1  0.625000  0.625000  0.625000  1
  Rh  Rh6  1  0.625000  0.125000  0.625000  1
  Rh  Rh7  1  0.625000  0.625000  0.125000  1
  O  O8  1  0.705007  0.703107  0.298361  1
  O  O9  1  0.294552  0.299989  0.699261  1
  O  O10  1  0.705007  0.298361  0.703107  1
  O  O11  1  0.294552  0.699261  0.299989  1
  O  O12  1  0.299805  0.700319  0.700319  1
  O  O13  1  0.704989  0.292352  0.292352  1
  O  O14  1  0.544993  0.546893  0.951639  1
  O  O15  1  0.955448  0.950011  0.550739  1
  O  O16  1  0.544993  0.951639  0.546893  1
  O  O17  1  0.955448  0.550739  0.950011  1
  O  O18  1  0.950195  0.549681  0.549681  1
  O  O19  1  0.545011  0.957648  0.957648  1
  O  O20  1  0.257422  0.247808  0.247808  1
  O  O21  1  0.992578  0.002192  0.002192  1
