# generated using pymatgen
data_Sm7Er13Si15Pt
_symmetry_space_group_name_H-M   'P 1'
_cell_length_a   7.34099838
_cell_length_b   7.69425980
_cell_length_c   14.52619200
_cell_angle_alpha   89.94409865
_cell_angle_beta   89.98154921
_cell_angle_gamma   90.07234770
_symmetry_Int_Tables_number   1
_chemical_formula_structural   Sm7Er13Si15Pt
_chemical_formula_sum   'Sm7 Er13 Si15 Pt1'
_cell_volume   820.48978614
_cell_formula_units_Z   1
loop_
 _symmetry_equiv_pos_site_id
 _symmetry_equiv_pos_as_xyz
  1  'x, y, z'
loop_
 _atom_site_type_symbol
 _atom_site_label
 _atom_site_symmetry_multiplicity
 _atom_site_fract_x
 _atom_site_fract_y
 _atom_site_fract_z
 _atom_site_occupancy
  Sm  Sm0  1  0.021259  0.821678  0.904798  1
  Sm  Sm1  1  0.477531  0.318019  0.097174  1
  Sm  Sm2  1  0.977325  0.179303  0.403655  1
  Sm  Sm3  1  0.477648  0.317722  0.403852  1
  Sm  Sm4  1  0.978259  0.179590  0.096802  1
  Sm  Sm5  1  0.520088  0.679781  0.906281  1
  Sm  Sm6  1  0.021644  0.821238  0.594625  1
  Er  Er7  1  0.676716  0.180514  0.623985  1
  Er  Er8  1  0.186517  0.326004  0.874976  1
  Er  Er9  1  0.319732  0.820422  0.123871  1
  Er  Er10  1  0.817813  0.674793  0.375769  1
  Er  Er11  1  0.320263  0.819347  0.376606  1
  Er  Er12  1  0.818153  0.675462  0.124353  1
  Er  Er13  1  0.676294  0.180794  0.875538  1
  Er  Er14  1  0.186712  0.326201  0.624092  1
  Er  Er15  1  0.521588  0.680630  0.595225  1
  Er  Er16  1  0.843049  0.510110  0.749619  1
  Er  Er17  1  0.352563  0.986228  0.749626  1
  Er  Er18  1  0.150899  0.487103  0.250086  1
  Er  Er19  1  0.651544  0.010217  0.250191  1
  Si  Si20  1  0.648966  0.964895  0.461826  1
  Si  Si21  1  0.147606  0.530730  0.039396  1
  Si  Si22  1  0.350350  0.029709  0.961266  1
  Si  Si23  1  0.849239  0.471931  0.539857  1
  Si  Si24  1  0.351499  0.025658  0.539784  1
  Si  Si25  1  0.852497  0.469700  0.960727  1
  Si  Si26  1  0.649363  0.968320  0.039078  1
  Si  Si27  1  0.146680  0.530074  0.460334  1
  Si  Si28  1  0.977736  0.107610  0.749643  1
  Si  Si29  1  0.522435  0.607825  0.250204  1
  Si  Si30  1  0.023527  0.889145  0.250169  1
  Si  Si31  1  0.735576  0.877792  0.749252  1
  Si  Si32  1  0.227241  0.631932  0.748776  1
  Si  Si33  1  0.270722  0.124377  0.250368  1
  Si  Si34  1  0.770877  0.372864  0.250139  1
  Pt  Pt35  1  0.480091  0.402280  0.748061  1
