# generated using pymatgen
data_Cs2Pu(SiO3)3
_symmetry_space_group_name_H-M   'P 1'
_cell_length_a   7.47029200
_cell_length_b   7.47029037
_cell_length_c   10.66441000
_cell_angle_alpha   90.00000000
_cell_angle_beta   90.00000000
_cell_angle_gamma   119.99999587
_symmetry_Int_Tables_number   1
_chemical_formula_structural   Cs2Pu(SiO3)3
_chemical_formula_sum   'Cs4 Pu2 Si6 O18'
_cell_volume   515.39778078
_cell_formula_units_Z   2
loop_
 _symmetry_equiv_pos_site_id
 _symmetry_equiv_pos_as_xyz
  1  'x, y, z'
loop_
 _atom_site_type_symbol
 _atom_site_label
 _atom_site_symmetry_multiplicity
 _atom_site_fract_x
 _atom_site_fract_y
 _atom_site_fract_z
 _atom_site_occupancy
  Cs  Cs0  1  0.333333  0.666667  0.435674  1
  Cs  Cs1  1  0.666667  0.333333  0.935674  1
  Cs  Cs2  1  0.666667  0.333333  0.564326  1
  Cs  Cs3  1  0.333333  0.666667  0.064326  1
  Pu  Pu4  1  0.000000  0.000000  0.500000  1
  Pu  Pu5  1  0.000000  0.000000  0.000000  1
  Si  Si6  1  0.603455  0.758391  0.750000  1
  Si  Si7  1  0.845063  0.603455  0.250000  1
  Si  Si8  1  0.758391  0.154937  0.250000  1
  Si  Si9  1  0.241609  0.845063  0.750000  1
  Si  Si10  1  0.154937  0.396545  0.750000  1
  Si  Si11  1  0.396545  0.241609  0.250000  1
  O  O12  1  0.269690  0.206476  0.379507  1
  O  O13  1  0.063214  0.269690  0.879507  1
  O  O14  1  0.206476  0.936786  0.879507  1
  O  O15  1  0.793524  0.063214  0.379507  1
  O  O16  1  0.936786  0.730310  0.379507  1
  O  O17  1  0.730310  0.793524  0.879507  1
  O  O18  1  0.730310  0.793524  0.620493  1
  O  O19  1  0.936786  0.730310  0.120493  1
  O  O20  1  0.793524  0.063214  0.120493  1
  O  O21  1  0.206476  0.936786  0.620493  1
  O  O22  1  0.063214  0.269690  0.620493  1
  O  O23  1  0.269690  0.206476  0.120493  1
  O  O24  1  0.511240  0.098890  0.250000  1
  O  O25  1  0.412349  0.511240  0.750000  1
  O  O26  1  0.098890  0.587651  0.750000  1
  O  O27  1  0.901110  0.412349  0.250000  1
  O  O28  1  0.587651  0.488760  0.250000  1
  O  O29  1  0.488760  0.901110  0.750000  1
