# generated using pymatgen
data_Y4Er16(Bi3Sb)3
_symmetry_space_group_name_H-M   'P 1'
_cell_length_a   8.14511237
_cell_length_b   9.42111500
_cell_length_c   11.91784200
_cell_angle_alpha   90.00000000
_cell_angle_beta   90.01736084
_cell_angle_gamma   90.00000000
_symmetry_Int_Tables_number   1
_chemical_formula_structural   Y4Er16(Bi3Sb)3
_chemical_formula_sum   'Y4 Er16 Bi9 Sb3'
_cell_volume   914.52796276
_cell_formula_units_Z   1
loop_
 _symmetry_equiv_pos_site_id
 _symmetry_equiv_pos_as_xyz
  1  'x, y, z'
loop_
 _atom_site_type_symbol
 _atom_site_label
 _atom_site_symmetry_multiplicity
 _atom_site_fract_x
 _atom_site_fract_y
 _atom_site_fract_z
 _atom_site_occupancy
  Y  Y0  1  0.317313  0.250000  0.216236  1
  Y  Y1  1  0.812423  0.250000  0.280290  1
  Y  Y2  1  0.683660  0.750000  0.782125  1
  Y  Y3  1  0.184381  0.750000  0.717360  1
  Er  Er4  1  0.353274  0.750000  0.214107  1
  Er  Er5  1  0.853327  0.750000  0.285485  1
  Er  Er6  1  0.646659  0.250000  0.785696  1
  Er  Er7  1  0.147704  0.250000  0.717450  1
  Er  Er8  1  0.688455  0.563528  0.058197  1
  Er  Er9  1  0.189580  0.933071  0.441583  1
  Er  Er10  1  0.311572  0.063360  0.941924  1
  Er  Er11  1  0.808961  0.438767  0.559528  1
  Er  Er12  1  0.311572  0.436640  0.941924  1
  Er  Er13  1  0.808961  0.061233  0.559528  1
  Er  Er14  1  0.688455  0.936472  0.058197  1
  Er  Er15  1  0.189580  0.566929  0.441583  1
  Er  Er16  1  0.476768  0.250000  0.488892  1
  Er  Er17  1  0.973530  0.250000  0.011131  1
  Er  Er18  1  0.527365  0.750000  0.511569  1
  Er  Er19  1  0.026707  0.750000  0.988780  1
  Bi  Bi20  1  0.094696  0.250000  0.458009  1
  Bi  Bi21  1  0.565811  0.994927  0.326201  1
  Bi  Bi22  1  0.066020  0.504534  0.173805  1
  Bi  Bi23  1  0.433705  0.495130  0.673902  1
  Bi  Bi24  1  0.933793  0.004487  0.826325  1
  Bi  Bi25  1  0.433705  0.004870  0.673902  1
  Bi  Bi26  1  0.933793  0.495513  0.826325  1
  Bi  Bi27  1  0.565811  0.505073  0.326201  1
  Bi  Bi28  1  0.066020  0.995466  0.173805  1
  Sb  Sb29  1  0.405485  0.750000  0.959143  1
  Sb  Sb30  1  0.905927  0.750000  0.540481  1
  Sb  Sb31  1  0.594983  0.250000  0.040317  1
