# generated using pymatgen
data_Ac7Ho(AgSn)8
_symmetry_space_group_name_H-M   'P 1'
_cell_length_a   9.81691700
_cell_length_b   9.81691681
_cell_length_c   8.19938500
_cell_angle_alpha   90.00000000
_cell_angle_beta   90.00000000
_cell_angle_gamma   120.00000401
_symmetry_Int_Tables_number   1
_chemical_formula_structural   Ac7Ho(AgSn)8
_chemical_formula_sum   'Ac7 Ho1 Ag8 Sn8'
_cell_volume   684.32455403
_cell_formula_units_Z   1
loop_
 _symmetry_equiv_pos_site_id
 _symmetry_equiv_pos_as_xyz
  1  'x, y, z'
loop_
 _atom_site_type_symbol
 _atom_site_label
 _atom_site_symmetry_multiplicity
 _atom_site_fract_x
 _atom_site_fract_y
 _atom_site_fract_z
 _atom_site_occupancy
  Ac  Ac0  1  0.513882  0.027763  0.495902  1
  Ac  Ac1  1  0.513882  0.486118  0.495902  1
  Ac  Ac2  1  0.972237  0.486118  0.495902  1
  Ac  Ac3  1  0.485077  0.970153  0.995786  1
  Ac  Ac4  1  0.485077  0.514923  0.995786  1
  Ac  Ac5  1  0.029847  0.514923  0.995786  1
  Ac  Ac6  1  0.000000  0.000000  0.494257  1
  Ho  Ho7  1  0.000000  0.000000  0.995014  1
  Ag  Ag8  1  0.165862  0.331725  0.276776  1
  Ag  Ag9  1  0.165862  0.834138  0.276776  1
  Ag  Ag10  1  0.668275  0.834138  0.276776  1
  Ag  Ag11  1  0.837023  0.674044  0.807244  1
  Ag  Ag12  1  0.837023  0.162977  0.807244  1
  Ag  Ag13  1  0.325956  0.162977  0.807244  1
  Ag  Ag14  1  0.333333  0.666667  0.694159  1
  Ag  Ag15  1  0.666667  0.333333  0.191583  1
  Sn  Sn16  1  0.163968  0.327938  0.722756  1
  Sn  Sn17  1  0.163968  0.836032  0.722756  1
  Sn  Sn18  1  0.672062  0.836032  0.722756  1
  Sn  Sn19  1  0.838176  0.676350  0.204410  1
  Sn  Sn20  1  0.838176  0.161824  0.204410  1
  Sn  Sn21  1  0.323650  0.161824  0.204410  1
  Sn  Sn22  1  0.333333  0.666667  0.285102  1
  Sn  Sn23  1  0.666667  0.333333  0.773237  1
