# generated using pymatgen
data_Zn2FeRh3O8
_symmetry_space_group_name_H-M   'P 1'
_cell_length_a   6.02437816
_cell_length_b   6.02440908
_cell_length_c   6.02444754
_cell_angle_alpha   61.51545901
_cell_angle_beta   118.48453418
_cell_angle_gamma   118.48414592
_symmetry_Int_Tables_number   1
_chemical_formula_structural   Zn2FeRh3O8
_chemical_formula_sum   'Zn2 Fe1 Rh3 O8'
_cell_volume   159.86624686
_cell_formula_units_Z   1
loop_
 _symmetry_equiv_pos_site_id
 _symmetry_equiv_pos_as_xyz
  1  'x, y, z'
loop_
 _atom_site_type_symbol
 _atom_site_label
 _atom_site_symmetry_multiplicity
 _atom_site_fract_x
 _atom_site_fract_y
 _atom_site_fract_z
 _atom_site_occupancy
  Zn  Zn0  1  0.246063  0.753933  0.753930  1
  Zn  Zn1  1  0.003923  0.996065  0.996067  1
  Fe  Fe2  1  0.625005  0.374996  0.375003  1
  Rh  Rh3  1  0.625035  0.875035  0.374990  1
  Rh  Rh4  1  0.625026  0.374998  0.875038  1
  Rh  Rh5  1  0.124914  0.374969  0.374960  1
  O  O6  1  0.864082  0.135928  0.135932  1
  O  O7  1  0.385934  0.614086  0.614086  1
  O  O8  1  0.863547  0.596096  0.136469  1
  O  O9  1  0.863542  0.136465  0.596100  1
  O  O10  1  0.403890  0.136462  0.136452  1
  O  O11  1  0.386469  0.153886  0.613541  1
  O  O12  1  0.386470  0.613548  0.153888  1
  O  O13  1  0.846103  0.613532  0.613546  1
