# generated using pymatgen
data_Zr4Re13Tc11Sn
_symmetry_space_group_name_H-M   'P 1'
_cell_length_a   8.46767122
_cell_length_b   8.47363447
_cell_length_c   8.46767124
_cell_angle_alpha   109.51475555
_cell_angle_beta   109.42272629
_cell_angle_gamma   109.51475112
_symmetry_Int_Tables_number   1
_chemical_formula_structural   Zr4Re13Tc11Sn
_chemical_formula_sum   'Zr4 Re13 Tc11 Sn1'
_cell_volume   467.48601771
_cell_formula_units_Z   1
loop_
 _symmetry_equiv_pos_site_id
 _symmetry_equiv_pos_as_xyz
  1  'x, y, z'
loop_
 _atom_site_type_symbol
 _atom_site_label
 _atom_site_symmetry_multiplicity
 _atom_site_fract_x
 _atom_site_fract_y
 _atom_site_fract_z
 _atom_site_occupancy
  Zr  Zr0  1  0.629126  0.999831  0.999992  1
  Zr  Zr1  1  0.000183  0.629244  0.000183  1
  Zr  Zr2  1  0.999992  0.999831  0.629126  1
  Zr  Zr3  1  0.370023  0.371187  0.370023  1
  Re  Re4  1  0.605650  0.280851  0.605650  1
  Re  Re5  1  0.377421  0.195268  0.999946  1
  Re  Re6  1  0.182180  0.804585  0.804648  1
  Re  Re7  1  0.377532  0.000414  0.195672  1
  Re  Re8  1  0.195605  0.377451  0.000027  1
  Re  Re9  1  0.000027  0.377451  0.195605  1
  Re  Re10  1  0.804998  0.181703  0.804998  1
  Re  Re11  1  0.804648  0.804585  0.182180  1
  Re  Re12  1  0.999946  0.195268  0.377421  1
  Re  Re13  1  0.195672  0.000414  0.377532  1
  Re  Re14  1  0.622487  0.622475  0.817739  1
  Re  Re15  1  0.817739  0.622475  0.622487  1
  Re  Re16  1  0.622393  0.817366  0.622393  1
  Tc  Tc17  1  0.394159  0.675635  0.000025  1
  Tc  Tc18  1  0.718731  0.324564  0.324276  1
  Tc  Tc19  1  0.394194  0.000083  0.675427  1
  Tc  Tc20  1  0.675791  0.394342  0.000154  1
  Tc  Tc21  1  0.000154  0.394342  0.675791  1
  Tc  Tc22  1  0.324276  0.718570  0.324276  1
  Tc  Tc23  1  0.324276  0.324564  0.718731  1
  Tc  Tc24  1  0.000025  0.675635  0.394159  1
  Tc  Tc25  1  0.675427  0.000083  0.394194  1
  Tc  Tc26  1  0.605955  0.605928  0.281448  1
  Tc  Tc27  1  0.281448  0.605928  0.605955  1
  Sn  Sn28  1  0.999943  0.999929  0.999943  1
