# generated using pymatgen
data_DyEr3MnOsC4
_symmetry_space_group_name_H-M   'P 1'
_cell_length_a   5.03766100
_cell_length_b   6.38648524
_cell_length_c   9.66479341
_cell_angle_alpha   90.36685392
_cell_angle_beta   90.00000000
_cell_angle_gamma   90.00000000
_symmetry_Int_Tables_number   1
_chemical_formula_structural   DyEr3MnOsC4
_chemical_formula_sum   'Dy2 Er6 Mn2 Os2 C8'
_cell_volume   310.93851868
_cell_formula_units_Z   2
loop_
 _symmetry_equiv_pos_site_id
 _symmetry_equiv_pos_as_xyz
  1  'x, y, z'
loop_
 _atom_site_type_symbol
 _atom_site_label
 _atom_site_symmetry_multiplicity
 _atom_site_fract_x
 _atom_site_fract_y
 _atom_site_fract_z
 _atom_site_occupancy
  Dy  Dy0  1  0.750000  0.975150  0.714650  1
  Dy  Dy1  1  0.250000  0.024850  0.285350  1
  Er  Er2  1  0.250000  0.683624  0.557457  1
  Er  Er3  1  0.750000  0.316376  0.442543  1
  Er  Er4  1  0.750000  0.819942  0.052711  1
  Er  Er5  1  0.250000  0.180058  0.947289  1
  Er  Er6  1  0.250000  0.525076  0.216603  1
  Er  Er7  1  0.750000  0.474924  0.783397  1
  Mn  Mn8  1  0.250000  0.728132  0.861976  1
  Mn  Mn9  1  0.750000  0.271868  0.138024  1
  Os  Os10  1  0.750000  0.773128  0.361330  1
  Os  Os11  1  0.250000  0.226872  0.638670  1
  C  C12  1  0.250000  0.469677  0.764993  1
  C  C13  1  0.750000  0.530323  0.235007  1
  C  C14  1  0.750000  0.045248  0.254189  1
  C  C15  1  0.250000  0.954752  0.745811  1
  C  C16  1  0.250000  0.813142  0.040330  1
  C  C17  1  0.750000  0.186858  0.959670  1
  C  C18  1  0.750000  0.675159  0.550866  1
  C  C19  1  0.250000  0.324841  0.449134  1
