# generated using pymatgen
data_Tb2ErLuCdPt
_symmetry_space_group_name_H-M   'P 1'
_cell_length_a   9.61592931
_cell_length_b   9.61592799
_cell_length_c   9.63932100
_cell_angle_alpha   59.91949652
_cell_angle_beta   59.91950107
_cell_angle_gamma   60.16099497
_symmetry_Int_Tables_number   1
_chemical_formula_structural   Tb2ErLuCdPt
_chemical_formula_sum   'Tb8 Er4 Lu4 Cd4 Pt4'
_cell_volume   630.24401934
_cell_formula_units_Z   4
loop_
 _symmetry_equiv_pos_site_id
 _symmetry_equiv_pos_as_xyz
  1  'x, y, z'
loop_
 _atom_site_type_symbol
 _atom_site_label
 _atom_site_symmetry_multiplicity
 _atom_site_fract_x
 _atom_site_fract_y
 _atom_site_fract_z
 _atom_site_occupancy
  Tb  Tb0  1  0.187627  0.187627  0.812373  1
  Tb  Tb1  1  0.812373  0.812373  0.187627  1
  Tb  Tb2  1  0.936111  0.563889  0.563889  1
  Tb  Tb3  1  0.563889  0.936111  0.936111  1
  Tb  Tb4  1  0.563889  0.936111  0.563889  1
  Tb  Tb5  1  0.936111  0.563889  0.936111  1
  Tb  Tb6  1  0.563535  0.563535  0.936465  1
  Tb  Tb7  1  0.936465  0.936465  0.563535  1
  Er  Er8  1  0.351923  0.351923  0.350751  1
  Er  Er9  1  0.351923  0.351923  0.945403  1
  Er  Er10  1  0.350751  0.945403  0.351923  1
  Er  Er11  1  0.945403  0.350751  0.351923  1
  Lu  Lu12  1  0.810581  0.189419  0.189419  1
  Lu  Lu13  1  0.189419  0.810581  0.810581  1
  Lu  Lu14  1  0.189419  0.810581  0.189419  1
  Lu  Lu15  1  0.810581  0.189419  0.810581  1
  Cd  Cd16  1  0.580748  0.580748  0.582199  1
  Cd  Cd17  1  0.580748  0.580748  0.256305  1
  Cd  Cd18  1  0.582199  0.256305  0.580748  1
  Cd  Cd19  1  0.256305  0.582199  0.580748  1
  Pt  Pt20  1  0.141332  0.141332  0.145765  1
  Pt  Pt21  1  0.141332  0.141332  0.571574  1
  Pt  Pt22  1  0.145765  0.571574  0.141332  1
  Pt  Pt23  1  0.571574  0.145765  0.141332  1
