# generated using pymatgen
data_Er2CdSi4(PPd10)2
_symmetry_space_group_name_H-M   'P 1'
_cell_length_a   8.67420078
_cell_length_b   8.68276146
_cell_length_c   8.66400523
_cell_angle_alpha   59.92836023
_cell_angle_beta   60.02612450
_cell_angle_gamma   59.96734514
_symmetry_Int_Tables_number   1
_chemical_formula_structural   Er2CdSi4(PPd10)2
_chemical_formula_sum   'Er2 Cd1 Si4 P2 Pd20'
_cell_volume   461.14098268
_cell_formula_units_Z   1
loop_
 _symmetry_equiv_pos_site_id
 _symmetry_equiv_pos_as_xyz
  1  'x, y, z'
loop_
 _atom_site_type_symbol
 _atom_site_label
 _atom_site_symmetry_multiplicity
 _atom_site_fract_x
 _atom_site_fract_y
 _atom_site_fract_z
 _atom_site_occupancy
  Er  Er0  1  0.997320  0.000010  0.002660  1
  Er  Er1  1  0.252325  0.249924  0.247827  1
  Cd  Cd2  1  0.752022  0.750001  0.747975  1
  Si  Si3  1  0.731810  0.269740  0.268010  1
  Si  Si4  1  0.731810  0.730441  0.268010  1
  Si  Si5  1  0.733323  0.268033  0.730611  1
  Si  Si6  1  0.269723  0.731975  0.266326  1
  P  P7  1  0.268282  0.733610  0.731854  1
  P  P8  1  0.268282  0.266254  0.731854  1
  Pd  Pd9  1  0.340917  0.004808  0.001749  1
  Pd  Pd10  1  0.000923  0.654651  0.343469  1
  Pd  Pd11  1  0.341251  0.001426  0.655898  1
  Pd  Pd12  1  0.002918  0.654753  0.000070  1
  Pd  Pd13  1  0.652383  0.341503  0.003098  1
  Pd  Pd14  1  0.619066  0.619079  0.142775  1
  Pd  Pd15  1  0.383553  0.846126  0.386473  1
  Pd  Pd16  1  0.147222  0.617286  0.618207  1
  Pd  Pd17  1  0.654193  0.001459  0.342890  1
  Pd  Pd18  1  0.002239  0.343192  0.655172  1
  Pd  Pd19  1  0.652383  0.003017  0.003098  1
  Pd  Pd20  1  0.000923  0.000958  0.343469  1
  Pd  Pd21  1  0.617263  0.145259  0.618874  1
  Pd  Pd22  1  0.340917  0.652527  0.001749  1
  Pd  Pd23  1  0.383553  0.383848  0.386473  1
  Pd  Pd24  1  0.617263  0.618605  0.618874  1
  Pd  Pd25  1  0.383897  0.386219  0.843666  1
  Pd  Pd26  1  0.002239  0.999397  0.655172  1
  Pd  Pd27  1  0.849086  0.383642  0.383631  1
  Pd  Pd28  1  0.002918  0.342260  0.000070  1
