# generated using pymatgen
data_Yb3Cu8Ir
_symmetry_space_group_name_H-M   'P 1'
_cell_length_a   5.00503000
_cell_length_b   5.00503299
_cell_length_c   17.03117600
_cell_angle_alpha   90.00000000
_cell_angle_beta   90.00000000
_cell_angle_gamma   119.99999347
_symmetry_Int_Tables_number   1
_chemical_formula_structural   Yb3Cu8Ir
_chemical_formula_sum   'Yb6 Cu16 Ir2'
_cell_volume   369.47829129
_cell_formula_units_Z   2
loop_
 _symmetry_equiv_pos_site_id
 _symmetry_equiv_pos_as_xyz
  1  'x, y, z'
loop_
 _atom_site_type_symbol
 _atom_site_label
 _atom_site_symmetry_multiplicity
 _atom_site_fract_x
 _atom_site_fract_y
 _atom_site_fract_z
 _atom_site_occupancy
  Yb  Yb0  1  0.666667  0.333333  0.250000  1
  Yb  Yb1  1  0.333333  0.666667  0.750000  1
  Yb  Yb2  1  0.666667  0.333333  0.467626  1
  Yb  Yb3  1  0.333333  0.666667  0.967626  1
  Yb  Yb4  1  0.666667  0.333333  0.032374  1
  Yb  Yb5  1  0.333333  0.666667  0.532374  1
  Cu  Cu6  1  0.333333  0.666667  0.250000  1
  Cu  Cu7  1  0.666667  0.333333  0.750000  1
  Cu  Cu8  1  0.167433  0.832567  0.371640  1
  Cu  Cu9  1  0.167433  0.334864  0.371640  1
  Cu  Cu10  1  0.000000  0.000000  0.750000  1
  Cu  Cu11  1  0.000000  0.000000  0.250000  1
  Cu  Cu12  1  0.167433  0.334864  0.128360  1
  Cu  Cu13  1  0.832567  0.167433  0.628360  1
  Cu  Cu14  1  0.334864  0.167433  0.628360  1
  Cu  Cu15  1  0.665136  0.832567  0.128360  1
  Cu  Cu16  1  0.167433  0.832567  0.128360  1
  Cu  Cu17  1  0.832567  0.665136  0.871640  1
  Cu  Cu18  1  0.832567  0.167433  0.871640  1
  Cu  Cu19  1  0.832567  0.665136  0.628360  1
  Cu  Cu20  1  0.334864  0.167433  0.871640  1
  Cu  Cu21  1  0.665136  0.832567  0.371640  1
  Ir  Ir22  1  0.000000  0.000000  0.000000  1
  Ir  Ir23  1  0.000000  0.000000  0.500000  1
