# generated using pymatgen
data_Nd3Sc(WN3)4
_symmetry_space_group_name_H-M   'P 1'
_cell_length_a   7.29421777
_cell_length_b   7.29421725
_cell_length_c   6.21616886
_cell_angle_alpha   75.65171806
_cell_angle_beta   75.65172409
_cell_angle_gamma   83.28032421
_symmetry_Int_Tables_number   1
_chemical_formula_structural   Nd3Sc(WN3)4
_chemical_formula_sum   'Nd3 Sc1 W4 N12'
_cell_volume   309.87866156
_cell_formula_units_Z   1
loop_
 _symmetry_equiv_pos_site_id
 _symmetry_equiv_pos_as_xyz
  1  'x, y, z'
loop_
 _atom_site_type_symbol
 _atom_site_label
 _atom_site_symmetry_multiplicity
 _atom_site_fract_x
 _atom_site_fract_y
 _atom_site_fract_z
 _atom_site_occupancy
  Nd  Nd0  1  0.697530  0.302470  0.750000  1
  Nd  Nd1  1  0.084617  0.915383  0.750000  1
  Nd  Nd2  1  0.304979  0.695021  0.250000  1
  Sc  Sc3  1  0.906988  0.093012  0.250000  1
  W  W4  1  0.383722  0.197594  0.248501  1
  W  W5  1  0.621810  0.802608  0.739717  1
  W  W6  1  0.802406  0.616278  0.251499  1
  W  W7  1  0.197392  0.378190  0.760283  1
  N  N8  1  0.627349  0.106811  0.171300  1
  N  N9  1  0.359650  0.334896  0.484149  1
  N  N10  1  0.996750  0.217985  0.876858  1
  N  N11  1  0.385404  0.894646  0.842577  1
  N  N12  1  0.782015  0.003250  0.623142  1
  N  N13  1  0.105354  0.614596  0.657423  1
  N  N14  1  0.893189  0.372651  0.328700  1
  N  N15  1  0.625415  0.645241  0.526772  1
  N  N16  1  0.665104  0.640350  0.015851  1
  N  N17  1  0.354759  0.374585  0.973228  1
  N  N18  1  0.992355  0.786790  0.163198  1
  N  N19  1  0.213210  0.007645  0.336802  1
