# generated using pymatgen
data_Dy3Er(TiAl3)2
_symmetry_space_group_name_H-M   'P 1'
_cell_length_a   9.52015057
_cell_length_b   9.52015011
_cell_length_c   9.52015135
_cell_angle_alpha   34.78742250
_cell_angle_beta   34.78742770
_cell_angle_gamma   34.78742581
_symmetry_Int_Tables_number   1
_chemical_formula_structural   Dy3Er(TiAl3)2
_chemical_formula_sum   'Dy3 Er1 Ti2 Al6'
_cell_volume   250.68574519
_cell_formula_units_Z   1
loop_
 _symmetry_equiv_pos_site_id
 _symmetry_equiv_pos_as_xyz
  1  'x, y, z'
loop_
 _atom_site_type_symbol
 _atom_site_label
 _atom_site_symmetry_multiplicity
 _atom_site_fract_x
 _atom_site_fract_y
 _atom_site_fract_z
 _atom_site_occupancy
  Dy  Dy0  1  0.313238  0.313238  0.313238  1
  Dy  Dy1  1  0.686784  0.686784  0.686784  1
  Dy  Dy2  1  0.186660  0.186660  0.186660  1
  Er  Er3  1  0.813486  0.813486  0.813486  1
  Ti  Ti4  1  0.499940  0.499940  0.499940  1
  Ti  Ti5  1  0.999957  0.999957  0.999957  1
  Al  Al6  1  0.249984  0.249984  0.750086  1
  Al  Al7  1  0.750044  0.750044  0.249796  1
  Al  Al8  1  0.249984  0.750086  0.249984  1
  Al  Al9  1  0.750044  0.249796  0.750044  1
  Al  Al10  1  0.750086  0.249984  0.249984  1
  Al  Al11  1  0.249796  0.750044  0.750044  1
