# generated using pymatgen
data_Tb4Sm4Tc3B24Ru
_symmetry_space_group_name_H-M   'P 1'
_cell_length_a   3.72777900
_cell_length_b   9.22283704
_cell_length_c   11.64560703
_cell_angle_alpha   89.92414115
_cell_angle_beta   90.00000000
_cell_angle_gamma   90.00000000
_symmetry_Int_Tables_number   1
_chemical_formula_structural   Tb4Sm4Tc3B24Ru
_chemical_formula_sum   'Tb4 Sm4 Tc3 B24 Ru1'
_cell_volume   400.38375017
_cell_formula_units_Z   1
loop_
 _symmetry_equiv_pos_site_id
 _symmetry_equiv_pos_as_xyz
  1  'x, y, z'
loop_
 _atom_site_type_symbol
 _atom_site_label
 _atom_site_symmetry_multiplicity
 _atom_site_fract_x
 _atom_site_fract_y
 _atom_site_fract_z
 _atom_site_occupancy
  Tb  Tb0  1  0.000000  0.942472  0.369699  1
  Tb  Tb1  1  0.000000  0.057981  0.631243  1
  Tb  Tb2  1  0.000000  0.442840  0.130659  1
  Tb  Tb3  1  0.000000  0.557972  0.868578  1
  Sm  Sm4  1  0.000000  0.323611  0.413914  1
  Sm  Sm5  1  0.000000  0.675198  0.584317  1
  Sm  Sm6  1  0.000000  0.823397  0.087179  1
  Sm  Sm7  1  0.000000  0.177524  0.914599  1
  Tc  Tc8  1  0.000000  0.638768  0.319990  1
  Tc  Tc9  1  0.000000  0.361357  0.680448  1
  Tc  Tc10  1  0.000000  0.138142  0.178910  1
  B  B11  1  0.500000  0.553898  0.431484  1
  B  B12  1  0.500000  0.445743  0.568024  1
  B  B13  1  0.500000  0.054032  0.068256  1
  B  B14  1  0.500000  0.945274  0.931507  1
  B  B15  1  0.500000  0.748146  0.417260  1
  B  B16  1  0.500000  0.251126  0.582862  1
  B  B17  1  0.500000  0.248815  0.082723  1
  B  B18  1  0.500000  0.751814  0.916941  1
  B  B19  1  0.500000  0.790842  0.266125  1
  B  B20  1  0.500000  0.209574  0.734444  1
  B  B21  1  0.500000  0.290682  0.233954  1
  B  B22  1  0.500000  0.710233  0.765881  1
  B  B23  1  0.500000  0.630786  0.186294  1
  B  B24  1  0.500000  0.369402  0.814137  1
  B  B25  1  0.500000  0.130288  0.313312  1
  B  B26  1  0.500000  0.869225  0.686558  1
  B  B27  1  0.500000  0.983482  0.212316  1
  B  B28  1  0.500000  0.015065  0.788065  1
  B  B29  1  0.500000  0.483950  0.287470  1
  B  B30  1  0.500000  0.515794  0.711979  1
  B  B31  1  0.500000  0.600472  0.027578  1
  B  B32  1  0.500000  0.401017  0.972025  1
  B  B33  1  0.500000  0.099902  0.472638  1
  B  B34  1  0.500000  0.899917  0.528283  1
  Ru  Ru35  1  0.000000  0.861257  0.820344  1
