# generated using pymatgen
data_Sr14ZrSb11
_symmetry_space_group_name_H-M   'P 1'
_cell_length_a   17.09162892
_cell_length_b   17.09162953
_cell_length_c   17.09162900
_cell_angle_alpha   117.77639793
_cell_angle_beta   117.77639900
_cell_angle_gamma   93.89656891
_symmetry_Int_Tables_number   1
_chemical_formula_structural   Sr14ZrSb11
_chemical_formula_sum   'Sr56 Zr4 Sb44'
_cell_volume   3640.04606507
_cell_formula_units_Z   4
loop_
 _symmetry_equiv_pos_site_id
 _symmetry_equiv_pos_as_xyz
  1  'x, y, z'
loop_
 _atom_site_type_symbol
 _atom_site_label
 _atom_site_symmetry_multiplicity
 _atom_site_fract_x
 _atom_site_fract_y
 _atom_site_fract_z
 _atom_site_occupancy
  Sr  Sr0  1  0.743003  0.531021  0.865036  1
  Sr  Sr1  1  0.243003  0.377967  0.211982  1
  Sr  Sr2  1  0.781021  0.493003  0.365036  1
  Sr  Sr3  1  0.281021  0.915985  0.288018  1
  Sr  Sr4  1  0.006997  0.718979  0.634964  1
  Sr  Sr5  1  0.506997  0.872033  0.288018  1
  Sr  Sr6  1  0.968979  0.756997  0.134964  1
  Sr  Sr7  1  0.468979  0.334015  0.211982  1
  Sr  Sr8  1  0.165985  0.031021  0.788018  1
  Sr  Sr9  1  0.665985  0.877967  0.134964  1
  Sr  Sr10  1  0.627967  0.993003  0.711982  1
  Sr  Sr11  1  0.127967  0.415985  0.634964  1
  Sr  Sr12  1  0.584015  0.218979  0.711982  1
  Sr  Sr13  1  0.084015  0.372033  0.365036  1
  Sr  Sr14  1  0.122033  0.256997  0.788018  1
  Sr  Sr15  1  0.622033  0.834015  0.865036  1
  Sr  Sr16  1  0.891775  0.997195  0.156261  1
  Sr  Sr17  1  0.391775  0.235514  0.894579  1
  Sr  Sr18  1  0.247195  0.641775  0.656261  1
  Sr  Sr19  1  0.747195  0.090934  0.605421  1
  Sr  Sr20  1  0.858225  0.252805  0.343739  1
  Sr  Sr21  1  0.358225  0.014486  0.605421  1
  Sr  Sr22  1  0.502805  0.608225  0.843739  1
  Sr  Sr23  1  0.002805  0.159066  0.894579  1
  Sr  Sr24  1  0.340934  0.497195  0.105421  1
  Sr  Sr25  1  0.840934  0.735514  0.843739  1
  Sr  Sr26  1  0.485514  0.141775  0.394579  1
  Sr  Sr27  1  0.985514  0.590934  0.343739  1
  Sr  Sr28  1  0.409066  0.752805  0.394579  1
  Sr  Sr29  1  0.909066  0.514486  0.656261  1
  Sr  Sr30  1  0.264486  0.108225  0.105421  1
  Sr  Sr31  1  0.764486  0.659066  0.156261  1
  Sr  Sr32  1  0.975690  0.375000  0.100690  1
  Sr  Sr33  1  0.475690  0.375000  0.600690  1
  Sr  Sr34  1  0.625000  0.725690  0.600690  1
  Sr  Sr35  1  0.125000  0.524310  0.899310  1
  Sr  Sr36  1  0.774310  0.875000  0.399310  1
  Sr  Sr37  1  0.274310  0.875000  0.899310  1
  Sr  Sr38  1  0.625000  0.225690  0.100690  1
  Sr  Sr39  1  0.125000  0.024310  0.399310  1
  Sr  Sr40  1  0.120263  0.606996  0.157646  1
  Sr  Sr41  1  0.620263  0.462616  0.513268  1
  Sr  Sr42  1  0.856996  0.870263  0.657646  1
  Sr  Sr43  1  0.356996  0.699349  0.986732  1
  Sr  Sr44  1  0.629737  0.643004  0.342354  1
  Sr  Sr45  1  0.129737  0.787384  0.986732  1
  Sr  Sr46  1  0.893004  0.379737  0.842354  1
  Sr  Sr47  1  0.393004  0.550651  0.513268  1
  Sr  Sr48  1  0.949349  0.106996  0.486732  1
  Sr  Sr49  1  0.449349  0.962616  0.842354  1
  Sr  Sr50  1  0.712616  0.370263  0.013268  1
  Sr  Sr51  1  0.212616  0.199349  0.342354  1
  Sr  Sr52  1  0.800651  0.143004  0.013268  1
  Sr  Sr53  1  0.300651  0.287384  0.657646  1
  Sr  Sr54  1  0.037384  0.879737  0.486732  1
  Sr  Sr55  1  0.537384  0.050651  0.157646  1
  Zr  Zr56  1  0.500000  0.500000  0.000000  1
  Zr  Zr57  1  0.000000  0.000000  0.000000  1
  Zr  Zr58  1  0.750000  0.250000  0.500000  1
  Zr  Zr59  1  0.250000  0.750000  0.500000  1
  Sb  Sb60  1  0.892744  0.892744  0.285487  1
  Sb  Sb61  1  0.392744  0.107256  0.000000  1
  Sb  Sb62  1  0.142744  0.642744  0.785487  1
  Sb  Sb63  1  0.642744  0.857256  0.500000  1
  Sb  Sb64  1  0.857256  0.357256  0.214513  1
  Sb  Sb65  1  0.357256  0.142744  0.500000  1
  Sb  Sb66  1  0.607256  0.607256  0.714513  1
  Sb  Sb67  1  0.107256  0.392744  0.000000  1
  Sb  Sb68  1  0.177828  0.820125  0.371065  1
  Sb  Sb69  1  0.677828  0.306762  0.357703  1
  Sb  Sb70  1  0.070125  0.927828  0.871065  1
  Sb  Sb71  1  0.570125  0.699059  0.142297  1
  Sb  Sb72  1  0.572172  0.429875  0.128935  1
  Sb  Sb73  1  0.072172  0.943238  0.142297  1
  Sb  Sb74  1  0.679875  0.322172  0.628935  1
  Sb  Sb75  1  0.179875  0.550941  0.357703  1
  Sb  Sb76  1  0.949059  0.320125  0.642297  1
  Sb  Sb77  1  0.449059  0.806762  0.628935  1
  Sb  Sb78  1  0.556762  0.427828  0.857703  1
  Sb  Sb79  1  0.056762  0.199059  0.128935  1
  Sb  Sb80  1  0.800941  0.929875  0.857703  1
  Sb  Sb81  1  0.300941  0.443238  0.871065  1
  Sb  Sb82  1  0.193238  0.822172  0.642297  1
  Sb  Sb83  1  0.693238  0.050941  0.371065  1
  Sb  Sb84  1  0.957746  0.605969  0.908895  1
  Sb  Sb85  1  0.457746  0.548850  0.351776  1
  Sb  Sb86  1  0.855969  0.707746  0.408895  1
  Sb  Sb87  1  0.355969  0.947074  0.148224  1
  Sb  Sb88  1  0.792254  0.644031  0.591105  1
  Sb  Sb89  1  0.292254  0.701150  0.148224  1
  Sb  Sb90  1  0.894031  0.542254  0.091105  1
  Sb  Sb91  1  0.394031  0.302926  0.351776  1
  Sb  Sb92  1  0.197074  0.105969  0.648224  1
  Sb  Sb93  1  0.697074  0.048850  0.091105  1
  Sb  Sb94  1  0.798850  0.207746  0.851776  1
  Sb  Sb95  1  0.298850  0.447074  0.591105  1
  Sb  Sb96  1  0.552926  0.144031  0.851776  1
  Sb  Sb97  1  0.052926  0.201150  0.408895  1
  Sb  Sb98  1  0.951150  0.042254  0.648224  1
  Sb  Sb99  1  0.451150  0.802926  0.908895  1
  Sb  Sb100  1  0.750000  0.750000  0.000000  1
  Sb  Sb101  1  0.250000  0.250000  0.000000  1
  Sb  Sb102  1  0.000000  0.500000  0.500000  1
  Sb  Sb103  1  0.500000  0.000000  0.500000  1
