# generated using pymatgen
data_HoEr15Ga6FeCo
_symmetry_space_group_name_H-M   'P 1'
_cell_length_a   9.90117201
_cell_length_b   9.90079956
_cell_length_c   6.88942900
_cell_angle_alpha   90.00174083
_cell_angle_beta   89.99865498
_cell_angle_gamma   119.99624362
_symmetry_Int_Tables_number   1
_chemical_formula_structural   HoEr15Ga6FeCo
_chemical_formula_sum   'Ho1 Er15 Ga6 Fe1 Co1'
_cell_volume   584.90747552
_cell_formula_units_Z   1
loop_
 _symmetry_equiv_pos_site_id
 _symmetry_equiv_pos_as_xyz
  1  'x, y, z'
loop_
 _atom_site_type_symbol
 _atom_site_label
 _atom_site_symmetry_multiplicity
 _atom_site_fract_x
 _atom_site_fract_y
 _atom_site_fract_z
 _atom_site_occupancy
  Ho  Ho0  1  0.000012  0.999991  0.732740  1
  Er  Er1  1  0.173178  0.826862  0.510079  1
  Er  Er2  1  0.653672  0.826847  0.510099  1
  Er  Er3  1  0.173164  0.346345  0.510071  1
  Er  Er4  1  0.826765  0.173259  0.011563  1
  Er  Er5  1  0.346494  0.173254  0.011556  1
  Er  Er6  1  0.826729  0.653499  0.011571  1
  Er  Er7  1  0.333342  0.666630  0.830374  1
  Er  Er8  1  0.666689  0.333294  0.329442  1
  Er  Er9  1  0.462612  0.537390  0.208115  1
  Er  Er10  1  0.074748  0.537388  0.208084  1
  Er  Er11  1  0.462622  0.925233  0.208085  1
  Er  Er12  1  0.536150  0.463828  0.707066  1
  Er  Er13  1  0.927691  0.463825  0.707103  1
  Er  Er14  1  0.536159  0.072335  0.707092  1
  Er  Er15  1  0.000014  0.000026  0.232122  1
  Ga  Ga16  1  0.163306  0.836678  0.958495  1
  Ga  Ga17  1  0.673374  0.836698  0.958507  1
  Ga  Ga18  1  0.163287  0.326604  0.958504  1
  Ga  Ga19  1  0.836143  0.163847  0.458088  1
  Ga  Ga20  1  0.327712  0.163862  0.458108  1
  Ga  Ga21  1  0.836151  0.672280  0.458098  1
  Fe  Fe22  1  0.333316  0.666685  0.445669  1
  Co  Co23  1  0.666666  0.333341  0.943413  1
