# generated using pymatgen
data_Ho2NiRhPb
_symmetry_space_group_name_H-M   'P 1'
_cell_length_a   7.55826053
_cell_length_b   7.55826005
_cell_length_c   3.73784100
_cell_angle_alpha   90.00000000
_cell_angle_beta   90.00000000
_cell_angle_gamma   149.40538311
_symmetry_Int_Tables_number   1
_chemical_formula_structural   Ho2NiRhPb
_chemical_formula_sum   'Ho2 Ni1 Rh1 Pb1'
_cell_volume   108.67974920
_cell_formula_units_Z   1
loop_
 _symmetry_equiv_pos_site_id
 _symmetry_equiv_pos_as_xyz
  1  'x, y, z'
loop_
 _atom_site_type_symbol
 _atom_site_label
 _atom_site_symmetry_multiplicity
 _atom_site_fract_x
 _atom_site_fract_y
 _atom_site_fract_z
 _atom_site_occupancy
  Ho  Ho0  1  0.359287  0.640713  0.500000  1
  Ho  Ho1  1  0.642846  0.357154  0.500000  1
  Ni  Ni2  1  0.192987  0.807013  0.000000  1
  Rh  Rh3  1  0.802417  0.197583  0.000000  1
  Pb  Pb4  1  0.002463  0.997537  0.000000  1
