# generated using pymatgen
data_Hf6BeI12
_symmetry_space_group_name_H-M   'P 1'
_cell_length_a   9.22800163
_cell_length_b   9.22800209
_cell_length_c   9.22800215
_cell_angle_alpha   107.03896937
_cell_angle_beta   107.03897327
_cell_angle_gamma   107.03895651
_symmetry_Int_Tables_number   1
_chemical_formula_structural   Hf6BeI12
_chemical_formula_sum   'Hf6 Be1 I12'
_cell_volume   653.74146281
_cell_formula_units_Z   1
loop_
 _symmetry_equiv_pos_site_id
 _symmetry_equiv_pos_as_xyz
  1  'x, y, z'
loop_
 _atom_site_type_symbol
 _atom_site_label
 _atom_site_symmetry_multiplicity
 _atom_site_fract_x
 _atom_site_fract_y
 _atom_site_fract_z
 _atom_site_occupancy
  Hf  Hf0  1  0.971573  0.723213  0.908832  1
  Hf  Hf1  1  0.276787  0.091168  0.028427  1
  Hf  Hf2  1  0.091168  0.028427  0.276787  1
  Hf  Hf3  1  0.908832  0.971573  0.723213  1
  Hf  Hf4  1  0.723213  0.908832  0.971573  1
  Hf  Hf5  1  0.028427  0.276787  0.091168  1
  Be  Be6  1  0.000000  0.000000  0.000000  1
  I  I7  1  0.922084  0.308633  0.775743  1
  I  I8  1  0.691367  0.224257  0.077916  1
  I  I9  1  0.443994  0.144337  0.369272  1
  I  I10  1  0.855663  0.630728  0.556006  1
  I  I11  1  0.224257  0.077916  0.691367  1
  I  I12  1  0.630728  0.556006  0.855663  1
  I  I13  1  0.369272  0.443994  0.144337  1
  I  I14  1  0.775743  0.922084  0.308633  1
  I  I15  1  0.144337  0.369272  0.443994  1
  I  I16  1  0.556006  0.855663  0.630728  1
  I  I17  1  0.308633  0.775743  0.922084  1
  I  I18  1  0.077916  0.691367  0.224257  1
