# generated using pymatgen
data_Cs4AlGa3I16
_symmetry_space_group_name_H-M   'P 1'
_cell_length_a   19.09244355
_cell_length_b   7.58819084
_cell_length_c   8.76558804
_cell_angle_alpha   71.41100908
_cell_angle_beta   90.08356945
_cell_angle_gamma   90.25743809
_symmetry_Int_Tables_number   1
_chemical_formula_structural   Cs4AlGa3I16
_chemical_formula_sum   'Cs4 Al1 Ga3 I16'
_cell_volume   1203.66805624
_cell_formula_units_Z   1
loop_
 _symmetry_equiv_pos_site_id
 _symmetry_equiv_pos_as_xyz
  1  'x, y, z'
loop_
 _atom_site_type_symbol
 _atom_site_label
 _atom_site_symmetry_multiplicity
 _atom_site_fract_x
 _atom_site_fract_y
 _atom_site_fract_z
 _atom_site_occupancy
  Cs  Cs0  1  0.869611  0.181988  0.704055  1
  Cs  Cs1  1  0.629193  0.181833  0.204655  1
  Cs  Cs2  1  0.371732  0.816772  0.794441  1
  Cs  Cs3  1  0.129084  0.819595  0.293405  1
  Al  Al4  1  0.128826  0.191569  0.702154  1
  Ga  Ga5  1  0.870560  0.809717  0.298507  1
  Ga  Ga6  1  0.371793  0.188932  0.201281  1
  Ga  Ga7  1  0.628957  0.809944  0.798343  1
  I  I8  1  0.243970  0.371655  0.641171  1
  I  I9  1  0.055877  0.271199  0.441416  1
  I  I10  1  0.754671  0.626629  0.361225  1
  I  I11  1  0.555647  0.728569  0.062029  1
  I  I12  1  0.655712  0.164769  0.703895  1
  I  I13  1  0.843440  0.163725  0.204823  1
  I  I14  1  0.445052  0.271340  0.937443  1
  I  I15  1  0.255391  0.367004  0.141170  1
  I  I16  1  0.745081  0.630790  0.859771  1
  I  I17  1  0.944622  0.729590  0.561168  1
  I  I18  1  0.444809  0.270224  0.418680  1
  I  I19  1  0.942698  0.730854  0.079562  1
  I  I20  1  0.344700  0.834357  0.295465  1
  I  I21  1  0.155770  0.840436  0.796858  1
  I  I22  1  0.556279  0.728665  0.580428  1
  I  I23  1  0.056525  0.269845  0.918053  1
