# generated using pymatgen
data_Sm8Ho11ErSi15Ru
_symmetry_space_group_name_H-M   'P 1'
_cell_length_a   7.40516361
_cell_length_b   7.80632076
_cell_length_c   14.64458008
_cell_angle_alpha   90.01313729
_cell_angle_beta   89.99087683
_cell_angle_gamma   90.03235899
_symmetry_Int_Tables_number   1
_chemical_formula_structural   Sm8Ho11ErSi15Ru
_chemical_formula_sum   'Sm8 Ho11 Er1 Si15 Ru1'
_cell_volume   846.56027993
_cell_formula_units_Z   1
loop_
 _symmetry_equiv_pos_site_id
 _symmetry_equiv_pos_as_xyz
  1  'x, y, z'
loop_
 _atom_site_type_symbol
 _atom_site_label
 _atom_site_symmetry_multiplicity
 _atom_site_fract_x
 _atom_site_fract_y
 _atom_site_fract_z
 _atom_site_occupancy
  Sm  Sm0  1  0.022293  0.184855  0.098115  1
  Sm  Sm1  1  0.981891  0.825779  0.904535  1
  Sm  Sm2  1  0.480369  0.679246  0.904043  1
  Sm  Sm3  1  0.982457  0.825978  0.595472  1
  Sm  Sm4  1  0.520162  0.319545  0.096881  1
  Sm  Sm5  1  0.022450  0.184943  0.401995  1
  Sm  Sm6  1  0.520191  0.319792  0.403377  1
  Sm  Sm7  1  0.480774  0.679140  0.595798  1
  Ho  Ho8  1  0.151098  0.513238  0.749958  1
  Ho  Ho9  1  0.844475  0.488240  0.250050  1
  Ho  Ho10  1  0.344250  0.014587  0.250090  1
  Ho  Ho11  1  0.664896  0.988270  0.749893  1
  Ho  Ho12  1  0.679698  0.825260  0.375727  1
  Ho  Ho13  1  0.179208  0.679660  0.375878  1
  Ho  Ho14  1  0.679697  0.825256  0.124472  1
  Ho  Ho15  1  0.832706  0.313986  0.625973  1
  Ho  Ho16  1  0.309649  0.173278  0.872326  1
  Ho  Ho17  1  0.831774  0.314307  0.874019  1
  Ho  Ho18  1  0.179234  0.679456  0.124237  1
  Er  Er19  1  0.309552  0.173254  0.627624  1
  Si  Si20  1  0.973787  0.891084  0.250036  1
  Si  Si21  1  0.475851  0.610711  0.250046  1
  Si  Si22  1  0.524729  0.392561  0.749676  1
  Si  Si23  1  0.273520  0.868386  0.749744  1
  Si  Si24  1  0.724510  0.128039  0.250060  1
  Si  Si25  1  0.227357  0.374447  0.250047  1
  Si  Si26  1  0.764804  0.619883  0.749929  1
  Si  Si27  1  0.153491  0.472218  0.538233  1
  Si  Si28  1  0.851286  0.532537  0.462099  1
  Si  Si29  1  0.349480  0.969292  0.461430  1
  Si  Si30  1  0.851064  0.532539  0.038032  1
  Si  Si31  1  0.644696  0.031189  0.539015  1
  Si  Si32  1  0.152603  0.472538  0.961698  1
  Si  Si33  1  0.645128  0.030810  0.961170  1
  Si  Si34  1  0.349798  0.969016  0.038827  1
  Ru  Ru35  1  0.021075  0.096678  0.749497  1
