# generated using pymatgen
data_Nd5Si2Ir
_symmetry_space_group_name_H-M   'P 1'
_cell_length_a   7.94093800
_cell_length_b   8.88474300
_cell_length_c   12.34838500
_cell_angle_alpha   90.00000000
_cell_angle_beta   90.00000000
_cell_angle_gamma   90.00000000
_symmetry_Int_Tables_number   1
_chemical_formula_structural   Nd5Si2Ir
_chemical_formula_sum   'Nd20 Si8 Ir4'
_cell_volume   871.21799396
_cell_formula_units_Z   4
loop_
 _symmetry_equiv_pos_site_id
 _symmetry_equiv_pos_as_xyz
  1  'x, y, z'
loop_
 _atom_site_type_symbol
 _atom_site_label
 _atom_site_symmetry_multiplicity
 _atom_site_fract_x
 _atom_site_fract_y
 _atom_site_fract_z
 _atom_site_occupancy
  Nd  Nd0  1  0.673002  0.750000  0.718270  1
  Nd  Nd1  1  0.326998  0.250000  0.281730  1
  Nd  Nd2  1  0.173002  0.250000  0.781730  1
  Nd  Nd3  1  0.826998  0.750000  0.218270  1
  Nd  Nd4  1  0.149540  0.750000  0.795590  1
  Nd  Nd5  1  0.850460  0.250000  0.204410  1
  Nd  Nd6  1  0.649540  0.250000  0.704410  1
  Nd  Nd7  1  0.350460  0.750000  0.295590  1
  Nd  Nd8  1  0.538108  0.750000  0.999348  1
  Nd  Nd9  1  0.461892  0.250000  0.000652  1
  Nd  Nd10  1  0.038108  0.250000  0.500652  1
  Nd  Nd11  1  0.961892  0.750000  0.499348  1
  Nd  Nd12  1  0.818448  0.464100  0.924118  1
  Nd  Nd13  1  0.181552  0.535900  0.075882  1
  Nd  Nd14  1  0.318448  0.535900  0.575882  1
  Nd  Nd15  1  0.181552  0.964100  0.075882  1
  Nd  Nd16  1  0.681552  0.464100  0.424118  1
  Nd  Nd17  1  0.818448  0.035900  0.924118  1
  Nd  Nd18  1  0.681552  0.035900  0.424118  1
  Nd  Nd19  1  0.318448  0.964100  0.575882  1
  Si  Si20  1  0.942562  0.005024  0.671121  1
  Si  Si21  1  0.057438  0.994976  0.328879  1
  Si  Si22  1  0.442562  0.994976  0.828879  1
  Si  Si23  1  0.057438  0.505024  0.328879  1
  Si  Si24  1  0.557438  0.005024  0.171121  1
  Si  Si25  1  0.942562  0.494976  0.671121  1
  Si  Si26  1  0.557438  0.494976  0.171121  1
  Si  Si27  1  0.442562  0.505024  0.828879  1
  Ir  Ir28  1  0.926446  0.750000  0.986272  1
  Ir  Ir29  1  0.073554  0.250000  0.013728  1
  Ir  Ir30  1  0.426446  0.250000  0.513728  1
  Ir  Ir31  1  0.573554  0.750000  0.486272  1
