# generated using pymatgen
data_La8Yb3Gd9Si16
_symmetry_space_group_name_H-M   'P 1'
_cell_length_a   7.52222100
_cell_length_b   7.87361277
_cell_length_c   14.97377800
_cell_angle_alpha   90.00000000
_cell_angle_beta   90.00000000
_cell_angle_gamma   90.03844406
_symmetry_Int_Tables_number   1
_chemical_formula_structural   La8Yb3Gd9Si16
_chemical_formula_sum   'La8 Yb3 Gd9 Si16'
_cell_volume   886.85257865
_cell_formula_units_Z   1
loop_
 _symmetry_equiv_pos_site_id
 _symmetry_equiv_pos_as_xyz
  1  'x, y, z'
loop_
 _atom_site_type_symbol
 _atom_site_label
 _atom_site_symmetry_multiplicity
 _atom_site_fract_x
 _atom_site_fract_y
 _atom_site_fract_z
 _atom_site_occupancy
  La  La0  1  0.025678  0.181607  0.400396  1
  La  La1  1  0.525546  0.317820  0.400699  1
  La  La2  1  0.476249  0.678266  0.901959  1
  La  La3  1  0.476249  0.678266  0.598041  1
  La  La4  1  0.976858  0.817753  0.599158  1
  La  La5  1  0.976858  0.817753  0.900842  1
  La  La6  1  0.525546  0.317820  0.099301  1
  La  La7  1  0.025678  0.181607  0.099604  1
  Yb  Yb8  1  0.848141  0.489732  0.250000  1
  Yb  Yb9  1  0.349366  0.010849  0.250000  1
  Yb  Yb10  1  0.152392  0.511785  0.750000  1
  Gd  Gd11  1  0.319701  0.183035  0.623133  1
  Gd  Gd12  1  0.677592  0.819091  0.377192  1
  Gd  Gd13  1  0.651449  0.986839  0.750000  1
  Gd  Gd14  1  0.177631  0.682752  0.376792  1
  Gd  Gd15  1  0.823002  0.319744  0.876793  1
  Gd  Gd16  1  0.823002  0.319744  0.623207  1
  Gd  Gd17  1  0.319701  0.183035  0.876867  1
  Gd  Gd18  1  0.177631  0.682752  0.123208  1
  Gd  Gd19  1  0.677592  0.819091  0.122808  1
  Si  Si20  1  0.268565  0.890563  0.750000  1
  Si  Si21  1  0.468768  0.608003  0.250000  1
  Si  Si22  1  0.027985  0.103700  0.750000  1
  Si  Si23  1  0.532520  0.387255  0.750000  1
  Si  Si24  1  0.144857  0.467763  0.534541  1
  Si  Si25  1  0.968481  0.894568  0.250000  1
  Si  Si26  1  0.736705  0.111343  0.250000  1
  Si  Si27  1  0.853708  0.532762  0.035913  1
  Si  Si28  1  0.353926  0.968806  0.035610  1
  Si  Si29  1  0.144857  0.467763  0.965459  1
  Si  Si30  1  0.644080  0.030486  0.538992  1
  Si  Si31  1  0.353926  0.968806  0.464390  1
  Si  Si32  1  0.853708  0.532762  0.464087  1
  Si  Si33  1  0.761054  0.616384  0.750000  1
  Si  Si34  1  0.236916  0.389210  0.250000  1
  Si  Si35  1  0.644080  0.030486  0.961008  1
