# generated using pymatgen
data_MgZr8Mn(In7Co3)2
_symmetry_space_group_name_H-M   'P 1'
_cell_length_a   9.44464260
_cell_length_b   9.44435617
_cell_length_c   9.44455329
_cell_angle_alpha   60.46754548
_cell_angle_beta   60.46880423
_cell_angle_gamma   60.47023247
_symmetry_Int_Tables_number   1
_chemical_formula_structural   MgZr8Mn(In7Co3)2
_chemical_formula_sum   'Mg1 Zr8 Mn1 In14 Co6'
_cell_volume   602.00887658
_cell_formula_units_Z   1
loop_
 _symmetry_equiv_pos_site_id
 _symmetry_equiv_pos_as_xyz
  1  'x, y, z'
loop_
 _atom_site_type_symbol
 _atom_site_label
 _atom_site_symmetry_multiplicity
 _atom_site_fract_x
 _atom_site_fract_y
 _atom_site_fract_z
 _atom_site_occupancy
  Mg  Mg0  1  0.500000  0.500000  0.500000  1
  Zr  Zr1  1  0.119981  0.639338  0.120026  1
  Zr  Zr2  1  0.360653  0.880018  0.880002  1
  Zr  Zr3  1  0.878729  0.878751  0.878766  1
  Zr  Zr4  1  0.639347  0.119982  0.119998  1
  Zr  Zr5  1  0.880008  0.879978  0.360652  1
  Zr  Zr6  1  0.121271  0.121249  0.121234  1
  Zr  Zr7  1  0.880019  0.360662  0.879974  1
  Zr  Zr8  1  0.119992  0.120022  0.639348  1
  Mn  Mn9  1  0.000000  0.000000  0.000000  1
  In  In10  1  0.499990  0.841159  0.158847  1
  In  In11  1  0.499974  0.841740  0.499975  1
  In  In12  1  0.500026  0.158260  0.500025  1
  In  In13  1  0.499985  0.499970  0.841708  1
  In  In14  1  0.158274  0.500010  0.500015  1
  In  In15  1  0.841167  0.158842  0.499986  1
  In  In16  1  0.158833  0.841158  0.500014  1
  In  In17  1  0.500010  0.158841  0.841153  1
  In  In18  1  0.158813  0.500011  0.841184  1
  In  In19  1  0.500015  0.500030  0.158292  1
  In  In20  1  0.841726  0.499990  0.499985  1
  In  In21  1  0.841187  0.499989  0.158816  1
  In  In22  1  0.250215  0.250219  0.250209  1
  In  In23  1  0.749785  0.749781  0.749791  1
  Co  Co24  1  0.781148  0.781156  0.217472  1
  Co  Co25  1  0.218792  0.782588  0.218782  1
  Co  Co26  1  0.217402  0.781216  0.781228  1
  Co  Co27  1  0.218852  0.218844  0.782528  1
  Co  Co28  1  0.781208  0.217412  0.781218  1
  Co  Co29  1  0.782598  0.218784  0.218772  1
