# generated using pymatgen
data_Ac2Nd2Zn9CdPb2
_symmetry_space_group_name_H-M   'P 1'
_cell_length_a   8.85446942
_cell_length_b   8.85446868
_cell_length_c   9.36308400
_cell_angle_alpha   90.00000000
_cell_angle_beta   90.00000000
_cell_angle_gamma   149.82548705
_symmetry_Int_Tables_number   1
_chemical_formula_structural   Ac2Nd2Zn9CdPb2
_chemical_formula_sum   'Ac2 Nd2 Zn9 Cd1 Pb2'
_cell_volume   368.97511256
_cell_formula_units_Z   1
loop_
 _symmetry_equiv_pos_site_id
 _symmetry_equiv_pos_as_xyz
  1  'x, y, z'
loop_
 _atom_site_type_symbol
 _atom_site_label
 _atom_site_symmetry_multiplicity
 _atom_site_fract_x
 _atom_site_fract_y
 _atom_site_fract_z
 _atom_site_occupancy
  Ac  Ac0  1  0.001006  0.998994  0.501762  1
  Ac  Ac1  1  0.001006  0.998994  0.998238  1
  Nd  Nd2  1  0.206472  0.793528  0.250000  1
  Nd  Nd3  1  0.791895  0.208105  0.750000  1
  Zn  Zn4  1  0.810423  0.189577  0.390700  1
  Zn  Zn5  1  0.187581  0.812419  0.611944  1
  Zn  Zn6  1  0.810423  0.189577  0.109300  1
  Zn  Zn7  1  0.187581  0.812419  0.888056  1
  Zn  Zn8  1  0.663227  0.336773  0.490190  1
  Zn  Zn9  1  0.334752  0.665248  0.518599  1
  Zn  Zn10  1  0.663227  0.336773  0.009810  1
  Zn  Zn11  1  0.334752  0.665248  0.981401  1
  Zn  Zn12  1  0.606806  0.393194  0.750000  1
  Cd  Cd13  1  0.395741  0.604259  0.250000  1
  Pb  Pb14  1  0.566594  0.433406  0.250000  1
  Pb  Pb15  1  0.438513  0.561487  0.750000  1
