# generated using pymatgen
data_Th3Al12OsRu3
_symmetry_space_group_name_H-M   'P 1'
_cell_length_a   8.97203700
_cell_length_b   8.98225646
_cell_length_c   9.55835500
_cell_angle_alpha   90.10200940
_cell_angle_beta   90.00000000
_cell_angle_gamma   119.96236736
_symmetry_Int_Tables_number   1
_chemical_formula_structural   Th3Al12OsRu3
_chemical_formula_sum   'Th6 Al24 Os2 Ru6'
_cell_volume   667.35042621
_cell_formula_units_Z   2
loop_
 _symmetry_equiv_pos_site_id
 _symmetry_equiv_pos_as_xyz
  1  'x, y, z'
loop_
 _atom_site_type_symbol
 _atom_site_label
 _atom_site_symmetry_multiplicity
 _atom_site_fract_x
 _atom_site_fract_y
 _atom_site_fract_z
 _atom_site_occupancy
  Th  Th0  1  0.193371  0.803837  0.251319  1
  Th  Th1  1  0.195094  0.390190  0.251660  1
  Th  Th2  1  0.610465  0.803837  0.251319  1
  Th  Th3  1  0.806629  0.196163  0.748681  1
  Th  Th4  1  0.804906  0.609810  0.748340  1
  Th  Th5  1  0.389535  0.196163  0.748681  1
  Al  Al6  1  0.563002  0.436460  0.249130  1
  Al  Al7  1  0.562666  0.125334  0.249758  1
  Al  Al8  1  0.873459  0.436460  0.249130  1
  Al  Al9  1  0.436998  0.563540  0.750870  1
  Al  Al10  1  0.437334  0.874666  0.750242  1
  Al  Al11  1  0.126541  0.563540  0.750870  1
  Al  Al12  1  0.325439  0.163137  0.421105  1
  Al  Al13  1  0.837698  0.163137  0.421105  1
  Al  Al14  1  0.837174  0.674348  0.422262  1
  Al  Al15  1  0.674561  0.836863  0.578895  1
  Al  Al16  1  0.162302  0.836863  0.578895  1
  Al  Al17  1  0.162826  0.325652  0.577738  1
  Al  Al18  1  0.674394  0.837037  0.921703  1
  Al  Al19  1  0.162644  0.837037  0.921703  1
  Al  Al20  1  0.162490  0.324980  0.922638  1
  Al  Al21  1  0.325606  0.162963  0.078297  1
  Al  Al22  1  0.837356  0.162963  0.078297  1
  Al  Al23  1  0.837510  0.675020  0.077362  1
  Al  Al24  1  0.665944  0.331886  0.510702  1
  Al  Al25  1  0.334056  0.668114  0.489298  1
  Al  Al26  1  0.333828  0.667654  0.011764  1
  Al  Al27  1  0.666172  0.332346  0.988236  1
  Al  Al28  1  0.000199  0.000398  0.250078  1
  Al  Al29  1  0.999801  0.999602  0.749922  1
  Os  Os30  1  0.500000  0.500000  0.500000  1
  Os  Os31  1  0.000000  0.500000  0.500000  1
  Ru  Ru32  1  0.000000  0.000000  0.500000  1
  Ru  Ru33  1  0.000000  0.000000  0.000000  1
  Ru  Ru34  1  0.500000  0.000000  0.500000  1
  Ru  Ru35  1  0.500000  0.500000  0.000000  1
  Ru  Ru36  1  0.500000  0.000000  0.000000  1
  Ru  Ru37  1  0.000000  0.500000  0.000000  1
