# generated using pymatgen
data_TbMnCoSiC
_symmetry_space_group_name_H-M   'P 1'
_cell_length_a   5.57355749
_cell_length_b   5.57355642
_cell_length_c   6.90779170
_cell_angle_alpha   88.60340435
_cell_angle_beta   91.39659418
_cell_angle_gamma   140.88696096
_symmetry_Int_Tables_number   1
_chemical_formula_structural   TbMnCoSiC
_chemical_formula_sum   'Tb2 Mn2 Co2 Si2 C2'
_cell_volume   135.32765653
_cell_formula_units_Z   2
loop_
 _symmetry_equiv_pos_site_id
 _symmetry_equiv_pos_as_xyz
  1  'x, y, z'
loop_
 _atom_site_type_symbol
 _atom_site_label
 _atom_site_symmetry_multiplicity
 _atom_site_fract_x
 _atom_site_fract_y
 _atom_site_fract_z
 _atom_site_occupancy
  Tb  Tb0  1  0.548210  0.451790  0.251690  1
  Tb  Tb1  1  0.451790  0.548210  0.748310  1
  Mn  Mn2  1  0.829491  0.170509  0.056965  1
  Mn  Mn3  1  0.170509  0.829491  0.943035  1
  Co  Co4  1  0.164064  0.835936  0.558093  1
  Co  Co5  1  0.835936  0.164064  0.441907  1
  Si  Si6  1  0.269533  0.730467  0.263276  1
  Si  Si7  1  0.730467  0.269533  0.736724  1
  C  C8  1  0.000000  0.000000  0.000000  1
  C  C9  1  0.000000  0.000000  0.500000  1
