# generated using pymatgen
data_Zr6N
_symmetry_space_group_name_H-M   'P 1'
_cell_length_a   5.67070500
_cell_length_b   5.67070597
_cell_length_c   10.40661800
_cell_angle_alpha   90.00000000
_cell_angle_beta   90.00000000
_cell_angle_gamma   119.99998849
_symmetry_Int_Tables_number   1
_chemical_formula_structural   Zr6N
_chemical_formula_sum   'Zr12 N2'
_cell_volume   289.81074272
_cell_formula_units_Z   2
loop_
 _symmetry_equiv_pos_site_id
 _symmetry_equiv_pos_as_xyz
  1  'x, y, z'
loop_
 _atom_site_type_symbol
 _atom_site_label
 _atom_site_symmetry_multiplicity
 _atom_site_fract_x
 _atom_site_fract_y
 _atom_site_fract_z
 _atom_site_occupancy
  Zr  Zr0  1  0.666706  0.659383  0.375686  1
  Zr  Zr1  1  0.333294  0.992678  0.875686  1
  Zr  Zr2  1  0.659383  0.992678  0.624314  1
  Zr  Zr3  1  0.659383  0.666706  0.875686  1
  Zr  Zr4  1  0.340617  0.333294  0.124314  1
  Zr  Zr5  1  0.992678  0.333294  0.375686  1
  Zr  Zr6  1  0.340617  0.007322  0.375686  1
  Zr  Zr7  1  0.666706  0.007322  0.124314  1
  Zr  Zr8  1  0.007322  0.340617  0.875686  1
  Zr  Zr9  1  0.333294  0.340617  0.624314  1
  Zr  Zr10  1  0.007322  0.666706  0.624314  1
  Zr  Zr11  1  0.992678  0.659383  0.124314  1
  N  N12  1  0.666667  0.333333  0.250000  1
  N  N13  1  0.333333  0.666667  0.750000  1
