# generated using pymatgen
data_Y4ErTm3Pt4
_symmetry_space_group_name_H-M   'P 1'
_cell_length_a   4.75999300
_cell_length_b   7.14430043
_cell_length_c   8.72422832
_cell_angle_alpha   89.85116044
_cell_angle_beta   90.00000000
_cell_angle_gamma   90.00000000
_symmetry_Int_Tables_number   1
_chemical_formula_structural   Y4ErTm3Pt4
_chemical_formula_sum   'Y4 Er1 Tm3 Pt4'
_cell_volume   296.68226174
_cell_formula_units_Z   1
loop_
 _symmetry_equiv_pos_site_id
 _symmetry_equiv_pos_as_xyz
  1  'x, y, z'
loop_
 _atom_site_type_symbol
 _atom_site_label
 _atom_site_symmetry_multiplicity
 _atom_site_fract_x
 _atom_site_fract_y
 _atom_site_fract_z
 _atom_site_occupancy
  Y  Y0  1  0.250000  0.990567  0.330855  1
  Y  Y1  1  0.250000  0.489046  0.168615  1
  Y  Y2  1  0.750000  0.010880  0.671388  1
  Y  Y3  1  0.750000  0.510758  0.829396  1
  Er  Er4  1  0.750000  0.644526  0.420880  1
  Tm  Tm5  1  0.250000  0.856521  0.921782  1
  Tm  Tm6  1  0.250000  0.355807  0.578739  1
  Tm  Tm7  1  0.750000  0.143737  0.078527  1
  Pt  Pt8  1  0.250000  0.253090  0.905967  1
  Pt  Pt9  1  0.250000  0.753780  0.595599  1
  Pt  Pt10  1  0.750000  0.746387  0.091677  1
  Pt  Pt11  1  0.750000  0.244902  0.406574  1
