# generated using pymatgen
data_B4Pd13Pt7
_symmetry_space_group_name_H-M   'P 1'
_cell_length_a   6.48704627
_cell_length_b   6.48901063
_cell_length_c   8.19866184
_cell_angle_alpha   89.82715718
_cell_angle_beta   89.84433170
_cell_angle_gamma   89.88080565
_symmetry_Int_Tables_number   1
_chemical_formula_structural   B4Pd13Pt7
_chemical_formula_sum   'B4 Pd13 Pt7'
_cell_volume   345.11508584
_cell_formula_units_Z   1
loop_
 _symmetry_equiv_pos_site_id
 _symmetry_equiv_pos_as_xyz
  1  'x, y, z'
loop_
 _atom_site_type_symbol
 _atom_site_label
 _atom_site_symmetry_multiplicity
 _atom_site_fract_x
 _atom_site_fract_y
 _atom_site_fract_z
 _atom_site_occupancy
  B  B0  1  0.551432  0.652628  0.366383  1
  B  B1  1  0.050757  0.155105  0.133461  1
  B  B2  1  0.451037  0.348253  0.632825  1
  B  B3  1  0.950178  0.847881  0.863815  1
  Pd  Pd4  1  0.945086  0.843272  0.126180  1
  Pd  Pd5  1  0.653726  0.958933  0.374362  1
  Pd  Pd6  1  0.154391  0.459388  0.126142  1
  Pd  Pd7  1  0.344614  0.042278  0.626094  1
  Pd  Pd8  1  0.846120  0.543244  0.874997  1
  Pd  Pd9  1  0.642024  0.950413  0.875447  1
  Pd  Pd10  1  0.141447  0.451111  0.626367  1
  Pd  Pd11  1  0.358733  0.048238  0.125716  1
  Pd  Pd12  1  0.858679  0.546827  0.374987  1
  Pd  Pd13  1  0.742039  0.255938  0.125870  1
  Pd  Pd14  1  0.242470  0.755044  0.374642  1
  Pd  Pd15  1  0.257126  0.745026  0.873888  1
  Pd  Pd16  1  0.759116  0.243560  0.626639  1
  Pt  Pt17  1  0.546981  0.649189  0.115734  1
  Pt  Pt18  1  0.049863  0.149462  0.382965  1
  Pt  Pt19  1  0.450369  0.349666  0.883802  1
  Pt  Pt20  1  0.949784  0.849106  0.613286  1
  Pt  Pt21  1  0.554959  0.658053  0.626455  1
  Pt  Pt22  1  0.053415  0.155420  0.876312  1
  Pt  Pt23  1  0.445653  0.341965  0.373630  1
