# generated using pymatgen
data_Dy2BeB3Ir5
_symmetry_space_group_name_H-M   'P 1'
_cell_length_a   7.52836094
_cell_length_b   6.44983009
_cell_length_c   5.58259257
_cell_angle_alpha   78.32558949
_cell_angle_beta   56.62426059
_cell_angle_gamma   46.28586530
_symmetry_Int_Tables_number   1
_chemical_formula_structural   Dy2BeB3Ir5
_chemical_formula_sum   'Dy2 Be1 B3 Ir5'
_cell_volume   156.35588747
_cell_formula_units_Z   1
loop_
 _symmetry_equiv_pos_site_id
 _symmetry_equiv_pos_as_xyz
  1  'x, y, z'
loop_
 _atom_site_type_symbol
 _atom_site_label
 _atom_site_symmetry_multiplicity
 _atom_site_fract_x
 _atom_site_fract_y
 _atom_site_fract_z
 _atom_site_occupancy
  Dy  Dy0  1  0.863246  0.866241  0.133760  1
  Dy  Dy1  1  0.138880  0.140793  0.859208  1
  Be  Be2  1  0.493909  0.779349  0.220652  1
  B  B3  1  0.206241  0.533630  0.466371  1
  B  B4  1  0.784291  0.477228  0.522773  1
  B  B5  1  0.528033  0.205590  0.794411  1
  Ir  Ir6  1  0.501157  0.498678  0.998728  1
  Ir  Ir7  1  0.243566  0.258957  0.247952  1
  Ir  Ir8  1  0.998564  0.001272  0.501322  1
  Ir  Ir9  1  0.491632  0.486216  0.513785  1
  Ir  Ir10  1  0.750473  0.752049  0.741045  1
