# generated using pymatgen
data_La16Sm3ErPb16
_symmetry_space_group_name_H-M   'P 1'
_cell_length_a   8.58339400
_cell_length_b   8.68482051
_cell_length_c   16.63996700
_cell_angle_alpha   90.00000000
_cell_angle_beta   90.00000000
_cell_angle_gamma   90.01967954
_symmetry_Int_Tables_number   1
_chemical_formula_structural   La16Sm3ErPb16
_chemical_formula_sum   'La16 Sm3 Er1 Pb16'
_cell_volume   1240.43019848
_cell_formula_units_Z   1
loop_
 _symmetry_equiv_pos_site_id
 _symmetry_equiv_pos_as_xyz
  1  'x, y, z'
loop_
 _atom_site_type_symbol
 _atom_site_label
 _atom_site_symmetry_multiplicity
 _atom_site_fract_x
 _atom_site_fract_y
 _atom_site_fract_z
 _atom_site_occupancy
  La  La0  1  0.375867  0.845121  0.881617  1
  La  La1  1  0.875799  0.654870  0.618523  1
  La  La2  1  0.623500  0.154476  0.381253  1
  La  La3  1  0.124576  0.344671  0.118742  1
  La  La4  1  0.623500  0.154476  0.118747  1
  La  La5  1  0.124576  0.344671  0.381258  1
  La  La6  1  0.375867  0.845121  0.618383  1
  La  La7  1  0.875799  0.654870  0.881477  1
  La  La8  1  0.534624  0.322013  0.899841  1
  La  La9  1  0.034617  0.178122  0.600123  1
  La  La10  1  0.465041  0.678622  0.399728  1
  La  La11  1  0.965767  0.822237  0.100357  1
  La  La12  1  0.465041  0.678622  0.100272  1
  La  La13  1  0.965767  0.822237  0.399643  1
  La  La14  1  0.534624  0.322013  0.600159  1
  La  La15  1  0.034617  0.178122  0.899877  1
  Sm  Sm16  1  0.212970  0.502250  0.750000  1
  Sm  Sm17  1  0.713184  0.997557  0.750000  1
  Sm  Sm18  1  0.787090  0.497975  0.250000  1
  Er  Er19  1  0.285470  0.002490  0.250000  1
  Pb  Pb20  1  0.281163  0.028761  0.049221  1
  Pb  Pb21  1  0.781246  0.470879  0.451512  1
  Pb  Pb22  1  0.718982  0.970962  0.548269  1
  Pb  Pb23  1  0.218891  0.528985  0.951786  1
  Pb  Pb24  1  0.718982  0.970962  0.951731  1
  Pb  Pb25  1  0.218891  0.528985  0.548214  1
  Pb  Pb26  1  0.281163  0.028761  0.450779  1
  Pb  Pb27  1  0.781246  0.470879  0.048488  1
  Pb  Pb28  1  0.571199  0.623854  0.750000  1
  Pb  Pb29  1  0.071478  0.876159  0.750000  1
  Pb  Pb30  1  0.428610  0.375364  0.250000  1
  Pb  Pb31  1  0.929972  0.123253  0.250000  1
  Pb  Pb32  1  0.342844  0.152647  0.750000  1
  Pb  Pb33  1  0.843040  0.347220  0.750000  1
  Pb  Pb34  1  0.656808  0.847240  0.250000  1
  Pb  Pb35  1  0.157194  0.654554  0.250000  1
