# generated using pymatgen
data_SmTm5Co16(MoP6)2
_symmetry_space_group_name_H-M   'P 1'
_cell_length_a   3.70902600
_cell_length_b   10.53774100
_cell_length_c   12.21917500
_cell_angle_alpha   90.00000000
_cell_angle_beta   90.00000000
_cell_angle_gamma   90.00000000
_symmetry_Int_Tables_number   1
_chemical_formula_structural   SmTm5Co16(MoP6)2
_chemical_formula_sum   'Sm1 Tm5 Co16 Mo2 P12'
_cell_volume   477.58346546
_cell_formula_units_Z   1
loop_
 _symmetry_equiv_pos_site_id
 _symmetry_equiv_pos_as_xyz
  1  'x, y, z'
loop_
 _atom_site_type_symbol
 _atom_site_label
 _atom_site_symmetry_multiplicity
 _atom_site_fract_x
 _atom_site_fract_y
 _atom_site_fract_z
 _atom_site_occupancy
  Sm  Sm0  1  0.500000  0.000000  0.474753  1
  Tm  Tm1  1  0.000000  0.500000  0.524512  1
  Tm  Tm2  1  0.500000  0.818830  0.204230  1
  Tm  Tm3  1  0.500000  0.181170  0.204230  1
  Tm  Tm4  1  0.000000  0.680486  0.795192  1
  Tm  Tm5  1  0.000000  0.319514  0.795192  1
  Co  Co6  1  0.500000  0.500000  0.701626  1
  Co  Co7  1  0.000000  0.000000  0.296412  1
  Co  Co8  1  0.000000  0.500000  0.986025  1
  Co  Co9  1  0.500000  0.000000  0.013787  1
  Co  Co10  1  0.500000  0.332673  0.989877  1
  Co  Co11  1  0.500000  0.667327  0.989877  1
  Co  Co12  1  0.000000  0.168010  0.010208  1
  Co  Co13  1  0.000000  0.831990  0.010208  1
  Co  Co14  1  0.500000  0.298137  0.431049  1
  Co  Co15  1  0.500000  0.701863  0.431049  1
  Co  Co16  1  0.000000  0.206813  0.569029  1
  Co  Co17  1  0.000000  0.793187  0.569029  1
  Co  Co18  1  0.500000  0.876902  0.707939  1
  Co  Co19  1  0.500000  0.123098  0.707939  1
  Co  Co20  1  0.000000  0.621730  0.292825  1
  Co  Co21  1  0.000000  0.378270  0.292825  1
  Mo  Mo22  1  0.500000  0.500000  0.156838  1
  Mo  Mo23  1  0.000000  0.000000  0.844878  1
  P  P24  1  0.500000  0.500000  0.880055  1
  P  P25  1  0.000000  0.000000  0.119227  1
  P  P26  1  0.500000  0.500000  0.350502  1
  P  P27  1  0.000000  0.000000  0.652618  1
  P  P28  1  0.500000  0.312808  0.616458  1
  P  P29  1  0.500000  0.687192  0.616458  1
  P  P30  1  0.000000  0.190532  0.382308  1
  P  P31  1  0.000000  0.809468  0.382308  1
  P  P32  1  0.500000  0.843699  0.892702  1
  P  P33  1  0.500000  0.156301  0.892702  1
  P  P34  1  0.000000  0.655583  0.107566  1
  P  P35  1  0.000000  0.344417  0.107566  1
