# generated using pymatgen
data_Np6BiSbF30
_symmetry_space_group_name_H-M   'P 1'
_cell_length_a   8.64890995
_cell_length_b   8.64890972
_cell_length_c   8.67834963
_cell_angle_alpha   79.47244238
_cell_angle_beta   79.47244073
_cell_angle_gamma   100.03096084
_symmetry_Int_Tables_number   1
_chemical_formula_structural   Np6BiSbF30
_chemical_formula_sum   'Np6 Bi1 Sb1 F30'
_cell_volume   612.86368171
_cell_formula_units_Z   1
loop_
 _symmetry_equiv_pos_site_id
 _symmetry_equiv_pos_as_xyz
  1  'x, y, z'
loop_
 _atom_site_type_symbol
 _atom_site_label
 _atom_site_symmetry_multiplicity
 _atom_site_fract_x
 _atom_site_fract_y
 _atom_site_fract_z
 _atom_site_occupancy
  Np  Np0  1  0.749688  0.250312  0.250000  1
  Np  Np1  1  0.250176  0.749824  0.750000  1
  Np  Np2  1  0.753668  0.677721  0.676576  1
  Np  Np3  1  0.322279  0.246332  0.823424  1
  Np  Np4  1  0.247193  0.325343  0.322162  1
  Np  Np5  1  0.674657  0.752807  0.177838  1
  Bi  Bi6  1  0.822754  0.177246  0.750000  1
  Sb  Sb7  1  0.169344  0.830656  0.250000  1
  F  F8  1  0.468082  0.531918  0.250000  1
  F  F9  1  0.755090  0.961781  0.971861  1
  F  F10  1  0.038219  0.244910  0.528139  1
  F  F11  1  0.243574  0.033145  0.033519  1
  F  F12  1  0.966855  0.756426  0.466481  1
  F  F13  1  0.534477  0.465523  0.750000  1
  F  F14  1  0.220463  0.488883  0.779387  1
  F  F15  1  0.223034  0.718604  0.003346  1
  F  F16  1  0.986455  0.721632  0.783596  1
  F  F17  1  0.721151  0.987562  0.284662  1
  F  F18  1  0.715620  0.224087  0.506094  1
  F  F19  1  0.489567  0.220227  0.278992  1
  F  F20  1  0.779774  0.510433  0.221008  1
  F  F21  1  0.775913  0.284380  0.993906  1
  F  F22  1  0.012438  0.278849  0.215338  1
  F  F23  1  0.278368  0.013545  0.716404  1
  F  F24  1  0.281396  0.776966  0.496654  1
  F  F25  1  0.511117  0.779537  0.720613  1
  F  F26  1  0.542505  0.151314  0.824793  1
  F  F27  1  0.184630  0.052638  0.337703  1
  F  F28  1  0.656814  0.676105  0.449779  1
  F  F29  1  0.676348  0.656498  0.949519  1
  F  F30  1  0.058188  0.185614  0.846017  1
  F  F31  1  0.156352  0.544017  0.320110  1
  F  F32  1  0.455983  0.843648  0.179890  1
  F  F33  1  0.814386  0.941812  0.653983  1
  F  F34  1  0.343502  0.323652  0.550481  1
  F  F35  1  0.323895  0.343186  0.050221  1
  F  F36  1  0.947362  0.815370  0.162297  1
  F  F37  1  0.848686  0.457495  0.675207  1
