# generated using pymatgen
data_Sc4GaBr6
_symmetry_space_group_name_H-M   'P 1'
_cell_length_a   3.81019000
_cell_length_b   12.78384500
_cell_length_c   13.49526300
_cell_angle_alpha   90.00000000
_cell_angle_beta   90.00000000
_cell_angle_gamma   90.00000000
_symmetry_Int_Tables_number   1
_chemical_formula_structural   Sc4GaBr6
_chemical_formula_sum   'Sc8 Ga2 Br12'
_cell_volume   657.33912418
_cell_formula_units_Z   2
loop_
 _symmetry_equiv_pos_site_id
 _symmetry_equiv_pos_as_xyz
  1  'x, y, z'
loop_
 _atom_site_type_symbol
 _atom_site_label
 _atom_site_symmetry_multiplicity
 _atom_site_fract_x
 _atom_site_fract_y
 _atom_site_fract_z
 _atom_site_occupancy
  Sc  Sc0  1  0.500000  0.118709  0.341058  1
  Sc  Sc1  1  0.500000  0.881291  0.658942  1
  Sc  Sc2  1  0.500000  0.618709  0.158942  1
  Sc  Sc3  1  0.500000  0.381291  0.841058  1
  Sc  Sc4  1  0.000000  0.121154  0.580989  1
  Sc  Sc5  1  0.000000  0.878846  0.419011  1
  Sc  Sc6  1  0.000000  0.621154  0.919011  1
  Sc  Sc7  1  0.000000  0.378846  0.080989  1
  Ga  Ga8  1  0.500000  0.000000  0.500000  1
  Ga  Ga9  1  0.500000  0.500000  0.000000  1
  Br  Br10  1  0.500000  0.247119  0.164323  1
  Br  Br11  1  0.500000  0.752881  0.835677  1
  Br  Br12  1  0.500000  0.747119  0.335677  1
  Br  Br13  1  0.500000  0.252881  0.664323  1
  Br  Br14  1  0.000000  0.253224  0.412987  1
  Br  Br15  1  0.000000  0.746776  0.587013  1
  Br  Br16  1  0.000000  0.753224  0.087013  1
  Br  Br17  1  0.000000  0.246776  0.912987  1
  Br  Br18  1  0.000000  0.002466  0.245158  1
  Br  Br19  1  0.000000  0.997534  0.754842  1
  Br  Br20  1  0.000000  0.502466  0.254842  1
  Br  Br21  1  0.000000  0.497534  0.745158  1
