# generated using pymatgen
data_Dy4Er8AlGaCo4
_symmetry_space_group_name_H-M   'P 1'
_cell_length_a   8.23604458
_cell_length_b   8.23604417
_cell_length_c   8.23604454
_cell_angle_alpha   106.74536660
_cell_angle_beta   109.40815308
_cell_angle_gamma   112.30803074
_symmetry_Int_Tables_number   1
_chemical_formula_structural   Dy4Er8AlGaCo4
_chemical_formula_sum   'Dy4 Er8 Al1 Ga1 Co4'
_cell_volume   429.04994103
_cell_formula_units_Z   1
loop_
 _symmetry_equiv_pos_site_id
 _symmetry_equiv_pos_as_xyz
  1  'x, y, z'
loop_
 _atom_site_type_symbol
 _atom_site_label
 _atom_site_symmetry_multiplicity
 _atom_site_fract_x
 _atom_site_fract_y
 _atom_site_fract_z
 _atom_site_occupancy
  Dy  Dy0  1  0.699388  0.263361  0.962749  1
  Dy  Dy1  1  0.300612  0.736639  0.037251  1
  Dy  Dy2  1  0.699388  0.736639  0.436029  1
  Dy  Dy3  1  0.300612  0.263361  0.563971  1
  Er  Er4  1  0.811007  0.137604  0.326597  1
  Er  Er5  1  0.811007  0.484410  0.673403  1
  Er  Er6  1  0.188993  0.862396  0.673403  1
  Er  Er7  1  0.188993  0.515590  0.326597  1
  Er  Er8  1  0.601444  0.781652  0.819792  1
  Er  Er9  1  0.961859  0.781652  0.180208  1
  Er  Er10  1  0.038141  0.218348  0.819792  1
  Er  Er11  1  0.398556  0.218348  0.180208  1
  Al  Al12  1  0.500000  0.000000  0.500000  1
  Ga  Ga13  1  0.500000  0.500000  0.000000  1
  Co  Co14  1  0.841610  0.500000  0.341610  1
  Co  Co15  1  0.158390  0.500000  0.658390  1
  Co  Co16  1  0.000000  0.114950  0.114950  1
  Co  Co17  1  0.000000  0.885050  0.885050  1
