# generated using pymatgen
data_TbHo15Cd4CoRu3
_symmetry_space_group_name_H-M   'P 1'
_cell_length_a   9.59510745
_cell_length_b   9.59510735
_cell_length_c   9.52590415
_cell_angle_alpha   59.71424799
_cell_angle_beta   59.71424261
_cell_angle_gamma   59.93402870
_symmetry_Int_Tables_number   1
_chemical_formula_structural   TbHo15Cd4CoRu3
_chemical_formula_sum   'Tb1 Ho15 Cd4 Co1 Ru3'
_cell_volume   617.14387014
_cell_formula_units_Z   1
loop_
 _symmetry_equiv_pos_site_id
 _symmetry_equiv_pos_as_xyz
  1  'x, y, z'
loop_
 _atom_site_type_symbol
 _atom_site_label
 _atom_site_symmetry_multiplicity
 _atom_site_fract_x
 _atom_site_fract_y
 _atom_site_fract_z
 _atom_site_occupancy
  Tb  Tb0  1  0.937957  0.937957  0.559587  1
  Ho  Ho1  1  0.811006  0.190655  0.186639  1
  Ho  Ho2  1  0.937989  0.563962  0.559657  1
  Ho  Ho3  1  0.939834  0.559943  0.939975  1
  Ho  Ho4  1  0.811113  0.811113  0.186839  1
  Ho  Ho5  1  0.344171  0.344171  0.351547  1
  Ho  Ho6  1  0.559943  0.939834  0.939975  1
  Ho  Ho7  1  0.563962  0.937989  0.559657  1
  Ho  Ho8  1  0.189036  0.814847  0.807739  1
  Ho  Ho9  1  0.188591  0.188591  0.807543  1
  Ho  Ho10  1  0.346593  0.346593  0.960262  1
  Ho  Ho11  1  0.344525  0.960677  0.351290  1
  Ho  Ho12  1  0.814847  0.189036  0.807739  1
  Ho  Ho13  1  0.560521  0.560521  0.939403  1
  Ho  Ho14  1  0.190655  0.811006  0.186639  1
  Ho  Ho15  1  0.960677  0.344525  0.351290  1
  Cd  Cd16  1  0.580759  0.580759  0.257395  1
  Cd  Cd17  1  0.258396  0.580502  0.579812  1
  Cd  Cd18  1  0.581020  0.581020  0.579729  1
  Cd  Cd19  1  0.580502  0.258396  0.579812  1
  Co  Co20  1  0.140135  0.140135  0.580464  1
  Ru  Ru21  1  0.581079  0.138260  0.142682  1
  Ru  Ru22  1  0.138430  0.138430  0.141643  1
  Ru  Ru23  1  0.138260  0.581079  0.142682  1
