# generated using pymatgen
data_CeTmLu2(NiAs)4
_symmetry_space_group_name_H-M   'P 1'
_cell_length_a   4.04209200
_cell_length_b   4.04209169
_cell_length_c   15.11783000
_cell_angle_alpha   90.00000000
_cell_angle_beta   90.00000000
_cell_angle_gamma   120.00000253
_symmetry_Int_Tables_number   1
_chemical_formula_structural   CeTmLu2(NiAs)4
_chemical_formula_sum   'Ce1 Tm1 Lu2 Ni4 As4'
_cell_volume   213.91066259
_cell_formula_units_Z   1
loop_
 _symmetry_equiv_pos_site_id
 _symmetry_equiv_pos_as_xyz
  1  'x, y, z'
loop_
 _atom_site_type_symbol
 _atom_site_label
 _atom_site_symmetry_multiplicity
 _atom_site_fract_x
 _atom_site_fract_y
 _atom_site_fract_z
 _atom_site_occupancy
  Ce  Ce0  1  0.000000  0.000000  0.000000  1
  Tm  Tm1  1  0.000000  0.000000  0.500000  1
  Lu  Lu2  1  0.000000  0.000000  0.254754  1
  Lu  Lu3  1  0.000000  0.000000  0.745246  1
  Ni  Ni4  1  0.333333  0.666667  0.143662  1
  Ni  Ni5  1  0.666667  0.333333  0.856338  1
  Ni  Ni6  1  0.666667  0.333333  0.639591  1
  Ni  Ni7  1  0.333333  0.666667  0.360409  1
  As  As8  1  0.333333  0.666667  0.617766  1
  As  As9  1  0.666667  0.333333  0.382234  1
  As  As10  1  0.666667  0.333333  0.124090  1
  As  As11  1  0.333333  0.666667  0.875910  1
