# generated using pymatgen
data_DyY5(SnIr)6
_symmetry_space_group_name_H-M   'P 1'
_cell_length_a   7.47738329
_cell_length_b   7.52681115
_cell_length_c   7.96307900
_cell_angle_alpha   90.00000000
_cell_angle_beta   90.00000000
_cell_angle_gamma   120.24456578
_symmetry_Int_Tables_number   1
_chemical_formula_structural   DyY5(SnIr)6
_chemical_formula_sum   'Dy1 Y5 Sn6 Ir6'
_cell_volume   387.16559443
_cell_formula_units_Z   1
loop_
 _symmetry_equiv_pos_site_id
 _symmetry_equiv_pos_as_xyz
  1  'x, y, z'
loop_
 _atom_site_type_symbol
 _atom_site_label
 _atom_site_symmetry_multiplicity
 _atom_site_fract_x
 _atom_site_fract_y
 _atom_site_fract_z
 _atom_site_occupancy
  Dy  Dy0  1  0.999075  0.404346  0.250000  1
  Y  Y1  1  0.406274  0.003317  0.250000  1
  Y  Y2  1  0.595530  0.594567  0.750000  1
  Y  Y3  1  0.594354  0.595986  0.250000  1
  Y  Y4  1  0.000929  0.404978  0.750000  1
  Y  Y5  1  0.404168  0.998183  0.750000  1
  Sn  Sn6  1  0.260071  0.259193  0.500679  1
  Sn  Sn7  1  0.260071  0.259193  0.999321  1
  Sn  Sn8  1  0.739727  0.998576  0.999419  1
  Sn  Sn9  1  0.000106  0.742922  0.498363  1
  Sn  Sn10  1  0.739727  0.998576  0.500581  1
  Sn  Sn11  1  0.000106  0.742922  0.001637  1
  Ir  Ir12  1  0.670178  0.333834  0.500318  1
  Ir  Ir13  1  0.670178  0.333834  0.999682  1
  Ir  Ir14  1  0.329744  0.663939  0.002027  1
  Ir  Ir15  1  0.329744  0.663939  0.497973  1
  Ir  Ir16  1  0.000088  0.999445  0.750000  1
  Ir  Ir17  1  0.999928  0.002250  0.250000  1
