# generated using pymatgen
data_Yb6Ga15Cu7Pd11
_symmetry_space_group_name_H-M   'P 1'
_cell_length_a   8.57378590
_cell_length_b   8.62029087
_cell_length_c   8.67162764
_cell_angle_alpha   90.29102397
_cell_angle_beta   89.84389753
_cell_angle_gamma   90.53594143
_symmetry_Int_Tables_number   1
_chemical_formula_structural   Yb6Ga15Cu7Pd11
_chemical_formula_sum   'Yb6 Ga15 Cu7 Pd11'
_cell_volume   640.86863434
_cell_formula_units_Z   1
loop_
 _symmetry_equiv_pos_site_id
 _symmetry_equiv_pos_as_xyz
  1  'x, y, z'
loop_
 _atom_site_type_symbol
 _atom_site_label
 _atom_site_symmetry_multiplicity
 _atom_site_fract_x
 _atom_site_fract_y
 _atom_site_fract_z
 _atom_site_occupancy
  Yb  Yb0  1  0.798516  0.003048  0.500432  1
  Yb  Yb1  1  0.001101  0.499754  0.802186  1
  Yb  Yb2  1  0.502048  0.799672  0.003121  1
  Yb  Yb3  1  0.000859  0.500220  0.194672  1
  Yb  Yb4  1  0.502307  0.198140  0.002466  1
  Yb  Yb5  1  0.193128  0.000310  0.500044  1
  Ga  Ga6  1  0.282068  0.713872  0.286865  1
  Ga  Ga7  1  0.716881  0.285953  0.283595  1
  Ga  Ga8  1  0.287899  0.282444  0.715995  1
  Ga  Ga9  1  0.714433  0.718473  0.712893  1
  Ga  Ga10  1  0.712123  0.283268  0.716857  1
  Ga  Ga11  1  0.285330  0.717310  0.714809  1
  Ga  Ga12  1  0.718230  0.714213  0.287604  1
  Ga  Ga13  1  0.284474  0.285169  0.284293  1
  Ga  Ga14  1  0.687374  0.498583  0.000040  1
  Ga  Ga15  1  0.490382  0.999357  0.680958  1
  Ga  Ga16  1  0.999574  0.671156  0.497449  1
  Ga  Ga17  1  0.496875  0.000645  0.314626  1
  Ga  Ga18  1  0.001923  0.322699  0.491741  1
  Ga  Ga19  1  0.320897  0.490989  0.999682  1
  Ga  Ga20  1  0.998469  0.999338  0.998150  1
  Cu  Cu21  1  0.746881  0.003563  0.161832  1
  Cu  Cu22  1  0.842737  0.254096  0.007651  1
  Cu  Cu23  1  0.253101  0.006799  0.844556  1
  Cu  Cu24  1  0.834419  0.747801  0.002141  1
  Cu  Cu25  1  0.998719  0.164188  0.249147  1
  Cu  Cu26  1  0.252374  0.007295  0.158846  1
  Cu  Cu27  1  0.160971  0.249478  0.005949  1
  Pd  Pd28  1  0.996645  0.841260  0.260202  1
  Pd  Pd29  1  0.002699  0.174813  0.742525  1
  Pd  Pd30  1  0.001556  0.829220  0.740507  1
  Pd  Pd31  1  0.172982  0.741876  0.002445  1
  Pd  Pd32  1  0.735744  0.001638  0.840903  1
  Pd  Pd33  1  0.257305  0.499185  0.500016  1
  Pd  Pd34  1  0.499833  0.246197  0.498630  1
  Pd  Pd35  1  0.501607  0.500193  0.247072  1
  Pd  Pd36  1  0.499043  0.751469  0.496591  1
  Pd  Pd37  1  0.502416  0.500454  0.751267  1
  Pd  Pd38  1  0.746079  0.495863  0.501241  1
