# generated using pymatgen
data_DyY3Rh4F28
_symmetry_space_group_name_H-M   'P 1'
_cell_length_a   5.53473809
_cell_length_b   8.89457076
_cell_length_c   11.94356243
_cell_angle_alpha   62.53107219
_cell_angle_beta   89.90826499
_cell_angle_gamma   89.95742188
_symmetry_Int_Tables_number   1
_chemical_formula_structural   DyY3Rh4F28
_chemical_formula_sum   'Dy1 Y3 Rh4 F28'
_cell_volume   521.68319192
_cell_formula_units_Z   1
loop_
 _symmetry_equiv_pos_site_id
 _symmetry_equiv_pos_as_xyz
  1  'x, y, z'
loop_
 _atom_site_type_symbol
 _atom_site_label
 _atom_site_symmetry_multiplicity
 _atom_site_fract_x
 _atom_site_fract_y
 _atom_site_fract_z
 _atom_site_occupancy
  Dy  Dy0  1  0.260857  0.813231  0.265053  1
  Y  Y1  1  0.738662  0.186707  0.735141  1
  Y  Y2  1  0.760825  0.186264  0.235059  1
  Y  Y3  1  0.238752  0.813137  0.765005  1
  Rh  Rh4  1  0.758307  0.726097  0.044044  1
  Rh  Rh5  1  0.241778  0.273541  0.956598  1
  Rh  Rh6  1  0.258130  0.274313  0.456050  1
  Rh  Rh7  1  0.741892  0.726225  0.543301  1
  F  F8  1  0.937764  0.706601  0.415028  1
  F  F9  1  0.063579  0.293991  0.584482  1
  F  F10  1  0.436166  0.293843  0.084575  1
  F  F11  1  0.563460  0.706091  0.916082  1
  F  F12  1  0.466361  0.728602  0.135542  1
  F  F13  1  0.534223  0.271459  0.865417  1
  F  F14  1  0.966353  0.271996  0.365056  1
  F  F15  1  0.033403  0.728078  0.634661  1
  F  F16  1  0.950607  0.744345  0.174539  1
  F  F17  1  0.050711  0.255443  0.825566  1
  F  F18  1  0.449712  0.256300  0.324928  1
  F  F19  1  0.550011  0.743978  0.674540  1
  F  F20  1  0.770622  0.481492  0.140145  1
  F  F21  1  0.229534  0.518164  0.860371  1
  F  F22  1  0.270285  0.518866  0.360024  1
  F  F23  1  0.729302  0.481640  0.639335  1
  F  F24  1  0.942723  0.279895  0.042741  1
  F  F25  1  0.056990  0.719891  0.957470  1
  F  F26  1  0.443596  0.720537  0.456643  1
  F  F27  1  0.556768  0.280042  0.542345  1
  F  F28  1  0.741501  0.970368  0.450808  1
  F  F29  1  0.258602  0.030310  0.548797  1
  F  F30  1  0.241506  0.029394  0.049793  1
  F  F31  1  0.758550  0.970170  0.951094  1
  F  F32  1  0.587063  0.969027  0.230712  1
  F  F33  1  0.411623  0.030575  0.769274  1
  F  F34  1  0.088135  0.030105  0.269071  1
  F  F35  1  0.911650  0.969283  0.730710  1
