# generated using pymatgen
data_Ho4ErFe3(P3Ru4)4
_symmetry_space_group_name_H-M   'P 1'
_cell_length_a   12.48000502
_cell_length_b   12.48112138
_cell_length_c   3.88875400
_cell_angle_alpha   90.00000000
_cell_angle_beta   90.00000000
_cell_angle_gamma   120.00295826
_symmetry_Int_Tables_number   1
_chemical_formula_structural   Ho4ErFe3(P3Ru4)4
_chemical_formula_sum   'Ho4 Er1 Fe3 P12 Ru16'
_cell_volume   524.56163254
_cell_formula_units_Z   1
loop_
 _symmetry_equiv_pos_site_id
 _symmetry_equiv_pos_as_xyz
  1  'x, y, z'
loop_
 _atom_site_type_symbol
 _atom_site_label
 _atom_site_symmetry_multiplicity
 _atom_site_fract_x
 _atom_site_fract_y
 _atom_site_fract_z
 _atom_site_occupancy
  Ho  Ho0  1  0.818320  0.818306  0.500000  1
  Ho  Ho1  1  0.181680  0.999985  0.500000  1
  Ho  Ho2  1  0.666662  0.333329  0.000000  1
  Ho  Ho3  1  0.333338  0.666668  0.000000  1
  Er  Er4  1  0.000000  0.181676  0.500000  1
  Fe  Fe5  1  0.000000  0.716633  0.500000  1
  Fe  Fe6  1  0.283287  0.283334  0.500000  1
  Fe  Fe7  1  0.716713  0.000047  0.500000  1
  P  P8  1  0.000000  0.813496  0.000000  1
  P  P9  1  0.186371  0.186461  0.000000  1
  P  P10  1  0.813629  0.000090  0.000000  1
  P  P11  1  0.689966  0.162974  0.500000  1
  P  P12  1  0.837076  0.527039  0.500000  1
  P  P13  1  0.473000  0.310034  0.500000  1
  P  P14  1  0.162924  0.689962  0.500000  1
  P  P15  1  0.527000  0.837034  0.500000  1
  P  P16  1  0.310034  0.473008  0.500000  1
  P  P17  1  0.000000  0.373143  0.000000  1
  P  P18  1  0.626792  0.626788  0.000000  1
  P  P19  1  0.373208  0.999996  0.000000  1
  Ru  Ru20  1  0.000000  0.558022  0.000000  1
  Ru  Ru21  1  0.442003  0.441995  0.000000  1
  Ru  Ru22  1  0.557997  0.999992  0.000000  1
  Ru  Ru23  1  0.807048  0.181670  0.000000  1
  Ru  Ru24  1  0.818338  0.625182  0.000000  1
  Ru  Ru25  1  0.374788  0.193132  0.000000  1
  Ru  Ru26  1  0.181662  0.806843  0.000000  1
  Ru  Ru27  1  0.625212  0.818343  0.000000  1
  Ru  Ru28  1  0.192952  0.374621  0.000000  1
  Ru  Ru29  1  0.873611  0.363330  0.500000  1
  Ru  Ru30  1  0.636657  0.510234  0.500000  1
  Ru  Ru31  1  0.489771  0.126420  0.500000  1
  Ru  Ru32  1  0.363343  0.873577  0.500000  1
  Ru  Ru33  1  0.510229  0.636650  0.500000  1
  Ru  Ru34  1  0.126389  0.489720  0.500000  1
  Ru  Ru35  1  0.000000  0.000264  0.000000  1
