# generated using pymatgen
data_Lu3In3Pd2Au
_symmetry_space_group_name_H-M   'P 1'
_cell_length_a   7.72436200
_cell_length_b   7.72436311
_cell_length_c   3.76128600
_cell_angle_alpha   90.00000000
_cell_angle_beta   90.00000000
_cell_angle_gamma   119.99999525
_symmetry_Int_Tables_number   1
_chemical_formula_structural   Lu3In3Pd2Au
_chemical_formula_sum   'Lu3 In3 Pd2 Au1'
_cell_volume   194.35347477
_cell_formula_units_Z   1
loop_
 _symmetry_equiv_pos_site_id
 _symmetry_equiv_pos_as_xyz
  1  'x, y, z'
loop_
 _atom_site_type_symbol
 _atom_site_label
 _atom_site_symmetry_multiplicity
 _atom_site_fract_x
 _atom_site_fract_y
 _atom_site_fract_z
 _atom_site_occupancy
  Lu  Lu0  1  0.401601  0.992417  0.500000  1
  Lu  Lu1  1  0.007583  0.409184  0.500000  1
  Lu  Lu2  1  0.590816  0.598399  0.500000  1
  In  In3  1  0.736039  0.995960  0.000000  1
  In  In4  1  0.004040  0.740078  0.000000  1
  In  In5  1  0.259922  0.263961  0.000000  1
  Pd  Pd6  1  0.333333  0.666667  0.000000  1
  Pd  Pd7  1  0.000000  0.000000  0.500000  1
  Au  Au8  1  0.666667  0.333333  0.000000  1
