# generated using pymatgen
data_Sc12AlNi4Os
_symmetry_space_group_name_H-M   'P 1'
_cell_length_a   7.73210405
_cell_length_b   7.73363908
_cell_length_c   7.73210391
_cell_angle_alpha   111.18220658
_cell_angle_beta   110.68599984
_cell_angle_gamma   106.57620763
_symmetry_Int_Tables_number   1
_chemical_formula_structural   Sc12AlNi4Os
_chemical_formula_sum   'Sc12 Al1 Ni4 Os1'
_cell_volume   355.27537020
_cell_formula_units_Z   1
loop_
 _symmetry_equiv_pos_site_id
 _symmetry_equiv_pos_as_xyz
  1  'x, y, z'
loop_
 _atom_site_type_symbol
 _atom_site_label
 _atom_site_symmetry_multiplicity
 _atom_site_fract_x
 _atom_site_fract_y
 _atom_site_fract_z
 _atom_site_occupancy
  Sc  Sc0  1  0.423577  0.230463  0.193109  1
  Sc  Sc1  1  0.576423  0.769537  0.806891  1
  Sc  Sc2  1  0.037353  0.230463  0.806885  1
  Sc  Sc3  1  0.962647  0.769537  0.193115  1
  Sc  Sc4  1  0.323117  0.621103  0.297986  1
  Sc  Sc5  1  0.676883  0.378897  0.702014  1
  Sc  Sc6  1  0.323158  0.025173  0.702015  1
  Sc  Sc7  1  0.676842  0.974827  0.297985  1
  Sc  Sc8  1  0.181380  0.275509  0.456911  1
  Sc  Sc9  1  0.818620  0.724490  0.543089  1
  Sc  Sc10  1  0.181401  0.724490  0.905872  1
  Sc  Sc11  1  0.818599  0.275509  0.094128  1
  Al  Al12  1  0.500000  0.500000  0.000000  1
  Ni  Ni13  1  0.353270  0.000000  0.353270  1
  Ni  Ni14  1  0.646730  0.000000  0.646730  1
  Ni  Ni15  1  0.125409  0.625524  0.500115  1
  Ni  Ni16  1  0.874591  0.374476  0.499885  1
  Os  Os17  1  0.000000  0.000000  0.000000  1
