# generated using pymatgen
data_LaLuPa2(Al8Pt3)3
_symmetry_space_group_name_H-M   'P 1'
_cell_length_a   7.58756535
_cell_length_b   7.59824801
_cell_length_c   13.15013026
_cell_angle_alpha   84.48939098
_cell_angle_beta   78.92014707
_cell_angle_gamma   59.92355948
_symmetry_Int_Tables_number   1
_chemical_formula_structural   LaLuPa2(Al8Pt3)3
_chemical_formula_sum   'La1 Lu1 Pa2 Al24 Pt9'
_cell_volume   643.82823704
_cell_formula_units_Z   1
loop_
 _symmetry_equiv_pos_site_id
 _symmetry_equiv_pos_as_xyz
  1  'x, y, z'
loop_
 _atom_site_type_symbol
 _atom_site_label
 _atom_site_symmetry_multiplicity
 _atom_site_fract_x
 _atom_site_fract_y
 _atom_site_fract_z
 _atom_site_occupancy
  La  La0  1  0.733135  0.498353  0.809628  1
  Lu  Lu1  1  0.265212  0.501338  0.194237  1
  Pa  Pa2  1  0.395866  0.168177  0.803690  1
  Pa  Pa3  1  0.604108  0.831842  0.196007  1
  Al  Al4  1  0.683529  0.836010  0.947534  1
  Al  Al5  1  0.315674  0.167648  0.056856  1
  Al  Al6  1  0.146120  0.832381  0.559918  1
  Al  Al7  1  0.854788  0.166913  0.437951  1
  Al  Al8  1  0.480849  0.167701  0.557048  1
  Al  Al9  1  0.519203  0.832677  0.441478  1
  Al  Al10  1  0.214448  0.168628  0.329959  1
  Al  Al11  1  0.786900  0.832824  0.665829  1
  Al  Al12  1  0.437102  0.509651  0.666896  1
  Al  Al13  1  0.562609  0.490254  0.329126  1
  Al  Al14  1  0.109931  0.158192  0.664894  1
  Al  Al15  1  0.893266  0.840019  0.330907  1
  Al  Al16  1  0.349597  0.499955  0.946902  1
  Al  Al17  1  0.644230  0.500703  0.059782  1
  Al  Al18  1  0.016447  0.165797  0.955806  1
  Al  Al19  1  0.984409  0.831089  0.050055  1
  Al  Al20  1  0.186280  0.500276  0.440440  1
  Al  Al21  1  0.814953  0.499700  0.557250  1
  Al  Al22  1  0.735754  0.162329  0.183093  1
  Al  Al23  1  0.259657  0.842271  0.817196  1
  Al  Al24  1  0.067071  0.630283  0.816002  1
  Al  Al25  1  0.938647  0.368750  0.184170  1
  Al  Al26  1  0.854405  0.035888  0.816791  1
  Al  Al27  1  0.144855  0.959015  0.183268  1
  Pt  Pt28  1  0.122084  0.491013  0.638606  1
  Pt  Pt29  1  0.880354  0.509501  0.359328  1
  Pt  Pt30  1  0.656398  0.172815  0.001131  1
  Pt  Pt31  1  0.342206  0.827934  0.001066  1
  Pt  Pt32  1  0.536922  0.166734  0.359698  1
  Pt  Pt33  1  0.461701  0.835016  0.638268  1
  Pt  Pt34  1  0.778586  0.173815  0.637207  1
  Pt  Pt35  1  0.222748  0.823831  0.360516  1
  Pt  Pt36  1  0.999956  0.500676  0.001466  1
