# generated using pymatgen
data_Th2B(Ir2Pd)2
_symmetry_space_group_name_H-M   'P 1'
_cell_length_a   5.98997034
_cell_length_b   5.99921786
_cell_length_c   5.99921770
_cell_angle_alpha   60.33527453
_cell_angle_beta   60.05096655
_cell_angle_gamma   60.05097222
_symmetry_Int_Tables_number   1
_chemical_formula_structural   Th2B(Ir2Pd)2
_chemical_formula_sum   'Th2 B1 Ir4 Pd2'
_cell_volume   152.94072559
_cell_formula_units_Z   1
loop_
 _symmetry_equiv_pos_site_id
 _symmetry_equiv_pos_as_xyz
  1  'x, y, z'
loop_
 _atom_site_type_symbol
 _atom_site_label
 _atom_site_symmetry_multiplicity
 _atom_site_fract_x
 _atom_site_fract_y
 _atom_site_fract_z
 _atom_site_occupancy
  Th  Th0  1  0.750021  0.750054  0.749905  1
  Th  Th1  1  0.249979  0.250095  0.249946  1
  B  B2  1  0.000000  0.009828  0.990172  1
  Ir  Ir3  1  0.748282  0.249523  0.253912  1
  Ir  Ir4  1  0.257701  0.256328  0.743672  1
  Ir  Ir5  1  0.742299  0.256328  0.743672  1
  Ir  Ir6  1  0.251718  0.746088  0.750477  1
  Pd  Pd7  1  0.742029  0.740878  0.259122  1
  Pd  Pd8  1  0.257971  0.740878  0.259122  1
