# generated using pymatgen
data_Tm5P12Os5Rh14
_symmetry_space_group_name_H-M   'P 1'
_cell_length_a   12.68559382
_cell_length_b   12.65220450
_cell_length_c   3.93946000
_cell_angle_alpha   90.00000000
_cell_angle_beta   90.00000000
_cell_angle_gamma   120.22677148
_symmetry_Int_Tables_number   1
_chemical_formula_structural   Tm5P12Os5Rh14
_chemical_formula_sum   'Tm5 P12 Os5 Rh14'
_cell_volume   546.32035559
_cell_formula_units_Z   1
loop_
 _symmetry_equiv_pos_site_id
 _symmetry_equiv_pos_as_xyz
  1  'x, y, z'
loop_
 _atom_site_type_symbol
 _atom_site_label
 _atom_site_symmetry_multiplicity
 _atom_site_fract_x
 _atom_site_fract_y
 _atom_site_fract_z
 _atom_site_occupancy
  Tm  Tm0  1  0.331975  0.666659  0.500000  1
  Tm  Tm1  1  0.667239  0.333711  0.500000  1
  Tm  Tm2  1  0.181449  0.181158  0.000000  1
  Tm  Tm3  1  0.818116  0.999991  0.000000  1
  Tm  Tm4  1  0.999760  0.820616  0.000000  1
  P  P5  1  0.313057  0.831378  0.000000  1
  P  P6  1  0.169297  0.480404  0.000000  1
  P  P7  1  0.518163  0.686916  0.000000  1
  P  P8  1  0.832473  0.315822  0.000000  1
  P  P9  1  0.481643  0.169139  0.000000  1
  P  P10  1  0.691054  0.517408  0.000000  1
  P  P11  1  0.362979  0.362568  0.500000  1
  P  P12  1  0.636668  0.000350  0.500000  1
  P  P13  1  0.995936  0.633844  0.500000  1
  P  P14  1  0.818024  0.819422  0.500000  1
  P  P15  1  0.180511  0.999710  0.500000  1
  P  P16  1  0.999332  0.180458  0.500000  1
  Os  Os17  1  0.874311  0.513536  0.000000  1
  Os  Os18  1  0.713605  0.713524  0.000000  1
  Os  Os19  1  0.284000  0.999151  0.000000  1
  Os  Os20  1  0.999458  0.283307  0.000000  1
  Os  Os21  1  0.999990  0.999742  0.500000  1
  Rh  Rh22  1  0.192648  0.814948  0.500000  1
  Rh  Rh23  1  0.183102  0.377072  0.500000  1
  Rh  Rh24  1  0.621951  0.804763  0.500000  1
  Rh  Rh25  1  0.817177  0.195140  0.500000  1
  Rh  Rh26  1  0.378070  0.182683  0.500000  1
  Rh  Rh27  1  0.804465  0.623427  0.500000  1
  Rh  Rh28  1  0.131577  0.638535  0.000000  1
  Rh  Rh29  1  0.359424  0.491441  0.000000  1
  Rh  Rh30  1  0.508931  0.868101  0.000000  1
  Rh  Rh31  1  0.640325  0.132604  0.000000  1
  Rh  Rh32  1  0.493072  0.361061  0.000000  1
  Rh  Rh33  1  0.544839  0.547901  0.500000  1
  Rh  Rh34  1  0.452418  0.998201  0.500000  1
  Rh  Rh35  1  0.002961  0.455312  0.500000  1
