# generated using pymatgen
data_Tb3YB16MoW3
_symmetry_space_group_name_H-M   'P 1'
_cell_length_a   3.63306500
_cell_length_b   6.05185900
_cell_length_c   11.69303312
_cell_angle_alpha   90.00967013
_cell_angle_beta   90.00000000
_cell_angle_gamma   90.00000000
_symmetry_Int_Tables_number   1
_chemical_formula_structural   Tb3YB16MoW3
_chemical_formula_sum   'Tb3 Y1 B16 Mo1 W3'
_cell_volume   257.09234340
_cell_formula_units_Z   1
loop_
 _symmetry_equiv_pos_site_id
 _symmetry_equiv_pos_as_xyz
  1  'x, y, z'
loop_
 _atom_site_type_symbol
 _atom_site_label
 _atom_site_symmetry_multiplicity
 _atom_site_fract_x
 _atom_site_fract_y
 _atom_site_fract_z
 _atom_site_occupancy
  Tb  Tb0  1  0.000000  0.127063  0.149624  1
  Tb  Tb1  1  0.000000  0.873282  0.850233  1
  Tb  Tb2  1  0.000000  0.626838  0.350325  1
  Y  Y3  1  0.000000  0.373093  0.649899  1
  B  B4  1  0.500000  0.023872  0.693278  1
  B  B5  1  0.500000  0.976370  0.306836  1
  B  B6  1  0.500000  0.523251  0.806789  1
  B  B7  1  0.500000  0.476071  0.193244  1
  B  B8  1  0.500000  0.113740  0.547362  1
  B  B9  1  0.500000  0.886360  0.452718  1
  B  B10  1  0.500000  0.613419  0.952477  1
  B  B11  1  0.500000  0.386051  0.047144  1
  B  B12  1  0.500000  0.286861  0.313785  1
  B  B13  1  0.500000  0.712977  0.686389  1
  B  B14  1  0.500000  0.786874  0.186307  1
  B  B15  1  0.500000  0.213713  0.814042  1
  B  B16  1  0.500000  0.366226  0.468070  1
  B  B17  1  0.500000  0.633738  0.531942  1
  B  B18  1  0.500000  0.866552  0.031758  1
  B  B19  1  0.500000  0.134005  0.967879  1
  Mo  Mo20  1  0.000000  0.369685  0.916028  1
  W  W21  1  0.000000  0.130660  0.415587  1
  W  W22  1  0.000000  0.869309  0.584376  1
  W  W23  1  0.000000  0.629992  0.083907  1
