# generated using pymatgen
data_Li3HoEr2Si2Ag
_symmetry_space_group_name_H-M   'P 1'
_cell_length_a   7.13697639
_cell_length_b   7.12228011
_cell_length_c   4.14888600
_cell_angle_alpha   90.00000000
_cell_angle_beta   90.00000000
_cell_angle_gamma   119.93189106
_symmetry_Int_Tables_number   1
_chemical_formula_structural   Li3HoEr2Si2Ag
_chemical_formula_sum   'Li3 Ho1 Er2 Si2 Ag1'
_cell_volume   182.76502739
_cell_formula_units_Z   1
loop_
 _symmetry_equiv_pos_site_id
 _symmetry_equiv_pos_as_xyz
  1  'x, y, z'
loop_
 _atom_site_type_symbol
 _atom_site_label
 _atom_site_symmetry_multiplicity
 _atom_site_fract_x
 _atom_site_fract_y
 _atom_site_fract_z
 _atom_site_occupancy
  Li  Li0  1  0.246568  0.000357  0.500000  1
  Li  Li1  1  0.753432  0.753790  0.500000  1
  Li  Li2  1  0.000000  0.245670  0.500000  1
  Ho  Ho3  1  0.000000  0.567806  0.000000  1
  Er  Er4  1  0.567611  0.999889  0.000000  1
  Er  Er5  1  0.432389  0.432279  0.000000  1
  Si  Si6  1  0.334122  0.666769  0.500000  1
  Si  Si7  1  0.665878  0.332645  0.500000  1
  Ag  Ag8  1  0.000000  0.000796  0.000000  1
