# generated using pymatgen
data_HoErFe10Ni2P7
_symmetry_space_group_name_H-M   'P 1'
_cell_length_a   8.99621482
_cell_length_b   8.99815031
_cell_length_c   3.61623400
_cell_angle_alpha   90.00000000
_cell_angle_beta   90.00000000
_cell_angle_gamma   120.25156556
_symmetry_Int_Tables_number   1
_chemical_formula_structural   HoErFe10Ni2P7
_chemical_formula_sum   'Ho1 Er1 Fe10 Ni2 P7'
_cell_volume   252.86790803
_cell_formula_units_Z   1
loop_
 _symmetry_equiv_pos_site_id
 _symmetry_equiv_pos_as_xyz
  1  'x, y, z'
loop_
 _atom_site_type_symbol
 _atom_site_label
 _atom_site_symmetry_multiplicity
 _atom_site_fract_x
 _atom_site_fract_y
 _atom_site_fract_z
 _atom_site_occupancy
  Ho  Ho0  1  0.330674  0.664318  0.500000  1
  Er  Er1  1  0.000639  0.000697  0.000000  1
  Fe  Fe2  1  0.095828  0.393165  0.000000  1
  Fe  Fe3  1  0.786656  0.180496  0.000000  1
  Fe  Fe4  1  0.394167  0.215468  0.000000  1
  Fe  Fe5  1  0.821649  0.607602  0.000000  1
  Fe  Fe6  1  0.715393  0.946806  0.500000  1
  Fe  Fe7  1  0.230661  0.283770  0.500000  1
  Fe  Fe8  1  0.055535  0.769304  0.500000  1
  Fe  Fe9  1  0.543187  0.111340  0.500000  1
  Fe  Fe10  1  0.567503  0.459124  0.500000  1
  Fe  Fe11  1  0.886428  0.431111  0.500000  1
  Ni  Ni12  1  0.298888  0.901518  0.000000  1
  Ni  Ni13  1  0.604816  0.701847  0.000000  1
  P  P14  1  0.559466  0.926661  0.000000  1
  P  P15  1  0.363484  0.438993  0.000000  1
  P  P16  1  0.071008  0.626509  0.000000  1
  P  P17  1  0.954731  0.219939  0.500000  1
  P  P18  1  0.263609  0.049456  0.500000  1
  P  P19  1  0.788228  0.737752  0.500000  1
  P  P20  1  0.667456  0.334126  0.000000  1
