# generated using pymatgen
data_Tb5YMn3(Co5P4)3
_symmetry_space_group_name_H-M   'P 1'
_cell_length_a   3.71388100
_cell_length_b   10.58042500
_cell_length_c   12.18884300
_cell_angle_alpha   89.99861115
_cell_angle_beta   90.00000000
_cell_angle_gamma   90.00000000
_symmetry_Int_Tables_number   1
_chemical_formula_structural   Tb5YMn3(Co5P4)3
_chemical_formula_sum   'Tb5 Y1 Mn3 Co15 P12'
_cell_volume   478.95375230
_cell_formula_units_Z   1
loop_
 _symmetry_equiv_pos_site_id
 _symmetry_equiv_pos_as_xyz
  1  'x, y, z'
loop_
 _atom_site_type_symbol
 _atom_site_label
 _atom_site_symmetry_multiplicity
 _atom_site_fract_x
 _atom_site_fract_y
 _atom_site_fract_z
 _atom_site_occupancy
  Tb  Tb0  1  0.000000  0.500003  0.523292  1
  Tb  Tb1  1  0.500000  0.000024  0.477302  1
  Tb  Tb2  1  0.500000  0.181691  0.204867  1
  Tb  Tb3  1  0.000000  0.680573  0.795645  1
  Tb  Tb4  1  0.000000  0.319389  0.795640  1
  Y  Y5  1  0.500000  0.818238  0.204882  1
  Mn  Mn6  1  0.500000  0.499991  0.154385  1
  Mn  Mn7  1  0.000000  0.000009  0.841553  1
  Mn  Mn8  1  0.000000  0.500006  0.988984  1
  Co  Co9  1  0.500000  0.500000  0.699760  1
  Co  Co10  1  0.000000  0.999975  0.297687  1
  Co  Co11  1  0.500000  0.999990  0.013265  1
  Co  Co12  1  0.500000  0.330522  0.994640  1
  Co  Co13  1  0.500000  0.669489  0.994655  1
  Co  Co14  1  0.000000  0.164926  0.004770  1
  Co  Co15  1  0.000000  0.835072  0.004809  1
  Co  Co16  1  0.500000  0.295925  0.430482  1
  Co  Co17  1  0.500000  0.704067  0.430449  1
  Co  Co18  1  0.000000  0.203583  0.569989  1
  Co  Co19  1  0.000000  0.796410  0.569974  1
  Co  Co20  1  0.500000  0.879977  0.709747  1
  Co  Co21  1  0.500000  0.120043  0.709740  1
  Co  Co22  1  0.000000  0.620946  0.291534  1
  Co  Co23  1  0.000000  0.379108  0.291552  1
  P  P24  1  0.500000  0.500004  0.883078  1
  P  P25  1  0.000000  0.999978  0.116933  1
  P  P26  1  0.500000  0.499992  0.345890  1
  P  P27  1  0.000000  0.000009  0.655251  1
  P  P28  1  0.500000  0.309780  0.616107  1
  P  P29  1  0.500000  0.690210  0.616107  1
  P  P30  1  0.000000  0.189540  0.384435  1
  P  P31  1  0.000000  0.810488  0.384364  1
  P  P32  1  0.500000  0.847137  0.893377  1
  P  P33  1  0.500000  0.152867  0.893392  1
  P  P34  1  0.000000  0.655031  0.105761  1
  P  P35  1  0.000000  0.345009  0.105700  1
