# generated using pymatgen
data_La3Ho5Cd2OsPt
_symmetry_space_group_name_H-M   'P 1'
_cell_length_a   9.81797037
_cell_length_b   9.81797144
_cell_length_c   9.87703600
_cell_angle_alpha   59.80079317
_cell_angle_beta   59.80078955
_cell_angle_gamma   59.73197915
_symmetry_Int_Tables_number   1
_chemical_formula_structural   La3Ho5Cd2OsPt
_chemical_formula_sum   'La6 Ho10 Cd4 Os2 Pt2'
_cell_volume   669.82098699
_cell_formula_units_Z   2
loop_
 _symmetry_equiv_pos_site_id
 _symmetry_equiv_pos_as_xyz
  1  'x, y, z'
loop_
 _atom_site_type_symbol
 _atom_site_label
 _atom_site_symmetry_multiplicity
 _atom_site_fract_x
 _atom_site_fract_y
 _atom_site_fract_z
 _atom_site_occupancy
  La  La0  1  0.191952  0.802290  0.811510  1
  La  La1  1  0.802290  0.191952  0.194248  1
  La  La2  1  0.802290  0.191952  0.811510  1
  La  La3  1  0.191952  0.802290  0.194248  1
  La  La4  1  0.808829  0.808829  0.191171  1
  La  La5  1  0.194337  0.194337  0.805663  1
  Ho  Ho6  1  0.596829  0.596829  0.601208  1
  Ho  Ho7  1  0.596829  0.596829  0.205136  1
  Ho  Ho8  1  0.593406  0.213361  0.596617  1
  Ho  Ho9  1  0.213361  0.593406  0.596617  1
  Ho  Ho10  1  0.067561  0.435237  0.438086  1
  Ho  Ho11  1  0.435237  0.067561  0.059116  1
  Ho  Ho12  1  0.435237  0.067561  0.438086  1
  Ho  Ho13  1  0.067561  0.435237  0.059116  1
  Ho  Ho14  1  0.435694  0.435694  0.064306  1
  Ho  Ho15  1  0.060476  0.060476  0.439524  1
  Cd  Cd16  1  0.828199  0.828199  0.828675  1
  Cd  Cd17  1  0.828199  0.828199  0.514925  1
  Cd  Cd18  1  0.829033  0.513055  0.828957  1
  Cd  Cd19  1  0.513055  0.829033  0.828957  1
  Os  Os20  1  0.393186  0.393186  0.387414  1
  Os  Os21  1  0.393186  0.393186  0.826215  1
  Pt  Pt22  1  0.394035  0.827270  0.389347  1
  Pt  Pt23  1  0.827270  0.394035  0.389347  1
