# generated using pymatgen
data_Dy5Nb2Si11PIr17
_symmetry_space_group_name_H-M   'P 1'
_cell_length_a   12.89494100
_cell_length_b   12.91625698
_cell_length_c   3.98952000
_cell_angle_alpha   90.00000000
_cell_angle_beta   90.00000000
_cell_angle_gamma   119.94542537
_symmetry_Int_Tables_number   1
_chemical_formula_structural   Dy5Nb2Si11PIr17
_chemical_formula_sum   'Dy5 Nb2 Si11 P1 Ir17'
_cell_volume   575.76582531
_cell_formula_units_Z   1
loop_
 _symmetry_equiv_pos_site_id
 _symmetry_equiv_pos_as_xyz
  1  'x, y, z'
loop_
 _atom_site_type_symbol
 _atom_site_label
 _atom_site_symmetry_multiplicity
 _atom_site_fract_x
 _atom_site_fract_y
 _atom_site_fract_z
 _atom_site_occupancy
  Dy  Dy0  1  0.331063  0.663378  0.500000  1
  Dy  Dy1  1  0.667685  0.336622  0.500000  1
  Dy  Dy2  1  0.001262  0.813907  0.000000  1
  Dy  Dy3  1  0.187355  0.186093  0.000000  1
  Dy  Dy4  1  0.814238  0.000000  0.000000  1
  Nb  Nb5  1  0.999137  0.438040  0.500000  1
  Nb  Nb6  1  0.561098  0.561960  0.500000  1
  Si  Si7  1  0.002390  0.638147  0.500000  1
  Si  Si8  1  0.364244  0.361853  0.500000  1
  Si  Si9  1  0.628031  0.000000  0.500000  1
  Si  Si10  1  0.517720  0.689280  0.000000  1
  Si  Si11  1  0.311608  0.830987  0.000000  1
  Si  Si12  1  0.169260  0.477589  0.000000  1
  Si  Si13  1  0.480621  0.169013  0.000000  1
  Si  Si14  1  0.691671  0.522411  0.000000  1
  Si  Si15  1  0.828439  0.310720  0.000000  1
  Si  Si16  1  0.997461  0.177468  0.500000  1
  Si  Si17  1  0.819993  0.822532  0.500000  1
  P  P18  1  0.182848  0.000000  0.500000  1
  Ir  Ir19  1  0.511258  0.874759  0.000000  1
  Ir  Ir20  1  0.129191  0.639686  0.000000  1
  Ir  Ir21  1  0.361213  0.485809  0.000000  1
  Ir  Ir22  1  0.489505  0.360314  0.000000  1
  Ir  Ir23  1  0.875406  0.514191  0.000000  1
  Ir  Ir24  1  0.636500  0.125241  0.000000  1
  Ir  Ir25  1  0.444546  0.000000  0.500000  1
  Ir  Ir26  1  0.996660  0.276639  0.000000  1
  Ir  Ir27  1  0.720020  0.723361  0.000000  1
  Ir  Ir28  1  0.280825  0.000000  0.000000  1
  Ir  Ir29  1  0.622939  0.808855  0.500000  1
  Ir  Ir30  1  0.194791  0.822223  0.500000  1
  Ir  Ir31  1  0.180089  0.371393  0.500000  1
  Ir  Ir32  1  0.372568  0.177777  0.500000  1
  Ir  Ir33  1  0.808696  0.628607  0.500000  1
  Ir  Ir34  1  0.814084  0.191145  0.500000  1
  Ir  Ir35  1  0.005585  0.000000  0.500000  1
