# generated using pymatgen
data_Ho2Er(P3Pd10)2
_symmetry_space_group_name_H-M   'P 1'
_cell_length_a   8.67690152
_cell_length_b   8.67690138
_cell_length_c   8.67690100
_cell_angle_alpha   59.99999762
_cell_angle_beta   59.99999816
_cell_angle_gamma   59.99999604
_symmetry_Int_Tables_number   1
_chemical_formula_structural   Ho2Er(P3Pd10)2
_chemical_formula_sum   'Ho2 Er1 P6 Pd20'
_cell_volume   461.93295549
_cell_formula_units_Z   1
loop_
 _symmetry_equiv_pos_site_id
 _symmetry_equiv_pos_as_xyz
  1  'x, y, z'
loop_
 _atom_site_type_symbol
 _atom_site_label
 _atom_site_symmetry_multiplicity
 _atom_site_fract_x
 _atom_site_fract_y
 _atom_site_fract_z
 _atom_site_occupancy
  Ho  Ho0  1  0.250000  0.250000  0.250000  1
  Ho  Ho1  1  0.750000  0.750000  0.750000  1
  Er  Er2  1  0.000000  0.000000  0.000000  1
  P  P3  1  0.736164  0.263836  0.263836  1
  P  P4  1  0.263836  0.736164  0.736164  1
  P  P5  1  0.263836  0.736164  0.263836  1
  P  P6  1  0.736164  0.263836  0.736164  1
  P  P7  1  0.263836  0.263836  0.736164  1
  P  P8  1  0.736164  0.736164  0.263836  1
  Pd  Pd9  1  0.383994  0.383994  0.383994  1
  Pd  Pd10  1  0.616006  0.616006  0.616006  1
  Pd  Pd11  1  0.383994  0.383994  0.848018  1
  Pd  Pd12  1  0.383994  0.848018  0.383994  1
  Pd  Pd13  1  0.616006  0.616006  0.151982  1
  Pd  Pd14  1  0.616006  0.151982  0.616006  1
  Pd  Pd15  1  0.848018  0.383994  0.383994  1
  Pd  Pd16  1  0.151982  0.616006  0.616006  1
  Pd  Pd17  1  0.344945  0.000000  0.000000  1
  Pd  Pd18  1  0.655055  0.000000  0.000000  1
  Pd  Pd19  1  0.000000  0.344945  0.655055  1
  Pd  Pd20  1  0.000000  0.655055  0.344945  1
  Pd  Pd21  1  0.000000  0.344945  0.000000  1
  Pd  Pd22  1  0.655055  0.000000  0.344945  1
  Pd  Pd23  1  0.000000  0.655055  0.000000  1
  Pd  Pd24  1  0.344945  0.000000  0.655055  1
  Pd  Pd25  1  0.000000  0.000000  0.344945  1
  Pd  Pd26  1  0.000000  0.000000  0.655055  1
  Pd  Pd27  1  0.655055  0.344945  0.000000  1
  Pd  Pd28  1  0.344945  0.655055  0.000000  1
