# generated using pymatgen
data_Ho7Er9TlCd3IrPd3
_symmetry_space_group_name_H-M   'P 1'
_cell_length_a   9.63877599
_cell_length_b   9.58749485
_cell_length_c   9.59342000
_cell_angle_alpha   59.97955434
_cell_angle_beta   60.15553748
_cell_angle_gamma   60.24156617
_symmetry_Int_Tables_number   1
_chemical_formula_structural   Ho7Er9TlCd3IrPd3
_chemical_formula_sum   'Ho7 Er9 Tl1 Cd3 Ir1 Pd3'
_cell_volume   628.65781305
_cell_formula_units_Z   1
loop_
 _symmetry_equiv_pos_site_id
 _symmetry_equiv_pos_as_xyz
  1  'x, y, z'
loop_
 _atom_site_type_symbol
 _atom_site_label
 _atom_site_symmetry_multiplicity
 _atom_site_fract_x
 _atom_site_fract_y
 _atom_site_fract_z
 _atom_site_occupancy
  Ho  Ho0  1  0.058903  0.066098  0.437100  1
  Ho  Ho1  1  0.187330  0.814757  0.815138  1
  Ho  Ho2  1  0.817518  0.185894  0.185181  1
  Ho  Ho3  1  0.817076  0.187182  0.811372  1
  Ho  Ho4  1  0.186054  0.815101  0.183649  1
  Ho  Ho5  1  0.818435  0.812975  0.185344  1
  Ho  Ho6  1  0.186416  0.185894  0.813968  1
  Er  Er7  1  0.605832  0.599480  0.597718  1
  Er  Er8  1  0.605966  0.599507  0.197167  1
  Er  Er9  1  0.609061  0.190905  0.600162  1
  Er  Er10  1  0.180319  0.608882  0.605420  1
  Er  Er11  1  0.058124  0.438656  0.438084  1
  Er  Er12  1  0.440722  0.060649  0.059724  1
  Er  Er13  1  0.440951  0.060721  0.438181  1
  Er  Er14  1  0.057906  0.438525  0.064943  1
  Er  Er15  1  0.441331  0.438250  0.059896  1
  Tl  Tl16  1  0.831449  0.832654  0.834984  1
  Cd  Cd17  1  0.830508  0.831556  0.502477  1
  Cd  Cd18  1  0.829266  0.502093  0.833530  1
  Cd  Cd19  1  0.503913  0.829637  0.832459  1
  Ir  Ir20  1  0.821163  0.391794  0.393512  1
  Pd  Pd21  1  0.390612  0.395449  0.398603  1
  Pd  Pd22  1  0.390731  0.395473  0.815461  1
  Pd  Pd23  1  0.390412  0.817872  0.395925  1
