# generated using pymatgen
data_DyTmLu2(AlRh)4
_symmetry_space_group_name_H-M   'P 1'
_cell_length_a   4.17224600
_cell_length_b   6.81885566
_cell_length_c   7.94087153
_cell_angle_alpha   89.60826830
_cell_angle_beta   90.00000000
_cell_angle_gamma   90.00000000
_symmetry_Int_Tables_number   1
_chemical_formula_structural   DyTmLu2(AlRh)4
_chemical_formula_sum   'Dy1 Tm1 Lu2 Al4 Rh4'
_cell_volume   225.91206425
_cell_formula_units_Z   1
loop_
 _symmetry_equiv_pos_site_id
 _symmetry_equiv_pos_as_xyz
  1  'x, y, z'
loop_
 _atom_site_type_symbol
 _atom_site_label
 _atom_site_symmetry_multiplicity
 _atom_site_fract_x
 _atom_site_fract_y
 _atom_site_fract_z
 _atom_site_occupancy
  Dy  Dy0  1  0.250000  0.964484  0.321656  1
  Tm  Tm1  1  0.750000  0.035918  0.679259  1
  Lu  Lu2  1  0.750000  0.536174  0.822098  1
  Lu  Lu3  1  0.250000  0.463935  0.177546  1
  Al  Al4  1  0.750000  0.635422  0.440712  1
  Al  Al5  1  0.750000  0.137988  0.059130  1
  Al  Al6  1  0.250000  0.363925  0.559727  1
  Al  Al7  1  0.250000  0.862520  0.939527  1
  Rh  Rh8  1  0.750000  0.760842  0.120910  1
  Rh  Rh9  1  0.750000  0.266235  0.376352  1
  Rh  Rh10  1  0.250000  0.238066  0.878056  1
  Rh  Rh11  1  0.250000  0.734493  0.625028  1
