# generated using pymatgen
data_LaY5(BePd5)2
_symmetry_space_group_name_H-M   'P 1'
_cell_length_a   8.17369873
_cell_length_b   8.17369839
_cell_length_c   8.17369911
_cell_angle_alpha   127.39105668
_cell_angle_beta   124.93662972
_cell_angle_gamma   79.63478985
_symmetry_Int_Tables_number   1
_chemical_formula_structural   LaY5(BePd5)2
_chemical_formula_sum   'La1 Y5 Be2 Pd10'
_cell_volume   343.66573957
_cell_formula_units_Z   1
loop_
 _symmetry_equiv_pos_site_id
 _symmetry_equiv_pos_as_xyz
  1  'x, y, z'
loop_
 _atom_site_type_symbol
 _atom_site_label
 _atom_site_symmetry_multiplicity
 _atom_site_fract_x
 _atom_site_fract_y
 _atom_site_fract_z
 _atom_site_occupancy
  La  La0  1  0.600922  0.750000  0.850922  1
  Y  Y1  1  0.828051  0.053213  0.774838  1
  Y  Y2  1  0.221625  0.446787  0.774838  1
  Y  Y3  1  0.173919  0.946538  0.227382  1
  Y  Y4  1  0.403283  0.250000  0.153283  1
  Y  Y5  1  0.780844  0.553462  0.227382  1
  Be  Be6  1  0.199399  0.750000  0.449399  1
  Be  Be7  1  0.791246  0.250000  0.541246  1
  Pd  Pd8  1  0.831470  0.592013  0.640685  1
  Pd  Pd9  1  0.548671  0.309214  0.640685  1
  Pd  Pd10  1  0.447526  0.093937  0.763353  1
  Pd  Pd11  1  0.831470  0.190786  0.239457  1
  Pd  Pd12  1  0.169416  0.406063  0.353591  1
  Pd  Pd13  1  0.447526  0.684174  0.353591  1
  Pd  Pd14  1  0.548671  0.907987  0.239457  1
  Pd  Pd15  1  0.169416  0.815826  0.763353  1
  Pd  Pd16  1  0.003271  0.007663  0.510935  1
  Pd  Pd17  1  0.003271  0.492337  0.995608  1
