# generated using pymatgen
data_Ti8AlBi4P
_symmetry_space_group_name_H-M   'P 1'
_cell_length_a   7.86133759
_cell_length_b   7.86133777
_cell_length_c   7.86133825
_cell_angle_alpha   95.73473757
_cell_angle_beta   95.73473667
_cell_angle_gamma   143.14479524
_symmetry_Int_Tables_number   1
_chemical_formula_structural   Ti8AlBi4P
_chemical_formula_sum   'Ti8 Al1 Bi4 P1'
_cell_volume   276.45977501
_cell_formula_units_Z   1
loop_
 _symmetry_equiv_pos_site_id
 _symmetry_equiv_pos_as_xyz
  1  'x, y, z'
loop_
 _atom_site_type_symbol
 _atom_site_label
 _atom_site_symmetry_multiplicity
 _atom_site_fract_x
 _atom_site_fract_y
 _atom_site_fract_z
 _atom_site_occupancy
  Ti  Ti0  1  0.692394  0.575354  0.280667  1
  Ti  Ti1  1  0.575354  0.294687  0.882961  1
  Ti  Ti2  1  0.088272  0.205313  0.280667  1
  Ti  Ti3  1  0.924646  0.807606  0.719333  1
  Ti  Ti4  1  0.205313  0.924646  0.117039  1
  Ti  Ti5  1  0.807606  0.088272  0.882961  1
  Ti  Ti6  1  0.294687  0.411728  0.719333  1
  Ti  Ti7  1  0.411728  0.692394  0.117039  1
  Al  Al8  1  0.750000  0.750000  0.000000  1
  Bi  Bi9  1  0.140341  0.640341  0.780683  1
  Bi  Bi10  1  0.359659  0.140341  0.500000  1
  Bi  Bi11  1  0.640341  0.859659  0.500000  1
  Bi  Bi12  1  0.859659  0.359659  0.219317  1
  P  P13  1  0.250000  0.250000  0.000000  1
