# generated using pymatgen
data_HfTh(IO3)8
_symmetry_space_group_name_H-M   'P 1'
_cell_length_a   8.75858000
_cell_length_b   8.75858000
_cell_length_c   7.65184700
_cell_angle_alpha   90.00000000
_cell_angle_beta   90.00000000
_cell_angle_gamma   90.00000000
_symmetry_Int_Tables_number   1
_chemical_formula_structural   HfTh(IO3)8
_chemical_formula_sum   'Hf1 Th1 I8 O24'
_cell_volume   586.99402407
_cell_formula_units_Z   1
loop_
 _symmetry_equiv_pos_site_id
 _symmetry_equiv_pos_as_xyz
  1  'x, y, z'
loop_
 _atom_site_type_symbol
 _atom_site_label
 _atom_site_symmetry_multiplicity
 _atom_site_fract_x
 _atom_site_fract_y
 _atom_site_fract_z
 _atom_site_occupancy
  Hf  Hf0  1  0.500000  0.000000  0.950279  1
  Th  Th1  1  0.000000  0.500000  0.058584  1
  I  I2  1  0.747333  0.734226  0.723278  1
  I  I3  1  0.765774  0.247333  0.723278  1
  I  I4  1  0.288660  0.765845  0.275446  1
  I  I5  1  0.265845  0.211340  0.275446  1
  I  I6  1  0.734155  0.788660  0.275446  1
  I  I7  1  0.711340  0.234155  0.275446  1
  I  I8  1  0.252667  0.265774  0.723278  1
  I  I9  1  0.234226  0.752667  0.723278  1
  O  O10  1  0.208582  0.601104  0.890449  1
  O  O11  1  0.101104  0.291418  0.890449  1
  O  O12  1  0.898896  0.708582  0.890449  1
  O  O13  1  0.791418  0.398896  0.890449  1
  O  O14  1  0.303745  0.915290  0.099613  1
  O  O15  1  0.415290  0.196255  0.099613  1
  O  O16  1  0.584710  0.803745  0.099613  1
  O  O17  1  0.696255  0.084710  0.099613  1
  O  O18  1  0.431856  0.800945  0.787916  1
  O  O19  1  0.300945  0.068144  0.787916  1
  O  O20  1  0.730916  0.385950  0.549180  1
  O  O21  1  0.885950  0.769084  0.549180  1
  O  O22  1  0.114050  0.230916  0.549180  1
  O  O23  1  0.269084  0.614050  0.549180  1
  O  O24  1  0.741632  0.090061  0.444976  1
  O  O25  1  0.590061  0.758368  0.444976  1
  O  O26  1  0.409939  0.241632  0.444976  1
  O  O27  1  0.258368  0.909939  0.444976  1
  O  O28  1  0.911309  0.283618  0.226926  1
  O  O29  1  0.783618  0.588691  0.226926  1
  O  O30  1  0.216382  0.411309  0.226926  1
  O  O31  1  0.088691  0.716382  0.226926  1
  O  O32  1  0.568144  0.199055  0.787916  1
  O  O33  1  0.699055  0.931856  0.787916  1
