# generated using pymatgen
data_Sm2Zn14Rh3
_symmetry_space_group_name_H-M   'P 1'
_cell_length_a   6.84617075
_cell_length_b   6.84617141
_cell_length_c   6.84617002
_cell_angle_alpha   82.20103613
_cell_angle_beta   82.20103272
_cell_angle_gamma   82.20103983
_symmetry_Int_Tables_number   1
_chemical_formula_structural   Sm2Zn14Rh3
_chemical_formula_sum   'Sm2 Zn14 Rh3'
_cell_volume   312.71532835
_cell_formula_units_Z   1
loop_
 _symmetry_equiv_pos_site_id
 _symmetry_equiv_pos_as_xyz
  1  'x, y, z'
loop_
 _atom_site_type_symbol
 _atom_site_label
 _atom_site_symmetry_multiplicity
 _atom_site_fract_x
 _atom_site_fract_y
 _atom_site_fract_z
 _atom_site_occupancy
  Sm  Sm0  1  0.671656  0.671656  0.671656  1
  Sm  Sm1  1  0.328344  0.328344  0.328344  1
  Zn  Zn2  1  0.351093  0.351093  0.841015  1
  Zn  Zn3  1  0.841015  0.351093  0.351093  1
  Zn  Zn4  1  0.099429  0.099429  0.099429  1
  Zn  Zn5  1  0.900571  0.900571  0.900571  1
  Zn  Zn6  1  0.294586  0.705414  0.000000  1
  Zn  Zn7  1  0.705414  0.000000  0.294586  1
  Zn  Zn8  1  0.000000  0.294586  0.705414  1
  Zn  Zn9  1  0.705414  0.294586  0.000000  1
  Zn  Zn10  1  0.294586  0.000000  0.705414  1
  Zn  Zn11  1  0.000000  0.705414  0.294586  1
  Zn  Zn12  1  0.158985  0.648907  0.648907  1
  Zn  Zn13  1  0.648907  0.648907  0.158985  1
  Zn  Zn14  1  0.648907  0.158985  0.648907  1
  Zn  Zn15  1  0.351093  0.841015  0.351093  1
  Rh  Rh16  1  0.000000  0.000000  0.500000  1
  Rh  Rh17  1  0.000000  0.500000  0.000000  1
  Rh  Rh18  1  0.500000  0.000000  0.000000  1
