# generated using pymatgen
data_TbY5Fe8(Co5P6)2
_symmetry_space_group_name_H-M   'P 1'
_cell_length_a   3.70753700
_cell_length_b   10.57958200
_cell_length_c   12.08118500
_cell_angle_alpha   90.00000000
_cell_angle_beta   90.00000000
_cell_angle_gamma   90.00000000
_symmetry_Int_Tables_number   1
_chemical_formula_structural   TbY5Fe8(Co5P6)2
_chemical_formula_sum   'Tb1 Y5 Fe8 Co10 P12'
_cell_volume   473.87471652
_cell_formula_units_Z   1
loop_
 _symmetry_equiv_pos_site_id
 _symmetry_equiv_pos_as_xyz
  1  'x, y, z'
loop_
 _atom_site_type_symbol
 _atom_site_label
 _atom_site_symmetry_multiplicity
 _atom_site_fract_x
 _atom_site_fract_y
 _atom_site_fract_z
 _atom_site_occupancy
  Tb  Tb0  1  0.500000  0.000000  0.475610  1
  Y  Y1  1  0.000000  0.500000  0.522942  1
  Y  Y2  1  0.500000  0.819137  0.204521  1
  Y  Y3  1  0.500000  0.180863  0.204521  1
  Y  Y4  1  0.000000  0.680702  0.796362  1
  Y  Y5  1  0.000000  0.319298  0.796362  1
  Fe  Fe6  1  0.500000  0.500000  0.155239  1
  Fe  Fe7  1  0.000000  0.000000  0.842870  1
  Fe  Fe8  1  0.000000  0.500000  0.989039  1
  Fe  Fe9  1  0.500000  0.000000  0.011356  1
  Fe  Fe10  1  0.500000  0.330958  0.995303  1
  Fe  Fe11  1  0.500000  0.669042  0.995303  1
  Fe  Fe12  1  0.500000  0.296903  0.429906  1
  Fe  Fe13  1  0.500000  0.703097  0.429906  1
  Co  Co14  1  0.500000  0.500000  0.701088  1
  Co  Co15  1  0.000000  0.000000  0.299196  1
  Co  Co16  1  0.000000  0.165658  0.005387  1
  Co  Co17  1  0.000000  0.834342  0.005387  1
  Co  Co18  1  0.000000  0.202258  0.571650  1
  Co  Co19  1  0.000000  0.797742  0.571650  1
  Co  Co20  1  0.500000  0.880753  0.710268  1
  Co  Co21  1  0.500000  0.119247  0.710268  1
  Co  Co22  1  0.000000  0.619575  0.288636  1
  Co  Co23  1  0.000000  0.380425  0.288636  1
  P  P24  1  0.500000  0.500000  0.886299  1
  P  P25  1  0.000000  0.000000  0.115472  1
  P  P26  1  0.500000  0.500000  0.342610  1
  P  P27  1  0.000000  0.000000  0.657769  1
  P  P28  1  0.500000  0.309705  0.615544  1
  P  P29  1  0.500000  0.690295  0.615544  1
  P  P30  1  0.000000  0.192567  0.384329  1
  P  P31  1  0.000000  0.807433  0.384329  1
  P  P32  1  0.500000  0.847181  0.894494  1
  P  P33  1  0.500000  0.152819  0.894494  1
  P  P34  1  0.000000  0.653683  0.103852  1
  P  P35  1  0.000000  0.346317  0.103852  1
