# generated using pymatgen
data_ErSc7TiNb11Si16
_symmetry_space_group_name_H-M   'P 1'
_cell_length_a   6.94247428
_cell_length_b   6.94247651
_cell_length_c   12.75905610
_cell_angle_alpha   89.93387169
_cell_angle_beta   90.00722230
_cell_angle_gamma   89.96507353
_symmetry_Int_Tables_number   1
_chemical_formula_structural   ErSc7TiNb11Si16
_chemical_formula_sum   'Er1 Sc7 Ti1 Nb11 Si16'
_cell_volume   614.96000572
_cell_formula_units_Z   1
loop_
 _symmetry_equiv_pos_site_id
 _symmetry_equiv_pos_as_xyz
  1  'x, y, z'
loop_
 _atom_site_type_symbol
 _atom_site_label
 _atom_site_symmetry_multiplicity
 _atom_site_fract_x
 _atom_site_fract_y
 _atom_site_fract_z
 _atom_site_occupancy
  Er  Er0  1  0.995330  0.659923  0.031674  1
  Sc  Sc1  1  0.343700  0.000047  0.467797  1
  Sc  Sc2  1  0.499750  0.843864  0.717218  1
  Sc  Sc3  1  0.499515  0.157346  0.219258  1
  Sc  Sc4  1  0.843220  0.499761  0.282687  1
  Sc  Sc5  1  0.156856  0.498614  0.782082  1
  Sc  Sc6  1  0.655292  0.000052  0.966967  1
  Sc  Sc7  1  0.000918  0.343148  0.532103  1
  Ti  Ti8  1  0.993632  0.850160  0.626583  1
  Nb  Nb9  1  0.328605  0.327175  0.999433  1
  Nb  Nb10  1  0.172369  0.828656  0.251146  1
  Nb  Nb11  1  0.826784  0.172314  0.748731  1
  Nb  Nb12  1  0.672389  0.672634  0.500315  1
  Nb  Nb13  1  0.150892  0.003927  0.871465  1
  Nb  Nb14  1  0.495063  0.649476  0.124415  1
  Nb  Nb15  1  0.505703  0.350535  0.623295  1
  Nb  Nb16  1  0.650296  0.490896  0.875094  1
  Nb  Nb17  1  0.351354  0.506474  0.377405  1
  Nb  Nb18  1  0.849888  0.994121  0.374646  1
  Nb  Nb19  1  0.007437  0.150373  0.126779  1
  Si  Si20  1  0.204081  0.136803  0.677088  1
  Si  Si21  1  0.365092  0.706233  0.927144  1
  Si  Si22  1  0.639987  0.294685  0.428976  1
  Si  Si23  1  0.702632  0.357309  0.071335  1
  Si  Si24  1  0.292666  0.641146  0.572375  1
  Si  Si25  1  0.791305  0.865272  0.181464  1
  Si  Si26  1  0.139469  0.205375  0.322740  1
  Si  Si27  1  0.859472  0.796145  0.818760  1
  Si  Si28  1  0.302332  0.954924  0.063646  1
  Si  Si29  1  0.545152  0.800792  0.314578  1
  Si  Si30  1  0.452867  0.199763  0.812530  1
  Si  Si31  1  0.801801  0.548045  0.684942  1
  Si  Si32  1  0.202513  0.452144  0.188209  1
  Si  Si33  1  0.701978  0.045706  0.564211  1
  Si  Si34  1  0.953391  0.294935  0.935027  1
  Si  Si35  1  0.046266  0.701228  0.437882  1
