# generated using pymatgen
data_Dy3Lu(FeOs)4
_symmetry_space_group_name_H-M   'P 1'
_cell_length_a   5.25997089
_cell_length_b   5.25047666
_cell_length_c   9.01088828
_cell_angle_alpha   73.06175781
_cell_angle_beta   91.02362022
_cell_angle_gamma   119.94029771
_symmetry_Int_Tables_number   1
_chemical_formula_structural   Dy3Lu(FeOs)4
_chemical_formula_sum   'Dy3 Lu1 Fe4 Os4'
_cell_volume   203.83469561
_cell_formula_units_Z   1
loop_
 _symmetry_equiv_pos_site_id
 _symmetry_equiv_pos_as_xyz
  1  'x, y, z'
loop_
 _atom_site_type_symbol
 _atom_site_label
 _atom_site_symmetry_multiplicity
 _atom_site_fract_x
 _atom_site_fract_y
 _atom_site_fract_z
 _atom_site_occupancy
  Dy  Dy0  1  0.376950  0.751448  0.874053  1
  Dy  Dy1  1  0.997832  0.998170  0.001494  1
  Dy  Dy2  1  0.498399  0.999028  0.500342  1
  Lu  Lu3  1  0.877458  0.751703  0.374051  1
  Fe  Fe4  1  0.187496  0.375124  0.437247  1
  Fe  Fe5  1  0.687300  0.374896  0.937510  1
  Fe  Fe6  1  0.937207  0.374169  0.188869  1
  Fe  Fe7  1  0.437949  0.375783  0.686384  1
  Os  Os8  1  0.437542  0.373915  0.189125  1
  Os  Os9  1  0.937163  0.376082  0.685899  1
  Os  Os10  1  0.437542  0.874501  0.189125  1
  Os  Os11  1  0.937163  0.875180  0.685899  1
