# generated using pymatgen
data_Mn4AgAu3O8
_symmetry_space_group_name_H-M   'P 1'
_cell_length_a   3.23330031
_cell_length_b   5.32762475
_cell_length_c   12.42813902
_cell_angle_alpha   90.00154733
_cell_angle_beta   90.00311341
_cell_angle_gamma   94.93676712
_symmetry_Int_Tables_number   1
_chemical_formula_structural   Mn4AgAu3O8
_chemical_formula_sum   'Mn4 Ag1 Au3 O8'
_cell_volume   213.29057507
_cell_formula_units_Z   1
loop_
 _symmetry_equiv_pos_site_id
 _symmetry_equiv_pos_as_xyz
  1  'x, y, z'
loop_
 _atom_site_type_symbol
 _atom_site_label
 _atom_site_symmetry_multiplicity
 _atom_site_fract_x
 _atom_site_fract_y
 _atom_site_fract_z
 _atom_site_occupancy
  Mn  Mn0  1  0.498439  0.501146  0.499714  1
  Mn  Mn1  1  0.001725  0.998590  0.000756  1
  Mn  Mn2  1  0.000314  0.998730  0.499260  1
  Mn  Mn3  1  0.499779  0.501023  0.000286  1
  Ag  Ag4  1  0.946463  0.686438  0.749959  1
  Au  Au5  1  0.052874  0.313781  0.250033  1
  Au  Au6  1  0.551718  0.815392  0.249971  1
  Au  Au7  1  0.447399  0.185784  0.750038  1
  O  O8  1  0.040762  0.318472  0.082440  1
  O  O9  1  0.537257  0.822028  0.083242  1
  O  O10  1  0.463096  0.179417  0.916126  1
  O  O11  1  0.962155  0.679377  0.921359  1
  O  O12  1  0.461503  0.179600  0.583937  1
  O  O13  1  0.961219  0.679471  0.578568  1
  O  O14  1  0.039061  0.318634  0.417618  1
  O  O15  1  0.536235  0.822116  0.416694  1
