# generated using pymatgen
data_Tm5Zn(GaRh2)6
_symmetry_space_group_name_H-M   'P 1'
_cell_length_a   4.53502200
_cell_length_b   6.29266000
_cell_length_c   13.49367500
_cell_angle_alpha   90.00000000
_cell_angle_beta   90.00031296
_cell_angle_gamma   90.00000000
_symmetry_Int_Tables_number   1
_chemical_formula_structural   Tm5Zn(GaRh2)6
_chemical_formula_sum   'Tm5 Zn1 Ga6 Rh12'
_cell_volume   385.07374702
_cell_formula_units_Z   1
loop_
 _symmetry_equiv_pos_site_id
 _symmetry_equiv_pos_as_xyz
  1  'x, y, z'
loop_
 _atom_site_type_symbol
 _atom_site_label
 _atom_site_symmetry_multiplicity
 _atom_site_fract_x
 _atom_site_fract_y
 _atom_site_fract_z
 _atom_site_occupancy
  Tm  Tm0  1  0.000012  0.500000  0.995287  1
  Tm  Tm1  1  0.499831  0.000000  0.163682  1
  Tm  Tm2  1  0.999831  0.500000  0.333325  1
  Tm  Tm3  1  0.500000  0.000000  0.502996  1
  Tm  Tm4  1  0.000168  0.500000  0.671365  1
  Zn  Zn5  1  0.500182  0.000000  0.833327  1
  Ga  Ga6  1  0.999962  0.000000  0.998816  1
  Ga  Ga7  1  0.499862  0.500000  0.161165  1
  Ga  Ga8  1  0.999829  0.000000  0.333323  1
  Ga  Ga9  1  0.500011  0.500000  0.505473  1
  Ga  Ga10  1  0.000162  0.000000  0.667890  1
  Ga  Ga11  1  0.500179  0.500000  0.833328  1
  Rh  Rh12  1  0.500001  0.240820  0.990512  1
  Rh  Rh13  1  0.500001  0.759179  0.990512  1
  Rh  Rh14  1  0.999827  0.250032  0.165357  1
  Rh  Rh15  1  0.999827  0.749967  0.165357  1
  Rh  Rh16  1  0.499829  0.248819  0.333349  1
  Rh  Rh17  1  0.499829  0.751182  0.333349  1
  Rh  Rh18  1  0.000002  0.250034  0.501299  1
  Rh  Rh19  1  0.000002  0.749967  0.501299  1
  Rh  Rh20  1  0.500171  0.240834  0.676145  1
  Rh  Rh21  1  0.500171  0.759167  0.676145  1
  Rh  Rh22  1  0.000156  0.231415  0.833351  1
  Rh  Rh23  1  0.000156  0.768584  0.833351  1
