# generated using pymatgen
data_NdHo3(ScIr)4
_symmetry_space_group_name_H-M   'P 1'
_cell_length_a   7.13582052
_cell_length_b   4.27054200
_cell_length_c   8.76031047
_cell_angle_alpha   90.00000000
_cell_angle_beta   89.18613814
_cell_angle_gamma   90.00000000
_symmetry_Int_Tables_number   1
_chemical_formula_structural   NdHo3(ScIr)4
_chemical_formula_sum   'Nd1 Ho3 Sc4 Ir4'
_cell_volume   266.93320350
_cell_formula_units_Z   1
loop_
 _symmetry_equiv_pos_site_id
 _symmetry_equiv_pos_as_xyz
  1  'x, y, z'
loop_
 _atom_site_type_symbol
 _atom_site_label
 _atom_site_symmetry_multiplicity
 _atom_site_fract_x
 _atom_site_fract_y
 _atom_site_fract_z
 _atom_site_occupancy
  Nd  Nd0  1  0.512485  0.750000  0.676347  1
  Ho  Ho1  1  0.980069  0.250000  0.174340  1
  Ho  Ho2  1  0.481603  0.250000  0.324468  1
  Ho  Ho3  1  0.019419  0.750000  0.828672  1
  Sc  Sc4  1  0.860247  0.250000  0.563215  1
  Sc  Sc5  1  0.360298  0.250000  0.941121  1
  Sc  Sc6  1  0.140139  0.750000  0.431826  1
  Sc  Sc7  1  0.643744  0.750000  0.067368  1
  Ir  Ir8  1  0.743647  0.250000  0.896748  1
  Ir  Ir9  1  0.232908  0.250000  0.601700  1
  Ir  Ir10  1  0.261861  0.750000  0.106935  1
  Ir  Ir11  1  0.763581  0.750000  0.387261  1
