# generated using pymatgen
data_CsCr(CuS2)2
_symmetry_space_group_name_H-M   'P 1'
_cell_length_a   9.88747853
_cell_length_b   9.88747811
_cell_length_c   7.53054800
_cell_angle_alpha   90.00000000
_cell_angle_beta   90.00000000
_cell_angle_gamma   147.97208688
_symmetry_Int_Tables_number   1
_chemical_formula_structural   CsCr(CuS2)2
_chemical_formula_sum   'Cs2 Cr2 Cu4 S8'
_cell_volume   390.43234518
_cell_formula_units_Z   2
loop_
 _symmetry_equiv_pos_site_id
 _symmetry_equiv_pos_as_xyz
  1  'x, y, z'
loop_
 _atom_site_type_symbol
 _atom_site_label
 _atom_site_symmetry_multiplicity
 _atom_site_fract_x
 _atom_site_fract_y
 _atom_site_fract_z
 _atom_site_occupancy
  Cs  Cs0  1  0.171578  0.538923  0.750000  1
  Cs  Cs1  1  0.538923  0.171578  0.250000  1
  Cr  Cr2  1  0.707321  0.498507  0.750000  1
  Cr  Cr3  1  0.498507  0.707321  0.250000  1
  Cu  Cu4  1  0.620160  0.620160  0.500000  1
  Cu  Cu5  1  0.001448  0.205436  0.250000  1
  Cu  Cu6  1  0.205436  0.001448  0.750000  1
  Cu  Cu7  1  0.620160  0.620160  0.000000  1
  S  S8  1  0.732216  0.938501  0.015089  1
  S  S9  1  0.384341  0.366865  0.750000  1
  S  S10  1  0.366865  0.384341  0.250000  1
  S  S11  1  0.938501  0.732216  0.515089  1
  S  S12  1  0.562436  0.173193  0.750000  1
  S  S13  1  0.938501  0.732216  0.984911  1
  S  S14  1  0.173193  0.562436  0.250000  1
  S  S15  1  0.732216  0.938501  0.484911  1
