# generated using pymatgen
data_Ti7ReAs6
_symmetry_space_group_name_H-M   'P 1'
_cell_length_a   7.29961387
_cell_length_b   7.29961315
_cell_length_c   18.76874200
_cell_angle_alpha   90.00000000
_cell_angle_beta   90.00000000
_cell_angle_gamma   152.20892071
_symmetry_Int_Tables_number   1
_chemical_formula_structural   Ti7ReAs6
_chemical_formula_sum   'Ti14 Re2 As12'
_cell_volume   466.28637539
_cell_formula_units_Z   2
loop_
 _symmetry_equiv_pos_site_id
 _symmetry_equiv_pos_as_xyz
  1  'x, y, z'
loop_
 _atom_site_type_symbol
 _atom_site_label
 _atom_site_symmetry_multiplicity
 _atom_site_fract_x
 _atom_site_fract_y
 _atom_site_fract_z
 _atom_site_occupancy
  Ti  Ti0  1  0.731974  0.268026  0.161255  1
  Ti  Ti1  1  0.268026  0.731974  0.838745  1
  Ti  Ti2  1  0.268026  0.731974  0.661255  1
  Ti  Ti3  1  0.731974  0.268026  0.338745  1
  Ti  Ti4  1  0.534952  0.465048  0.116620  1
  Ti  Ti5  1  0.465048  0.534952  0.883380  1
  Ti  Ti6  1  0.465048  0.534952  0.616620  1
  Ti  Ti7  1  0.534952  0.465048  0.383380  1
  Ti  Ti8  1  0.662214  0.337786  0.972693  1
  Ti  Ti9  1  0.337786  0.662214  0.027307  1
  Ti  Ti10  1  0.337786  0.662214  0.472693  1
  Ti  Ti11  1  0.662214  0.337786  0.527307  1
  Ti  Ti12  1  0.059311  0.940689  0.750000  1
  Ti  Ti13  1  0.940689  0.059311  0.250000  1
  Re  Re14  1  0.000000  0.000000  0.000000  1
  Re  Re15  1  0.000000  0.000000  0.500000  1
  As  As16  1  0.901831  0.098169  0.117943  1
  As  As17  1  0.098169  0.901831  0.882057  1
  As  As18  1  0.098169  0.901831  0.617943  1
  As  As19  1  0.901831  0.098169  0.382057  1
  As  As20  1  0.838825  0.161175  0.924903  1
  As  As21  1  0.161175  0.838825  0.075097  1
  As  As22  1  0.161175  0.838825  0.424903  1
  As  As23  1  0.838825  0.161175  0.575097  1
  As  As24  1  0.698595  0.301405  0.750000  1
  As  As25  1  0.301405  0.698595  0.250000  1
  As  As26  1  0.418858  0.581142  0.750000  1
  As  As27  1  0.581142  0.418858  0.250000  1
