# generated using pymatgen
data_Tb2Dy(YC2)5
_symmetry_space_group_name_H-M   'P 1'
_cell_length_a   3.69317800
_cell_length_b   6.60836675
_cell_length_c   11.97915981
_cell_angle_alpha   90.79067880
_cell_angle_beta   90.00000000
_cell_angle_gamma   90.00000000
_symmetry_Int_Tables_number   1
_chemical_formula_structural   Tb2Dy(YC2)5
_chemical_formula_sum   'Tb2 Dy1 Y5 C10'
_cell_volume   292.33403517
_cell_formula_units_Z   1
loop_
 _symmetry_equiv_pos_site_id
 _symmetry_equiv_pos_as_xyz
  1  'x, y, z'
loop_
 _atom_site_type_symbol
 _atom_site_label
 _atom_site_symmetry_multiplicity
 _atom_site_fract_x
 _atom_site_fract_y
 _atom_site_fract_z
 _atom_site_occupancy
  Tb  Tb0  1  0.500000  0.603881  0.697315  1
  Tb  Tb1  1  0.500000  0.395682  0.302749  1
  Dy  Dy2  1  0.500000  0.891894  0.195580  1
  Y  Y3  1  0.000000  0.256531  0.542230  1
  Y  Y4  1  0.000000  0.745453  0.457631  1
  Y  Y5  1  0.000000  0.754766  0.956825  1
  Y  Y6  1  0.000000  0.242619  0.042698  1
  Y  Y7  1  0.500000  0.108641  0.804335  1
  C  C8  1  0.500000  0.501843  0.500189  1
  C  C9  1  0.500000  0.997367  0.000527  1
  C  C10  1  0.000000  0.362267  0.735545  1
  C  C11  1  0.000000  0.639347  0.264769  1
  C  C12  1  0.000000  0.857285  0.761939  1
  C  C13  1  0.000000  0.140448  0.236560  1
  C  C14  1  0.000000  0.389826  0.846208  1
  C  C15  1  0.000000  0.605012  0.154711  1
  C  C16  1  0.000000  0.087914  0.343240  1
  C  C17  1  0.000000  0.919227  0.656950  1
