# generated using pymatgen
data_Dy2Y(CuSn)4
_symmetry_space_group_name_H-M   'P 1'
_cell_length_a   8.44639355
_cell_length_b   8.44639400
_cell_length_c   8.44639423
_cell_angle_alpha   149.09548844
_cell_angle_beta   131.25791561
_cell_angle_gamma   58.83702377
_symmetry_Int_Tables_number   1
_chemical_formula_structural   Dy2Y(CuSn)4
_chemical_formula_sum   'Dy2 Y1 Cu4 Sn4'
_cell_volume   230.82723695
_cell_formula_units_Z   1
loop_
 _symmetry_equiv_pos_site_id
 _symmetry_equiv_pos_as_xyz
  1  'x, y, z'
loop_
 _atom_site_type_symbol
 _atom_site_label
 _atom_site_symmetry_multiplicity
 _atom_site_fract_x
 _atom_site_fract_y
 _atom_site_fract_z
 _atom_site_occupancy
  Dy  Dy0  1  0.869075  0.869075  0.000000  1
  Dy  Dy1  1  0.130925  0.130925  0.000000  1
  Y  Y2  1  0.500000  0.000000  0.500000  1
  Cu  Cu3  1  0.483242  0.671238  0.812003  1
  Cu  Cu4  1  0.859235  0.671238  0.187997  1
  Cu  Cu5  1  0.140765  0.328762  0.812003  1
  Cu  Cu6  1  0.516758  0.328762  0.187997  1
  Sn  Sn7  1  0.283917  0.783917  0.500000  1
  Sn  Sn8  1  0.716083  0.216083  0.500000  1
  Sn  Sn9  1  0.797169  0.500000  0.297169  1
  Sn  Sn10  1  0.202831  0.500000  0.702831  1
