# generated using pymatgen
data_Pr20Ir10PtRh
_symmetry_space_group_name_H-M   'P 1'
_cell_length_a   11.36457147
_cell_length_b   11.36915674
_cell_length_c   6.67380681
_cell_angle_alpha   90.04381349
_cell_angle_beta   90.03603644
_cell_angle_gamma   89.84122434
_symmetry_Int_Tables_number   1
_chemical_formula_structural   Pr20Ir10PtRh
_chemical_formula_sum   'Pr20 Ir10 Pt1 Rh1'
_cell_volume   862.28944386
_cell_formula_units_Z   1
loop_
 _symmetry_equiv_pos_site_id
 _symmetry_equiv_pos_as_xyz
  1  'x, y, z'
loop_
 _atom_site_type_symbol
 _atom_site_label
 _atom_site_symmetry_multiplicity
 _atom_site_fract_x
 _atom_site_fract_y
 _atom_site_fract_z
 _atom_site_occupancy
  Pr  Pr0  1  0.291948  0.090279  0.386639  1
  Pr  Pr1  1  0.291806  0.908698  0.883005  1
  Pr  Pr2  1  0.706598  0.089706  0.878404  1
  Pr  Pr3  1  0.706430  0.906740  0.387352  1
  Pr  Pr4  1  0.590925  0.791138  0.884339  1
  Pr  Pr5  1  0.586996  0.208434  0.387426  1
  Pr  Pr6  1  0.409181  0.792194  0.386981  1
  Pr  Pr7  1  0.408569  0.208702  0.884010  1
  Pr  Pr8  1  0.207693  0.409460  0.614412  1
  Pr  Pr9  1  0.207682  0.591999  0.115328  1
  Pr  Pr10  1  0.791674  0.411845  0.114612  1
  Pr  Pr11  1  0.792436  0.591072  0.614648  1
  Pr  Pr12  1  0.908569  0.707983  0.115546  1
  Pr  Pr13  1  0.910577  0.294457  0.619989  1
  Pr  Pr14  1  0.091023  0.707152  0.615508  1
  Pr  Pr15  1  0.094173  0.293543  0.114906  1
  Pr  Pr16  1  0.001576  0.998198  0.500801  1
  Pr  Pr17  1  0.001724  0.998429  0.999513  1
  Pr  Pr18  1  0.499694  0.500075  0.999841  1
  Pr  Pr19  1  0.499961  0.500367  0.500208  1
  Ir  Ir20  1  0.846906  0.847479  0.749099  1
  Ir  Ir21  1  0.152521  0.153126  0.749085  1
  Ir  Ir22  1  0.155094  0.848019  0.250443  1
  Ir  Ir23  1  0.654157  0.345776  0.749052  1
  Ir  Ir24  1  0.652311  0.654765  0.250397  1
  Ir  Ir25  1  0.348122  0.344822  0.250467  1
  Ir  Ir26  1  0.346541  0.653418  0.749239  1
  Ir  Ir27  1  0.500349  0.000425  0.622803  1
  Ir  Ir28  1  0.999576  0.499600  0.881409  1
  Ir  Ir29  1  0.999810  0.499103  0.379019  1
  Pt  Pt30  1  0.844473  0.152746  0.250480  1
  Rh  Rh31  1  0.500907  0.000252  0.115045  1
