# generated using pymatgen
data_CaAc4Tl3
_symmetry_space_group_name_H-M   'P 1'
_cell_length_a   7.11433100
_cell_length_b   12.97983900
_cell_length_c   12.97983900
_cell_angle_alpha   90.00000000
_cell_angle_beta   90.00000000
_cell_angle_gamma   90.00000000
_symmetry_Int_Tables_number   1
_chemical_formula_structural   CaAc4Tl3
_chemical_formula_sum   'Ca4 Ac16 Tl12'
_cell_volume   1198.59559802
_cell_formula_units_Z   4
loop_
 _symmetry_equiv_pos_site_id
 _symmetry_equiv_pos_as_xyz
  1  'x, y, z'
loop_
 _atom_site_type_symbol
 _atom_site_label
 _atom_site_symmetry_multiplicity
 _atom_site_fract_x
 _atom_site_fract_y
 _atom_site_fract_z
 _atom_site_occupancy
  Ca  Ca0  1  0.500000  0.750000  0.250000  1
  Ca  Ca1  1  0.000000  0.750000  0.250000  1
  Ca  Ca2  1  0.000000  0.250000  0.750000  1
  Ca  Ca3  1  0.500000  0.250000  0.750000  1
  Ac  Ac4  1  0.335692  0.838688  0.534477  1
  Ac  Ac5  1  0.835692  0.661312  0.534477  1
  Ac  Ac6  1  0.835692  0.838688  0.965523  1
  Ac  Ac7  1  0.335692  0.661312  0.965523  1
  Ac  Ac8  1  0.835692  0.534477  0.838688  1
  Ac  Ac9  1  0.335692  0.965523  0.838688  1
  Ac  Ac10  1  0.335692  0.534477  0.661312  1
  Ac  Ac11  1  0.835692  0.965523  0.661312  1
  Ac  Ac12  1  0.664308  0.161312  0.465524  1
  Ac  Ac13  1  0.164308  0.338688  0.465524  1
  Ac  Ac14  1  0.164308  0.161312  0.034477  1
  Ac  Ac15  1  0.664308  0.338688  0.034477  1
  Ac  Ac16  1  0.164308  0.465524  0.161312  1
  Ac  Ac17  1  0.664308  0.034477  0.161312  1
  Ac  Ac18  1  0.664308  0.465524  0.338688  1
  Ac  Ac19  1  0.164308  0.034477  0.338688  1
  Tl  Tl20  1  0.250000  0.903490  0.096510  1
  Tl  Tl21  1  0.750000  0.596510  0.096510  1
  Tl  Tl22  1  0.750000  0.903490  0.403490  1
  Tl  Tl23  1  0.250000  0.596510  0.403490  1
  Tl  Tl24  1  0.750000  0.096510  0.903490  1
  Tl  Tl25  1  0.250000  0.403490  0.903490  1
  Tl  Tl26  1  0.250000  0.096510  0.596510  1
  Tl  Tl27  1  0.750000  0.403490  0.596510  1
  Tl  Tl28  1  0.075339  0.750000  0.750000  1
  Tl  Tl29  1  0.575339  0.750000  0.750000  1
  Tl  Tl30  1  0.924661  0.250000  0.250000  1
  Tl  Tl31  1  0.424661  0.250000  0.250000  1
