# generated using pymatgen
data_HoTm3Th6(Ge5Rh2)4
_symmetry_space_group_name_H-M   'P 1'
_cell_length_a   13.11989604
_cell_length_b   13.11989604
_cell_length_c   4.37801900
_cell_angle_alpha   90.00000000
_cell_angle_beta   90.00000000
_cell_angle_gamma   90.00845469
_symmetry_Int_Tables_number   1
_chemical_formula_structural   HoTm3Th6(Ge5Rh2)4
_chemical_formula_sum   'Ho1 Tm3 Th6 Ge20 Rh8'
_cell_volume   753.59572226
_cell_formula_units_Z   1
loop_
 _symmetry_equiv_pos_site_id
 _symmetry_equiv_pos_as_xyz
  1  'x, y, z'
loop_
 _atom_site_type_symbol
 _atom_site_label
 _atom_site_symmetry_multiplicity
 _atom_site_fract_x
 _atom_site_fract_y
 _atom_site_fract_z
 _atom_site_occupancy
  Ho  Ho0  1  0.325439  0.825439  0.500000  1
  Tm  Tm1  1  0.825571  0.674408  0.500000  1
  Tm  Tm2  1  0.174408  0.325571  0.500000  1
  Tm  Tm3  1  0.674426  0.174426  0.500000  1
  Th  Th4  1  0.112610  0.612610  0.500000  1
  Th  Th5  1  0.612772  0.887358  0.500000  1
  Th  Th6  1  0.387358  0.112772  0.500000  1
  Th  Th7  1  0.887311  0.387311  0.500000  1
  Th  Th8  1  0.500016  0.499983  0.000000  1
  Th  Th9  1  0.999983  0.000016  0.000000  1
  Ge  Ge10  1  0.337668  0.495670  0.500000  1
  Ge  Ge11  1  0.662322  0.504360  0.500000  1
  Ge  Ge12  1  0.504364  0.337668  0.500000  1
  Ge  Ge13  1  0.495808  0.662216  0.500000  1
  Ge  Ge14  1  0.995670  0.837668  0.500000  1
  Ge  Ge15  1  0.837668  0.004364  0.500000  1
  Ge  Ge16  1  0.162216  0.995808  0.500000  1
  Ge  Ge17  1  0.004360  0.162322  0.500000  1
  Ge  Ge18  1  0.337017  0.300853  0.000000  1
  Ge  Ge19  1  0.663007  0.699137  0.000000  1
  Ge  Ge20  1  0.699158  0.337010  0.000000  1
  Ge  Ge21  1  0.300749  0.662737  0.000000  1
  Ge  Ge22  1  0.800853  0.837017  0.000000  1
  Ge  Ge23  1  0.837010  0.199158  0.000000  1
  Ge  Ge24  1  0.162737  0.800749  0.000000  1
  Ge  Ge25  1  0.199137  0.163007  0.000000  1
  Ge  Ge26  1  0.433267  0.933267  0.000000  1
  Ge  Ge27  1  0.933019  0.566977  0.000000  1
  Ge  Ge28  1  0.567009  0.067009  0.000000  1
  Ge  Ge29  1  0.066977  0.433019  0.000000  1
  Rh  Rh30  1  0.244414  0.977751  0.000000  1
  Rh  Rh31  1  0.755440  0.022529  0.000000  1
  Rh  Rh32  1  0.022544  0.244573  0.000000  1
  Rh  Rh33  1  0.977426  0.755413  0.000000  1
  Rh  Rh34  1  0.477751  0.744414  0.000000  1
  Rh  Rh35  1  0.744573  0.522544  0.000000  1
  Rh  Rh36  1  0.255413  0.477426  0.000000  1
  Rh  Rh37  1  0.522529  0.255440  0.000000  1
