# generated using pymatgen
data_Eu2CdHgPt2
_symmetry_space_group_name_H-M   'P 1'
_cell_length_a   4.34334600
_cell_length_b   7.46547100
_cell_length_c   8.86050400
_cell_angle_alpha   90.00000000
_cell_angle_beta   90.00000000
_cell_angle_gamma   90.00000000
_symmetry_Int_Tables_number   1
_chemical_formula_structural   Eu2CdHgPt2
_chemical_formula_sum   'Eu4 Cd2 Hg2 Pt4'
_cell_volume   287.30293741
_cell_formula_units_Z   2
loop_
 _symmetry_equiv_pos_site_id
 _symmetry_equiv_pos_as_xyz
  1  'x, y, z'
loop_
 _atom_site_type_symbol
 _atom_site_label
 _atom_site_symmetry_multiplicity
 _atom_site_fract_x
 _atom_site_fract_y
 _atom_site_fract_z
 _atom_site_occupancy
  Eu  Eu0  1  0.250000  0.036331  0.317403  1
  Eu  Eu1  1  0.250000  0.536331  0.182597  1
  Eu  Eu2  1  0.750000  0.960844  0.681200  1
  Eu  Eu3  1  0.750000  0.460844  0.818800  1
  Cd  Cd4  1  0.750000  0.858693  0.062171  1
  Cd  Cd5  1  0.750000  0.358693  0.437829  1
  Hg  Hg6  1  0.250000  0.147842  0.934798  1
  Hg  Hg7  1  0.250000  0.647842  0.565202  1
  Pt  Pt8  1  0.250000  0.250681  0.622179  1
  Pt  Pt9  1  0.250000  0.750681  0.877821  1
  Pt  Pt10  1  0.750000  0.745611  0.366293  1
  Pt  Pt11  1  0.750000  0.245611  0.133707  1
