# generated using pymatgen
data_Y6Cd5AgHg12
_symmetry_space_group_name_H-M   'P 1'
_cell_length_a   5.09693634
_cell_length_b   7.12153700
_cell_length_c   15.49511105
_cell_angle_alpha   90.00000000
_cell_angle_beta   90.04207176
_cell_angle_gamma   90.00000000
_symmetry_Int_Tables_number   1
_chemical_formula_structural   Y6Cd5AgHg12
_chemical_formula_sum   'Y6 Cd5 Ag1 Hg12'
_cell_volume   562.44171069
_cell_formula_units_Z   1
loop_
 _symmetry_equiv_pos_site_id
 _symmetry_equiv_pos_as_xyz
  1  'x, y, z'
loop_
 _atom_site_type_symbol
 _atom_site_label
 _atom_site_symmetry_multiplicity
 _atom_site_fract_x
 _atom_site_fract_y
 _atom_site_fract_z
 _atom_site_occupancy
  Y  Y0  1  0.000000  0.000000  0.000000  1
  Y  Y1  1  0.499877  0.500000  0.166270  1
  Y  Y2  1  0.999897  0.000000  0.334279  1
  Y  Y3  1  0.500000  0.500000  0.500000  1
  Y  Y4  1  0.000103  0.000000  0.665720  1
  Y  Y5  1  0.500123  0.500000  0.833730  1
  Cd  Cd6  1  0.499926  0.000000  0.166272  1
  Cd  Cd7  1  0.999923  0.500000  0.333530  1
  Cd  Cd8  1  0.500000  0.000000  0.500000  1
  Cd  Cd9  1  0.000077  0.500000  0.666470  1
  Cd  Cd10  1  0.500074  0.000000  0.833728  1
  Ag  Ag11  1  0.000000  0.500000  0.000000  1
  Hg  Hg12  1  0.500000  0.255198  0.000000  1
  Hg  Hg13  1  0.500000  0.744801  0.000000  1
  Hg  Hg14  1  0.999844  0.251574  0.164446  1
  Hg  Hg15  1  0.999844  0.748427  0.164446  1
  Hg  Hg16  1  0.499840  0.249668  0.333362  1
  Hg  Hg17  1  0.499840  0.750333  0.333362  1
  Hg  Hg18  1  0.000000  0.249880  0.500000  1
  Hg  Hg19  1  0.000000  0.750121  0.500000  1
  Hg  Hg20  1  0.500160  0.249668  0.666638  1
  Hg  Hg21  1  0.500160  0.750333  0.666638  1
  Hg  Hg22  1  0.000156  0.251574  0.835554  1
  Hg  Hg23  1  0.000156  0.748427  0.835554  1
