# generated using pymatgen
data_Er6Sc4GaSb5
_symmetry_space_group_name_H-M   'P 1'
_cell_length_a   8.66255700
_cell_length_b   8.66935867
_cell_length_c   6.10748200
_cell_angle_alpha   90.00000000
_cell_angle_beta   90.00000000
_cell_angle_gamma   119.97405403
_symmetry_Int_Tables_number   1
_chemical_formula_structural   Er6Sc4GaSb5
_chemical_formula_sum   'Er6 Sc4 Ga1 Sb5'
_cell_volume   397.31905156
_cell_formula_units_Z   1
loop_
 _symmetry_equiv_pos_site_id
 _symmetry_equiv_pos_as_xyz
  1  'x, y, z'
loop_
 _atom_site_type_symbol
 _atom_site_label
 _atom_site_symmetry_multiplicity
 _atom_site_fract_x
 _atom_site_fract_y
 _atom_site_fract_z
 _atom_site_occupancy
  Er  Er0  1  0.011584  0.764844  0.750000  1
  Er  Er1  1  0.998510  0.242406  0.250000  1
  Er  Er2  1  0.756104  0.757594  0.250000  1
  Er  Er3  1  0.749995  0.000000  0.750000  1
  Er  Er4  1  0.246740  0.235156  0.750000  1
  Er  Er5  1  0.242636  0.000000  0.250000  1
  Sc  Sc6  1  0.334956  0.673491  0.502071  1
  Sc  Sc7  1  0.661466  0.326509  0.997929  1
  Sc  Sc8  1  0.661466  0.326509  0.502071  1
  Sc  Sc9  1  0.334956  0.673491  0.997929  1
  Ga  Ga10  1  0.398968  0.000000  0.750000  1
  Sb  Sb11  1  0.395198  0.397333  0.250000  1
  Sb  Sb12  1  0.997865  0.602667  0.250000  1
  Sb  Sb13  1  0.002011  0.395183  0.750000  1
  Sb  Sb14  1  0.606828  0.604817  0.750000  1
  Sb  Sb15  1  0.600716  0.000000  0.250000  1
