# generated using pymatgen
data_Gd10Si6F
_symmetry_space_group_name_H-M   'P 1'
_cell_length_a   8.55336200
_cell_length_b   8.55336219
_cell_length_c   6.38969800
_cell_angle_alpha   90.00000000
_cell_angle_beta   90.00000000
_cell_angle_gamma   119.99999926
_symmetry_Int_Tables_number   1
_chemical_formula_structural   Gd10Si6F
_chemical_formula_sum   'Gd10 Si6 F1'
_cell_volume   404.84118059
_cell_formula_units_Z   1
loop_
 _symmetry_equiv_pos_site_id
 _symmetry_equiv_pos_as_xyz
  1  'x, y, z'
loop_
 _atom_site_type_symbol
 _atom_site_label
 _atom_site_symmetry_multiplicity
 _atom_site_fract_x
 _atom_site_fract_y
 _atom_site_fract_z
 _atom_site_occupancy
  Gd  Gd0  1  0.333333  0.666667  0.500000  1
  Gd  Gd1  1  0.666667  0.333333  0.500000  1
  Gd  Gd2  1  0.666667  0.333333  0.000000  1
  Gd  Gd3  1  0.333333  0.666667  0.000000  1
  Gd  Gd4  1  0.000000  0.749795  0.244389  1
  Gd  Gd5  1  0.250205  0.250205  0.244389  1
  Gd  Gd6  1  0.749795  0.000000  0.244389  1
  Gd  Gd7  1  0.000000  0.250205  0.755611  1
  Gd  Gd8  1  0.749795  0.749795  0.755611  1
  Gd  Gd9  1  0.250205  0.000000  0.755611  1
  Si  Si10  1  0.000000  0.391187  0.246983  1
  Si  Si11  1  0.608813  0.608813  0.246983  1
  Si  Si12  1  0.391187  0.000000  0.246983  1
  Si  Si13  1  0.000000  0.608813  0.753017  1
  Si  Si14  1  0.391187  0.391187  0.753017  1
  Si  Si15  1  0.608813  0.000000  0.753017  1
  F  F16  1  0.000000  0.000000  0.500000  1
