# generated using pymatgen
data_LiNd3SiS7
_symmetry_space_group_name_H-M   'P 1'
_cell_length_a   10.20831700
_cell_length_b   10.20831774
_cell_length_c   5.75311000
_cell_angle_alpha   90.00000000
_cell_angle_beta   90.00000000
_cell_angle_gamma   119.99999435
_symmetry_Int_Tables_number   1
_chemical_formula_structural   LiNd3SiS7
_chemical_formula_sum   'Li2 Nd6 Si2 S14'
_cell_volume   519.20834195
_cell_formula_units_Z   2
loop_
 _symmetry_equiv_pos_site_id
 _symmetry_equiv_pos_as_xyz
  1  'x, y, z'
loop_
 _atom_site_type_symbol
 _atom_site_label
 _atom_site_symmetry_multiplicity
 _atom_site_fract_x
 _atom_site_fract_y
 _atom_site_fract_z
 _atom_site_occupancy
  Li  Li0  1  0.000000  0.000000  0.022704  1
  Li  Li1  1  0.000000  0.000000  0.522704  1
  Nd  Nd2  1  0.127021  0.769040  0.756951  1
  Nd  Nd3  1  0.357980  0.127021  0.256951  1
  Nd  Nd4  1  0.230960  0.357980  0.756951  1
  Nd  Nd5  1  0.642020  0.872979  0.756951  1
  Nd  Nd6  1  0.769040  0.642020  0.256951  1
  Nd  Nd7  1  0.872979  0.230960  0.256951  1
  Si  Si8  1  0.666667  0.333333  0.670996  1
  Si  Si9  1  0.333333  0.666667  0.170996  1
  S  S10  1  0.087137  0.841511  0.278111  1
  S  S11  1  0.754374  0.912863  0.278111  1
  S  S12  1  0.841511  0.754374  0.778111  1
  S  S13  1  0.912863  0.158489  0.778111  1
  S  S14  1  0.523695  0.411437  0.527022  1
  S  S15  1  0.158489  0.245626  0.278111  1
  S  S16  1  0.333333  0.666667  0.537446  1
  S  S17  1  0.666667  0.333333  0.037446  1
  S  S18  1  0.411437  0.887741  0.027022  1
  S  S19  1  0.112259  0.523695  0.027022  1
  S  S20  1  0.476305  0.588563  0.027022  1
  S  S21  1  0.588563  0.112259  0.527022  1
  S  S22  1  0.887741  0.476305  0.527022  1
  S  S23  1  0.245626  0.087137  0.778111  1
