# generated using pymatgen
data_BaTc12I25
_symmetry_space_group_name_H-M   'P 1'
_cell_length_a   10.70382295
_cell_length_b   11.71975813
_cell_length_c   12.73174394
_cell_angle_alpha   86.21174307
_cell_angle_beta   73.43788603
_cell_angle_gamma   86.85411377
_symmetry_Int_Tables_number   1
_chemical_formula_structural   BaTc12I25
_chemical_formula_sum   'Ba1 Tc12 I25'
_cell_volume   1526.45526653
_cell_formula_units_Z   1
loop_
 _symmetry_equiv_pos_site_id
 _symmetry_equiv_pos_as_xyz
  1  'x, y, z'
loop_
 _atom_site_type_symbol
 _atom_site_label
 _atom_site_symmetry_multiplicity
 _atom_site_fract_x
 _atom_site_fract_y
 _atom_site_fract_z
 _atom_site_occupancy
  Ba  Ba0  1  0.500000  0.000000  0.000000  1
  Tc  Tc1  1  0.834610  0.257143  0.134951  1
  Tc  Tc2  1  0.165390  0.742857  0.865049  1
  Tc  Tc3  1  0.772078  0.133784  0.278426  1
  Tc  Tc4  1  0.227922  0.866216  0.721574  1
  Tc  Tc5  1  0.060249  0.280894  0.184782  1
  Tc  Tc6  1  0.939751  0.719106  0.815218  1
  Tc  Tc7  1  0.852127  0.421305  0.267706  1
  Tc  Tc8  1  0.147873  0.578695  0.732294  1
  Tc  Tc9  1  0.786741  0.298642  0.412614  1
  Tc  Tc10  1  0.213259  0.701358  0.587386  1
  Tc  Tc11  1  0.996284  0.159870  0.330263  1
  Tc  Tc12  1  0.003716  0.840130  0.669737  1
  I  I13  1  0.950890  0.963909  0.258879  1
  I  I14  1  0.049110  0.036091  0.741121  1
  I  I15  1  0.979285  0.276035  0.505499  1
  I  I16  1  0.020715  0.723965  0.494501  1
  I  I17  1  0.651872  0.426572  0.179926  1
  I  I18  1  0.348128  0.573428  0.820074  1
  I  I19  1  0.090795  0.473496  0.273722  1
  I  I20  1  0.909205  0.526504  0.726278  1
  I  I21  1  0.000000  0.500000  0.000000  1
  I  I22  1  0.613832  0.968395  0.235137  1
  I  I23  1  0.386168  0.031605  0.764863  1
  I  I24  1  0.213442  0.048429  0.371993  1
  I  I25  1  0.786558  0.951571  0.628007  1
  I  I26  1  0.557246  0.222258  0.412935  1
  I  I27  1  0.442754  0.777742  0.587065  1
  I  I28  1  0.058414  0.161361  0.015104  1
  I  I29  1  0.941586  0.838639  0.984896  1
  I  I30  1  0.776763  0.643411  0.324172  1
  I  I31  1  0.223237  0.356589  0.675828  1
  I  I32  1  0.733241  0.211004  0.959290  1
  I  I33  1  0.266759  0.788996  0.040710  1
  I  I34  1  0.333472  0.264681  0.101908  1
  I  I35  1  0.666528  0.735319  0.898092  1
  I  I36  1  0.651835  0.414609  0.594098  1
  I  I37  1  0.348165  0.585391  0.405902  1
