# generated using pymatgen
data_CaPr3(TcO6)2
_symmetry_space_group_name_H-M   'P 1'
_cell_length_a   10.07295714
_cell_length_b   10.07295655
_cell_length_c   5.52997400
_cell_angle_alpha   75.49143319
_cell_angle_beta   75.49142230
_cell_angle_gamma   69.40215853
_symmetry_Int_Tables_number   1
_chemical_formula_structural   CaPr3(TcO6)2
_chemical_formula_sum   'Ca2 Pr6 Tc4 O24'
_cell_volume   500.24690186
_cell_formula_units_Z   2
loop_
 _symmetry_equiv_pos_site_id
 _symmetry_equiv_pos_as_xyz
  1  'x, y, z'
loop_
 _atom_site_type_symbol
 _atom_site_label
 _atom_site_symmetry_multiplicity
 _atom_site_fract_x
 _atom_site_fract_y
 _atom_site_fract_z
 _atom_site_occupancy
  Ca  Ca0  1  0.628144  0.371856  0.750000  1
  Ca  Ca1  1  0.371856  0.628144  0.250000  1
  Pr  Pr2  1  0.113114  0.886886  0.750000  1
  Pr  Pr3  1  0.886886  0.113114  0.250000  1
  Pr  Pr4  1  0.709925  0.942061  0.877589  1
  Pr  Pr5  1  0.290075  0.057939  0.122411  1
  Pr  Pr6  1  0.057939  0.290075  0.622411  1
  Pr  Pr7  1  0.942061  0.709925  0.377589  1
  Tc  Tc8  1  0.501802  0.795139  0.553353  1
  Tc  Tc9  1  0.498198  0.204861  0.446647  1
  Tc  Tc10  1  0.204861  0.498198  0.946647  1
  Tc  Tc11  1  0.795139  0.501802  0.053353  1
  O  O12  1  0.683217  0.165120  0.585674  1
  O  O13  1  0.316783  0.834880  0.414326  1
  O  O14  1  0.834880  0.316783  0.914326  1
  O  O15  1  0.165120  0.683217  0.085674  1
  O  O16  1  0.386847  0.824912  0.855094  1
  O  O17  1  0.613153  0.175088  0.144906  1
  O  O18  1  0.175088  0.613153  0.644906  1
  O  O19  1  0.824912  0.386847  0.355094  1
  O  O20  1  0.673214  0.786078  0.625631  1
  O  O21  1  0.326786  0.213922  0.374369  1
  O  O22  1  0.213922  0.326786  0.874369  1
  O  O23  1  0.786078  0.673214  0.125631  1
  O  O24  1  0.470711  0.073012  0.735477  1
  O  O25  1  0.529289  0.926988  0.264523  1
  O  O26  1  0.926988  0.529289  0.764523  1
  O  O27  1  0.073012  0.470711  0.235477  1
  O  O28  1  0.543367  0.614190  0.518942  1
  O  O29  1  0.456633  0.385810  0.481058  1
  O  O30  1  0.385810  0.456633  0.981058  1
  O  O31  1  0.614190  0.543367  0.018942  1
  O  O32  1  0.890911  0.923024  0.076147  1
  O  O33  1  0.109089  0.076976  0.923853  1
  O  O34  1  0.076976  0.109089  0.423853  1
  O  O35  1  0.923024  0.890911  0.576147  1
