# generated using pymatgen
data_Nd3Dy2P12Ir12Ru7
_symmetry_space_group_name_H-M   'P 1'
_cell_length_a   12.69498694
_cell_length_b   12.65967079
_cell_length_c   4.00165300
_cell_angle_alpha   90.00000000
_cell_angle_beta   90.00000000
_cell_angle_gamma   119.84709092
_symmetry_Int_Tables_number   1
_chemical_formula_structural   Nd3Dy2P12Ir12Ru7
_chemical_formula_sum   'Nd3 Dy2 P12 Ir12 Ru7'
_cell_volume   557.81711548
_cell_formula_units_Z   1
loop_
 _symmetry_equiv_pos_site_id
 _symmetry_equiv_pos_as_xyz
  1  'x, y, z'
loop_
 _atom_site_type_symbol
 _atom_site_label
 _atom_site_symmetry_multiplicity
 _atom_site_fract_x
 _atom_site_fract_y
 _atom_site_fract_z
 _atom_site_occupancy
  Nd  Nd0  1  0.812480  0.001281  0.500000  1
  Nd  Nd1  1  0.185675  0.186880  0.500000  1
  Nd  Nd2  1  0.999567  0.813033  0.500000  1
  Dy  Dy3  1  0.667469  0.332111  0.000000  1
  Dy  Dy4  1  0.333601  0.667078  0.000000  1
  P  P5  1  0.636637  0.004107  0.000000  1
  P  P6  1  0.366129  0.366015  0.000000  1
  P  P7  1  0.999753  0.633651  0.000000  1
  P  P8  1  0.689904  0.518287  0.500000  1
  P  P9  1  0.828444  0.306847  0.500000  1
  P  P10  1  0.310736  0.829787  0.500000  1
  P  P11  1  0.519095  0.689426  0.500000  1
  P  P12  1  0.182195  0.000607  0.000000  1
  P  P13  1  0.817216  0.818104  0.000000  1
  P  P14  1  0.997389  0.182947  0.000000  1
  P  P15  1  0.480975  0.169842  0.500000  1
  P  P16  1  0.170982  0.481430  0.500000  1
  Ir  Ir17  1  0.620199  0.802686  0.000000  1
  Ir  Ir18  1  0.183254  0.380377  0.000000  1
  Ir  Ir19  1  0.379281  0.181928  0.000000  1
  Ir  Ir20  1  0.197116  0.818099  0.000000  1
  Ir  Ir21  1  0.802016  0.619664  0.000000  1
  Ir  Ir22  1  0.869780  0.505401  0.500000  1
  Ir  Ir23  1  0.494015  0.362827  0.500000  1
  Ir  Ir24  1  0.635666  0.128424  0.500000  1
  Ir  Ir25  1  0.130889  0.637728  0.500000  1
  Ir  Ir26  1  0.363354  0.493464  0.500000  1
  Ir  Ir27  1  0.505653  0.868337  0.500000  1
  Ir  Ir28  1  0.999761  0.000071  0.000000  1
  Ru  Ru29  1  0.710449  0.710348  0.500000  1
  Ru  Ru30  1  0.001902  0.290880  0.500000  1
  Ru  Ru31  1  0.452415  0.998125  0.000000  1
  Ru  Ru32  1  0.546513  0.546271  0.000000  1
  Ru  Ru33  1  0.001586  0.454178  0.000000  1
  Ru  Ru34  1  0.818947  0.199760  0.000000  1
  Ru  Ru35  1  0.288957  0.999998  0.500000  1
