# generated using pymatgen
data_Tb3Ho2Tm7Co4
_symmetry_space_group_name_H-M   'P 1'
_cell_length_a   6.17940718
_cell_length_b   6.90534105
_cell_length_c   9.29613535
_cell_angle_alpha   90.00002187
_cell_angle_beta   90.06161564
_cell_angle_gamma   89.99281229
_symmetry_Int_Tables_number   1
_chemical_formula_structural   Tb3Ho2Tm7Co4
_chemical_formula_sum   'Tb3 Ho2 Tm7 Co4'
_cell_volume   396.67436017
_cell_formula_units_Z   1
loop_
 _symmetry_equiv_pos_site_id
 _symmetry_equiv_pos_as_xyz
  1  'x, y, z'
loop_
 _atom_site_type_symbol
 _atom_site_label
 _atom_site_symmetry_multiplicity
 _atom_site_fract_x
 _atom_site_fract_y
 _atom_site_fract_z
 _atom_site_occupancy
  Tb  Tb0  1  0.638628  0.042080  0.250197  1
  Tb  Tb1  1  0.137319  0.458222  0.749571  1
  Tb  Tb2  1  0.363374  0.958489  0.749586  1
  Ho  Ho3  1  0.323387  0.675293  0.067837  1
  Ho  Ho4  1  0.860923  0.541172  0.250521  1
  Tm  Tm5  1  0.175506  0.175905  0.432128  1
  Tm  Tm6  1  0.675654  0.325001  0.567210  1
  Tm  Tm7  1  0.824992  0.824192  0.932333  1
  Tm  Tm8  1  0.675886  0.324655  0.932551  1
  Tm  Tm9  1  0.824953  0.824146  0.567054  1
  Tm  Tm10  1  0.323880  0.675237  0.432557  1
  Tm  Tm11  1  0.175072  0.175781  0.067765  1
  Co  Co12  1  0.048954  0.887316  0.250601  1
  Co  Co13  1  0.450833  0.387628  0.250605  1
  Co  Co14  1  0.949414  0.112424  0.750153  1
  Co  Co15  1  0.551224  0.612457  0.749331  1
