# generated using pymatgen
data_Tm3In2GaPd3
_symmetry_space_group_name_H-M   'P 1'
_cell_length_a   7.59451192
_cell_length_b   7.59451270
_cell_length_c   3.73125700
_cell_angle_alpha   90.00000000
_cell_angle_beta   90.00000000
_cell_angle_gamma   119.08346373
_symmetry_Int_Tables_number   1
_chemical_formula_structural   Tm3In2GaPd3
_chemical_formula_sum   'Tm3 In2 Ga1 Pd3'
_cell_volume   188.07147021
_cell_formula_units_Z   1
loop_
 _symmetry_equiv_pos_site_id
 _symmetry_equiv_pos_as_xyz
  1  'x, y, z'
loop_
 _atom_site_type_symbol
 _atom_site_label
 _atom_site_symmetry_multiplicity
 _atom_site_fract_x
 _atom_site_fract_y
 _atom_site_fract_z
 _atom_site_occupancy
  Tm  Tm0  1  0.423918  0.423918  0.500000  1
  Tm  Tm1  1  0.596151  0.990454  0.500000  1
  Tm  Tm2  1  0.990454  0.596151  0.500000  1
  In  In3  1  0.263612  0.006930  0.000000  1
  In  In4  1  0.006930  0.263612  0.000000  1
  Ga  Ga5  1  0.733987  0.733987  0.000000  1
  Pd  Pd6  1  0.975103  0.975103  0.500000  1
  Pd  Pd7  1  0.669331  0.340514  0.000000  1
  Pd  Pd8  1  0.340514  0.669331  0.000000  1
