# generated using pymatgen
data_DyEr3Lu12(In3Co)2
_symmetry_space_group_name_H-M   'P 1'
_cell_length_a   10.18156000
_cell_length_b   10.18156084
_cell_length_c   6.93086200
_cell_angle_alpha   90.00000000
_cell_angle_beta   90.00000000
_cell_angle_gamma   120.00000378
_symmetry_Int_Tables_number   1
_chemical_formula_structural   DyEr3Lu12(In3Co)2
_chemical_formula_sum   'Dy1 Er3 Lu12 In6 Co2'
_cell_volume   622.22370489
_cell_formula_units_Z   1
loop_
 _symmetry_equiv_pos_site_id
 _symmetry_equiv_pos_as_xyz
  1  'x, y, z'
loop_
 _atom_site_type_symbol
 _atom_site_label
 _atom_site_symmetry_multiplicity
 _atom_site_fract_x
 _atom_site_fract_y
 _atom_site_fract_z
 _atom_site_occupancy
  Dy  Dy0  1  0.000000  0.000000  0.001137  1
  Er  Er1  1  0.534374  0.068749  0.512653  1
  Er  Er2  1  0.931251  0.465626  0.512653  1
  Er  Er3  1  0.534374  0.465626  0.512653  1
  Lu  Lu4  1  0.464533  0.929066  0.013663  1
  Lu  Lu5  1  0.070934  0.535467  0.013663  1
  Lu  Lu6  1  0.464533  0.535467  0.013663  1
  Lu  Lu7  1  0.179478  0.358956  0.719291  1
  Lu  Lu8  1  0.641044  0.820522  0.719291  1
  Lu  Lu9  1  0.179478  0.820522  0.719291  1
  Lu  Lu10  1  0.820586  0.641173  0.217754  1
  Lu  Lu11  1  0.358827  0.179414  0.217754  1
  Lu  Lu12  1  0.820586  0.179414  0.217754  1
  Lu  Lu13  1  0.666667  0.333333  0.904167  1
  Lu  Lu14  1  0.333333  0.666667  0.404876  1
  Lu  Lu15  1  0.000000  0.000000  0.500246  1
  In  In16  1  0.836989  0.673977  0.759935  1
  In  In17  1  0.326023  0.163011  0.759935  1
  In  In18  1  0.836989  0.163011  0.759935  1
  In  In19  1  0.163335  0.326670  0.262950  1
  In  In20  1  0.673330  0.836665  0.262950  1
  In  In21  1  0.163335  0.836665  0.262950  1
  Co  Co22  1  0.666667  0.333333  0.285770  1
  Co  Co23  1  0.333333  0.666667  0.789264  1
