# generated using pymatgen
data_YbY3(ReC2)2
_symmetry_space_group_name_H-M   'P 1'
_cell_length_a   5.12642200
_cell_length_b   6.57621376
_cell_length_c   10.03436152
_cell_angle_alpha   88.86142235
_cell_angle_beta   90.00000000
_cell_angle_gamma   90.00000000
_symmetry_Int_Tables_number   1
_chemical_formula_structural   YbY3(ReC2)2
_chemical_formula_sum   'Yb2 Y6 Re4 C8'
_cell_volume   338.21608898
_cell_formula_units_Z   2
loop_
 _symmetry_equiv_pos_site_id
 _symmetry_equiv_pos_as_xyz
  1  'x, y, z'
loop_
 _atom_site_type_symbol
 _atom_site_label
 _atom_site_symmetry_multiplicity
 _atom_site_fract_x
 _atom_site_fract_y
 _atom_site_fract_z
 _atom_site_occupancy
  Yb  Yb0  1  0.750000  0.968346  0.723288  1
  Yb  Yb1  1  0.250000  0.031654  0.276712  1
  Y  Y2  1  0.250000  0.692227  0.553639  1
  Y  Y3  1  0.750000  0.307773  0.446361  1
  Y  Y4  1  0.750000  0.816076  0.053202  1
  Y  Y5  1  0.250000  0.183924  0.946798  1
  Y  Y6  1  0.250000  0.531421  0.222902  1
  Y  Y7  1  0.750000  0.468579  0.777098  1
  Re  Re8  1  0.250000  0.725808  0.860513  1
  Re  Re9  1  0.750000  0.274192  0.139487  1
  Re  Re10  1  0.750000  0.769166  0.359825  1
  Re  Re11  1  0.250000  0.230834  0.640175  1
  C  C12  1  0.250000  0.461605  0.760609  1
  C  C13  1  0.750000  0.538395  0.239391  1
  C  C14  1  0.750000  0.037787  0.260145  1
  C  C15  1  0.250000  0.962213  0.739855  1
  C  C16  1  0.250000  0.811686  0.041884  1
  C  C17  1  0.750000  0.188314  0.958116  1
  C  C18  1  0.750000  0.682276  0.542582  1
  C  C19  1  0.250000  0.317724  0.457418  1
