# generated using pymatgen
data_LiPaVO4
_symmetry_space_group_name_H-M   'P 1'
_cell_length_a   5.13443800
_cell_length_b   6.26178300
_cell_length_c   10.76278600
_cell_angle_alpha   90.00000000
_cell_angle_beta   90.00000000
_cell_angle_gamma   90.00000000
_symmetry_Int_Tables_number   1
_chemical_formula_structural   LiPaVO4
_chemical_formula_sum   'Li4 Pa4 V4 O16'
_cell_volume   346.03149758
_cell_formula_units_Z   4
loop_
 _symmetry_equiv_pos_site_id
 _symmetry_equiv_pos_as_xyz
  1  'x, y, z'
loop_
 _atom_site_type_symbol
 _atom_site_label
 _atom_site_symmetry_multiplicity
 _atom_site_fract_x
 _atom_site_fract_y
 _atom_site_fract_z
 _atom_site_occupancy
  Li  Li0  1  0.551713  0.750000  0.921246  1
  Li  Li1  1  0.051713  0.250000  0.578754  1
  Li  Li2  1  0.448287  0.250000  0.078754  1
  Li  Li3  1  0.948287  0.750000  0.421246  1
  Pa  Pa4  1  0.991716  0.750000  0.730145  1
  Pa  Pa5  1  0.491716  0.250000  0.769855  1
  Pa  Pa6  1  0.008284  0.250000  0.269855  1
  Pa  Pa7  1  0.508284  0.750000  0.230145  1
  V  V8  1  0.500000  0.000000  0.500000  1
  V  V9  1  0.000000  0.000000  0.000000  1
  V  V10  1  0.500000  0.500000  0.500000  1
  V  V11  1  0.000000  0.500000  0.000000  1
  O  O12  1  0.195771  0.750000  0.902326  1
  O  O13  1  0.253054  0.250000  0.426075  1
  O  O14  1  0.246946  0.250000  0.926075  1
  O  O15  1  0.753054  0.750000  0.073925  1
  O  O16  1  0.257254  0.014903  0.162033  1
  O  O17  1  0.757254  0.985097  0.337967  1
  O  O18  1  0.742746  0.514903  0.837967  1
  O  O19  1  0.242746  0.485097  0.662033  1
  O  O20  1  0.742746  0.985097  0.837967  1
  O  O21  1  0.242746  0.014903  0.662033  1
  O  O22  1  0.257254  0.485097  0.162033  1
  O  O23  1  0.757254  0.514903  0.337967  1
  O  O24  1  0.804229  0.250000  0.097674  1
  O  O25  1  0.304229  0.750000  0.402326  1
  O  O26  1  0.746946  0.750000  0.573925  1
  O  O27  1  0.695771  0.250000  0.597674  1
