# generated using pymatgen
data_Hf12Al4ReIr7
_symmetry_space_group_name_H-M   'P 1'
_cell_length_a   8.49687796
_cell_length_b   8.49964221
_cell_length_c   8.49964200
_cell_angle_alpha   60.00000083
_cell_angle_beta   59.98923857
_cell_angle_gamma   59.98924463
_symmetry_Int_Tables_number   1
_chemical_formula_structural   Hf12Al4ReIr7
_chemical_formula_sum   'Hf12 Al4 Re1 Ir7'
_cell_volume   433.98530382
_cell_formula_units_Z   1
loop_
 _symmetry_equiv_pos_site_id
 _symmetry_equiv_pos_as_xyz
  1  'x, y, z'
loop_
 _atom_site_type_symbol
 _atom_site_label
 _atom_site_symmetry_multiplicity
 _atom_site_fract_x
 _atom_site_fract_y
 _atom_site_fract_z
 _atom_site_occupancy
  Hf  Hf0  1  0.806756  0.804013  0.194615  1
  Hf  Hf1  1  0.193810  0.194715  0.805738  1
  Hf  Hf2  1  0.806756  0.194615  0.804013  1
  Hf  Hf3  1  0.193810  0.805738  0.194715  1
  Hf  Hf4  1  0.193810  0.805738  0.805738  1
  Hf  Hf5  1  0.806756  0.194615  0.194615  1
  Hf  Hf6  1  0.443796  0.443388  0.056408  1
  Hf  Hf7  1  0.052433  0.061185  0.443191  1
  Hf  Hf8  1  0.443796  0.056408  0.443388  1
  Hf  Hf9  1  0.052433  0.443191  0.061185  1
  Hf  Hf10  1  0.052433  0.443191  0.443191  1
  Hf  Hf11  1  0.443796  0.056408  0.056408  1
  Al  Al12  1  0.126672  0.624443  0.624443  1
  Al  Al13  1  0.626535  0.120956  0.626254  1
  Al  Al14  1  0.626535  0.626254  0.120956  1
  Al  Al15  1  0.626535  0.626254  0.626254  1
  Re  Re16  1  0.755908  0.414697  0.414697  1
  Ir  Ir17  1  0.414243  0.764258  0.410749  1
  Ir  Ir18  1  0.414243  0.410749  0.764258  1
  Ir  Ir19  1  0.414243  0.410749  0.410749  1
  Ir  Ir20  1  0.483836  0.838722  0.838722  1
  Ir  Ir21  1  0.840289  0.484953  0.837380  1
  Ir  Ir22  1  0.840289  0.837380  0.484953  1
  Ir  Ir23  1  0.840289  0.837380  0.837380  1
