# generated using pymatgen
data_Hf18Mo8RhS
_symmetry_space_group_name_H-M   'P 1'
_cell_length_a   8.69526600
_cell_length_b   8.69526528
_cell_length_c   8.55896300
_cell_angle_alpha   90.00000000
_cell_angle_beta   90.00000000
_cell_angle_gamma   119.99999511
_symmetry_Int_Tables_number   1
_chemical_formula_structural   Hf18Mo8RhS
_chemical_formula_sum   'Hf18 Mo8 Rh1 S1'
_cell_volume   560.42501318
_cell_formula_units_Z   1
loop_
 _symmetry_equiv_pos_site_id
 _symmetry_equiv_pos_as_xyz
  1  'x, y, z'
loop_
 _atom_site_type_symbol
 _atom_site_label
 _atom_site_symmetry_multiplicity
 _atom_site_fract_x
 _atom_site_fract_y
 _atom_site_fract_z
 _atom_site_occupancy
  Hf  Hf0  1  0.198257  0.801743  0.447479  1
  Hf  Hf1  1  0.198257  0.396514  0.447479  1
  Hf  Hf2  1  0.603486  0.801743  0.447479  1
  Hf  Hf3  1  0.803155  0.196845  0.549946  1
  Hf  Hf4  1  0.803155  0.606310  0.549946  1
  Hf  Hf5  1  0.393690  0.196845  0.549946  1
  Hf  Hf6  1  0.803155  0.196845  0.950054  1
  Hf  Hf7  1  0.803155  0.606310  0.950054  1
  Hf  Hf8  1  0.393690  0.196845  0.950054  1
  Hf  Hf9  1  0.198257  0.801743  0.052521  1
  Hf  Hf10  1  0.198257  0.396514  0.052521  1
  Hf  Hf11  1  0.603486  0.801743  0.052521  1
  Hf  Hf12  1  0.542980  0.457020  0.250000  1
  Hf  Hf13  1  0.542980  0.085959  0.250000  1
  Hf  Hf14  1  0.914041  0.457020  0.250000  1
  Hf  Hf15  1  0.456108  0.543892  0.750000  1
  Hf  Hf16  1  0.456108  0.912216  0.750000  1
  Hf  Hf17  1  0.087784  0.543892  0.750000  1
  Mo  Mo18  1  0.887825  0.112175  0.250000  1
  Mo  Mo19  1  0.887825  0.775648  0.250000  1
  Mo  Mo20  1  0.224352  0.112175  0.250000  1
  Mo  Mo21  1  0.110902  0.889098  0.750000  1
  Mo  Mo22  1  0.110902  0.221805  0.750000  1
  Mo  Mo23  1  0.778195  0.889098  0.750000  1
  Mo  Mo24  1  0.000000  0.000000  0.498119  1
  Mo  Mo25  1  0.000000  0.000000  0.001881  1
  Rh  Rh26  1  0.333333  0.666667  0.250000  1
  S  S27  1  0.666667  0.333333  0.750000  1
