# generated using pymatgen
data_K4LaNdI10
_symmetry_space_group_name_H-M   'P 1'
_cell_length_a   9.33808524
_cell_length_b   9.93385900
_cell_length_c   14.74728148
_cell_angle_alpha   90.00000000
_cell_angle_beta   89.79989711
_cell_angle_gamma   90.00000000
_symmetry_Int_Tables_number   1
_chemical_formula_structural   K4LaNdI10
_chemical_formula_sum   'K8 La2 Nd2 I20'
_cell_volume   1367.99700446
_cell_formula_units_Z   2
loop_
 _symmetry_equiv_pos_site_id
 _symmetry_equiv_pos_as_xyz
  1  'x, y, z'
loop_
 _atom_site_type_symbol
 _atom_site_label
 _atom_site_symmetry_multiplicity
 _atom_site_fract_x
 _atom_site_fract_y
 _atom_site_fract_z
 _atom_site_occupancy
  K  K0  1  0.947387  0.003617  0.827705  1
  K  K1  1  0.052613  0.996383  0.172295  1
  K  K2  1  0.447651  0.996463  0.672787  1
  K  K3  1  0.052613  0.503617  0.172295  1
  K  K4  1  0.552349  0.003537  0.327213  1
  K  K5  1  0.947387  0.496383  0.827705  1
  K  K6  1  0.552349  0.496463  0.327213  1
  K  K7  1  0.447651  0.503537  0.672787  1
  La  La8  1  0.921944  0.750000  0.505599  1
  La  La9  1  0.078056  0.250000  0.494401  1
  Nd  Nd10  1  0.420805  0.250000  0.994557  1
  Nd  Nd11  1  0.579195  0.750000  0.005443  1
  I  I12  1  0.129658  0.750000  0.681119  1
  I  I13  1  0.870342  0.250000  0.318881  1
  I  I14  1  0.626609  0.250000  0.821538  1
  I  I15  1  0.373391  0.750000  0.178462  1
  I  I16  1  0.832010  0.046422  0.579093  1
  I  I17  1  0.167990  0.953578  0.420907  1
  I  I18  1  0.335985  0.955333  0.923606  1
  I  I19  1  0.167990  0.546422  0.420907  1
  I  I20  1  0.664015  0.044667  0.076394  1
  I  I21  1  0.832010  0.453578  0.579093  1
  I  I22  1  0.664015  0.455333  0.076394  1
  I  I23  1  0.335985  0.544667  0.923606  1
  I  I24  1  0.568835  0.750000  0.507430  1
  I  I25  1  0.431165  0.250000  0.492570  1
  I  I26  1  0.074274  0.250000  0.992310  1
  I  I27  1  0.925726  0.750000  0.007690  1
  I  I28  1  0.663006  0.750000  0.796007  1
  I  I29  1  0.336994  0.250000  0.203993  1
  I  I30  1  0.164482  0.250000  0.706772  1
  I  I31  1  0.835518  0.750000  0.293228  1
