# generated using pymatgen
data_Ho3Er17Zn3Cd3Ru2
_symmetry_space_group_name_H-M   'P 1'
_cell_length_a   9.43995902
_cell_length_b   9.44604445
_cell_length_c   9.61795000
_cell_angle_alpha   90.00000000
_cell_angle_beta   90.00000000
_cell_angle_gamma   119.98495394
_symmetry_Int_Tables_number   1
_chemical_formula_structural   Ho3Er17Zn3Cd3Ru2
_chemical_formula_sum   'Ho3 Er17 Zn3 Cd3 Ru2'
_cell_volume   742.84647317
_cell_formula_units_Z   1
loop_
 _symmetry_equiv_pos_site_id
 _symmetry_equiv_pos_as_xyz
  1  'x, y, z'
loop_
 _atom_site_type_symbol
 _atom_site_label
 _atom_site_symmetry_multiplicity
 _atom_site_fract_x
 _atom_site_fract_y
 _atom_site_fract_z
 _atom_site_occupancy
  Ho  Ho0  1  0.459144  0.540789  0.750000  1
  Ho  Ho1  1  0.459176  0.918397  0.750000  1
  Ho  Ho2  1  0.081598  0.540780  0.750000  1
  Er  Er3  1  0.999999  0.000023  0.474616  1
  Er  Er4  1  0.999999  0.000023  0.025384  1
  Er  Er5  1  0.208191  0.791789  0.438592  1
  Er  Er6  1  0.208172  0.416379  0.438630  1
  Er  Er7  1  0.583684  0.791842  0.438557  1
  Er  Er8  1  0.790872  0.209175  0.556721  1
  Er  Er9  1  0.790847  0.581680  0.556726  1
  Er  Er10  1  0.418233  0.209111  0.556811  1
  Er  Er11  1  0.790872  0.209175  0.943279  1
  Er  Er12  1  0.790847  0.581680  0.943274  1
  Er  Er13  1  0.418233  0.209111  0.943189  1
  Er  Er14  1  0.208191  0.791789  0.061408  1
  Er  Er15  1  0.208172  0.416379  0.061370  1
  Er  Er16  1  0.583684  0.791842  0.061443  1
  Er  Er17  1  0.541416  0.458728  0.250000  1
  Er  Er18  1  0.541383  0.082710  0.250000  1
  Er  Er19  1  0.917318  0.458654  0.250000  1
  Zn  Zn20  1  0.878344  0.121620  0.250000  1
  Zn  Zn21  1  0.878320  0.756727  0.250000  1
  Zn  Zn22  1  0.243274  0.121658  0.250000  1
  Cd  Cd23  1  0.110296  0.889719  0.750000  1
  Cd  Cd24  1  0.110346  0.220615  0.750000  1
  Cd  Cd25  1  0.779377  0.889659  0.750000  1
  Ru  Ru26  1  0.333332  0.666640  0.250000  1
  Ru  Ru27  1  0.666678  0.333307  0.750000  1
