# generated using pymatgen
data_LaU3(PO5)4
_symmetry_space_group_name_H-M   'P 1'
_cell_length_a   5.58670850
_cell_length_b   8.97251127
_cell_length_c   9.34248177
_cell_angle_alpha   101.18255471
_cell_angle_beta   103.43938080
_cell_angle_gamma   98.34235960
_symmetry_Int_Tables_number   1
_chemical_formula_structural   LaU3(PO5)4
_chemical_formula_sum   'La1 U3 P4 O20'
_cell_volume   437.87289319
_cell_formula_units_Z   1
loop_
 _symmetry_equiv_pos_site_id
 _symmetry_equiv_pos_as_xyz
  1  'x, y, z'
loop_
 _atom_site_type_symbol
 _atom_site_label
 _atom_site_symmetry_multiplicity
 _atom_site_fract_x
 _atom_site_fract_y
 _atom_site_fract_z
 _atom_site_occupancy
  La  La0  1  0.348378  0.294831  0.044164  1
  U  U1  1  0.651171  0.704910  0.954676  1
  U  U2  1  0.333822  0.800842  0.550790  1
  U  U3  1  0.663468  0.198373  0.448650  1
  P  P4  1  0.086016  0.524375  0.765297  1
  P  P5  1  0.906549  0.493669  0.242336  1
  P  P6  1  0.288558  0.917697  0.178230  1
  P  P7  1  0.728475  0.068641  0.817861  1
  O  O8  1  0.010564  0.115688  0.879874  1
  O  O9  1  0.006063  0.849464  0.097949  1
  O  O10  1  0.964333  0.382855  0.636710  1
  O  O11  1  0.013918  0.634182  0.375683  1
  O  O12  1  0.720328  0.370440  0.281156  1
  O  O13  1  0.258701  0.653117  0.726533  1
  O  O14  1  0.440587  0.817887  0.088486  1
  O  O15  1  0.588591  0.173660  0.900176  1
  O  O16  1  0.427501  0.294596  0.500510  1
  O  O17  1  0.556306  0.686072  0.506487  1
  O  O18  1  0.873401  0.592529  0.826928  1
  O  O19  1  0.103196  0.424344  0.179773  1
  O  O20  1  0.280760  0.491697  0.898763  1
  O  O21  1  0.728374  0.549896  0.107904  1
  O  O22  1  0.888456  0.098826  0.385497  1
  O  O23  1  0.118226  0.914117  0.606516  1
  O  O24  1  0.361949  0.914155  0.345902  1
  O  O25  1  0.642708  0.051553  0.642133  1
  O  O26  1  0.368654  0.089282  0.180666  1
  O  O27  1  0.640942  0.892301  0.830350  1
