# generated using pymatgen
data_Zr10AlSiBiPb5
_symmetry_space_group_name_H-M   'P 1'
_cell_length_a   8.84948703
_cell_length_b   8.84948819
_cell_length_c   5.94906001
_cell_angle_alpha   89.99076848
_cell_angle_beta   89.99077263
_cell_angle_gamma   119.81910513
_symmetry_Int_Tables_number   1
_chemical_formula_structural   Zr10AlSiBiPb5
_chemical_formula_sum   'Zr10 Al1 Si1 Bi1 Pb5'
_cell_volume   404.20712697
_cell_formula_units_Z   1
loop_
 _symmetry_equiv_pos_site_id
 _symmetry_equiv_pos_as_xyz
  1  'x, y, z'
loop_
 _atom_site_type_symbol
 _atom_site_label
 _atom_site_symmetry_multiplicity
 _atom_site_fract_x
 _atom_site_fract_y
 _atom_site_fract_z
 _atom_site_occupancy
  Zr  Zr0  1  0.666759  0.333137  0.500444  1
  Zr  Zr1  1  0.333137  0.666759  0.500444  1
  Zr  Zr2  1  0.333038  0.666662  0.999535  1
  Zr  Zr3  1  0.666662  0.333038  0.999535  1
  Zr  Zr4  1  0.739993  0.739993  0.240163  1
  Zr  Zr5  1  0.260021  0.999480  0.240380  1
  Zr  Zr6  1  0.999480  0.260021  0.240380  1
  Zr  Zr7  1  0.260820  0.260820  0.759294  1
  Zr  Zr8  1  0.738287  0.999820  0.759903  1
  Zr  Zr9  1  0.999820  0.738287  0.759903  1
  Al  Al10  1  0.999564  0.999564  0.500976  1
  Si  Si11  1  0.000121  0.000121  0.998960  1
  Bi  Bi12  1  0.392600  0.392600  0.254187  1
  Pb  Pb13  1  0.609501  0.999898  0.254980  1
  Pb  Pb14  1  0.999898  0.609501  0.254980  1
  Pb  Pb15  1  0.611064  0.611064  0.745583  1
  Pb  Pb16  1  0.389894  0.999341  0.745176  1
  Pb  Pb17  1  0.999341  0.389894  0.745176  1
