# generated using pymatgen
data_ErTm7Ti6(Nb3Si8)2
_symmetry_space_group_name_H-M   'P 1'
_cell_length_a   7.02438545
_cell_length_b   7.02495485
_cell_length_c   12.92104123
_cell_angle_alpha   90.06957291
_cell_angle_beta   89.97517581
_cell_angle_gamma   90.00837196
_symmetry_Int_Tables_number   1
_chemical_formula_structural   ErTm7Ti6(Nb3Si8)2
_chemical_formula_sum   'Er1 Tm7 Ti6 Nb6 Si16'
_cell_volume   637.60104294
_cell_formula_units_Z   1
loop_
 _symmetry_equiv_pos_site_id
 _symmetry_equiv_pos_as_xyz
  1  'x, y, z'
loop_
 _atom_site_type_symbol
 _atom_site_label
 _atom_site_symmetry_multiplicity
 _atom_site_fract_x
 _atom_site_fract_y
 _atom_site_fract_z
 _atom_site_occupancy
  Er  Er0  1  0.998882  0.660040  0.033107  1
  Tm  Tm1  1  0.341782  0.000720  0.466280  1
  Tm  Tm2  1  0.499034  0.841808  0.716187  1
  Tm  Tm3  1  0.501178  0.157367  0.216922  1
  Tm  Tm4  1  0.840352  0.499685  0.283698  1
  Tm  Tm5  1  0.158671  0.500684  0.782727  1
  Tm  Tm6  1  0.657671  0.998574  0.966707  1
  Tm  Tm7  1  0.000461  0.341391  0.533042  1
  Ti  Ti8  1  0.507760  0.347727  0.624494  1
  Ti  Ti9  1  0.652638  0.491513  0.875685  1
  Ti  Ti10  1  0.348744  0.507740  0.376020  1
  Ti  Ti11  1  0.847642  0.991962  0.373899  1
  Ti  Ti12  1  0.007806  0.151663  0.125856  1
  Ti  Ti13  1  0.991902  0.847571  0.626092  1
  Nb  Nb14  1  0.328047  0.327870  0.000316  1
  Nb  Nb15  1  0.172046  0.828091  0.250618  1
  Nb  Nb16  1  0.828411  0.172170  0.749866  1
  Nb  Nb17  1  0.671881  0.671431  0.500093  1
  Nb  Nb18  1  0.151732  0.007473  0.874154  1
  Nb  Nb19  1  0.492539  0.651863  0.123582  1
  Si  Si20  1  0.205734  0.132544  0.681579  1
  Si  Si21  1  0.368829  0.704709  0.931272  1
  Si  Si22  1  0.631234  0.295827  0.433357  1
  Si  Si23  1  0.706182  0.364928  0.067700  1
  Si  Si24  1  0.295810  0.631315  0.566787  1
  Si  Si25  1  0.796362  0.869537  0.183510  1
  Si  Si26  1  0.131382  0.204366  0.317522  1
  Si  Si27  1  0.865228  0.794051  0.817032  1
  Si  Si28  1  0.293274  0.954509  0.064236  1
  Si  Si29  1  0.546869  0.793816  0.314560  1
  Si  Si30  1  0.454320  0.208862  0.812645  1
  Si  Si31  1  0.793097  0.545975  0.686191  1
  Si  Si32  1  0.205385  0.451863  0.187522  1
  Si  Si33  1  0.707917  0.046764  0.563236  1
  Si  Si34  1  0.952625  0.295816  0.936599  1
  Si  Si35  1  0.046576  0.707776  0.436909  1
