# generated using pymatgen
data_Cs2Li2CeS4
_symmetry_space_group_name_H-M   'P 1'
_cell_length_a   7.87945756
_cell_length_b   7.87945740
_cell_length_c   7.98191552
_cell_angle_alpha   108.03433724
_cell_angle_beta   108.03433857
_cell_angle_gamma   31.12813155
_symmetry_Int_Tables_number   1
_chemical_formula_structural   Cs2Li2CeS4
_chemical_formula_sum   'Cs2 Li2 Ce1 S4'
_cell_volume   242.59393844
_cell_formula_units_Z   1
loop_
 _symmetry_equiv_pos_site_id
 _symmetry_equiv_pos_as_xyz
  1  'x, y, z'
loop_
 _atom_site_type_symbol
 _atom_site_label
 _atom_site_symmetry_multiplicity
 _atom_site_fract_x
 _atom_site_fract_y
 _atom_site_fract_z
 _atom_site_occupancy
  Cs  Cs0  1  0.860633  0.860633  0.436476  1
  Cs  Cs1  1  0.139367  0.139367  0.563525  1
  Li  Li2  1  0.318832  0.318832  0.009932  1
  Li  Li3  1  0.681168  0.681168  0.990069  1
  Ce  Ce4  1  0.000000  0.000000  0.000000  1
  S  S5  1  0.189749  0.189749  0.146109  1
  S  S6  1  0.480561  0.480561  0.212202  1
  S  S7  1  0.519439  0.519439  0.787799  1
  S  S8  1  0.810252  0.810252  0.853890  1
