# generated using pymatgen
data_SmDy2(Si3Pt2)2
_symmetry_space_group_name_H-M   'P 1'
_cell_length_a   4.27341300
_cell_length_b   8.58738687
_cell_length_c   12.95368500
_cell_angle_alpha   80.29485215
_cell_angle_beta   90.00000000
_cell_angle_gamma   90.00000000
_symmetry_Int_Tables_number   1
_chemical_formula_structural   SmDy2(Si3Pt2)2
_chemical_formula_sum   'Sm2 Dy4 Si12 Pt8'
_cell_volume   468.56391649
_cell_formula_units_Z   2
loop_
 _symmetry_equiv_pos_site_id
 _symmetry_equiv_pos_as_xyz
  1  'x, y, z'
loop_
 _atom_site_type_symbol
 _atom_site_label
 _atom_site_symmetry_multiplicity
 _atom_site_fract_x
 _atom_site_fract_y
 _atom_site_fract_z
 _atom_site_occupancy
  Sm  Sm0  1  0.750000  0.927257  0.815832  1
  Sm  Sm1  1  0.250000  0.073310  0.184358  1
  Dy  Dy2  1  0.250000  0.764915  0.439498  1
  Dy  Dy3  1  0.250000  0.584921  0.185378  1
  Dy  Dy4  1  0.750000  0.234767  0.560460  1
  Dy  Dy5  1  0.750000  0.415220  0.814534  1
  Si  Si6  1  0.750000  0.588422  0.571912  1
  Si  Si7  1  0.750000  0.127076  0.004810  1
  Si  Si8  1  0.750000  0.873298  0.573141  1
  Si  Si9  1  0.250000  0.696057  0.713806  1
  Si  Si10  1  0.750000  0.303804  0.286224  1
  Si  Si11  1  0.750000  0.804004  0.277053  1
  Si  Si12  1  0.250000  0.873510  0.995198  1
  Si  Si13  1  0.250000  0.195915  0.722875  1
  Si  Si14  1  0.250000  0.378814  0.001556  1
  Si  Si15  1  0.250000  0.125604  0.427368  1
  Si  Si16  1  0.750000  0.621666  0.998490  1
  Si  Si17  1  0.250000  0.410658  0.427297  1
  Pt  Pt18  1  0.750000  0.354084  0.098401  1
  Pt  Pt19  1  0.250000  0.970818  0.622949  1
  Pt  Pt20  1  0.750000  0.848642  0.088169  1
  Pt  Pt21  1  0.750000  0.028881  0.377231  1
  Pt  Pt22  1  0.250000  0.646459  0.901601  1
  Pt  Pt23  1  0.250000  0.151979  0.911763  1
  Pt  Pt24  1  0.750000  0.531834  0.376579  1
  Pt  Pt25  1  0.250000  0.468083  0.623517  1
