# generated using pymatgen
data_Nd4Ga18(IrPd)3
_symmetry_space_group_name_H-M   'P 1'
_cell_length_a   7.69463094
_cell_length_b   7.69463302
_cell_length_c   9.64420263
_cell_angle_alpha   89.98707057
_cell_angle_beta   89.98706965
_cell_angle_gamma   119.63871542
_symmetry_Int_Tables_number   1
_chemical_formula_structural   Nd4Ga18(IrPd)3
_chemical_formula_sum   'Nd4 Ga18 Ir3 Pd3'
_cell_volume   496.29763419
_cell_formula_units_Z   1
loop_
 _symmetry_equiv_pos_site_id
 _symmetry_equiv_pos_as_xyz
  1  'x, y, z'
loop_
 _atom_site_type_symbol
 _atom_site_label
 _atom_site_symmetry_multiplicity
 _atom_site_fract_x
 _atom_site_fract_y
 _atom_site_fract_z
 _atom_site_occupancy
  Nd  Nd0  1  0.994927  0.669610  0.249587  1
  Nd  Nd1  1  0.001689  0.327640  0.749914  1
  Nd  Nd2  1  0.672360  0.998311  0.250086  1
  Nd  Nd3  1  0.330390  0.005073  0.750413  1
  Ga  Ga4  1  0.134127  0.131948  0.250685  1
  Ga  Ga5  1  0.868052  0.865873  0.749315  1
  Ga  Ga6  1  0.005323  0.337434  0.079592  1
  Ga  Ga7  1  0.001026  0.665086  0.920942  1
  Ga  Ga8  1  0.999315  0.662215  0.576660  1
  Ga  Ga9  1  0.337785  0.000686  0.423340  1
  Ga  Ga10  1  0.001517  0.338179  0.422485  1
  Ga  Ga11  1  0.661821  0.998483  0.577515  1
  Ga  Ga12  1  0.662566  0.994677  0.920408  1
  Ga  Ga13  1  0.334914  0.998975  0.079058  1
  Ga  Ga14  1  0.337338  0.337432  0.562008  1
  Ga  Ga15  1  0.662568  0.662662  0.437992  1
  Ga  Ga16  1  0.661344  0.664341  0.065648  1
  Ga  Ga17  1  0.335659  0.338656  0.934352  1
  Ga  Ga18  1  0.338072  0.547501  0.250449  1
  Ga  Ga19  1  0.663744  0.457257  0.747533  1
  Ga  Ga20  1  0.542743  0.336256  0.252467  1
  Ga  Ga21  1  0.452499  0.661928  0.749551  1
  Ir  Ir22  1  0.329272  0.670728  0.000000  1
  Ir  Ir23  1  0.328810  0.671190  0.500000  1
  Ir  Ir24  1  0.671393  0.328607  0.500000  1
  Pd  Pd25  1  0.670832  0.329168  0.000000  1
  Pd  Pd26  1  0.000281  0.999719  0.000000  1
  Pd  Pd27  1  0.999638  0.000362  0.500000  1
