# generated using pymatgen
data_TbEu3CdPt
_symmetry_space_group_name_H-M   'P 1'
_cell_length_a   10.22024679
_cell_length_b   10.22024742
_cell_length_c   10.22024600
_cell_angle_alpha   59.99999811
_cell_angle_beta   59.99999607
_cell_angle_gamma   59.99999942
_symmetry_Int_Tables_number   1
_chemical_formula_structural   TbEu3CdPt
_chemical_formula_sum   'Tb4 Eu12 Cd4 Pt4'
_cell_volume   754.86471059
_cell_formula_units_Z   4
loop_
 _symmetry_equiv_pos_site_id
 _symmetry_equiv_pos_as_xyz
  1  'x, y, z'
loop_
 _atom_site_type_symbol
 _atom_site_label
 _atom_site_symmetry_multiplicity
 _atom_site_fract_x
 _atom_site_fract_y
 _atom_site_fract_z
 _atom_site_occupancy
  Tb  Tb0  1  0.343240  0.343240  0.343240  1
  Tb  Tb1  1  0.343240  0.343240  0.970282  1
  Tb  Tb2  1  0.343240  0.970282  0.343240  1
  Tb  Tb3  1  0.970282  0.343240  0.343240  1
  Eu  Eu4  1  0.803717  0.196283  0.196283  1
  Eu  Eu5  1  0.196283  0.803717  0.803717  1
  Eu  Eu6  1  0.196283  0.803717  0.196283  1
  Eu  Eu7  1  0.803717  0.196283  0.803717  1
  Eu  Eu8  1  0.196283  0.196283  0.803717  1
  Eu  Eu9  1  0.803717  0.803717  0.196283  1
  Eu  Eu10  1  0.940663  0.559337  0.559337  1
  Eu  Eu11  1  0.559337  0.940663  0.940663  1
  Eu  Eu12  1  0.559337  0.940663  0.559337  1
  Eu  Eu13  1  0.940663  0.559337  0.940663  1
  Eu  Eu14  1  0.559337  0.559337  0.940663  1
  Eu  Eu15  1  0.940663  0.940663  0.559337  1
  Cd  Cd16  1  0.577942  0.577942  0.577942  1
  Cd  Cd17  1  0.577942  0.577942  0.266176  1
  Cd  Cd18  1  0.577942  0.266176  0.577942  1
  Cd  Cd19  1  0.266176  0.577942  0.577942  1
  Pt  Pt20  1  0.145995  0.145995  0.145995  1
  Pt  Pt21  1  0.145995  0.145995  0.562015  1
  Pt  Pt22  1  0.145995  0.562015  0.145995  1
  Pt  Pt23  1  0.562015  0.145995  0.145995  1
