# generated using pymatgen
data_Nd3Co8P6Ru
_symmetry_space_group_name_H-M   'P 1'
_cell_length_a   3.78407900
_cell_length_b   10.69543500
_cell_length_c   12.47168800
_cell_angle_alpha   90.00000000
_cell_angle_beta   90.00000000
_cell_angle_gamma   90.00000000
_symmetry_Int_Tables_number   1
_chemical_formula_structural   Nd3Co8P6Ru
_chemical_formula_sum   'Nd6 Co16 P12 Ru2'
_cell_volume   504.75878347
_cell_formula_units_Z   2
loop_
 _symmetry_equiv_pos_site_id
 _symmetry_equiv_pos_as_xyz
  1  'x, y, z'
loop_
 _atom_site_type_symbol
 _atom_site_label
 _atom_site_symmetry_multiplicity
 _atom_site_fract_x
 _atom_site_fract_y
 _atom_site_fract_z
 _atom_site_occupancy
  Nd  Nd0  1  0.000000  0.500000  0.522805  1
  Nd  Nd1  1  0.500000  0.000000  0.477195  1
  Nd  Nd2  1  0.500000  0.817123  0.206703  1
  Nd  Nd3  1  0.500000  0.182877  0.206703  1
  Nd  Nd4  1  0.000000  0.682877  0.793297  1
  Nd  Nd5  1  0.000000  0.317123  0.793297  1
  Co  Co6  1  0.500000  0.500000  0.706211  1
  Co  Co7  1  0.000000  0.000000  0.293789  1
  Co  Co8  1  0.000000  0.500000  0.988286  1
  Co  Co9  1  0.500000  0.000000  0.011714  1
  Co  Co10  1  0.500000  0.332533  0.992623  1
  Co  Co11  1  0.500000  0.667467  0.992623  1
  Co  Co12  1  0.000000  0.167467  0.007377  1
  Co  Co13  1  0.000000  0.832533  0.007377  1
  Co  Co14  1  0.500000  0.297316  0.430061  1
  Co  Co15  1  0.500000  0.702684  0.430061  1
  Co  Co16  1  0.000000  0.202684  0.569939  1
  Co  Co17  1  0.000000  0.797316  0.569939  1
  Co  Co18  1  0.500000  0.881514  0.709634  1
  Co  Co19  1  0.500000  0.118486  0.709634  1
  Co  Co20  1  0.000000  0.618486  0.290366  1
  Co  Co21  1  0.000000  0.381514  0.290366  1
  P  P22  1  0.500000  0.500000  0.887053  1
  P  P23  1  0.000000  0.000000  0.112947  1
  P  P24  1  0.500000  0.500000  0.344888  1
  P  P25  1  0.000000  0.000000  0.655112  1
  P  P26  1  0.500000  0.306767  0.614263  1
  P  P27  1  0.500000  0.693233  0.614263  1
  P  P28  1  0.000000  0.193233  0.385737  1
  P  P29  1  0.000000  0.806767  0.385737  1
  P  P30  1  0.500000  0.847735  0.895862  1
  P  P31  1  0.500000  0.152265  0.895862  1
  P  P32  1  0.000000  0.652265  0.104138  1
  P  P33  1  0.000000  0.347735  0.104138  1
  Ru  Ru34  1  0.500000  0.500000  0.157917  1
  Ru  Ru35  1  0.000000  0.000000  0.842083  1
