# generated using pymatgen
data_Cs12MnP3S16
_symmetry_space_group_name_H-M   'P 1'
_cell_length_a   9.77985117
_cell_length_b   11.78969100
_cell_length_c   9.78719517
_cell_angle_alpha   90.00000000
_cell_angle_beta   89.97888785
_cell_angle_gamma   90.00000000
_symmetry_Int_Tables_number   1
_chemical_formula_structural   Cs12MnP3S16
_chemical_formula_sum   'Cs12 Mn1 P3 S16'
_cell_volume   1128.47745589
_cell_formula_units_Z   1
loop_
 _symmetry_equiv_pos_site_id
 _symmetry_equiv_pos_as_xyz
  1  'x, y, z'
loop_
 _atom_site_type_symbol
 _atom_site_label
 _atom_site_symmetry_multiplicity
 _atom_site_fract_x
 _atom_site_fract_y
 _atom_site_fract_z
 _atom_site_occupancy
  Cs  Cs0  1  0.157494  0.750000  0.087074  1
  Cs  Cs1  1  0.537329  0.040760  0.207566  1
  Cs  Cs2  1  0.537329  0.459240  0.207566  1
  Cs  Cs3  1  0.037410  0.040912  0.292560  1
  Cs  Cs4  1  0.037410  0.459088  0.292560  1
  Cs  Cs5  1  0.657790  0.750000  0.412689  1
  Cs  Cs6  1  0.342504  0.250000  0.587796  1
  Cs  Cs7  1  0.962595  0.541234  0.707290  1
  Cs  Cs8  1  0.962595  0.958766  0.707290  1
  Cs  Cs9  1  0.462729  0.540678  0.792728  1
  Cs  Cs10  1  0.462729  0.959322  0.792728  1
  Cs  Cs11  1  0.842438  0.250000  0.912323  1
  Mn  Mn12  1  0.272737  0.250000  0.017434  1
  P  P13  1  0.773017  0.250000  0.481952  1
  P  P14  1  0.226911  0.750000  0.518108  1
  P  P15  1  0.726780  0.750000  0.981969  1
  S  S16  1  0.827212  0.605501  0.045141  1
  S  S17  1  0.827212  0.894499  0.045141  1
  S  S18  1  0.531611  0.750000  0.064004  1
  S  S19  1  0.284423  0.250000  0.233588  1
  S  S20  1  0.784146  0.250000  0.271072  1
  S  S21  1  0.031845  0.750000  0.435984  1
  S  S22  1  0.327523  0.605457  0.454939  1
  S  S23  1  0.327523  0.894543  0.454939  1
  S  S24  1  0.672651  0.105374  0.544867  1
  S  S25  1  0.672651  0.394626  0.544867  1
  S  S26  1  0.968278  0.250000  0.563726  1
  S  S27  1  0.215973  0.750000  0.728763  1
  S  S28  1  0.715606  0.750000  0.771167  1
  S  S29  1  0.473335  0.250000  0.934764  1
  S  S30  1  0.170106  0.101278  0.953701  1
  S  S31  1  0.170106  0.398722  0.953701  1
