# generated using pymatgen
data_Y9ErAl4(GaC4)2
_symmetry_space_group_name_H-M   'P 1'
_cell_length_a   10.87556243
_cell_length_b   10.87507943
_cell_length_c   3.51882300
_cell_angle_alpha   90.00000000
_cell_angle_beta   90.00000000
_cell_angle_gamma   90.03216372
_symmetry_Int_Tables_number   1
_chemical_formula_structural   Y9ErAl4(GaC4)2
_chemical_formula_sum   'Y9 Er1 Al4 Ga2 C8'
_cell_volume   416.18029800
_cell_formula_units_Z   1
loop_
 _symmetry_equiv_pos_site_id
 _symmetry_equiv_pos_as_xyz
  1  'x, y, z'
loop_
 _atom_site_type_symbol
 _atom_site_label
 _atom_site_symmetry_multiplicity
 _atom_site_fract_x
 _atom_site_fract_y
 _atom_site_fract_z
 _atom_site_occupancy
  Y  Y0  1  0.449620  0.272107  0.500000  1
  Y  Y1  1  0.050432  0.772134  0.500000  1
  Y  Y2  1  0.949457  0.227875  0.500000  1
  Y  Y3  1  0.272323  0.550729  0.500000  1
  Y  Y4  1  0.727869  0.449742  0.500000  1
  Y  Y5  1  0.228037  0.050277  0.500000  1
  Y  Y6  1  0.771786  0.949120  0.500000  1
  Y  Y7  1  0.499953  0.999924  0.000000  1
  Y  Y8  1  0.000024  0.500032  0.000000  1
  Er  Er9  1  0.550287  0.729707  0.500000  1
  Al  Al10  1  0.704084  0.203693  0.000000  1
  Al  Al11  1  0.296507  0.795877  0.000000  1
  Al  Al12  1  0.203816  0.296019  0.000000  1
  Al  Al13  1  0.795611  0.703661  0.000000  1
  Ga  Ga14  1  0.500360  0.501454  0.000000  1
  Ga  Ga15  1  0.999765  0.999917  0.000000  1
  C  C16  1  0.633340  0.133334  0.500000  1
  C  C17  1  0.367999  0.865643  0.500000  1
  C  C18  1  0.133533  0.366597  0.500000  1
  C  C19  1  0.866559  0.633440  0.500000  1
  C  C20  1  0.162646  0.662519  0.000000  1
  C  C21  1  0.837453  0.337566  0.000000  1
  C  C22  1  0.661017  0.836128  0.000000  1
  C  C23  1  0.337522  0.162505  0.000000  1
