# generated using pymatgen
data_TbY2Zr7Pb6
_symmetry_space_group_name_H-M   'P 1'
_cell_length_a   8.83824900
_cell_length_b   8.83846872
_cell_length_c   6.00750000
_cell_angle_alpha   90.00000000
_cell_angle_beta   90.00000000
_cell_angle_gamma   119.99918889
_symmetry_Int_Tables_number   1
_chemical_formula_structural   TbY2Zr7Pb6
_chemical_formula_sum   'Tb1 Y2 Zr7 Pb6'
_cell_volume   406.41639817
_cell_formula_units_Z   1
loop_
 _symmetry_equiv_pos_site_id
 _symmetry_equiv_pos_as_xyz
  1  'x, y, z'
loop_
 _atom_site_type_symbol
 _atom_site_label
 _atom_site_symmetry_multiplicity
 _atom_site_fract_x
 _atom_site_fract_y
 _atom_site_fract_z
 _atom_site_occupancy
  Tb  Tb0  1  0.760050  0.000000  0.750000  1
  Y  Y1  1  0.760867  0.757983  0.250000  1
  Y  Y2  1  0.002883  0.242017  0.250000  1
  Zr  Zr3  1  0.331186  0.666918  0.501277  1
  Zr  Zr4  1  0.244469  0.000000  0.250000  1
  Zr  Zr5  1  0.664269  0.333082  0.501277  1
  Zr  Zr6  1  0.002610  0.756344  0.750000  1
  Zr  Zr7  1  0.331186  0.666918  0.998723  1
  Zr  Zr8  1  0.246266  0.243656  0.750000  1
  Zr  Zr9  1  0.664269  0.333082  0.998723  1
  Pb  Pb10  1  0.605926  0.603972  0.750000  1
  Pb  Pb11  1  0.387056  0.000000  0.750000  1
  Pb  Pb12  1  0.600381  0.000000  0.250000  1
  Pb  Pb13  1  0.001953  0.396028  0.750000  1
  Pb  Pb14  1  0.394010  0.391390  0.250000  1
  Pb  Pb15  1  0.002619  0.608610  0.250000  1
