# generated using pymatgen
data_SrTa5Bi3(PbO7)3
_symmetry_space_group_name_H-M   'P 1'
_cell_length_a   7.47099111
_cell_length_b   7.47145214
_cell_length_c   10.16505326
_cell_angle_alpha   89.32249088
_cell_angle_beta   89.48788472
_cell_angle_gamma   60.46880021
_symmetry_Int_Tables_number   1
_chemical_formula_structural   SrTa5Bi3(PbO7)3
_chemical_formula_sum   'Sr1 Ta5 Bi3 Pb3 O21'
_cell_volume   493.65398927
_cell_formula_units_Z   1
loop_
 _symmetry_equiv_pos_site_id
 _symmetry_equiv_pos_as_xyz
  1  'x, y, z'
loop_
 _atom_site_type_symbol
 _atom_site_label
 _atom_site_symmetry_multiplicity
 _atom_site_fract_x
 _atom_site_fract_y
 _atom_site_fract_z
 _atom_site_occupancy
  Sr  Sr0  1  0.005716  0.998153  0.997740  1
  Ta  Ta1  1  0.330988  0.336534  0.697498  1
  Ta  Ta2  1  0.662653  0.666594  0.307018  1
  Ta  Ta3  1  0.503754  0.499666  0.996960  1
  Ta  Ta4  1  0.003180  0.500295  0.004460  1
  Ta  Ta5  1  0.502501  0.999501  0.000449  1
  Bi  Bi6  1  0.116937  0.724696  0.360863  1
  Bi  Bi7  1  0.293666  0.851835  0.638126  1
  Bi  Bi8  1  0.839728  0.289157  0.629761  1
  Pb  Pb9  1  0.144671  0.180221  0.329033  1
  Pb  Pb10  1  0.645625  0.187171  0.315514  1
  Pb  Pb11  1  0.815206  0.841090  0.671951  1
  O  O12  1  0.207906  0.198753  0.595540  1
  O  O13  1  0.602619  0.199635  0.590919  1
  O  O14  1  0.215717  0.590717  0.586265  1
  O  O15  1  0.804748  0.788849  0.413742  1
  O  O16  1  0.421563  0.780426  0.421384  1
  O  O17  1  0.800413  0.396744  0.412608  1
  O  O18  1  0.209639  0.203227  0.039214  1
  O  O19  1  0.591206  0.204867  0.043030  1
  O  O20  1  0.211190  0.587031  0.036812  1
  O  O21  1  0.798256  0.793265  0.964591  1
  O  O22  1  0.414967  0.793474  0.966459  1
  O  O23  1  0.798932  0.411159  0.967074  1
  O  O24  1  0.982595  0.008364  0.238810  1
  O  O25  1  0.995279  0.999389  0.756781  1
  O  O26  1  0.547698  0.534090  0.192486  1
  O  O27  1  0.928628  0.535220  0.195435  1
  O  O28  1  0.545510  0.912590  0.191553  1
  O  O29  1  0.468680  0.457575  0.809531  1
  O  O30  1  0.090349  0.460190  0.813660  1
  O  O31  1  0.468638  0.080162  0.811966  1
  O  O32  1  0.030842  0.989359  0.502767  1
