# generated using pymatgen
data_Zr12Al4Ru5Rh3N4
_symmetry_space_group_name_H-M   'P 1'
_cell_length_a   8.57620264
_cell_length_b   8.56329669
_cell_length_c   8.56329700
_cell_angle_alpha   59.99999492
_cell_angle_beta   60.04976271
_cell_angle_gamma   60.04976329
_symmetry_Int_Tables_number   1
_chemical_formula_structural   Zr12Al4Ru5Rh3N4
_chemical_formula_sum   'Zr12 Al4 Ru5 Rh3 N4'
_cell_volume   445.02895684
_cell_formula_units_Z   1
loop_
 _symmetry_equiv_pos_site_id
 _symmetry_equiv_pos_as_xyz
  1  'x, y, z'
loop_
 _atom_site_type_symbol
 _atom_site_label
 _atom_site_symmetry_multiplicity
 _atom_site_fract_x
 _atom_site_fract_y
 _atom_site_fract_z
 _atom_site_occupancy
  Zr  Zr0  1  0.807568  0.807774  0.192329  1
  Zr  Zr1  1  0.195358  0.189160  0.807741  1
  Zr  Zr2  1  0.807568  0.192329  0.807774  1
  Zr  Zr3  1  0.195358  0.807741  0.189160  1
  Zr  Zr4  1  0.195358  0.807741  0.807741  1
  Zr  Zr5  1  0.807568  0.192329  0.192329  1
  Zr  Zr6  1  0.440343  0.441133  0.059262  1
  Zr  Zr7  1  0.059627  0.059400  0.440486  1
  Zr  Zr8  1  0.440343  0.059262  0.441133  1
  Zr  Zr9  1  0.059627  0.440486  0.059400  1
  Zr  Zr10  1  0.059627  0.440486  0.440486  1
  Zr  Zr11  1  0.440343  0.059262  0.059262  1
  Al  Al12  1  0.121393  0.626202  0.626202  1
  Al  Al13  1  0.625899  0.123407  0.625347  1
  Al  Al14  1  0.625899  0.625347  0.123407  1
  Al  Al15  1  0.625899  0.625347  0.625347  1
  Ru  Ru16  1  0.747514  0.417495  0.417495  1
  Ru  Ru17  1  0.416458  0.748364  0.417588  1
  Ru  Ru18  1  0.416458  0.417588  0.748364  1
  Ru  Ru19  1  0.416458  0.417588  0.417588  1
  Ru  Ru20  1  0.498651  0.833784  0.833784  1
  Rh  Rh21  1  0.833328  0.497158  0.834758  1
  Rh  Rh22  1  0.833328  0.834758  0.497158  1
  Rh  Rh23  1  0.833328  0.834758  0.834758  1
  N  N24  1  0.624584  0.125139  0.125139  1
  N  N25  1  0.124038  0.624199  0.125881  1
  N  N26  1  0.124038  0.125881  0.624199  1
  N  N27  1  0.124038  0.125881  0.125881  1
