# generated using pymatgen
data_Zr16Co4Ir3Pd
_symmetry_space_group_name_H-M   'P 1'
_cell_length_a   8.71199406
_cell_length_b   8.71660192
_cell_length_c   8.71358754
_cell_angle_alpha   59.89876834
_cell_angle_beta   59.94301182
_cell_angle_gamma   59.92548400
_symmetry_Int_Tables_number   1
_chemical_formula_structural   Zr16Co4Ir3Pd
_chemical_formula_sum   'Zr16 Co4 Ir3 Pd1'
_cell_volume   467.06973421
_cell_formula_units_Z   1
loop_
 _symmetry_equiv_pos_site_id
 _symmetry_equiv_pos_as_xyz
  1  'x, y, z'
loop_
 _atom_site_type_symbol
 _atom_site_label
 _atom_site_symmetry_multiplicity
 _atom_site_fract_x
 _atom_site_fract_y
 _atom_site_fract_z
 _atom_site_occupancy
  Zr  Zr0  1  0.064323  0.645600  0.645636  1
  Zr  Zr1  1  0.645553  0.064435  0.645637  1
  Zr  Zr2  1  0.645578  0.645625  0.064361  1
  Zr  Zr3  1  0.646566  0.646548  0.646611  1
  Zr  Zr4  1  0.803956  0.803911  0.195798  1
  Zr  Zr5  1  0.194259  0.194239  0.806487  1
  Zr  Zr6  1  0.804067  0.195699  0.804040  1
  Zr  Zr7  1  0.194207  0.806605  0.194123  1
  Zr  Zr8  1  0.195980  0.803795  0.803810  1
  Zr  Zr9  1  0.806332  0.194386  0.194322  1
  Zr  Zr10  1  0.436124  0.436141  0.058868  1
  Zr  Zr11  1  0.063116  0.063039  0.436705  1
  Zr  Zr12  1  0.436023  0.059000  0.436045  1
  Zr  Zr13  1  0.063160  0.436629  0.063119  1
  Zr  Zr14  1  0.058745  0.436225  0.436230  1
  Zr  Zr15  1  0.436809  0.062963  0.063001  1
  Co  Co16  1  0.426846  0.858560  0.858429  1
  Co  Co17  1  0.858480  0.426822  0.858650  1
  Co  Co18  1  0.858385  0.858682  0.426823  1
  Co  Co19  1  0.857184  0.857075  0.857133  1
  Ir  Ir20  1  0.751930  0.416963  0.417117  1
  Ir  Ir21  1  0.417055  0.751668  0.416885  1
  Ir  Ir22  1  0.417162  0.416839  0.751799  1
  Pd  Pd23  1  0.418159  0.418549  0.418375  1
