# generated using pymatgen
data_Lu3Mg3Sn2Ir
_symmetry_space_group_name_H-M   'P 1'
_cell_length_a   7.33651000
_cell_length_b   7.33650960
_cell_length_c   4.44373600
_cell_angle_alpha   90.00000000
_cell_angle_beta   90.00000000
_cell_angle_gamma   120.00001081
_symmetry_Int_Tables_number   1
_chemical_formula_structural   Lu3Mg3Sn2Ir
_chemical_formula_sum   'Lu3 Mg3 Sn2 Ir1'
_cell_volume   207.13707462
_cell_formula_units_Z   1
loop_
 _symmetry_equiv_pos_site_id
 _symmetry_equiv_pos_as_xyz
  1  'x, y, z'
loop_
 _atom_site_type_symbol
 _atom_site_label
 _atom_site_symmetry_multiplicity
 _atom_site_fract_x
 _atom_site_fract_y
 _atom_site_fract_z
 _atom_site_occupancy
  Lu  Lu0  1  0.607363  0.000000  0.000000  1
  Lu  Lu1  1  0.000000  0.607363  0.000000  1
  Lu  Lu2  1  0.392637  0.392637  0.000000  1
  Mg  Mg3  1  0.228918  0.000000  0.500000  1
  Mg  Mg4  1  0.000000  0.228918  0.500000  1
  Mg  Mg5  1  0.771082  0.771082  0.500000  1
  Sn  Sn6  1  0.333333  0.666667  0.500000  1
  Sn  Sn7  1  0.666667  0.333333  0.500000  1
  Ir  Ir8  1  0.000000  0.000000  0.000000  1
