# generated using pymatgen
data_Ta12Al9Zn13Ir2
_symmetry_space_group_name_H-M   'P 1'
_cell_length_a   8.78961300
_cell_length_b   8.78961162
_cell_length_c   8.18037500
_cell_angle_alpha   90.00000000
_cell_angle_beta   90.00000000
_cell_angle_gamma   119.99998637
_symmetry_Int_Tables_number   1
_chemical_formula_structural   Ta12Al9Zn13Ir2
_chemical_formula_sum   'Ta12 Al9 Zn13 Ir2'
_cell_volume   547.32255261
_cell_formula_units_Z   1
loop_
 _symmetry_equiv_pos_site_id
 _symmetry_equiv_pos_as_xyz
  1  'x, y, z'
loop_
 _atom_site_type_symbol
 _atom_site_label
 _atom_site_symmetry_multiplicity
 _atom_site_fract_x
 _atom_site_fract_y
 _atom_site_fract_z
 _atom_site_occupancy
  Ta  Ta0  1  0.332813  0.000044  0.069016  1
  Ta  Ta1  1  0.667232  0.000044  0.930984  1
  Ta  Ta2  1  0.999956  0.332768  0.069016  1
  Ta  Ta3  1  0.668428  0.000777  0.569370  1
  Ta  Ta4  1  0.999223  0.331572  0.430630  1
  Ta  Ta5  1  0.999956  0.667187  0.930984  1
  Ta  Ta6  1  0.332349  0.000777  0.430630  1
  Ta  Ta7  1  0.999223  0.667651  0.569370  1
  Ta  Ta8  1  0.667232  0.667187  0.069016  1
  Ta  Ta9  1  0.332813  0.332768  0.930984  1
  Ta  Ta10  1  0.332349  0.331572  0.569370  1
  Ta  Ta11  1  0.668428  0.667651  0.430630  1
  Al  Al12  1  0.666667  0.333333  0.500000  1
  Al  Al13  1  0.666667  0.333333  0.000000  1
  Al  Al14  1  0.333333  0.666667  0.000000  1
  Al  Al15  1  0.172049  0.999769  0.750205  1
  Al  Al16  1  0.827721  0.999769  0.249795  1
  Al  Al17  1  0.000231  0.172279  0.750205  1
  Al  Al18  1  0.000231  0.827951  0.249795  1
  Al  Al19  1  0.827721  0.827951  0.750205  1
  Al  Al20  1  0.172049  0.172279  0.249795  1
  Zn  Zn21  1  0.161617  0.495289  0.747409  1
  Zn  Zn22  1  0.838946  0.505122  0.249941  1
  Zn  Zn23  1  0.504711  0.666328  0.747409  1
  Zn  Zn24  1  0.494878  0.161054  0.750059  1
  Zn  Zn25  1  0.494878  0.333824  0.249941  1
  Zn  Zn26  1  0.504711  0.838383  0.252591  1
  Zn  Zn27  1  0.333672  0.838383  0.747409  1
  Zn  Zn28  1  0.666176  0.505122  0.750059  1
  Zn  Zn29  1  0.666176  0.161054  0.249941  1
  Zn  Zn30  1  0.333672  0.495289  0.252591  1
  Zn  Zn31  1  0.838946  0.333824  0.750059  1
  Zn  Zn32  1  0.161617  0.666328  0.252591  1
  Zn  Zn33  1  0.333333  0.666667  0.500000  1
  Ir  Ir34  1  0.000000  0.000000  0.500000  1
  Ir  Ir35  1  0.000000  0.000000  0.000000  1
