# generated using pymatgen
data_Tb2Th(GaPt)3
_symmetry_space_group_name_H-M   'P 1'
_cell_length_a   7.38824303
_cell_length_b   7.38942768
_cell_length_c   3.91943900
_cell_angle_alpha   90.00000000
_cell_angle_beta   90.00000000
_cell_angle_gamma   120.00530584
_symmetry_Int_Tables_number   1
_chemical_formula_structural   Tb2Th(GaPt)3
_chemical_formula_sum   'Tb2 Th1 Ga3 Pt3'
_cell_volume   185.30336048
_cell_formula_units_Z   1
loop_
 _symmetry_equiv_pos_site_id
 _symmetry_equiv_pos_as_xyz
  1  'x, y, z'
loop_
 _atom_site_type_symbol
 _atom_site_label
 _atom_site_symmetry_multiplicity
 _atom_site_fract_x
 _atom_site_fract_y
 _atom_site_fract_z
 _atom_site_occupancy
  Tb  Tb0  1  0.408233  0.409170  0.500000  1
  Tb  Tb1  1  0.591767  0.000937  0.500000  1
  Th  Th2  1  0.000000  0.587056  0.500000  1
  Ga  Ga3  1  0.742202  0.752696  0.000000  1
  Ga  Ga4  1  0.257798  0.010494  0.000000  1
  Ga  Ga5  1  0.000000  0.239740  0.000000  1
  Pt  Pt6  1  0.670954  0.337535  0.000000  1
  Pt  Pt7  1  0.329046  0.666582  0.000000  1
  Pt  Pt8  1  0.000000  0.995791  0.500000  1
