# generated using pymatgen
data_TbEr4In2Bi
_symmetry_space_group_name_H-M   'P 1'
_cell_length_a   8.99585279
_cell_length_b   8.99912920
_cell_length_c   6.57437700
_cell_angle_alpha   90.00000000
_cell_angle_beta   90.00000000
_cell_angle_gamma   120.01204679
_symmetry_Int_Tables_number   1
_chemical_formula_structural   TbEr4In2Bi
_chemical_formula_sum   'Tb2 Er8 In4 Bi2'
_cell_volume   460.86670206
_cell_formula_units_Z   2
loop_
 _symmetry_equiv_pos_site_id
 _symmetry_equiv_pos_as_xyz
  1  'x, y, z'
loop_
 _atom_site_type_symbol
 _atom_site_label
 _atom_site_symmetry_multiplicity
 _atom_site_fract_x
 _atom_site_fract_y
 _atom_site_fract_z
 _atom_site_occupancy
  Tb  Tb0  1  0.769467  0.760853  0.750000  1
  Tb  Tb1  1  0.230533  0.991386  0.750000  1
  Er  Er2  1  0.670873  0.338075  0.006549  1
  Er  Er3  1  0.329127  0.667203  0.006549  1
  Er  Er4  1  0.329127  0.667203  0.493451  1
  Er  Er5  1  0.670873  0.338075  0.493451  1
  Er  Er6  1  0.000000  0.241723  0.750000  1
  Er  Er7  1  0.236782  0.237560  0.250000  1
  Er  Er8  1  0.763218  0.000777  0.250000  1
  Er  Er9  1  0.000000  0.761177  0.250000  1
  In  In10  1  0.000000  0.596939  0.750000  1
  In  In11  1  0.604913  0.606885  0.250000  1
  In  In12  1  0.395087  0.001972  0.250000  1
  In  In13  1  0.000000  0.395736  0.250000  1
  Bi  Bi14  1  0.395098  0.394766  0.750000  1
  Bi  Bi15  1  0.604902  0.999668  0.750000  1
