# generated using pymatgen
data_Li3MgAs6Ir5Rh2
_symmetry_space_group_name_H-M   'P 1'
_cell_length_a   7.01412029
_cell_length_b   7.01363436
_cell_length_c   6.99116308
_cell_angle_alpha   109.49473436
_cell_angle_beta   109.36074786
_cell_angle_gamma   109.49054227
_symmetry_Int_Tables_number   1
_chemical_formula_structural   Li3MgAs6Ir5Rh2
_chemical_formula_sum   'Li3 Mg1 As6 Ir5 Rh2'
_cell_volume   264.97523722
_cell_formula_units_Z   1
loop_
 _symmetry_equiv_pos_site_id
 _symmetry_equiv_pos_as_xyz
  1  'x, y, z'
loop_
 _atom_site_type_symbol
 _atom_site_label
 _atom_site_symmetry_multiplicity
 _atom_site_fract_x
 _atom_site_fract_y
 _atom_site_fract_z
 _atom_site_occupancy
  Li  Li0  1  0.500026  0.999915  0.000121  1
  Li  Li1  1  0.000000  0.499830  0.999616  1
  Li  Li2  1  0.499974  0.499889  0.500095  1
  Mg  Mg3  1  0.000000  0.000028  0.500043  1
  As  As4  1  0.684623  0.684480  0.992772  1
  As  As5  1  0.315772  0.315559  0.007579  1
  As  As6  1  0.000000  0.684543  0.691288  1
  As  As7  1  0.000000  0.316087  0.308324  1
  As  As8  1  0.684228  0.999788  0.691808  1
  As  As9  1  0.315377  0.999857  0.308148  1
  Ir  Ir10  1  0.000000  0.000037  0.999991  1
  Ir  Ir11  1  0.247909  0.496848  0.748435  1
  Ir  Ir12  1  0.752091  0.248939  0.500526  1
  Ir  Ir13  1  0.496893  0.248528  0.748168  1
  Ir  Ir14  1  0.503107  0.751634  0.251275  1
  Rh  Rh15  1  0.751477  0.502757  0.251645  1
  Rh  Rh16  1  0.248523  0.751280  0.500168  1
