# generated using pymatgen
data_Hf6AlAs4PRu6
_symmetry_space_group_name_H-M   'P 1'
_cell_length_a   7.64443719
_cell_length_b   7.67452906
_cell_length_c   7.64443644
_cell_angle_alpha   128.09828387
_cell_angle_beta   120.94072390
_cell_angle_gamma   82.35307226
_symmetry_Int_Tables_number   1
_chemical_formula_structural   Hf6AlAs4PRu6
_chemical_formula_sum   'Hf6 Al1 As4 P1 Ru6'
_cell_volume   291.22385365
_cell_formula_units_Z   1
loop_
 _symmetry_equiv_pos_site_id
 _symmetry_equiv_pos_as_xyz
  1  'x, y, z'
loop_
 _atom_site_type_symbol
 _atom_site_label
 _atom_site_symmetry_multiplicity
 _atom_site_fract_x
 _atom_site_fract_y
 _atom_site_fract_z
 _atom_site_occupancy
  Hf  Hf0  1  0.466112  0.691727  0.725616  1
  Hf  Hf1  1  0.529790  0.251545  0.221755  1
  Hf  Hf2  1  0.747083  0.842798  0.595716  1
  Hf  Hf3  1  0.249476  0.829252  0.079775  1
  Hf  Hf4  1  0.055214  0.258503  0.703288  1
  Hf  Hf5  1  0.950362  0.656080  0.205718  1
  Al  Al6  1  0.271616  0.272894  0.501278  1
  As  As7  1  0.330424  0.585929  0.250177  1
  As  As8  1  0.672118  0.920753  0.260699  1
  As  As9  1  0.160055  0.920753  0.748634  1
  As  As10  1  0.835751  0.585929  0.755504  1
  P  P11  1  0.728434  0.223366  0.994932  1
  Ru  Ru12  1  0.522980  0.495421  0.018333  1
  Ru  Ru13  1  0.977088  0.495421  0.472441  1
  Ru  Ru14  1  0.088788  0.254818  0.097875  1
  Ru  Ru15  1  0.892644  0.009796  0.144674  1
  Ru  Ru16  1  0.365123  0.009796  0.617152  1
  Ru  Ru17  1  0.656943  0.254818  0.666030  1
