# generated using pymatgen
data_Ce2Mn6Tc6P7
_symmetry_space_group_name_H-M   'P 1'
_cell_length_a   9.40040400
_cell_length_b   9.40040329
_cell_length_c   3.83646500
_cell_angle_alpha   90.00000000
_cell_angle_beta   90.00000000
_cell_angle_gamma   119.99999453
_symmetry_Int_Tables_number   1
_chemical_formula_structural   Ce2Mn6Tc6P7
_chemical_formula_sum   'Ce2 Mn6 Tc6 P7'
_cell_volume   293.59922197
_cell_formula_units_Z   1
loop_
 _symmetry_equiv_pos_site_id
 _symmetry_equiv_pos_as_xyz
  1  'x, y, z'
loop_
 _atom_site_type_symbol
 _atom_site_label
 _atom_site_symmetry_multiplicity
 _atom_site_fract_x
 _atom_site_fract_y
 _atom_site_fract_z
 _atom_site_occupancy
  Ce  Ce0  1  0.000000  0.000000  0.000000  1
  Ce  Ce1  1  0.333333  0.666667  0.500000  1
  Mn  Mn2  1  0.085137  0.380642  0.000000  1
  Mn  Mn3  1  0.619358  0.704493  0.000000  1
  Mn  Mn4  1  0.295507  0.914863  0.000000  1
  Mn  Mn5  1  0.819970  0.606386  0.000000  1
  Mn  Mn6  1  0.393614  0.213585  0.000000  1
  Mn  Mn7  1  0.786415  0.180030  0.000000  1
  Tc  Tc8  1  0.064523  0.771559  0.500000  1
  Tc  Tc9  1  0.228441  0.292963  0.500000  1
  Tc  Tc10  1  0.707037  0.935477  0.500000  1
  Tc  Tc11  1  0.878206  0.426727  0.500000  1
  Tc  Tc12  1  0.573273  0.451479  0.500000  1
  Tc  Tc13  1  0.548521  0.121794  0.500000  1
  P  P14  1  0.791460  0.730042  0.500000  1
  P  P15  1  0.269958  0.061418  0.500000  1
  P  P16  1  0.938582  0.208540  0.500000  1
  P  P17  1  0.666667  0.333333  0.000000  1
  P  P18  1  0.070652  0.622995  0.000000  1
  P  P19  1  0.377005  0.447657  0.000000  1
  P  P20  1  0.552343  0.929348  0.000000  1
