# generated using pymatgen
data_GaNi2Mo6IrN2
_symmetry_space_group_name_H-M   'P 1'
_cell_length_a   6.76946000
_cell_length_b   6.75547136
_cell_length_c   6.76526864
_cell_angle_alpha   89.78137462
_cell_angle_beta   90.00000000
_cell_angle_gamma   90.00000000
_symmetry_Int_Tables_number   1
_chemical_formula_structural   GaNi2Mo6IrN2
_chemical_formula_sum   'Ga2 Ni4 Mo12 Ir2 N4'
_cell_volume   309.37952480
_cell_formula_units_Z   2
loop_
 _symmetry_equiv_pos_site_id
 _symmetry_equiv_pos_as_xyz
  1  'x, y, z'
loop_
 _atom_site_type_symbol
 _atom_site_label
 _atom_site_symmetry_multiplicity
 _atom_site_fract_x
 _atom_site_fract_y
 _atom_site_fract_z
 _atom_site_occupancy
  Ga  Ga0  1  0.680303  0.175219  0.931211  1
  Ga  Ga1  1  0.180303  0.824781  0.068789  1
  Ni  Ni2  1  0.063290  0.571236  0.303230  1
  Ni  Ni3  1  0.434897  0.063451  0.177336  1
  Ni  Ni4  1  0.563290  0.428764  0.696770  1
  Ni  Ni5  1  0.934897  0.936549  0.822664  1
  Mo  Mo6  1  0.619919  0.052438  0.539017  1
  Mo  Mo7  1  0.119919  0.947562  0.460983  1
  Mo  Mo8  1  0.871149  0.544132  0.949771  1
  Mo  Mo9  1  0.371149  0.455868  0.050229  1
  Mo  Mo10  1  0.205768  0.623076  0.693650  1
  Mo  Mo11  1  0.296132  0.123590  0.790742  1
  Mo  Mo12  1  0.796132  0.876410  0.209258  1
  Mo  Mo13  1  0.705768  0.376924  0.306350  1
  Mo  Mo14  1  0.052413  0.211597  0.130763  1
  Mo  Mo15  1  0.956207  0.299265  0.624429  1
  Mo  Mo16  1  0.552413  0.788403  0.869237  1
  Mo  Mo17  1  0.456207  0.700735  0.375571  1
  Ir  Ir18  1  0.814482  0.681524  0.569318  1
  Ir  Ir19  1  0.314482  0.318476  0.430682  1
  N  N20  1  0.376617  0.873250  0.620301  1
  N  N21  1  0.876617  0.126750  0.379699  1
  N  N22  1  0.128826  0.374886  0.874861  1
  N  N23  1  0.628826  0.625114  0.125139  1
