# generated using pymatgen
data_Dy8In4PtAu7
_symmetry_space_group_name_H-M   'P 1'
_cell_length_a   8.03477588
_cell_length_b   8.03477646
_cell_length_c   7.30969848
_cell_angle_alpha   90.13459027
_cell_angle_beta   90.13459459
_cell_angle_gamma   90.14191537
_symmetry_Int_Tables_number   1
_chemical_formula_structural   Dy8In4PtAu7
_chemical_formula_sum   'Dy8 In4 Pt1 Au7'
_cell_volume   471.89273822
_cell_formula_units_Z   1
loop_
 _symmetry_equiv_pos_site_id
 _symmetry_equiv_pos_as_xyz
  1  'x, y, z'
loop_
 _atom_site_type_symbol
 _atom_site_label
 _atom_site_symmetry_multiplicity
 _atom_site_fract_x
 _atom_site_fract_y
 _atom_site_fract_z
 _atom_site_occupancy
  Dy  Dy0  1  0.164878  0.164878  0.005415  1
  Dy  Dy1  1  0.842604  0.842604  0.999043  1
  Dy  Dy2  1  0.652546  0.337207  0.495152  1
  Dy  Dy3  1  0.337207  0.652546  0.495152  1
  Dy  Dy4  1  0.673224  0.318571  0.003405  1
  Dy  Dy5  1  0.318571  0.673224  0.003405  1
  Dy  Dy6  1  0.821317  0.821317  0.500789  1
  Dy  Dy7  1  0.184230  0.184230  0.495715  1
  In  In8  1  0.498145  0.002289  0.249191  1
  In  In9  1  0.499527  0.996410  0.749973  1
  In  In10  1  0.002289  0.498145  0.249191  1
  In  In11  1  0.996410  0.499527  0.749973  1
  Pt  Pt12  1  0.372257  0.372257  0.233739  1
  Au  Au13  1  0.629077  0.629077  0.770243  1
  Au  Au14  1  0.630885  0.630885  0.228284  1
  Au  Au15  1  0.872349  0.131933  0.728974  1
  Au  Au16  1  0.871881  0.129752  0.271081  1
  Au  Au17  1  0.370916  0.370916  0.771223  1
  Au  Au18  1  0.129752  0.871881  0.271081  1
  Au  Au19  1  0.131933  0.872349  0.728974  1
