# generated using pymatgen
data_CeU3(FeGe)4
_symmetry_space_group_name_H-M   'P 1'
_cell_length_a   7.16529297
_cell_length_b   4.39248300
_cell_length_c   6.80493258
_cell_angle_alpha   90.00000000
_cell_angle_beta   94.26145185
_cell_angle_gamma   90.00000000
_symmetry_Int_Tables_number   1
_chemical_formula_structural   CeU3(FeGe)4
_chemical_formula_sum   'Ce1 U3 Fe4 Ge4'
_cell_volume   213.58243558
_cell_formula_units_Z   1
loop_
 _symmetry_equiv_pos_site_id
 _symmetry_equiv_pos_as_xyz
  1  'x, y, z'
loop_
 _atom_site_type_symbol
 _atom_site_label
 _atom_site_symmetry_multiplicity
 _atom_site_fract_x
 _atom_site_fract_y
 _atom_site_fract_z
 _atom_site_occupancy
  Ce  Ce0  1  0.029140  0.249999  0.720148  1
  U  U1  1  0.964026  0.750001  0.274137  1
  U  U2  1  0.512054  0.249999  0.801779  1
  U  U3  1  0.488099  0.750001  0.194660  1
  Fe  Fe4  1  0.732556  0.249999  0.034791  1
  Fe  Fe5  1  0.263957  0.750001  0.969786  1
  Fe  Fe6  1  0.381675  0.249999  0.476188  1
  Fe  Fe7  1  0.635712  0.750001  0.527233  1
  Ge  Ge8  1  0.714655  0.249999  0.401699  1
  Ge  Ge9  1  0.286402  0.750001  0.592824  1
  Ge  Ge10  1  0.196792  0.249999  0.131535  1
  Ge  Ge11  1  0.794936  0.750001  0.875221  1
