# generated using pymatgen
data_Hf3Ti(V3Si4)2
_symmetry_space_group_name_H-M   'P 1'
_cell_length_a   6.57772471
_cell_length_b   6.57910861
_cell_length_c   12.17644400
_cell_angle_alpha   90.00000000
_cell_angle_beta   90.00000000
_cell_angle_gamma   90.09203626
_symmetry_Int_Tables_number   1
_chemical_formula_structural   Hf3Ti(V3Si4)2
_chemical_formula_sum   'Hf6 Ti2 V12 Si16'
_cell_volume   526.94181692
_cell_formula_units_Z   2
loop_
 _symmetry_equiv_pos_site_id
 _symmetry_equiv_pos_as_xyz
  1  'x, y, z'
loop_
 _atom_site_type_symbol
 _atom_site_label
 _atom_site_symmetry_multiplicity
 _atom_site_fract_x
 _atom_site_fract_y
 _atom_site_fract_z
 _atom_site_occupancy
  Hf  Hf0  1  0.001086  0.663276  0.029272  1
  Hf  Hf1  1  0.837728  0.502218  0.280294  1
  Hf  Hf2  1  0.162272  0.497782  0.780294  1
  Hf  Hf3  1  0.502198  0.838212  0.720066  1
  Hf  Hf4  1  0.497802  0.161788  0.220066  1
  Hf  Hf5  1  0.998914  0.336724  0.529272  1
  Ti  Ti6  1  0.660267  0.004272  0.970158  1
  Ti  Ti7  1  0.339733  0.995728  0.470158  1
  V  V8  1  0.333333  0.333563  0.000025  1
  V  V9  1  0.167069  0.833906  0.249680  1
  V  V10  1  0.832931  0.166094  0.749680  1
  V  V11  1  0.666667  0.666437  0.500025  1
  V  V12  1  0.004991  0.158014  0.126848  1
  V  V13  1  0.340856  0.504811  0.376558  1
  V  V14  1  0.659144  0.495189  0.876558  1
  V  V15  1  0.502593  0.341133  0.623173  1
  V  V16  1  0.497407  0.658867  0.123173  1
  V  V17  1  0.995009  0.841986  0.626848  1
  V  V18  1  0.159332  0.003003  0.872942  1
  V  V19  1  0.840668  0.996997  0.372942  1
  Si  Si20  1  0.295976  0.961951  0.063328  1
  Si  Si21  1  0.537009  0.794771  0.316767  1
  Si  Si22  1  0.462991  0.205229  0.816767  1
  Si  Si23  1  0.791889  0.539635  0.685406  1
  Si  Si24  1  0.208111  0.460365  0.185406  1
  Si  Si25  1  0.704024  0.038049  0.563328  1
  Si  Si26  1  0.957954  0.287398  0.935509  1
  Si  Si27  1  0.042046  0.712602  0.435509  1
  Si  Si28  1  0.704302  0.368503  0.070141  1
  Si  Si29  1  0.131487  0.201767  0.323929  1
  Si  Si30  1  0.868513  0.798233  0.823929  1
  Si  Si31  1  0.207667  0.126080  0.677199  1
  Si  Si32  1  0.792333  0.873920  0.177199  1
  Si  Si33  1  0.295698  0.631497  0.570141  1
  Si  Si34  1  0.376570  0.708348  0.928702  1
  Si  Si35  1  0.623430  0.291652  0.428702  1
