# generated using pymatgen
data_Sm8InSiI12
_symmetry_space_group_name_H-M   'P 1'
_cell_length_a   4.31058500
_cell_length_b   14.40806013
_cell_length_c   15.21843600
_cell_angle_alpha   89.77094846
_cell_angle_beta   90.00000000
_cell_angle_gamma   90.00000000
_symmetry_Int_Tables_number   1
_chemical_formula_structural   Sm8InSiI12
_chemical_formula_sum   'Sm8 In1 Si1 I12'
_cell_volume   945.16640688
_cell_formula_units_Z   1
loop_
 _symmetry_equiv_pos_site_id
 _symmetry_equiv_pos_as_xyz
  1  'x, y, z'
loop_
 _atom_site_type_symbol
 _atom_site_label
 _atom_site_symmetry_multiplicity
 _atom_site_fract_x
 _atom_site_fract_y
 _atom_site_fract_z
 _atom_site_occupancy
  Sm  Sm0  1  0.500000  0.121323  0.337782  1
  Sm  Sm1  1  0.500000  0.878677  0.662218  1
  Sm  Sm2  1  0.500000  0.612031  0.150662  1
  Sm  Sm3  1  0.500000  0.387969  0.849338  1
  Sm  Sm4  1  0.000000  0.123321  0.582905  1
  Sm  Sm5  1  0.000000  0.876679  0.417095  1
  Sm  Sm6  1  0.000000  0.609850  0.926370  1
  Sm  Sm7  1  0.000000  0.390150  0.073630  1
  In  In8  1  0.500000  0.000000  0.500000  1
  Si  Si9  1  0.500000  0.500000  0.000000  1
  I  I10  1  0.500000  0.248954  0.162011  1
  I  I11  1  0.500000  0.751046  0.837989  1
  I  I12  1  0.500000  0.742040  0.332503  1
  I  I13  1  0.500000  0.257960  0.667497  1
  I  I14  1  0.000000  0.260673  0.415017  1
  I  I15  1  0.000000  0.739327  0.584983  1
  I  I16  1  0.000000  0.755819  0.084247  1
  I  I17  1  0.000000  0.244181  0.915753  1
  I  I18  1  0.000000  0.998859  0.238297  1
  I  I19  1  0.000000  0.001141  0.761703  1
  I  I20  1  0.000000  0.498314  0.256996  1
  I  I21  1  0.000000  0.501686  0.743004  1
