# generated using pymatgen
data_Dy9Lu3In2Tc2Ru
_symmetry_space_group_name_H-M   'P 1'
_cell_length_a   8.40791271
_cell_length_b   8.40080266
_cell_length_c   8.40080019
_cell_angle_alpha   109.53023603
_cell_angle_beta   109.33702983
_cell_angle_gamma   109.51224413
_symmetry_Int_Tables_number   1
_chemical_formula_structural   Dy9Lu3In2Tc2Ru
_chemical_formula_sum   'Dy9 Lu3 In2 Tc2 Ru1'
_cell_volume   456.97192955
_cell_formula_units_Z   1
loop_
 _symmetry_equiv_pos_site_id
 _symmetry_equiv_pos_as_xyz
  1  'x, y, z'
loop_
 _atom_site_type_symbol
 _atom_site_label
 _atom_site_symmetry_multiplicity
 _atom_site_fract_x
 _atom_site_fract_y
 _atom_site_fract_z
 _atom_site_occupancy
  Dy  Dy0  1  0.314774  0.316319  0.631137  1
  Dy  Dy1  1  0.684936  0.680620  0.367751  1
  Dy  Dy2  1  0.684936  0.317185  0.004317  1
  Dy  Dy3  1  0.314774  0.683638  0.998456  1
  Dy  Dy4  1  0.190398  0.434349  0.245453  1
  Dy  Dy5  1  0.812201  0.570489  0.757429  1
  Dy  Dy6  1  0.190398  0.944944  0.756049  1
  Dy  Dy7  1  0.941571  0.185409  0.756162  1
  Dy  Dy8  1  0.812201  0.054774  0.241713  1
  Lu  Lu9  1  0.056414  0.817545  0.238870  1
  Lu  Lu10  1  0.425006  0.183529  0.241477  1
  Lu  Lu11  1  0.576226  0.816025  0.760200  1
  In  In12  1  0.000556  0.499399  0.501157  1
  In  In13  1  0.495440  0.996760  0.498679  1
  Tc  Tc14  1  0.341877  0.341421  0.000456  1
  Tc  Tc15  1  0.999813  0.999330  0.000483  1
  Ru  Ru16  1  0.658479  0.658267  0.000214  1
