# generated using pymatgen
data_PrHoLu2(WO6)2
_symmetry_space_group_name_H-M   'P 1'
_cell_length_a   5.42000600
_cell_length_b   7.72274377
_cell_length_c   11.44301542
_cell_angle_alpha   75.66025528
_cell_angle_beta   90.00000000
_cell_angle_gamma   90.00000000
_symmetry_Int_Tables_number   1
_chemical_formula_structural   PrHoLu2(WO6)2
_chemical_formula_sum   'Pr2 Ho2 Lu4 W4 O24'
_cell_volume   464.05109558
_cell_formula_units_Z   2
loop_
 _symmetry_equiv_pos_site_id
 _symmetry_equiv_pos_as_xyz
  1  'x, y, z'
loop_
 _atom_site_type_symbol
 _atom_site_label
 _atom_site_symmetry_multiplicity
 _atom_site_fract_x
 _atom_site_fract_y
 _atom_site_fract_z
 _atom_site_occupancy
  Pr  Pr0  1  0.313570  0.500000  0.750000  1
  Pr  Pr1  1  0.686430  0.500000  0.250000  1
  Ho  Ho2  1  0.255354  0.000000  0.750000  1
  Ho  Ho3  1  0.744646  0.000000  0.250000  1
  Lu  Lu4  1  0.184736  0.797667  0.077591  1
  Lu  Lu5  1  0.184736  0.202333  0.422409  1
  Lu  Lu6  1  0.815264  0.202333  0.922409  1
  Lu  Lu7  1  0.815264  0.797667  0.577591  1
  W  W8  1  0.745651  0.729339  0.884475  1
  W  W9  1  0.254349  0.729339  0.384475  1
  W  W10  1  0.745651  0.270661  0.615525  1
  W  W11  1  0.254349  0.270661  0.115525  1
  O  O12  1  0.540666  0.157456  0.068076  1
  O  O13  1  0.044899  0.055961  0.102593  1
  O  O14  1  0.012985  0.723540  0.767420  1
  O  O15  1  0.459334  0.157456  0.568076  1
  O  O16  1  0.343677  0.492008  0.387812  1
  O  O17  1  0.955101  0.055961  0.602593  1
  O  O18  1  0.546958  0.798201  0.724444  1
  O  O19  1  0.453042  0.798201  0.224444  1
  O  O20  1  0.140043  0.643684  0.546118  1
  O  O21  1  0.044899  0.944039  0.397407  1
  O  O22  1  0.459334  0.842544  0.931924  1
  O  O23  1  0.453042  0.201799  0.275556  1
  O  O24  1  0.859957  0.356316  0.453882  1
  O  O25  1  0.656323  0.492008  0.887812  1
  O  O26  1  0.343677  0.507992  0.112188  1
  O  O27  1  0.955101  0.944039  0.897407  1
  O  O28  1  0.540666  0.842544  0.431924  1
  O  O29  1  0.987015  0.276460  0.232580  1
  O  O30  1  0.546958  0.201799  0.775556  1
  O  O31  1  0.859957  0.643684  0.046118  1
  O  O32  1  0.012985  0.276460  0.732580  1
  O  O33  1  0.140043  0.356316  0.953882  1
  O  O34  1  0.987015  0.723540  0.267420  1
  O  O35  1  0.656323  0.507992  0.612188  1
