# generated using pymatgen
data_Ho2Er10Tc3Pt
_symmetry_space_group_name_H-M   'P 1'
_cell_length_a   6.26582537
_cell_length_b   7.31916965
_cell_length_c   9.10382300
_cell_angle_alpha   90.00000000
_cell_angle_beta   90.00000000
_cell_angle_gamma   90.04489115
_symmetry_Int_Tables_number   1
_chemical_formula_structural   Ho2Er10Tc3Pt
_chemical_formula_sum   'Ho2 Er10 Tc3 Pt1'
_cell_volume   417.50701112
_cell_formula_units_Z   1
loop_
 _symmetry_equiv_pos_site_id
 _symmetry_equiv_pos_as_xyz
  1  'x, y, z'
loop_
 _atom_site_type_symbol
 _atom_site_label
 _atom_site_symmetry_multiplicity
 _atom_site_fract_x
 _atom_site_fract_y
 _atom_site_fract_z
 _atom_site_occupancy
  Ho  Ho0  1  0.128047  0.456591  0.750000  1
  Ho  Ho1  1  0.371884  0.964496  0.750000  1
  Er  Er2  1  0.328042  0.676765  0.066836  1
  Er  Er3  1  0.166383  0.177321  0.436547  1
  Er  Er4  1  0.668498  0.318363  0.558423  1
  Er  Er5  1  0.835690  0.826530  0.940778  1
  Er  Er6  1  0.668498  0.318363  0.941577  1
  Er  Er7  1  0.835690  0.826530  0.559222  1
  Er  Er8  1  0.328042  0.676765  0.433164  1
  Er  Er9  1  0.166383  0.177321  0.063453  1
  Er  Er10  1  0.873156  0.541833  0.250000  1
  Er  Er11  1  0.623949  0.038209  0.250000  1
  Tc  Tc12  1  0.037989  0.886628  0.250000  1
  Tc  Tc13  1  0.463607  0.388243  0.250000  1
  Tc  Tc14  1  0.957753  0.113482  0.750000  1
  Pt  Pt15  1  0.546390  0.612561  0.750000  1
