# generated using pymatgen
data_K3MgIr2O9
_symmetry_space_group_name_H-M   'P 1'
_cell_length_a   5.84169300
_cell_length_b   5.84169415
_cell_length_c   14.06883400
_cell_angle_alpha   90.00000000
_cell_angle_beta   90.00000000
_cell_angle_gamma   120.00001048
_symmetry_Int_Tables_number   1
_chemical_formula_structural   K3MgIr2O9
_chemical_formula_sum   'K6 Mg2 Ir4 O18'
_cell_volume   415.78252844
_cell_formula_units_Z   2
loop_
 _symmetry_equiv_pos_site_id
 _symmetry_equiv_pos_as_xyz
  1  'x, y, z'
loop_
 _atom_site_type_symbol
 _atom_site_label
 _atom_site_symmetry_multiplicity
 _atom_site_fract_x
 _atom_site_fract_y
 _atom_site_fract_z
 _atom_site_occupancy
  K  K0  1  0.333333  0.666667  0.902805  1
  K  K1  1  0.666667  0.333333  0.097195  1
  K  K2  1  0.000000  0.000000  0.250000  1
  K  K3  1  0.333333  0.666667  0.597195  1
  K  K4  1  0.666667  0.333333  0.402805  1
  K  K5  1  0.000000  0.000000  0.750000  1
  Mg  Mg6  1  0.000000  0.000000  0.000000  1
  Mg  Mg7  1  0.000000  0.000000  0.500000  1
  Ir  Ir8  1  0.333333  0.666667  0.351331  1
  Ir  Ir9  1  0.666667  0.333333  0.648669  1
  Ir  Ir10  1  0.333333  0.666667  0.148669  1
  Ir  Ir11  1  0.666667  0.333333  0.851331  1
  O  O12  1  0.526392  0.473608  0.750000  1
  O  O13  1  0.653173  0.826586  0.080782  1
  O  O14  1  0.173414  0.346827  0.080782  1
  O  O15  1  0.473608  0.947215  0.250000  1
  O  O16  1  0.653173  0.826586  0.419218  1
  O  O17  1  0.826586  0.653173  0.580782  1
  O  O18  1  0.346827  0.173414  0.919218  1
  O  O19  1  0.526392  0.052785  0.750000  1
  O  O20  1  0.173414  0.826586  0.419218  1
  O  O21  1  0.826586  0.173414  0.580782  1
  O  O22  1  0.826586  0.173414  0.919218  1
  O  O23  1  0.173414  0.346827  0.419218  1
  O  O24  1  0.346827  0.173414  0.580782  1
  O  O25  1  0.947215  0.473608  0.750000  1
  O  O26  1  0.826586  0.653173  0.919218  1
  O  O27  1  0.173414  0.826586  0.080782  1
  O  O28  1  0.052785  0.526392  0.250000  1
  O  O29  1  0.473608  0.526392  0.250000  1
