# generated using pymatgen
data_Dy3Al3GePdPt
_symmetry_space_group_name_H-M   'P 1'
_cell_length_a   7.06268000
_cell_length_b   7.06268024
_cell_length_c   4.18416100
_cell_angle_alpha   90.00000000
_cell_angle_beta   90.00000000
_cell_angle_gamma   120.00000824
_symmetry_Int_Tables_number   1
_chemical_formula_structural   Dy3Al3GePdPt
_chemical_formula_sum   'Dy3 Al3 Ge1 Pd1 Pt1'
_cell_volume   180.74989617
_cell_formula_units_Z   1
loop_
 _symmetry_equiv_pos_site_id
 _symmetry_equiv_pos_as_xyz
  1  'x, y, z'
loop_
 _atom_site_type_symbol
 _atom_site_label
 _atom_site_symmetry_multiplicity
 _atom_site_fract_x
 _atom_site_fract_y
 _atom_site_fract_z
 _atom_site_occupancy
  Dy  Dy0  1  0.415390  0.420545  0.500000  1
  Dy  Dy1  1  0.579455  0.994845  0.500000  1
  Dy  Dy2  1  0.005155  0.584610  0.500000  1
  Al  Al3  1  0.013898  0.244986  0.000000  1
  Al  Al4  1  0.755014  0.768912  0.000000  1
  Al  Al5  1  0.231088  0.986102  0.000000  1
  Ge  Ge6  1  0.666667  0.333333  0.000000  1
  Pd  Pd7  1  0.000000  0.000000  0.500000  1
  Pt  Pt8  1  0.333333  0.666667  0.000000  1
