# generated using pymatgen
data_Nd16Cd2Co3NiHg2
_symmetry_space_group_name_H-M   'P 1'
_cell_length_a   9.83565338
_cell_length_b   9.84458978
_cell_length_c   9.85122000
_cell_angle_alpha   59.97771195
_cell_angle_beta   59.94762506
_cell_angle_gamma   60.02885999
_symmetry_Int_Tables_number   1
_chemical_formula_structural   Nd16Cd2Co3NiHg2
_chemical_formula_sum   'Nd16 Cd2 Co3 Ni1 Hg2'
_cell_volume   674.25634004
_cell_formula_units_Z   1
loop_
 _symmetry_equiv_pos_site_id
 _symmetry_equiv_pos_as_xyz
  1  'x, y, z'
loop_
 _atom_site_type_symbol
 _atom_site_label
 _atom_site_symmetry_multiplicity
 _atom_site_fract_x
 _atom_site_fract_y
 _atom_site_fract_z
 _atom_site_occupancy
  Nd  Nd0  1  0.594640  0.598947  0.597593  1
  Nd  Nd1  1  0.594640  0.598947  0.208819  1
  Nd  Nd2  1  0.596221  0.206536  0.598621  1
  Nd  Nd3  1  0.209677  0.597138  0.596592  1
  Nd  Nd4  1  0.063608  0.438683  0.441375  1
  Nd  Nd5  1  0.437333  0.060205  0.061120  1
  Nd  Nd6  1  0.437333  0.060205  0.441343  1
  Nd  Nd7  1  0.063608  0.438683  0.056334  1
  Nd  Nd8  1  0.438067  0.438182  0.061876  1
  Nd  Nd9  1  0.062268  0.054008  0.441862  1
  Nd  Nd10  1  0.187469  0.811305  0.812765  1
  Nd  Nd11  1  0.809446  0.188824  0.188763  1
  Nd  Nd12  1  0.809446  0.188824  0.812967  1
  Nd  Nd13  1  0.187469  0.811305  0.188462  1
  Nd  Nd14  1  0.810480  0.812955  0.188283  1
  Nd  Nd15  1  0.187561  0.188482  0.811979  1
  Cd  Cd16  1  0.829690  0.510921  0.829694  1
  Cd  Cd17  1  0.509802  0.829772  0.830212  1
  Co  Co18  1  0.393184  0.391420  0.389470  1
  Co  Co19  1  0.393184  0.391420  0.825926  1
  Co  Co20  1  0.393591  0.826691  0.389859  1
  Ni  Ni21  1  0.826417  0.392214  0.390685  1
  Hg  Hg22  1  0.832432  0.832166  0.834091  1
  Hg  Hg23  1  0.832432  0.832166  0.501310  1
