# generated using pymatgen
data_Cs6TbTmI12
_symmetry_space_group_name_H-M   'P 1'
_cell_length_a   10.68582026
_cell_length_b   10.68818726
_cell_length_c   8.82251500
_cell_angle_alpha   90.00000000
_cell_angle_beta   90.00000000
_cell_angle_gamma   89.92542490
_symmetry_Int_Tables_number   1
_chemical_formula_structural   Cs6TbTmI12
_chemical_formula_sum   'Cs6 Tb1 Tm1 I12'
_cell_volume   1007.63665342
_cell_formula_units_Z   1
loop_
 _symmetry_equiv_pos_site_id
 _symmetry_equiv_pos_as_xyz
  1  'x, y, z'
loop_
 _atom_site_type_symbol
 _atom_site_label
 _atom_site_symmetry_multiplicity
 _atom_site_fract_x
 _atom_site_fract_y
 _atom_site_fract_z
 _atom_site_occupancy
  Cs  Cs0  1  0.000000  0.000000  0.500000  1
  Cs  Cs1  1  0.000000  0.000000  0.000000  1
  Cs  Cs2  1  0.233499  0.586476  0.500000  1
  Cs  Cs3  1  0.766501  0.413524  0.500000  1
  Cs  Cs4  1  0.413427  0.233769  0.000000  1
  Cs  Cs5  1  0.586573  0.766231  0.000000  1
  Tb  Tb6  1  0.500000  0.000000  0.500000  1
  Tm  Tm7  1  0.000000  0.500000  0.000000  1
  I  I8  1  0.695074  0.058932  0.744630  1
  I  I9  1  0.304926  0.941068  0.744630  1
  I  I10  1  0.941842  0.692322  0.241256  1
  I  I11  1  0.058158  0.307678  0.241256  1
  I  I12  1  0.304926  0.941068  0.255370  1
  I  I13  1  0.695074  0.058932  0.255370  1
  I  I14  1  0.058158  0.307678  0.758744  1
  I  I15  1  0.941842  0.692322  0.758744  1
  I  I16  1  0.572129  0.724296  0.500000  1
  I  I17  1  0.427871  0.275704  0.500000  1
  I  I18  1  0.271593  0.571062  0.000000  1
  I  I19  1  0.728407  0.428938  0.000000  1
