# generated using pymatgen
data_Al8Ru4PtRh3
_symmetry_space_group_name_H-M   'P 1'
_cell_length_a   6.03485000
_cell_length_b   4.25090300
_cell_length_c   8.50526400
_cell_angle_alpha   90.00000000
_cell_angle_beta   90.00013382
_cell_angle_gamma   90.00000000
_symmetry_Int_Tables_number   1
_chemical_formula_structural   Al8Ru4PtRh3
_chemical_formula_sum   'Al8 Ru4 Pt1 Rh3'
_cell_volume   218.19031709
_cell_formula_units_Z   1
loop_
 _symmetry_equiv_pos_site_id
 _symmetry_equiv_pos_as_xyz
  1  'x, y, z'
loop_
 _atom_site_type_symbol
 _atom_site_label
 _atom_site_symmetry_multiplicity
 _atom_site_fract_x
 _atom_site_fract_y
 _atom_site_fract_z
 _atom_site_occupancy
  Al  Al0  1  0.507114  0.750000  0.124991  1
  Al  Al1  1  0.992889  0.750000  0.124997  1
  Al  Al2  1  0.502786  0.250000  0.379132  1
  Al  Al3  1  0.997218  0.250000  0.379136  1
  Al  Al4  1  0.000476  0.750000  0.624985  1
  Al  Al5  1  0.499523  0.750000  0.624989  1
  Al  Al6  1  0.997210  0.250000  0.870880  1
  Al  Al7  1  0.502792  0.250000  0.870884  1
  Ru  Ru8  1  0.750005  0.250000  0.125007  1
  Ru  Ru9  1  0.250004  0.750000  0.372059  1
  Ru  Ru10  1  0.749998  0.250000  0.625009  1
  Ru  Ru11  1  0.249997  0.750000  0.877933  1
  Pt  Pt12  1  0.249998  0.250000  0.125002  1
  Rh  Rh13  1  0.749999  0.750000  0.374622  1
  Rh  Rh14  1  0.249986  0.250000  0.625003  1
  Rh  Rh15  1  0.750003  0.750000  0.875373  1
