# generated using pymatgen
data_Gd4MnNbOs6
_symmetry_space_group_name_H-M   'P 1'
_cell_length_a   5.27727500
_cell_length_b   5.27727384
_cell_length_c   8.89407100
_cell_angle_alpha   90.00000000
_cell_angle_beta   90.00000000
_cell_angle_gamma   117.64575508
_symmetry_Int_Tables_number   1
_chemical_formula_structural   Gd4MnNbOs6
_chemical_formula_sum   'Gd4 Mn1 Nb1 Os6'
_cell_volume   219.41785232
_cell_formula_units_Z   1
loop_
 _symmetry_equiv_pos_site_id
 _symmetry_equiv_pos_as_xyz
  1  'x, y, z'
loop_
 _atom_site_type_symbol
 _atom_site_label
 _atom_site_symmetry_multiplicity
 _atom_site_fract_x
 _atom_site_fract_y
 _atom_site_fract_z
 _atom_site_occupancy
  Gd  Gd0  1  0.329031  0.670969  0.440932  1
  Gd  Gd1  1  0.667135  0.332865  0.568358  1
  Gd  Gd2  1  0.667135  0.332865  0.931642  1
  Gd  Gd3  1  0.329031  0.670969  0.059068  1
  Mn  Mn4  1  0.168583  0.831417  0.750000  1
  Nb  Nb5  1  0.837936  0.162064  0.250000  1
  Os  Os6  1  0.998981  0.001019  0.508955  1
  Os  Os7  1  0.998981  0.001019  0.991045  1
  Os  Os8  1  0.823953  0.654570  0.250000  1
  Os  Os9  1  0.345430  0.176047  0.250000  1
  Os  Os10  1  0.178498  0.344690  0.750000  1
  Os  Os11  1  0.655310  0.821502  0.750000  1
