# generated using pymatgen
data_Sm3FeCo7NiP6
_symmetry_space_group_name_H-M   'P 1'
_cell_length_a   3.75121900
_cell_length_b   10.58799100
_cell_length_c   12.32792600
_cell_angle_alpha   90.00000000
_cell_angle_beta   90.00000000
_cell_angle_gamma   90.00000000
_symmetry_Int_Tables_number   1
_chemical_formula_structural   Sm3FeCo7NiP6
_chemical_formula_sum   'Sm6 Fe2 Co14 Ni2 P12'
_cell_volume   489.63899936
_cell_formula_units_Z   2
loop_
 _symmetry_equiv_pos_site_id
 _symmetry_equiv_pos_as_xyz
  1  'x, y, z'
loop_
 _atom_site_type_symbol
 _atom_site_label
 _atom_site_symmetry_multiplicity
 _atom_site_fract_x
 _atom_site_fract_y
 _atom_site_fract_z
 _atom_site_occupancy
  Sm  Sm0  1  0.000000  0.500000  0.518938  1
  Sm  Sm1  1  0.500000  0.000000  0.481062  1
  Sm  Sm2  1  0.500000  0.815487  0.204551  1
  Sm  Sm3  1  0.500000  0.184513  0.204551  1
  Sm  Sm4  1  0.000000  0.684513  0.795449  1
  Sm  Sm5  1  0.000000  0.315487  0.795449  1
  Fe  Fe6  1  0.500000  0.500000  0.155709  1
  Fe  Fe7  1  0.000000  0.000000  0.844291  1
  Co  Co8  1  0.000000  0.500000  0.986404  1
  Co  Co9  1  0.500000  0.000000  0.013596  1
  Co  Co10  1  0.500000  0.333192  0.995327  1
  Co  Co11  1  0.500000  0.666808  0.995327  1
  Co  Co12  1  0.000000  0.166808  0.004673  1
  Co  Co13  1  0.000000  0.833192  0.004673  1
  Co  Co14  1  0.500000  0.297099  0.430518  1
  Co  Co15  1  0.500000  0.702901  0.430518  1
  Co  Co16  1  0.000000  0.202901  0.569482  1
  Co  Co17  1  0.000000  0.797099  0.569482  1
  Co  Co18  1  0.500000  0.879786  0.710429  1
  Co  Co19  1  0.500000  0.120214  0.710429  1
  Co  Co20  1  0.000000  0.620214  0.289571  1
  Co  Co21  1  0.000000  0.379786  0.289571  1
  Ni  Ni22  1  0.500000  0.500000  0.702648  1
  Ni  Ni23  1  0.000000  0.000000  0.297352  1
  P  P24  1  0.500000  0.500000  0.885234  1
  P  P25  1  0.000000  0.000000  0.114766  1
  P  P26  1  0.500000  0.500000  0.339341  1
  P  P27  1  0.000000  0.000000  0.660659  1
  P  P28  1  0.500000  0.307010  0.614227  1
  P  P29  1  0.500000  0.692990  0.614227  1
  P  P30  1  0.000000  0.192990  0.385773  1
  P  P31  1  0.000000  0.807010  0.385773  1
  P  P32  1  0.500000  0.848575  0.894474  1
  P  P33  1  0.500000  0.151425  0.894474  1
  P  P34  1  0.000000  0.651425  0.105526  1
  P  P35  1  0.000000  0.348575  0.105526  1
