# generated using pymatgen
data_Ho11Er9(CoBi2)4
_symmetry_space_group_name_H-M   'P 1'
_cell_length_a   7.94419573
_cell_length_b   8.87232900
_cell_length_c   12.36883430
_cell_angle_alpha   90.00000000
_cell_angle_beta   90.02508294
_cell_angle_gamma   90.00000000
_symmetry_Int_Tables_number   1
_chemical_formula_structural   Ho11Er9(CoBi2)4
_chemical_formula_sum   'Ho11 Er9 Co4 Bi8'
_cell_volume   871.79887323
_cell_formula_units_Z   1
loop_
 _symmetry_equiv_pos_site_id
 _symmetry_equiv_pos_as_xyz
  1  'x, y, z'
loop_
 _atom_site_type_symbol
 _atom_site_label
 _atom_site_symmetry_multiplicity
 _atom_site_fract_x
 _atom_site_fract_y
 _atom_site_fract_z
 _atom_site_occupancy
  Ho  Ho0  1  0.652825  0.250000  0.300363  1
  Ho  Ho1  1  0.846905  0.250000  0.800175  1
  Ho  Ho2  1  0.152947  0.750000  0.199761  1
  Ho  Ho3  1  0.885245  0.750000  0.811650  1
  Ho  Ho4  1  0.115087  0.250000  0.188367  1
  Ho  Ho5  1  0.384929  0.250000  0.688349  1
  Ho  Ho6  1  0.615119  0.750000  0.311659  1
  Ho  Ho7  1  0.053914  0.750000  0.498017  1
  Ho  Ho8  1  0.946360  0.250000  0.502255  1
  Ho  Ho9  1  0.553493  0.250000  0.001950  1
  Ho  Ho10  1  0.446268  0.750000  0.997749  1
  Er  Er11  1  0.347400  0.750000  0.699219  1
  Er  Er12  1  0.674331  0.538402  0.563276  1
  Er  Er13  1  0.325479  0.462162  0.437032  1
  Er  Er14  1  0.174380  0.461983  0.936905  1
  Er  Er15  1  0.325479  0.037838  0.437032  1
  Er  Er16  1  0.825655  0.537989  0.063027  1
  Er  Er17  1  0.674331  0.961598  0.563276  1
  Er  Er18  1  0.825655  0.962011  0.063027  1
  Er  Er19  1  0.174380  0.038017  0.936905  1
  Co  Co20  1  0.065392  0.750000  0.992274  1
  Co  Co21  1  0.934403  0.250000  0.007718  1
  Co  Co22  1  0.565442  0.250000  0.507859  1
  Co  Co23  1  0.434450  0.750000  0.492302  1
  Bi  Bi24  1  0.570750  0.509686  0.826584  1
  Bi  Bi25  1  0.428946  0.490657  0.173151  1
  Bi  Bi26  1  0.071520  0.490819  0.673320  1
  Bi  Bi27  1  0.428946  0.009343  0.173151  1
  Bi  Bi28  1  0.928850  0.509385  0.326871  1
  Bi  Bi29  1  0.570750  0.990314  0.826584  1
  Bi  Bi30  1  0.928850  0.990615  0.326871  1
  Bi  Bi31  1  0.071520  0.009181  0.673320  1
