# generated using pymatgen
data_Tb5NdAl21Si3Os8
_symmetry_space_group_name_H-M   'P 1'
_cell_length_a   8.75066200
_cell_length_b   8.74227634
_cell_length_c   9.67908314
_cell_angle_alpha   90.01710246
_cell_angle_beta   90.00000000
_cell_angle_gamma   120.03173543
_symmetry_Int_Tables_number   1
_chemical_formula_structural   Tb5NdAl21Si3Os8
_chemical_formula_sum   'Tb5 Nd1 Al21 Si3 Os8'
_cell_volume   641.04910028
_cell_formula_units_Z   1
loop_
 _symmetry_equiv_pos_site_id
 _symmetry_equiv_pos_as_xyz
  1  'x, y, z'
loop_
 _atom_site_type_symbol
 _atom_site_label
 _atom_site_symmetry_multiplicity
 _atom_site_fract_x
 _atom_site_fract_y
 _atom_site_fract_z
 _atom_site_occupancy
  Tb  Tb0  1  0.804912  0.609825  0.753003  1
  Tb  Tb1  1  0.611471  0.806003  0.247422  1
  Tb  Tb2  1  0.390341  0.195131  0.752952  1
  Tb  Tb3  1  0.194533  0.806003  0.247422  1
  Tb  Tb4  1  0.804791  0.195131  0.752952  1
  Nd  Nd5  1  0.192558  0.385115  0.247969  1
  Al  Al6  1  0.333859  0.667718  0.478586  1
  Al  Al7  1  0.164269  0.328538  0.574836  1
  Al  Al8  1  0.835085  0.670170  0.425069  1
  Al  Al9  1  0.671751  0.835879  0.573517  1
  Al  Al10  1  0.834948  0.669897  0.075391  1
  Al  Al11  1  0.330838  0.164564  0.425720  1
  Al  Al12  1  0.165564  0.331127  0.922402  1
  Al  Al13  1  0.164129  0.835879  0.573517  1
  Al  Al14  1  0.331064  0.164682  0.074876  1
  Al  Al15  1  0.833725  0.164564  0.425720  1
  Al  Al16  1  0.669193  0.834693  0.923514  1
  Al  Al17  1  0.833618  0.164682  0.074876  1
  Al  Al18  1  0.165501  0.834693  0.923514  1
  Al  Al19  1  0.563456  0.126912  0.248792  1
  Al  Al20  1  0.436872  0.873743  0.748663  1
  Al  Al21  1  0.871515  0.436746  0.248701  1
  Al  Al22  1  0.126449  0.563449  0.748767  1
  Al  Al23  1  0.565231  0.436746  0.248701  1
  Al  Al24  1  0.437000  0.563449  0.748767  1
  Al  Al25  1  0.998129  0.996258  0.248617  1
  Al  Al26  1  0.000065  0.000130  0.749394  1
  Si  Si27  1  0.334196  0.668393  0.036488  1
  Si  Si28  1  0.666892  0.333784  0.962418  1
  Si  Si29  1  0.666762  0.333523  0.539077  1
  Os  Os30  1  0.500175  0.000351  0.998339  1
  Os  Os31  1  0.999845  0.500652  0.998096  1
  Os  Os32  1  0.504475  0.008950  0.501761  1
  Os  Os33  1  0.500806  0.500652  0.998096  1
  Os  Os34  1  0.990832  0.496068  0.502196  1
  Os  Os35  1  0.505236  0.496068  0.502196  1
  Os  Os36  1  0.999938  0.999876  0.998367  1
  Os  Os37  1  0.999977  0.999954  0.499300  1
