# generated using pymatgen
data_Tb2Pa(Ga2Ni3)3
_symmetry_space_group_name_H-M   'P 1'
_cell_length_a   4.15015200
_cell_length_b   8.72244122
_cell_length_c   8.72244034
_cell_angle_alpha   60.11382135
_cell_angle_beta   90.00000000
_cell_angle_gamma   90.00000000
_symmetry_Int_Tables_number   1
_chemical_formula_structural   Tb2Pa(Ga2Ni3)3
_chemical_formula_sum   'Tb2 Pa1 Ga6 Ni9'
_cell_volume   273.75853099
_cell_formula_units_Z   1
loop_
 _symmetry_equiv_pos_site_id
 _symmetry_equiv_pos_as_xyz
  1  'x, y, z'
loop_
 _atom_site_type_symbol
 _atom_site_label
 _atom_site_symmetry_multiplicity
 _atom_site_fract_x
 _atom_site_fract_y
 _atom_site_fract_z
 _atom_site_occupancy
  Tb  Tb0  1  0.500000  0.333288  0.333269  1
  Tb  Tb1  1  0.500000  0.666731  0.666712  1
  Pa  Pa2  1  0.000000  0.999939  0.000061  1
  Ga  Ga3  1  0.500000  0.724556  0.275444  1
  Ga  Ga4  1  0.500000  0.275335  0.999978  1
  Ga  Ga5  1  0.500000  0.000022  0.724665  1
  Ga  Ga6  1  0.000000  0.482044  0.517956  1
  Ga  Ga7  1  0.000000  0.517984  0.000027  1
  Ga  Ga8  1  0.000000  0.999973  0.482016  1
  Ni  Ni9  1  0.000000  0.194248  0.171564  1
  Ni  Ni10  1  0.000000  0.171555  0.634114  1
  Ni  Ni11  1  0.000000  0.634121  0.194329  1
  Ni  Ni12  1  0.000000  0.828435  0.805752  1
  Ni  Ni13  1  0.000000  0.365886  0.828445  1
  Ni  Ni14  1  0.000000  0.805671  0.365879  1
  Ni  Ni15  1  0.500000  0.291565  0.708435  1
  Ni  Ni16  1  0.500000  0.708581  0.000034  1
  Ni  Ni17  1  0.500000  0.999966  0.291419  1
