# generated using pymatgen
data_EuHo3Er2(SbO7)2
_symmetry_space_group_name_H-M   'P 1'
_cell_length_a   6.45731778
_cell_length_b   6.45731722
_cell_length_c   7.51961024
_cell_angle_alpha   90.01587597
_cell_angle_beta   89.98412044
_cell_angle_gamma   109.03638594
_symmetry_Int_Tables_number   1
_chemical_formula_structural   EuHo3Er2(SbO7)2
_chemical_formula_sum   'Eu1 Ho3 Er2 Sb2 O14'
_cell_volume   296.39753573
_cell_formula_units_Z   1
loop_
 _symmetry_equiv_pos_site_id
 _symmetry_equiv_pos_as_xyz
  1  'x, y, z'
loop_
 _atom_site_type_symbol
 _atom_site_label
 _atom_site_symmetry_multiplicity
 _atom_site_fract_x
 _atom_site_fract_y
 _atom_site_fract_z
 _atom_site_occupancy
  Eu  Eu0  1  0.499785  0.499785  0.000000  1
  Ho  Ho1  1  0.495350  0.495350  0.500000  1
  Ho  Ho2  1  0.531671  0.999819  0.748520  1
  Ho  Ho3  1  0.999819  0.531671  0.251480  1
  Er  Er4  1  0.469135  0.999218  0.251138  1
  Er  Er5  1  0.999218  0.469135  0.748862  1
  Sb  Sb6  1  0.999922  0.999922  0.500000  1
  Sb  Sb7  1  0.000492  0.000492  0.000000  1
  O  O8  1  0.678397  0.929906  0.468766  1
  O  O9  1  0.929906  0.678397  0.531234  1
  O  O10  1  0.678446  0.932699  0.031299  1
  O  O11  1  0.932699  0.678446  0.968701  1
  O  O12  1  0.323251  0.073303  0.529411  1
  O  O13  1  0.073303  0.323251  0.470589  1
  O  O14  1  0.322396  0.067426  0.969890  1
  O  O15  1  0.067426  0.322396  0.030110  1
  O  O16  1  0.928888  0.071815  0.750076  1
  O  O17  1  0.071815  0.928888  0.249924  1
  O  O18  1  0.365630  0.631841  0.741984  1
  O  O19  1  0.631841  0.365630  0.258016  1
  O  O20  1  0.639156  0.361454  0.743985  1
  O  O21  1  0.361454  0.639156  0.256015  1
