# generated using pymatgen
data_Dy2Y4Al24GaOs7
_symmetry_space_group_name_H-M   'P 1'
_cell_length_a   8.86244689
_cell_length_b   8.86244815
_cell_length_c   9.55217608
_cell_angle_alpha   90.12589244
_cell_angle_beta   89.87410754
_cell_angle_gamma   119.86277781
_symmetry_Int_Tables_number   1
_chemical_formula_structural   Dy2Y4Al24GaOs7
_chemical_formula_sum   'Dy2 Y4 Al24 Ga1 Os7'
_cell_volume   650.63551024
_cell_formula_units_Z   1
loop_
 _symmetry_equiv_pos_site_id
 _symmetry_equiv_pos_as_xyz
  1  'x, y, z'
loop_
 _atom_site_type_symbol
 _atom_site_label
 _atom_site_symmetry_multiplicity
 _atom_site_fract_x
 _atom_site_fract_y
 _atom_site_fract_z
 _atom_site_occupancy
  Dy  Dy0  1  0.194331  0.805669  0.256051  1
  Dy  Dy1  1  0.805669  0.194331  0.743949  1
  Y  Y2  1  0.191823  0.385038  0.245505  1
  Y  Y3  1  0.808177  0.614962  0.754495  1
  Y  Y4  1  0.614962  0.808177  0.245505  1
  Y  Y5  1  0.385038  0.191823  0.754495  1
  Al  Al6  1  0.327194  0.672806  0.022106  1
  Al  Al7  1  0.672806  0.327194  0.977894  1
  Al  Al8  1  0.665923  0.334077  0.518602  1
  Al  Al9  1  0.334077  0.665923  0.481398  1
  Al  Al10  1  0.162575  0.325727  0.571588  1
  Al  Al11  1  0.837425  0.674273  0.428412  1
  Al  Al12  1  0.674273  0.837425  0.571588  1
  Al  Al13  1  0.853045  0.678839  0.082049  1
  Al  Al14  1  0.325727  0.162575  0.428412  1
  Al  Al15  1  0.146955  0.321161  0.917951  1
  Al  Al16  1  0.163034  0.836966  0.576169  1
  Al  Al17  1  0.321161  0.146955  0.082049  1
  Al  Al18  1  0.836966  0.163034  0.423831  1
  Al  Al19  1  0.678839  0.853045  0.917951  1
  Al  Al20  1  0.836785  0.163215  0.076968  1
  Al  Al21  1  0.163215  0.836785  0.923032  1
  Al  Al22  1  0.561937  0.121044  0.249615  1
  Al  Al23  1  0.438063  0.878956  0.750385  1
  Al  Al24  1  0.878956  0.438063  0.249615  1
  Al  Al25  1  0.121044  0.561937  0.750385  1
  Al  Al26  1  0.565718  0.434282  0.258174  1
  Al  Al27  1  0.434282  0.565718  0.741826  1
  Al  Al28  1  0.998860  0.001140  0.250799  1
  Al  Al29  1  0.001140  0.998860  0.749201  1
  Ga  Ga30  1  0.500000  0.500000  0.000000  1
  Os  Os31  1  0.500000  0.000000  0.000000  1
  Os  Os32  1  0.000000  0.500000  0.000000  1
  Os  Os33  1  0.500000  0.000000  0.500000  1
  Os  Os34  1  0.000000  0.500000  0.500000  1
  Os  Os35  1  0.500000  0.500000  0.500000  1
  Os  Os36  1  0.000000  0.000000  0.000000  1
  Os  Os37  1  0.000000  0.000000  0.500000  1
