# generated using pymatgen
data_CeU7O16
_symmetry_space_group_name_H-M   'P 1'
_cell_length_a   10.80732278
_cell_length_b   5.40675445
_cell_length_c   5.40542400
_cell_angle_alpha   89.98880949
_cell_angle_beta   89.97821585
_cell_angle_gamma   90.02061765
_symmetry_Int_Tables_number   1
_chemical_formula_structural   CeU7O16
_chemical_formula_sum   'Ce1 U7 O16'
_cell_volume   315.85260790
_cell_formula_units_Z   1
loop_
 _symmetry_equiv_pos_site_id
 _symmetry_equiv_pos_as_xyz
  1  'x, y, z'
loop_
 _atom_site_type_symbol
 _atom_site_label
 _atom_site_symmetry_multiplicity
 _atom_site_fract_x
 _atom_site_fract_y
 _atom_site_fract_z
 _atom_site_occupancy
  Ce  Ce0  1  0.124111  0.500135  0.250641  1
  U  U1  1  0.372918  0.999850  0.250347  1
  U  U2  1  0.880422  0.999313  0.249574  1
  U  U3  1  0.629658  0.499950  0.249593  1
  U  U4  1  0.370448  0.499971  0.750739  1
  U  U5  1  0.125934  0.000688  0.750588  1
  U  U6  1  0.627459  0.000084  0.749399  1
  U  U7  1  0.869855  0.500085  0.749023  1
  O  O8  1  0.997550  0.237439  0.006932  1
  O  O9  1  0.500106  0.757136  0.995102  1
  O  O10  1  0.753621  0.763769  0.001351  1
  O  O11  1  0.753823  0.236235  0.001661  1
  O  O12  1  0.248578  0.244568  0.503358  1
  O  O13  1  0.248363  0.755386  0.503286  1
  O  O14  1  0.997344  0.762743  0.492757  1
  O  O15  1  0.500366  0.243169  0.505020  1
  O  O16  1  0.500139  0.756957  0.504711  1
  O  O17  1  0.997437  0.236599  0.492599  1
  O  O18  1  0.753948  0.236305  0.496307  1
  O  O19  1  0.753872  0.763955  0.496355  1
  O  O20  1  0.248407  0.755600  0.998824  1
  O  O21  1  0.248450  0.244423  0.998855  1
  O  O22  1  0.500026  0.242845  0.995444  1
  O  O23  1  0.997164  0.762791  0.007535  1
