# generated using pymatgen
data_Ho10TlIn8Ir3
_symmetry_space_group_name_H-M   'P 1'
_cell_length_a   8.10383300
_cell_length_b   18.31408990
_cell_length_c   3.62311100
_cell_angle_alpha   90.00000000
_cell_angle_beta   90.00000000
_cell_angle_gamma   89.98208616
_symmetry_Int_Tables_number   1
_chemical_formula_structural   Ho10TlIn8Ir3
_chemical_formula_sum   'Ho10 Tl1 In8 Ir3'
_cell_volume   537.72155101
_cell_formula_units_Z   1
loop_
 _symmetry_equiv_pos_site_id
 _symmetry_equiv_pos_as_xyz
  1  'x, y, z'
loop_
 _atom_site_type_symbol
 _atom_site_label
 _atom_site_symmetry_multiplicity
 _atom_site_fract_x
 _atom_site_fract_y
 _atom_site_fract_z
 _atom_site_occupancy
  Ho  Ho0  1  0.501016  0.502212  0.000000  1
  Ho  Ho1  1  0.999187  0.997727  0.000000  1
  Ho  Ho2  1  0.771797  0.288505  0.000000  1
  Ho  Ho3  1  0.251815  0.722382  0.000000  1
  Ho  Ho4  1  0.752276  0.776243  0.000000  1
  Ho  Ho5  1  0.211683  0.223028  0.000000  1
  Ho  Ho6  1  0.627783  0.071529  0.000000  1
  Ho  Ho7  1  0.384209  0.908687  0.000000  1
  Ho  Ho8  1  0.881752  0.590372  0.000000  1
  Ho  Ho9  1  0.118349  0.417093  0.000000  1
  Tl  Tl10  1  0.529744  0.198148  0.500000  1
  In  In11  1  0.709193  0.927283  0.500000  1
  In  In12  1  0.292407  0.062329  0.500000  1
  In  In13  1  0.795896  0.437066  0.500000  1
  In  In14  1  0.205013  0.569153  0.500000  1
  In  In15  1  0.567549  0.648946  0.500000  1
  In  In16  1  0.420391  0.356207  0.500000  1
  In  In17  1  0.924530  0.146725  0.500000  1
  In  In18  1  0.068452  0.850632  0.500000  1
  Ir  Ir19  1  0.479304  0.802485  0.500000  1
  Ir  Ir20  1  0.978771  0.696495  0.500000  1
  Ir  Ir21  1  0.028880  0.306756  0.500000  1
