# generated using pymatgen
data_Pr7Sm(Si3Pd)4
_symmetry_space_group_name_H-M   'P 1'
_cell_length_a   8.28348642
_cell_length_b   8.28348756
_cell_length_c   8.59463500
_cell_angle_alpha   90.00000000
_cell_angle_beta   90.00000000
_cell_angle_gamma   120.11835225
_symmetry_Int_Tables_number   1
_chemical_formula_structural   Pr7Sm(Si3Pd)4
_chemical_formula_sum   'Pr7 Sm1 Si12 Pd4'
_cell_volume   510.11169943
_cell_formula_units_Z   1
loop_
 _symmetry_equiv_pos_site_id
 _symmetry_equiv_pos_as_xyz
  1  'x, y, z'
loop_
 _atom_site_type_symbol
 _atom_site_label
 _atom_site_symmetry_multiplicity
 _atom_site_fract_x
 _atom_site_fract_y
 _atom_site_fract_z
 _atom_site_occupancy
  Pr  Pr0  1  0.500357  0.499643  0.250000  1
  Pr  Pr1  1  0.000847  0.500397  0.750000  1
  Pr  Pr2  1  0.999313  0.499692  0.250000  1
  Pr  Pr3  1  0.499603  0.999153  0.750000  1
  Pr  Pr4  1  0.500308  0.000687  0.250000  1
  Pr  Pr5  1  0.000042  0.999958  0.750000  1
  Pr  Pr6  1  0.999957  0.000043  0.250000  1
  Sm  Sm7  1  0.499696  0.500304  0.750000  1
  Si  Si8  1  0.834027  0.165973  0.999966  1
  Si  Si9  1  0.165937  0.834063  0.999978  1
  Si  Si10  1  0.331356  0.166470  0.998824  1
  Si  Si11  1  0.165937  0.834063  0.500022  1
  Si  Si12  1  0.668657  0.833544  0.998579  1
  Si  Si13  1  0.834027  0.165973  0.500034  1
  Si  Si14  1  0.833530  0.668644  0.998824  1
  Si  Si15  1  0.668657  0.833544  0.501421  1
  Si  Si16  1  0.166456  0.331343  0.998579  1
  Si  Si17  1  0.331356  0.166470  0.501176  1
  Si  Si18  1  0.166456  0.331343  0.501421  1
  Si  Si19  1  0.833530  0.668644  0.501176  1
  Pd  Pd20  1  0.666324  0.333676  0.996079  1
  Pd  Pd21  1  0.333651  0.666349  0.998754  1
  Pd  Pd22  1  0.333651  0.666349  0.501246  1
  Pd  Pd23  1  0.666324  0.333676  0.503921  1
