# generated using pymatgen
data_CeLu7Sb20
_symmetry_space_group_name_H-M   'P 1'
_cell_length_a   4.22692200
_cell_length_b   13.13731962
_cell_length_c   14.42497596
_cell_angle_alpha   78.83877718
_cell_angle_beta   90.00000000
_cell_angle_gamma   90.00000000
_symmetry_Int_Tables_number   1
_chemical_formula_structural   CeLu7Sb20
_chemical_formula_sum   'Ce1 Lu7 Sb20'
_cell_volume   785.87477229
_cell_formula_units_Z   1
loop_
 _symmetry_equiv_pos_site_id
 _symmetry_equiv_pos_as_xyz
  1  'x, y, z'
loop_
 _atom_site_type_symbol
 _atom_site_label
 _atom_site_symmetry_multiplicity
 _atom_site_fract_x
 _atom_site_fract_y
 _atom_site_fract_z
 _atom_site_occupancy
  Ce  Ce0  1  0.750000  0.046977  0.640177  1
  Lu  Lu1  1  0.250000  0.397173  0.770761  1
  Lu  Lu2  1  0.750000  0.605356  0.229355  1
  Lu  Lu3  1  0.250000  0.659597  0.857486  1
  Lu  Lu4  1  0.750000  0.337773  0.144748  1
  Lu  Lu5  1  0.250000  0.666448  0.576210  1
  Lu  Lu6  1  0.750000  0.333494  0.421976  1
  Lu  Lu7  1  0.250000  0.954455  0.361141  1
  Sb  Sb8  1  0.250000  0.148418  0.779279  1
  Sb  Sb9  1  0.750000  0.856641  0.223407  1
  Sb  Sb10  1  0.250000  0.147601  0.480813  1
  Sb  Sb11  1  0.750000  0.853588  0.518041  1
  Sb  Sb12  1  0.250000  0.152040  0.165409  1
  Sb  Sb13  1  0.750000  0.845250  0.833025  1
  Sb  Sb14  1  0.250000  0.420015  0.977097  1
  Sb  Sb15  1  0.750000  0.577953  0.024114  1
  Sb  Sb16  1  0.750000  0.032167  0.911999  1
  Sb  Sb17  1  0.250000  0.965432  0.086066  1
  Sb  Sb18  1  0.750000  0.140003  0.317862  1
  Sb  Sb19  1  0.250000  0.854541  0.681214  1
  Sb  Sb20  1  0.750000  0.278769  0.937212  1
  Sb  Sb21  1  0.250000  0.719697  0.063924  1
  Sb  Sb22  1  0.750000  0.288062  0.653294  1
  Sb  Sb23  1  0.250000  0.715782  0.346489  1
  Sb  Sb24  1  0.750000  0.576798  0.734691  1
  Sb  Sb25  1  0.250000  0.424240  0.265281  1
  Sb  Sb26  1  0.750000  0.572471  0.447104  1
  Sb  Sb27  1  0.250000  0.429262  0.551826  1
