# generated using pymatgen
data_Pr11In9(AgIr)2
_symmetry_space_group_name_H-M   'P 1'
_cell_length_a   13.66113606
_cell_length_b   13.74024395
_cell_length_c   3.84657000
_cell_angle_alpha   90.00000000
_cell_angle_beta   90.00000000
_cell_angle_gamma   111.13018759
_symmetry_Int_Tables_number   1
_chemical_formula_structural   Pr11In9(AgIr)2
_chemical_formula_sum   'Pr11 In9 Ag2 Ir2'
_cell_volume   673.48286743
_cell_formula_units_Z   1
loop_
 _symmetry_equiv_pos_site_id
 _symmetry_equiv_pos_as_xyz
  1  'x, y, z'
loop_
 _atom_site_type_symbol
 _atom_site_label
 _atom_site_symmetry_multiplicity
 _atom_site_fract_x
 _atom_site_fract_y
 _atom_site_fract_z
 _atom_site_occupancy
  Pr  Pr0  1  0.500000  0.500000  0.500000  1
  Pr  Pr1  1  0.816044  0.798757  0.500000  1
  Pr  Pr2  1  0.183956  0.201243  0.500000  1
  Pr  Pr3  1  0.565503  0.916831  0.500000  1
  Pr  Pr4  1  0.434497  0.083169  0.500000  1
  Pr  Pr5  1  0.917778  0.572907  0.500000  1
  Pr  Pr6  1  0.082222  0.427093  0.500000  1
  Pr  Pr7  1  0.117174  0.858334  0.500000  1
  Pr  Pr8  1  0.882826  0.141666  0.500000  1
  Pr  Pr9  1  0.340805  0.658201  0.500000  1
  Pr  Pr10  1  0.659195  0.341799  0.500000  1
  In  In11  1  0.338391  0.866546  0.000000  1
  In  In12  1  0.661609  0.133454  0.000000  1
  In  In13  1  0.865784  0.339053  0.000000  1
  In  In14  1  0.134216  0.660947  0.000000  1
  In  In15  1  0.575551  0.718948  0.000000  1
  In  In16  1  0.424449  0.281052  0.000000  1
  In  In17  1  0.719165  0.575974  0.000000  1
  In  In18  1  0.280835  0.424026  0.000000  1
  In  In19  1  0.000000  0.000000  0.000000  1
  Ag  Ag20  1  0.753301  0.951152  0.000000  1
  Ag  Ag21  1  0.246699  0.048848  0.000000  1
  Ir  Ir22  1  0.949863  0.741340  0.000000  1
  Ir  Ir23  1  0.050137  0.258660  0.000000  1
