# generated using pymatgen
data_Ta12Zn11GaN4
_symmetry_space_group_name_H-M   'P 1'
_cell_length_a   8.26208856
_cell_length_b   8.25254430
_cell_length_c   8.25254500
_cell_angle_alpha   60.00000922
_cell_angle_beta   60.03821513
_cell_angle_gamma   60.03821025
_symmetry_Int_Tables_number   1
_chemical_formula_structural   Ta12Zn11GaN4
_chemical_formula_sum   'Ta12 Zn11 Ga1 N4'
_cell_volume   398.10831111
_cell_formula_units_Z   1
loop_
 _symmetry_equiv_pos_site_id
 _symmetry_equiv_pos_as_xyz
  1  'x, y, z'
loop_
 _atom_site_type_symbol
 _atom_site_label
 _atom_site_symmetry_multiplicity
 _atom_site_fract_x
 _atom_site_fract_y
 _atom_site_fract_z
 _atom_site_occupancy
  Ta  Ta0  1  0.817862  0.817592  0.182273  1
  Ta  Ta1  1  0.181548  0.180938  0.818757  1
  Ta  Ta2  1  0.817862  0.182273  0.817592  1
  Ta  Ta3  1  0.181548  0.818757  0.180938  1
  Ta  Ta4  1  0.181548  0.818757  0.818757  1
  Ta  Ta5  1  0.817862  0.182273  0.182273  1
  Ta  Ta6  1  0.432079  0.431059  0.068431  1
  Ta  Ta7  1  0.068327  0.067696  0.431989  1
  Ta  Ta8  1  0.432079  0.068431  0.431059  1
  Ta  Ta9  1  0.068327  0.431989  0.067696  1
  Ta  Ta10  1  0.068327  0.431989  0.431989  1
  Ta  Ta11  1  0.432079  0.068431  0.068431  1
  Zn  Zn12  1  0.125655  0.624782  0.624782  1
  Zn  Zn13  1  0.622755  0.122798  0.627224  1
  Zn  Zn14  1  0.622755  0.627224  0.122798  1
  Zn  Zn15  1  0.622755  0.627224  0.627224  1
  Zn  Zn16  1  0.416690  0.749310  0.416999  1
  Zn  Zn17  1  0.416690  0.416999  0.749310  1
  Zn  Zn18  1  0.416690  0.416999  0.416999  1
  Zn  Zn19  1  0.500272  0.833243  0.833243  1
  Zn  Zn20  1  0.833589  0.501469  0.832471  1
  Zn  Zn21  1  0.833589  0.832471  0.501469  1
  Zn  Zn22  1  0.833589  0.832471  0.832471  1
  Ga  Ga23  1  0.752657  0.415781  0.415781  1
  N  N24  1  0.626479  0.124507  0.124507  1
  N  N25  1  0.125462  0.624906  0.124816  1
  N  N26  1  0.125462  0.124816  0.624906  1
  N  N27  1  0.125462  0.124816  0.124816  1
