# generated using pymatgen
data_Pr5Ge5P7Ir19
_symmetry_space_group_name_H-M   'P 1'
_cell_length_a   13.01580558
_cell_length_b   13.02777224
_cell_length_c   4.05379000
_cell_angle_alpha   90.00000000
_cell_angle_beta   90.00000000
_cell_angle_gamma   120.29578668
_symmetry_Int_Tables_number   1
_chemical_formula_structural   Pr5Ge5P7Ir19
_chemical_formula_sum   'Pr5 Ge5 P7 Ir19'
_cell_volume   593.51394020
_cell_formula_units_Z   1
loop_
 _symmetry_equiv_pos_site_id
 _symmetry_equiv_pos_as_xyz
  1  'x, y, z'
loop_
 _atom_site_type_symbol
 _atom_site_label
 _atom_site_symmetry_multiplicity
 _atom_site_fract_x
 _atom_site_fract_y
 _atom_site_fract_z
 _atom_site_occupancy
  Pr  Pr0  1  0.665936  0.330049  0.000000  1
  Pr  Pr1  1  0.332854  0.668212  0.000000  1
  Pr  Pr2  1  0.816348  0.814826  0.500000  1
  Pr  Pr3  1  0.182807  0.002347  0.500000  1
  Pr  Pr4  1  0.002430  0.183864  0.500000  1
  Ge  Ge5  1  0.678188  0.157159  0.500000  1
  Ge  Ge6  1  0.836681  0.516781  0.500000  1
  Ge  Ge7  1  0.636735  0.637828  0.000000  1
  Ge  Ge8  1  0.360637  0.999626  0.000000  1
  Ge  Ge9  1  0.001207  0.362713  0.000000  1
  P  P10  1  0.480035  0.312928  0.500000  1
  P  P11  1  0.175942  0.696001  0.500000  1
  P  P12  1  0.519355  0.824409  0.500000  1
  P  P13  1  0.303806  0.484467  0.500000  1
  P  P14  1  0.181030  0.184452  0.000000  1
  P  P15  1  0.819695  0.995910  0.000000  1
  P  P16  1  0.000941  0.819993  0.000000  1
  Ir  Ir17  1  0.807723  0.169990  0.000000  1
  Ir  Ir18  1  0.824880  0.631161  0.000000  1
  Ir  Ir19  1  0.374411  0.205202  0.000000  1
  Ir  Ir20  1  0.176228  0.793471  0.000000  1
  Ir  Ir21  1  0.615169  0.822189  0.000000  1
  Ir  Ir22  1  0.208431  0.384240  0.000000  1
  Ir  Ir23  1  0.451272  0.448181  0.000000  1
  Ir  Ir24  1  0.554168  0.011331  0.000000  1
  Ir  Ir25  1  0.989777  0.545197  0.000000  1
  Ir  Ir26  1  0.289314  0.292828  0.500000  1
  Ir  Ir27  1  0.719170  0.991291  0.500000  1
  Ir  Ir28  1  0.006795  0.723927  0.500000  1
  Ir  Ir29  1  0.871253  0.349948  0.500000  1
  Ir  Ir30  1  0.636665  0.505214  0.500000  1
  Ir  Ir31  1  0.477607  0.130827  0.500000  1
  Ir  Ir32  1  0.369057  0.871466  0.500000  1
  Ir  Ir33  1  0.502454  0.632650  0.500000  1
  Ir  Ir34  1  0.128070  0.497825  0.500000  1
  Ir  Ir35  1  0.002929  0.001501  0.000000  1
