# generated using pymatgen
data_Tb8Dy8In4Ir3Pt
_symmetry_space_group_name_H-M   'P 1'
_cell_length_a   9.67218876
_cell_length_b   9.66758936
_cell_length_c   9.66668744
_cell_angle_alpha   60.33162215
_cell_angle_beta   60.41292912
_cell_angle_gamma   60.38042228
_symmetry_Int_Tables_number   1
_chemical_formula_structural   Tb8Dy8In4Ir3Pt
_chemical_formula_sum   'Tb8 Dy8 In4 Ir3 Pt1'
_cell_volume   644.57461825
_cell_formula_units_Z   1
loop_
 _symmetry_equiv_pos_site_id
 _symmetry_equiv_pos_as_xyz
  1  'x, y, z'
loop_
 _atom_site_type_symbol
 _atom_site_label
 _atom_site_symmetry_multiplicity
 _atom_site_fract_x
 _atom_site_fract_y
 _atom_site_fract_z
 _atom_site_occupancy
  Tb  Tb0  1  0.102482  0.102551  0.698576  1
  Tb  Tb1  1  0.689633  0.313204  0.689708  1
  Tb  Tb2  1  0.690082  0.689902  0.312459  1
  Tb  Tb3  1  0.690050  0.311538  0.310706  1
  Tb  Tb4  1  0.311883  0.689845  0.690070  1
  Tb  Tb5  1  0.559389  0.940533  0.559224  1
  Tb  Tb6  1  0.698730  0.102955  0.102486  1
  Tb  Tb7  1  0.554195  0.941260  0.941574  1
  Dy  Dy8  1  0.102825  0.698639  0.102407  1
  Dy  Dy9  1  0.942157  0.940877  0.554137  1
  Dy  Dy10  1  0.942036  0.554214  0.941064  1
  Dy  Dy11  1  0.309962  0.690612  0.310801  1
  Dy  Dy12  1  0.941554  0.558925  0.558936  1
  Dy  Dy13  1  0.309718  0.311382  0.690616  1
  Dy  Dy14  1  0.096682  0.097179  0.097283  1
  Dy  Dy15  1  0.559025  0.558873  0.941072  1
  In  In16  1  0.332796  0.333160  0.332965  1
  In  In17  1  0.001975  0.333023  0.332685  1
  In  In18  1  0.332676  0.001692  0.332827  1
  In  In19  1  0.332685  0.333042  0.001582  1
  Ir  Ir20  1  0.891745  0.889782  0.325037  1
  Ir  Ir21  1  0.324478  0.890004  0.891644  1
  Ir  Ir22  1  0.890677  0.325906  0.890377  1
  Pt  Pt23  1  0.892564  0.890901  0.891760  1
