# generated using pymatgen
data_Y6Al24Ru7Rh
_symmetry_space_group_name_H-M   'P 1'
_cell_length_a   8.80408600
_cell_length_b   8.79888499
_cell_length_c   9.57230801
_cell_angle_alpha   89.88082878
_cell_angle_beta   90.00000000
_cell_angle_gamma   120.01956282
_symmetry_Int_Tables_number   1
_chemical_formula_structural   Y6Al24Ru7Rh
_chemical_formula_sum   'Y6 Al24 Ru7 Rh1'
_cell_volume   642.05512226
_cell_formula_units_Z   1
loop_
 _symmetry_equiv_pos_site_id
 _symmetry_equiv_pos_as_xyz
  1  'x, y, z'
loop_
 _atom_site_type_symbol
 _atom_site_label
 _atom_site_symmetry_multiplicity
 _atom_site_fract_x
 _atom_site_fract_y
 _atom_site_fract_z
 _atom_site_occupancy
  Y  Y0  1  0.192079  0.806391  0.249311  1
  Y  Y1  1  0.193352  0.386705  0.249630  1
  Y  Y2  1  0.614311  0.806391  0.249311  1
  Y  Y3  1  0.807921  0.193609  0.750689  1
  Y  Y4  1  0.806648  0.613295  0.750370  1
  Y  Y5  1  0.385689  0.193609  0.750689  1
  Al  Al6  1  0.561169  0.438366  0.250327  1
  Al  Al7  1  0.561337  0.122674  0.249256  1
  Al  Al8  1  0.877197  0.438366  0.250327  1
  Al  Al9  1  0.438831  0.561634  0.749673  1
  Al  Al10  1  0.438663  0.877326  0.750744  1
  Al  Al11  1  0.122803  0.561634  0.749673  1
  Al  Al12  1  0.325163  0.164252  0.422812  1
  Al  Al13  1  0.839089  0.164252  0.422812  1
  Al  Al14  1  0.837289  0.674578  0.422634  1
  Al  Al15  1  0.674837  0.835748  0.577188  1
  Al  Al16  1  0.160911  0.835748  0.577188  1
  Al  Al17  1  0.162711  0.325422  0.577366  1
  Al  Al18  1  0.674565  0.837397  0.923060  1
  Al  Al19  1  0.162832  0.837397  0.923060  1
  Al  Al20  1  0.162921  0.325841  0.922970  1
  Al  Al21  1  0.325435  0.162603  0.076940  1
  Al  Al22  1  0.837168  0.162603  0.076940  1
  Al  Al23  1  0.837079  0.674159  0.077030  1
  Al  Al24  1  0.667576  0.335150  0.516752  1
  Al  Al25  1  0.332424  0.664850  0.483248  1
  Al  Al26  1  0.333317  0.666636  0.016430  1
  Al  Al27  1  0.666683  0.333364  0.983570  1
  Al  Al28  1  0.999800  0.999600  0.249939  1
  Al  Al29  1  0.000200  0.000400  0.750061  1
  Ru  Ru30  1  0.000000  0.000000  0.500000  1
  Ru  Ru31  1  0.000000  0.000000  0.000000  1
  Ru  Ru32  1  0.500000  0.500000  0.500000  1
  Ru  Ru33  1  0.000000  0.500000  0.500000  1
  Ru  Ru34  1  0.500000  0.500000  0.000000  1
  Ru  Ru35  1  0.500000  0.000000  0.000000  1
  Ru  Ru36  1  0.000000  0.500000  0.000000  1
  Rh  Rh37  1  0.500000  0.000000  0.500000  1
