# generated using pymatgen
data_La6Nd10Cd4TcNi3
_symmetry_space_group_name_H-M   'P 1'
_cell_length_a   9.96387622
_cell_length_b   10.01235300
_cell_length_c   10.01174819
_cell_angle_alpha   59.06648681
_cell_angle_beta   59.51369919
_cell_angle_gamma   59.51582815
_symmetry_Int_Tables_number   1
_chemical_formula_structural   La6Nd10Cd4TcNi3
_chemical_formula_sum   'La6 Nd10 Cd4 Tc1 Ni3'
_cell_volume   696.02038673
_cell_formula_units_Z   1
loop_
 _symmetry_equiv_pos_site_id
 _symmetry_equiv_pos_as_xyz
  1  'x, y, z'
loop_
 _atom_site_type_symbol
 _atom_site_label
 _atom_site_symmetry_multiplicity
 _atom_site_fract_x
 _atom_site_fract_y
 _atom_site_fract_z
 _atom_site_occupancy
  La  La0  1  0.596660  0.598836  0.598801  1
  La  La1  1  0.598018  0.595262  0.209750  1
  La  La2  1  0.598028  0.209743  0.595245  1
  La  La3  1  0.208637  0.598922  0.598894  1
  La  La4  1  0.066167  0.435640  0.435651  1
  La  La5  1  0.436863  0.059423  0.059481  1
  Nd  Nd6  1  0.439315  0.059192  0.439597  1
  Nd  Nd7  1  0.055911  0.439316  0.057345  1
  Nd  Nd8  1  0.439335  0.439612  0.059230  1
  Nd  Nd9  1  0.055980  0.057304  0.439305  1
  Nd  Nd10  1  0.183367  0.817459  0.817410  1
  Nd  Nd11  1  0.805552  0.187469  0.187461  1
  Nd  Nd12  1  0.816082  0.185747  0.815373  1
  Nd  Nd13  1  0.188995  0.805045  0.188317  1
  Nd  Nd14  1  0.816017  0.815393  0.185765  1
  Nd  Nd15  1  0.188973  0.188307  0.805027  1
  Cd  Cd16  1  0.831209  0.828829  0.828818  1
  Cd  Cd17  1  0.829158  0.831488  0.507877  1
  Cd  Cd18  1  0.829160  0.507879  0.831482  1
  Cd  Cd19  1  0.508201  0.828918  0.828909  1
  Tc  Tc20  1  0.386383  0.395522  0.395537  1
  Ni  Ni21  1  0.396616  0.390977  0.827851  1
  Ni  Ni22  1  0.396633  0.827812  0.390980  1
  Ni  Ni23  1  0.828738  0.395904  0.395891  1
