# generated using pymatgen
data_La2Ga(PRh2)6
_symmetry_space_group_name_H-M   'P 1'
_cell_length_a   9.77888500
_cell_length_b   9.77888503
_cell_length_c   3.90709600
_cell_angle_alpha   90.00000000
_cell_angle_beta   90.00000000
_cell_angle_gamma   120.00001004
_symmetry_Int_Tables_number   1
_chemical_formula_structural   La2Ga(PRh2)6
_chemical_formula_sum   'La2 Ga1 P6 Rh12'
_cell_volume   323.56634939
_cell_formula_units_Z   1
loop_
 _symmetry_equiv_pos_site_id
 _symmetry_equiv_pos_as_xyz
  1  'x, y, z'
loop_
 _atom_site_type_symbol
 _atom_site_label
 _atom_site_symmetry_multiplicity
 _atom_site_fract_x
 _atom_site_fract_y
 _atom_site_fract_z
 _atom_site_occupancy
  La  La0  1  0.333333  0.666667  0.750492  1
  La  La1  1  0.666667  0.333333  0.249508  1
  Ga  Ga2  1  0.000000  0.000000  0.500000  1
  P  P3  1  0.888636  0.602298  0.749774  1
  P  P4  1  0.397702  0.286340  0.749774  1
  P  P5  1  0.713660  0.111364  0.749774  1
  P  P6  1  0.111364  0.397702  0.250226  1
  P  P7  1  0.602298  0.713660  0.250226  1
  P  P8  1  0.286340  0.888636  0.250226  1
  Rh  Rh9  1  0.615365  0.552911  0.750571  1
  Rh  Rh10  1  0.447089  0.062455  0.750571  1
  Rh  Rh11  1  0.937545  0.384635  0.750571  1
  Rh  Rh12  1  0.384635  0.447089  0.249429  1
  Rh  Rh13  1  0.552911  0.937545  0.249429  1
  Rh  Rh14  1  0.062455  0.615365  0.249429  1
  Rh  Rh15  1  0.122253  0.844915  0.751387  1
  Rh  Rh16  1  0.155085  0.277337  0.751387  1
  Rh  Rh17  1  0.722663  0.877747  0.751387  1
  Rh  Rh18  1  0.877747  0.155085  0.248613  1
  Rh  Rh19  1  0.844915  0.722663  0.248613  1
  Rh  Rh20  1  0.277337  0.122253  0.248613  1
