# generated using pymatgen
data_YbPrYGa9Pd2
_symmetry_space_group_name_H-M   'P 1'
_cell_length_a   8.21774527
_cell_length_b   8.21774519
_cell_length_c   8.21774500
_cell_angle_alpha   149.27175123
_cell_angle_beta   109.62576043
_cell_angle_gamma   78.72749378
_symmetry_Int_Tables_number   1
_chemical_formula_structural   YbPrYGa9Pd2
_chemical_formula_sum   'Yb1 Pr1 Y1 Ga9 Pd2'
_cell_volume   262.03004821
_cell_formula_units_Z   1
loop_
 _symmetry_equiv_pos_site_id
 _symmetry_equiv_pos_as_xyz
  1  'x, y, z'
loop_
 _atom_site_type_symbol
 _atom_site_label
 _atom_site_symmetry_multiplicity
 _atom_site_fract_x
 _atom_site_fract_y
 _atom_site_fract_z
 _atom_site_occupancy
  Yb  Yb0  1  0.800591  0.800591  0.000000  1
  Pr  Pr1  1  0.500469  0.500469  0.000000  1
  Y  Y2  1  0.200560  0.200560  0.000000  1
  Ga  Ga3  1  0.074983  0.359155  0.715827  1
  Ga  Ga4  1  0.921475  0.638443  0.283032  1
  Ga  Ga5  1  0.643328  0.359155  0.284173  1
  Ga  Ga6  1  0.355410  0.638443  0.716968  1
  Ga  Ga7  1  0.795800  0.159259  0.636541  1
  Ga  Ga8  1  0.208948  0.843604  0.365344  1
  Ga  Ga9  1  0.522717  0.159259  0.363459  1
  Ga  Ga10  1  0.478261  0.843604  0.634656  1
  Ga  Ga11  1  0.999678  0.499678  0.500000  1
  Pd  Pd12  1  0.816622  0.998890  0.817732  1
  Pd  Pd13  1  0.181160  0.998890  0.182268  1
