# generated using pymatgen
data_YbEr3(Si5Os3)2
_symmetry_space_group_name_H-M   'P 1'
_cell_length_a   8.14382873
_cell_length_b   8.13279076
_cell_length_c   5.76622509
_cell_angle_alpha   70.54381029
_cell_angle_beta   70.34518978
_cell_angle_gamma   94.04515569
_symmetry_Int_Tables_number   1
_chemical_formula_structural   YbEr3(Si5Os3)2
_chemical_formula_sum   'Yb1 Er3 Si10 Os6'
_cell_volume   331.87380928
_cell_formula_units_Z   1
loop_
 _symmetry_equiv_pos_site_id
 _symmetry_equiv_pos_as_xyz
  1  'x, y, z'
loop_
 _atom_site_type_symbol
 _atom_site_label
 _atom_site_symmetry_multiplicity
 _atom_site_fract_x
 _atom_site_fract_y
 _atom_site_fract_z
 _atom_site_occupancy
  Yb  Yb0  1  0.867282  0.602064  0.756736  1
  Er  Er1  1  0.399834  0.129227  0.745841  1
  Er  Er2  1  0.130625  0.400636  0.245729  1
  Er  Er3  1  0.601626  0.867080  0.256109  1
  Si  Si4  1  0.070110  0.261710  0.834460  1
  Si  Si5  1  0.737663  0.932576  0.666505  1
  Si  Si6  1  0.932191  0.738426  0.167745  1
  Si  Si7  1  0.262405  0.068239  0.333714  1
  Si  Si8  1  0.205057  0.792414  0.749802  1
  Si  Si9  1  0.792119  0.205239  0.253541  1
  Si  Si10  1  0.513338  0.488770  0.749122  1
  Si  Si11  1  0.488114  0.512094  0.246382  1
  Si  Si12  1  0.774454  0.224240  0.747303  1
  Si  Si13  1  0.223550  0.774820  0.251992  1
  Os  Os14  1  0.257069  0.542622  0.630172  1
  Os  Os15  1  0.454937  0.744781  0.869740  1
  Os  Os16  1  0.742753  0.456868  0.368548  1
  Os  Os17  1  0.544536  0.254266  0.128803  1
  Os  Os18  1  0.002377  0.000957  0.748735  1
  Os  Os19  1  0.999959  0.002971  0.249024  1
