# generated using pymatgen
data_Tb5In4CoNi
_symmetry_space_group_name_H-M   'P 1'
_cell_length_a   3.57894500
_cell_length_b   8.03585791
_cell_length_c   18.09328193
_cell_angle_alpha   89.82961306
_cell_angle_beta   90.00000000
_cell_angle_gamma   90.00000000
_symmetry_Int_Tables_number   1
_chemical_formula_structural   Tb5In4CoNi
_chemical_formula_sum   'Tb10 In8 Co2 Ni2'
_cell_volume   520.35856054
_cell_formula_units_Z   2
loop_
 _symmetry_equiv_pos_site_id
 _symmetry_equiv_pos_as_xyz
  1  'x, y, z'
loop_
 _atom_site_type_symbol
 _atom_site_label
 _atom_site_symmetry_multiplicity
 _atom_site_fract_x
 _atom_site_fract_y
 _atom_site_fract_z
 _atom_site_occupancy
  Tb  Tb0  1  0.000000  0.500000  0.500000  1
  Tb  Tb1  1  0.000000  0.000000  0.000000  1
  Tb  Tb2  1  0.000000  0.740152  0.277488  1
  Tb  Tb3  1  0.000000  0.259848  0.722512  1
  Tb  Tb4  1  0.000000  0.744998  0.778519  1
  Tb  Tb5  1  0.000000  0.255002  0.221481  1
  Tb  Tb6  1  0.000000  0.616358  0.090161  1
  Tb  Tb7  1  0.000000  0.383642  0.909839  1
  Tb  Tb8  1  0.000000  0.881825  0.588576  1
  Tb  Tb9  1  0.000000  0.118175  0.411424  1
  In  In10  1  0.500000  0.704792  0.929693  1
  In  In11  1  0.500000  0.295208  0.070307  1
  In  In12  1  0.500000  0.794930  0.430665  1
  In  In13  1  0.500000  0.205070  0.569335  1
  In  In14  1  0.500000  0.569137  0.652100  1
  In  In15  1  0.500000  0.430863  0.347900  1
  In  In16  1  0.500000  0.929314  0.152382  1
  In  In17  1  0.500000  0.070686  0.847618  1
  Co  Co18  1  0.500000  0.520109  0.195179  1
  Co  Co19  1  0.500000  0.479891  0.804821  1
  Ni  Ni20  1  0.500000  0.979014  0.695911  1
  Ni  Ni21  1  0.500000  0.020986  0.304089  1
