# generated using pymatgen
data_LiCd5(HgPd2)6
_symmetry_space_group_name_H-M   'P 1'
_cell_length_a   4.35759900
_cell_length_b   7.49044800
_cell_length_c   13.00567500
_cell_angle_alpha   90.00000000
_cell_angle_beta   89.99998238
_cell_angle_gamma   90.00000000
_symmetry_Int_Tables_number   1
_chemical_formula_structural   LiCd5(HgPd2)6
_chemical_formula_sum   'Li1 Cd5 Hg6 Pd12'
_cell_volume   424.51002738
_cell_formula_units_Z   1
loop_
 _symmetry_equiv_pos_site_id
 _symmetry_equiv_pos_as_xyz
  1  'x, y, z'
loop_
 _atom_site_type_symbol
 _atom_site_label
 _atom_site_symmetry_multiplicity
 _atom_site_fract_x
 _atom_site_fract_y
 _atom_site_fract_z
 _atom_site_occupancy
  Li  Li0  1  0.500235  0.000000  0.833447  1
  Cd  Cd1  1  0.000002  0.500000  0.999020  1
  Cd  Cd2  1  0.499798  0.000000  0.163509  1
  Cd  Cd3  1  0.999801  0.500000  0.333379  1
  Cd  Cd4  1  0.500001  0.000000  0.503110  1
  Cd  Cd5  1  0.000161  0.500000  0.667612  1
  Hg  Hg6  1  0.999987  0.000000  0.990937  1
  Hg  Hg7  1  0.499807  0.500000  0.164880  1
  Hg  Hg8  1  0.999814  0.000000  0.333324  1
  Hg  Hg9  1  0.500000  0.500000  0.501841  1
  Hg  Hg10  1  0.000189  0.000000  0.675701  1
  Hg  Hg11  1  0.500192  0.500000  0.833287  1
  Pd  Pd12  1  0.500006  0.246235  0.996284  1
  Pd  Pd13  1  0.500006  0.753765  0.996284  1
  Pd  Pd14  1  0.999785  0.248096  0.164450  1
  Pd  Pd15  1  0.999785  0.751904  0.164450  1
  Pd  Pd16  1  0.499789  0.248726  0.333345  1
  Pd  Pd17  1  0.499789  0.751274  0.333345  1
  Pd  Pd18  1  0.000002  0.248076  0.502241  1
  Pd  Pd19  1  0.000002  0.751924  0.502241  1
  Pd  Pd20  1  0.500195  0.246137  0.670360  1
  Pd  Pd21  1  0.500195  0.753863  0.670360  1
  Pd  Pd22  1  0.000228  0.251583  0.833298  1
  Pd  Pd23  1  0.000228  0.748417  0.833298  1
