# generated using pymatgen
data_Tb4Ho5TmIr4
_symmetry_space_group_name_H-M   'P 1'
_cell_length_a   6.47566269
_cell_length_b   7.19381302
_cell_length_c   8.51180695
_cell_angle_alpha   96.69275947
_cell_angle_beta   112.35802364
_cell_angle_gamma   89.99999629
_symmetry_Int_Tables_number   1
_chemical_formula_structural   Tb4Ho5TmIr4
_chemical_formula_sum   'Tb4 Ho5 Tm1 Ir4'
_cell_volume   363.78815064
_cell_formula_units_Z   1
loop_
 _symmetry_equiv_pos_site_id
 _symmetry_equiv_pos_as_xyz
  1  'x, y, z'
loop_
 _atom_site_type_symbol
 _atom_site_label
 _atom_site_symmetry_multiplicity
 _atom_site_fract_x
 _atom_site_fract_y
 _atom_site_fract_z
 _atom_site_occupancy
  Tb  Tb0  1  0.971034  0.919228  0.184264  1
  Tb  Tb1  1  0.786769  0.580772  0.815736  1
  Tb  Tb2  1  0.028748  0.081350  0.815951  1
  Tb  Tb3  1  0.212799  0.418650  0.184049  1
  Ho  Ho4  1  0.651962  0.817346  0.440889  1
  Ho  Ho5  1  0.211073  0.682654  0.559111  1
  Ho  Ho6  1  0.348555  0.182889  0.559691  1
  Ho  Ho7  1  0.788864  0.317111  0.440309  1
  Ho  Ho8  1  0.427299  0.750000  0.000000  1
  Tm  Tm9  1  0.572142  0.250000  0.000000  1
  Ir  Ir10  1  0.822783  0.572849  0.220401  1
  Ir  Ir11  1  0.602382  0.927151  0.779599  1
  Ir  Ir12  1  0.177602  0.425958  0.779611  1
  Ir  Ir13  1  0.397989  0.074042  0.220389  1
