# generated using pymatgen
data_AcErTm(ZnPt)4
_symmetry_space_group_name_H-M   'P 1'
_cell_length_a   8.28620701
_cell_length_b   8.28620663
_cell_length_c   8.28620722
_cell_angle_alpha   151.77935496
_cell_angle_beta   124.84999068
_cell_angle_gamma   63.09176397
_symmetry_Int_Tables_number   1
_chemical_formula_structural   AcErTm(ZnPt)4
_chemical_formula_sum   'Ac1 Er1 Tm1 Zn4 Pt4'
_cell_volume   218.87250399
_cell_formula_units_Z   1
loop_
 _symmetry_equiv_pos_site_id
 _symmetry_equiv_pos_as_xyz
  1  'x, y, z'
loop_
 _atom_site_type_symbol
 _atom_site_label
 _atom_site_symmetry_multiplicity
 _atom_site_fract_x
 _atom_site_fract_y
 _atom_site_fract_z
 _atom_site_occupancy
  Ac  Ac0  1  0.500014  0.000014  0.500000  1
  Er  Er1  1  0.874945  0.874945  0.000000  1
  Tm  Tm2  1  0.125094  0.125094  0.000000  1
  Zn  Zn3  1  0.476900  0.676140  0.800761  1
  Zn  Zn4  1  0.875379  0.676140  0.199239  1
  Zn  Zn5  1  0.124983  0.323848  0.801136  1
  Zn  Zn6  1  0.522714  0.323848  0.198864  1
  Pt  Pt7  1  0.272641  0.772641  0.500000  1
  Pt  Pt8  1  0.726800  0.226800  0.500000  1
  Pt  Pt9  1  0.814817  0.500265  0.314553  1
  Pt  Pt10  1  0.185712  0.500265  0.685447  1
