# generated using pymatgen
data_Y5Sc15(Cd3Tc)2
_symmetry_space_group_name_H-M   'P 1'
_cell_length_a   9.13964012
_cell_length_b   9.13964031
_cell_length_c   9.39702900
_cell_angle_alpha   90.00000000
_cell_angle_beta   90.00000000
_cell_angle_gamma   119.98130712
_symmetry_Int_Tables_number   1
_chemical_formula_structural   Y5Sc15(Cd3Tc)2
_chemical_formula_sum   'Y5 Sc15 Cd6 Tc2'
_cell_volume   679.92525451
_cell_formula_units_Z   1
loop_
 _symmetry_equiv_pos_site_id
 _symmetry_equiv_pos_as_xyz
  1  'x, y, z'
loop_
 _atom_site_type_symbol
 _atom_site_label
 _atom_site_symmetry_multiplicity
 _atom_site_fract_x
 _atom_site_fract_y
 _atom_site_fract_z
 _atom_site_occupancy
  Y  Y0  1  0.537943  0.078140  0.250000  1
  Y  Y1  1  0.921860  0.462057  0.250000  1
  Y  Y2  1  0.462383  0.537617  0.750000  1
  Y  Y3  1  0.462439  0.925766  0.750000  1
  Y  Y4  1  0.074234  0.537561  0.750000  1
  Sc  Sc5  1  0.000577  0.999423  0.499376  1
  Sc  Sc6  1  0.000577  0.999423  0.000624  1
  Sc  Sc7  1  0.210950  0.789050  0.442218  1
  Sc  Sc8  1  0.214490  0.421163  0.440126  1
  Sc  Sc9  1  0.578837  0.785510  0.440126  1
  Sc  Sc10  1  0.789513  0.210487  0.557939  1
  Sc  Sc11  1  0.785969  0.576710  0.555128  1
  Sc  Sc12  1  0.423290  0.214031  0.555128  1
  Sc  Sc13  1  0.789513  0.210487  0.942061  1
  Sc  Sc14  1  0.785969  0.576710  0.944872  1
  Sc  Sc15  1  0.423290  0.214031  0.944872  1
  Sc  Sc16  1  0.210950  0.789050  0.057782  1
  Sc  Sc17  1  0.214490  0.421163  0.059874  1
  Sc  Sc18  1  0.578837  0.785510  0.059874  1
  Sc  Sc19  1  0.535531  0.464469  0.250000  1
  Cd  Cd20  1  0.888286  0.111714  0.250000  1
  Cd  Cd21  1  0.880653  0.772877  0.250000  1
  Cd  Cd22  1  0.227123  0.119347  0.250000  1
  Cd  Cd23  1  0.111552  0.888448  0.750000  1
  Cd  Cd24  1  0.111918  0.222435  0.750000  1
  Cd  Cd25  1  0.777565  0.888082  0.750000  1
  Tc  Tc26  1  0.334353  0.665647  0.250000  1
  Tc  Tc27  1  0.666908  0.333092  0.750000  1
