# generated using pymatgen
data_Tm3Sc(InGa2)2
_symmetry_space_group_name_H-M   'P 1'
_cell_length_a   7.10116553
_cell_length_b   7.10116553
_cell_length_c   4.33152500
_cell_angle_alpha   90.00000000
_cell_angle_beta   90.00000000
_cell_angle_gamma   91.04367537
_symmetry_Int_Tables_number   1
_chemical_formula_structural   Tm3Sc(InGa2)2
_chemical_formula_sum   'Tm3 Sc1 In2 Ga4'
_cell_volume   218.38763356
_cell_formula_units_Z   1
loop_
 _symmetry_equiv_pos_site_id
 _symmetry_equiv_pos_as_xyz
  1  'x, y, z'
loop_
 _atom_site_type_symbol
 _atom_site_label
 _atom_site_symmetry_multiplicity
 _atom_site_fract_x
 _atom_site_fract_y
 _atom_site_fract_z
 _atom_site_occupancy
  Tm  Tm0  1  0.171147  0.326398  0.500000  1
  Tm  Tm1  1  0.329888  0.829888  0.500000  1
  Tm  Tm2  1  0.826398  0.671147  0.500000  1
  Sc  Sc3  1  0.670683  0.170683  0.500000  1
  In  In4  1  0.499920  0.501901  0.000000  1
  In  In5  1  0.001901  0.999920  0.000000  1
  Ga  Ga6  1  0.629843  0.879680  0.000000  1
  Ga  Ga7  1  0.123971  0.623971  0.000000  1
  Ga  Ga8  1  0.866570  0.366570  0.000000  1
  Ga  Ga9  1  0.379680  0.129843  0.000000  1
