# generated using pymatgen
data_La(GaBr4)3
_symmetry_space_group_name_H-M   'P 1'
_cell_length_a   10.81470900
_cell_length_b   10.81470899
_cell_length_c   19.00546500
_cell_angle_alpha   90.00000000
_cell_angle_beta   90.00000000
_cell_angle_gamma   119.99999699
_symmetry_Int_Tables_number   1
_chemical_formula_structural   La(GaBr4)3
_chemical_formula_sum   'La3 Ga9 Br36'
_cell_volume   1925.03584261
_cell_formula_units_Z   3
loop_
 _symmetry_equiv_pos_site_id
 _symmetry_equiv_pos_as_xyz
  1  'x, y, z'
loop_
 _atom_site_type_symbol
 _atom_site_label
 _atom_site_symmetry_multiplicity
 _atom_site_fract_x
 _atom_site_fract_y
 _atom_site_fract_z
 _atom_site_occupancy
  La  La0  1  0.269461  0.269461  0.000000  1
  La  La1  1  0.000000  0.730539  0.666667  1
  La  La2  1  0.730539  0.000000  0.333333  1
  Ga  Ga3  1  0.366266  0.667985  0.054611  1
  Ga  Ga4  1  0.633734  0.301719  0.278722  1
  Ga  Ga5  1  0.301719  0.633734  0.721278  1
  Ga  Ga6  1  0.698281  0.332015  0.612056  1
  Ga  Ga7  1  0.098726  0.000000  0.833333  1
  Ga  Ga8  1  0.000000  0.098726  0.166667  1
  Ga  Ga9  1  0.667985  0.366266  0.945389  1
  Ga  Ga10  1  0.332015  0.698281  0.387944  1
  Ga  Ga11  1  0.901274  0.901274  0.500000  1
  Br  Br12  1  0.492395  0.412855  0.887843  1
  Br  Br13  1  0.794382  0.765734  0.397005  1
  Br  Br14  1  0.139991  0.717531  0.350110  1
  Br  Br15  1  0.480685  0.712086  0.288625  1
  Br  Br16  1  0.220952  0.715950  0.124064  1
  Br  Br17  1  0.284050  0.505004  0.457398  1
  Br  Br18  1  0.028649  0.234266  0.269662  1
  Br  Br19  1  0.971351  0.205618  0.063671  1
  Br  Br20  1  0.287914  0.768598  0.621958  1
  Br  Br21  1  0.875629  0.801612  0.802304  1
  Br  Br22  1  0.779048  0.494996  0.209269  1
  Br  Br23  1  0.234266  0.028649  0.730338  1
  Br  Br24  1  0.925984  0.124371  0.468971  1
  Br  Br25  1  0.231402  0.519315  0.955291  1
  Br  Br26  1  0.507605  0.920462  0.445490  1
  Br  Br27  1  0.079538  0.587145  0.778824  1
  Br  Br28  1  0.587145  0.079538  0.221176  1
  Br  Br29  1  0.124371  0.925984  0.531029  1
  Br  Br30  1  0.494996  0.779048  0.790731  1
  Br  Br31  1  0.801612  0.875629  0.197696  1
  Br  Br32  1  0.074016  0.198388  0.864363  1
  Br  Br33  1  0.282469  0.422459  0.683443  1
  Br  Br34  1  0.715950  0.220952  0.875936  1
  Br  Br35  1  0.198388  0.074016  0.135637  1
  Br  Br36  1  0.505004  0.284050  0.542602  1
  Br  Br37  1  0.920462  0.507605  0.554510  1
  Br  Br38  1  0.765734  0.794382  0.602995  1
  Br  Br39  1  0.768598  0.287914  0.378042  1
  Br  Br40  1  0.577541  0.860009  0.016776  1
  Br  Br41  1  0.860009  0.577541  0.983224  1
  Br  Br42  1  0.422459  0.282469  0.316557  1
  Br  Br43  1  0.717531  0.139991  0.649890  1
  Br  Br44  1  0.412855  0.492395  0.112157  1
  Br  Br45  1  0.205618  0.971351  0.936329  1
  Br  Br46  1  0.712086  0.480685  0.711375  1
  Br  Br47  1  0.519315  0.231402  0.044709  1
