# generated using pymatgen
data_BaGa2SiPbO7
_symmetry_space_group_name_H-M   'P 1'
_cell_length_a   5.61002897
_cell_length_b   8.18096604
_cell_length_c   8.16186900
_cell_angle_alpha   90.00000000
_cell_angle_beta   90.00000000
_cell_angle_gamma   89.36276627
_symmetry_Int_Tables_number   1
_chemical_formula_structural   BaGa2SiPbO7
_chemical_formula_sum   'Ba2 Ga4 Si2 Pb2 O14'
_cell_volume   374.56953625
_cell_formula_units_Z   2
loop_
 _symmetry_equiv_pos_site_id
 _symmetry_equiv_pos_as_xyz
  1  'x, y, z'
loop_
 _atom_site_type_symbol
 _atom_site_label
 _atom_site_symmetry_multiplicity
 _atom_site_fract_x
 _atom_site_fract_y
 _atom_site_fract_z
 _atom_site_occupancy
  Ba  Ba0  1  0.505497  0.160688  0.652423  1
  Ba  Ba1  1  0.494503  0.339312  0.152423  1
  Ga  Ga2  1  0.003939  0.496785  0.501767  1
  Ga  Ga3  1  0.996061  0.003215  0.001767  1
  Ga  Ga4  1  0.975062  0.645481  0.141532  1
  Ga  Ga5  1  0.024938  0.854519  0.641532  1
  Si  Si6  1  0.964416  0.357622  0.859211  1
  Si  Si7  1  0.035584  0.142378  0.359211  1
  Pb  Pb8  1  0.512732  0.809809  0.333563  1
  Pb  Pb9  1  0.487268  0.690191  0.833563  1
  O  O10  1  0.142472  0.005827  0.490086  1
  O  O11  1  0.857528  0.494173  0.990086  1
  O  O12  1  0.173466  0.316705  0.411887  1
  O  O13  1  0.826534  0.183295  0.911887  1
  O  O14  1  0.196522  0.664255  0.580007  1
  O  O15  1  0.803478  0.835745  0.080007  1
  O  O16  1  0.808483  0.581315  0.334473  1
  O  O17  1  0.191517  0.918685  0.834473  1
  O  O18  1  0.840999  0.406079  0.679575  1
  O  O19  1  0.159001  0.093921  0.179575  1
  O  O20  1  0.298657  0.646804  0.155511  1
  O  O21  1  0.701343  0.853196  0.655511  1
  O  O22  1  0.250349  0.342108  0.859967  1
  O  O23  1  0.749651  0.157892  0.359967  1
