# generated using pymatgen
data_Ba3IrPbO6
_symmetry_space_group_name_H-M   'P 1'
_cell_length_a   7.25399671
_cell_length_b   7.25399734
_cell_length_c   7.25399704
_cell_angle_alpha   89.32200560
_cell_angle_beta   89.32200685
_cell_angle_gamma   89.32199666
_symmetry_Int_Tables_number   1
_chemical_formula_structural   Ba3IrPbO6
_chemical_formula_sum   'Ba6 Ir2 Pb2 O12'
_cell_volume   381.62920808
_cell_formula_units_Z   2
loop_
 _symmetry_equiv_pos_site_id
 _symmetry_equiv_pos_as_xyz
  1  'x, y, z'
loop_
 _atom_site_type_symbol
 _atom_site_label
 _atom_site_symmetry_multiplicity
 _atom_site_fract_x
 _atom_site_fract_y
 _atom_site_fract_z
 _atom_site_occupancy
  Ba  Ba0  1  0.750000  0.386880  0.113120  1
  Ba  Ba1  1  0.113120  0.750000  0.386880  1
  Ba  Ba2  1  0.250000  0.613120  0.886880  1
  Ba  Ba3  1  0.386880  0.113120  0.750000  1
  Ba  Ba4  1  0.613120  0.886880  0.250000  1
  Ba  Ba5  1  0.886880  0.250000  0.613120  1
  Ir  Ir6  1  0.500000  0.500000  0.500000  1
  Ir  Ir7  1  0.000000  0.000000  0.000000  1
  Pb  Pb8  1  0.250000  0.250000  0.250000  1
  Pb  Pb9  1  0.750000  0.750000  0.750000  1
  O  O10  1  0.083356  0.268936  0.948619  1
  O  O11  1  0.948619  0.083356  0.268936  1
  O  O12  1  0.268936  0.948619  0.083356  1
  O  O13  1  0.416644  0.551381  0.231064  1
  O  O14  1  0.231064  0.416644  0.551381  1
  O  O15  1  0.551381  0.231064  0.416644  1
  O  O16  1  0.916644  0.731064  0.051381  1
  O  O17  1  0.051381  0.916644  0.731064  1
  O  O18  1  0.731064  0.051381  0.916644  1
  O  O19  1  0.583356  0.448619  0.768936  1
  O  O20  1  0.448619  0.768936  0.583356  1
  O  O21  1  0.768936  0.583356  0.448619  1
