# generated using pymatgen
data_CaPr4Y5Sn8
_symmetry_space_group_name_H-M   'P 1'
_cell_length_a   8.07007300
_cell_length_b   8.37282900
_cell_length_c   15.79620200
_cell_angle_alpha   90.00000000
_cell_angle_beta   90.00000000
_cell_angle_gamma   90.00000000
_symmetry_Int_Tables_number   1
_chemical_formula_structural   CaPr4Y5Sn8
_chemical_formula_sum   'Ca2 Pr8 Y10 Sn16'
_cell_volume   1067.33896334
_cell_formula_units_Z   2
loop_
 _symmetry_equiv_pos_site_id
 _symmetry_equiv_pos_as_xyz
  1  'x, y, z'
loop_
 _atom_site_type_symbol
 _atom_site_label
 _atom_site_symmetry_multiplicity
 _atom_site_fract_x
 _atom_site_fract_y
 _atom_site_fract_z
 _atom_site_occupancy
  Ca  Ca0  1  0.182828  0.498208  0.750000  1
  Ca  Ca1  1  0.682828  0.001792  0.750000  1
  Pr  Pr2  1  0.503586  0.320330  0.905542  1
  Pr  Pr3  1  0.003586  0.179670  0.594458  1
  Pr  Pr4  1  0.494320  0.676400  0.401977  1
  Pr  Pr5  1  0.994320  0.823600  0.098023  1
  Pr  Pr6  1  0.494320  0.676400  0.098023  1
  Pr  Pr7  1  0.994320  0.823600  0.401977  1
  Pr  Pr8  1  0.503586  0.320330  0.594458  1
  Pr  Pr9  1  0.003586  0.179670  0.905542  1
  Y  Y10  1  0.349093  0.831134  0.877757  1
  Y  Y11  1  0.849093  0.668866  0.622243  1
  Y  Y12  1  0.653160  0.168539  0.375036  1
  Y  Y13  1  0.153160  0.331461  0.124964  1
  Y  Y14  1  0.653160  0.168539  0.124964  1
  Y  Y15  1  0.153160  0.331461  0.375036  1
  Y  Y16  1  0.349093  0.831134  0.622243  1
  Y  Y17  1  0.849093  0.668866  0.877757  1
  Y  Y18  1  0.818614  0.501101  0.250000  1
  Y  Y19  1  0.318614  0.998899  0.250000  1
  Sn  Sn20  1  0.315342  0.039239  0.041468  1
  Sn  Sn21  1  0.815342  0.460761  0.458532  1
  Sn  Sn22  1  0.684687  0.958623  0.537511  1
  Sn  Sn23  1  0.184687  0.541377  0.962489  1
  Sn  Sn24  1  0.684687  0.958623  0.962489  1
  Sn  Sn25  1  0.184687  0.541377  0.537511  1
  Sn  Sn26  1  0.315342  0.039239  0.458532  1
  Sn  Sn27  1  0.815342  0.460761  0.041468  1
  Sn  Sn28  1  0.551097  0.619075  0.750000  1
  Sn  Sn29  1  0.051097  0.880925  0.750000  1
  Sn  Sn30  1  0.453569  0.377997  0.250000  1
  Sn  Sn31  1  0.953569  0.122003  0.250000  1
  Sn  Sn32  1  0.307287  0.134757  0.750000  1
  Sn  Sn33  1  0.807287  0.365243  0.750000  1
  Sn  Sn34  1  0.686229  0.858582  0.250000  1
  Sn  Sn35  1  0.186229  0.641418  0.250000  1
