# generated using pymatgen
data_Ho8TiSi16Tc11
_symmetry_space_group_name_H-M   'P 1'
_cell_length_a   6.79755127
_cell_length_b   6.81105311
_cell_length_c   12.67348538
_cell_angle_alpha   90.07879759
_cell_angle_beta   90.33341265
_cell_angle_gamma   90.18838528
_symmetry_Int_Tables_number   1
_chemical_formula_structural   Ho8TiSi16Tc11
_chemical_formula_sum   'Ho8 Ti1 Si16 Tc11'
_cell_volume   586.74946774
_cell_formula_units_Z   1
loop_
 _symmetry_equiv_pos_site_id
 _symmetry_equiv_pos_as_xyz
  1  'x, y, z'
loop_
 _atom_site_type_symbol
 _atom_site_label
 _atom_site_symmetry_multiplicity
 _atom_site_fract_x
 _atom_site_fract_y
 _atom_site_fract_z
 _atom_site_occupancy
  Ho  Ho0  1  0.335308  0.995373  0.467913  1
  Ho  Ho1  1  0.500323  0.835417  0.720470  1
  Ho  Ho2  1  0.495568  0.160193  0.218960  1
  Ho  Ho3  1  0.837231  0.500171  0.279203  1
  Ho  Ho4  1  0.160678  0.493276  0.782047  1
  Ho  Ho5  1  0.661008  0.001344  0.970458  1
  Ho  Ho6  1  0.998989  0.339249  0.530029  1
  Ho  Ho7  1  0.002297  0.659468  0.030615  1
  Ti  Ti8  1  0.995446  0.830203  0.621576  1
  Si  Si9  1  0.200560  0.120247  0.685153  1
  Si  Si10  1  0.383820  0.690736  0.938011  1
  Si  Si11  1  0.616510  0.309451  0.438541  1
  Si  Si12  1  0.690284  0.384252  0.063537  1
  Si  Si13  1  0.308872  0.618679  0.561993  1
  Si  Si14  1  0.808618  0.883418  0.187909  1
  Si  Si15  1  0.118888  0.195038  0.313521  1
  Si  Si16  1  0.884247  0.802389  0.815340  1
  Si  Si17  1  0.269791  0.979382  0.062026  1
  Si  Si18  1  0.527244  0.777603  0.314063  1
  Si  Si19  1  0.474313  0.218718  0.814428  1
  Si  Si20  1  0.780519  0.524161  0.687950  1
  Si  Si21  1  0.225378  0.476879  0.186087  1
  Si  Si22  1  0.708595  0.041392  0.564419  1
  Si  Si23  1  0.978413  0.267420  0.937652  1
  Si  Si24  1  0.031410  0.721480  0.429247  1
  Tc  Tc25  1  0.330516  0.333221  0.001344  1
  Tc  Tc26  1  0.167871  0.831239  0.248346  1
  Tc  Tc27  1  0.835486  0.162181  0.749287  1
  Tc  Tc28  1  0.672659  0.666975  0.501450  1
  Tc  Tc29  1  0.186488  0.974762  0.869472  1
  Tc  Tc30  1  0.520752  0.682672  0.122882  1
  Tc  Tc31  1  0.491970  0.324321  0.625014  1
  Tc  Tc32  1  0.676017  0.509591  0.878308  1
  Tc  Tc33  1  0.323486  0.482022  0.375734  1
  Tc  Tc34  1  0.825733  0.023805  0.375645  1
  Tc  Tc35  1  0.974711  0.183271  0.131368  1
