# generated using pymatgen
data_Ti4In2FePd3
_symmetry_space_group_name_H-M   'P 1'
_cell_length_a   7.40747952
_cell_length_b   7.40747993
_cell_length_c   3.04476000
_cell_angle_alpha   90.00000000
_cell_angle_beta   90.00000000
_cell_angle_gamma   90.33224342
_symmetry_Int_Tables_number   1
_chemical_formula_structural   Ti4In2FePd3
_chemical_formula_sum   'Ti4 In2 Fe1 Pd3'
_cell_volume   167.06547367
_cell_formula_units_Z   1
loop_
 _symmetry_equiv_pos_site_id
 _symmetry_equiv_pos_as_xyz
  1  'x, y, z'
loop_
 _atom_site_type_symbol
 _atom_site_label
 _atom_site_symmetry_multiplicity
 _atom_site_fract_x
 _atom_site_fract_y
 _atom_site_fract_z
 _atom_site_occupancy
  Ti  Ti0  1  0.189342  0.310658  0.000000  1
  Ti  Ti1  1  0.840528  0.659472  0.000000  1
  Ti  Ti2  1  0.632056  0.174590  0.000000  1
  Ti  Ti3  1  0.325410  0.867944  0.000000  1
  In  In4  1  0.997179  0.999748  0.500000  1
  In  In5  1  0.500252  0.502821  0.500000  1
  Fe  Fe6  1  0.373559  0.126441  0.500000  1
  Pd  Pd7  1  0.631842  0.868158  0.500000  1
  Pd  Pd8  1  0.873599  0.363767  0.500000  1
  Pd  Pd9  1  0.136233  0.626401  0.500000  1
