# generated using pymatgen
data_HfZr5Ti2(NbSi3)2
_symmetry_space_group_name_H-M   'P 1'
_cell_length_a   7.83470997
_cell_length_b   7.83471017
_cell_length_c   5.34504512
_cell_angle_alpha   89.98772628
_cell_angle_beta   89.98772196
_cell_angle_gamma   119.91962577
_symmetry_Int_Tables_number   1
_chemical_formula_structural   HfZr5Ti2(NbSi3)2
_chemical_formula_sum   'Hf1 Zr5 Ti2 Nb2 Si6'
_cell_volume   284.36686801
_cell_formula_units_Z   1
loop_
 _symmetry_equiv_pos_site_id
 _symmetry_equiv_pos_as_xyz
  1  'x, y, z'
loop_
 _atom_site_type_symbol
 _atom_site_label
 _atom_site_symmetry_multiplicity
 _atom_site_fract_x
 _atom_site_fract_y
 _atom_site_fract_z
 _atom_site_occupancy
  Hf  Hf0  1  0.746768  0.746768  0.753082  1
  Zr  Zr1  1  0.251950  0.999724  0.752972  1
  Zr  Zr2  1  0.999724  0.251950  0.752972  1
  Zr  Zr3  1  0.252939  0.252939  0.246951  1
  Zr  Zr4  1  0.747540  0.999333  0.247020  1
  Zr  Zr5  1  0.999333  0.747540  0.247020  1
  Ti  Ti6  1  0.333547  0.666690  0.500171  1
  Ti  Ti7  1  0.666690  0.333547  0.500171  1
  Nb  Nb8  1  0.666718  0.333605  0.999831  1
  Nb  Nb9  1  0.333605  0.666718  0.999831  1
  Si  Si10  1  0.397451  0.397451  0.745576  1
  Si  Si11  1  0.603762  0.999465  0.745657  1
  Si  Si12  1  0.999465  0.603762  0.745657  1
  Si  Si13  1  0.603739  0.603739  0.254382  1
  Si  Si14  1  0.396688  0.000082  0.254355  1
  Si  Si15  1  0.000082  0.396688  0.254355  1
