# generated using pymatgen
data_CaScPt2O7
_symmetry_space_group_name_H-M   'P 1'
_cell_length_a   7.15749104
_cell_length_b   7.15749099
_cell_length_c   7.06607700
_cell_angle_alpha   60.42159119
_cell_angle_beta   60.42159139
_cell_angle_gamma   60.35878911
_symmetry_Int_Tables_number   1
_chemical_formula_structural   CaScPt2O7
_chemical_formula_sum   'Ca2 Sc2 Pt4 O14'
_cell_volume   258.28662941
_cell_formula_units_Z   2
loop_
 _symmetry_equiv_pos_site_id
 _symmetry_equiv_pos_as_xyz
  1  'x, y, z'
loop_
 _atom_site_type_symbol
 _atom_site_label
 _atom_site_symmetry_multiplicity
 _atom_site_fract_x
 _atom_site_fract_y
 _atom_site_fract_z
 _atom_site_occupancy
  Ca  Ca0  1  0.625000  0.125000  0.625000  1
  Ca  Ca1  1  0.125000  0.625000  0.625000  1
  Sc  Sc2  1  0.625000  0.625000  0.125000  1
  Sc  Sc3  1  0.625000  0.625000  0.625000  1
  Pt  Pt4  1  0.625000  0.125000  0.125000  1
  Pt  Pt5  1  0.125000  0.125000  0.125000  1
  Pt  Pt6  1  0.125000  0.625000  0.125000  1
  Pt  Pt7  1  0.125000  0.125000  0.625000  1
  O  O8  1  0.021387  0.463758  0.462790  1
  O  O9  1  0.785052  0.785052  0.214948  1
  O  O10  1  0.786242  0.228613  0.197936  1
  O  O11  1  0.021387  0.463758  0.052064  1
  O  O12  1  0.463758  0.021387  0.462790  1
  O  O13  1  0.731374  0.731374  0.768626  1
  O  O14  1  0.036494  0.036494  0.463506  1
  O  O15  1  0.786242  0.228613  0.787210  1
  O  O16  1  0.518626  0.518626  0.481374  1
  O  O17  1  0.213506  0.213506  0.786494  1
  O  O18  1  0.228613  0.786242  0.197936  1
  O  O19  1  0.463758  0.021387  0.052064  1
  O  O20  1  0.464948  0.464948  0.035052  1
  O  O21  1  0.228613  0.786242  0.787210  1
