# generated using pymatgen
data_Tb3Tm5Cd2NiOs
_symmetry_space_group_name_H-M   'P 1'
_cell_length_a   9.50546430
_cell_length_b   9.50546350
_cell_length_c   9.59447400
_cell_angle_alpha   59.68975023
_cell_angle_beta   59.68975305
_cell_angle_gamma   59.52201746
_symmetry_Int_Tables_number   1
_chemical_formula_structural   Tb3Tm5Cd2NiOs
_chemical_formula_sum   'Tb6 Tm10 Cd4 Ni2 Os2'
_cell_volume   607.88519245
_cell_formula_units_Z   2
loop_
 _symmetry_equiv_pos_site_id
 _symmetry_equiv_pos_as_xyz
  1  'x, y, z'
loop_
 _atom_site_type_symbol
 _atom_site_label
 _atom_site_symmetry_multiplicity
 _atom_site_fract_x
 _atom_site_fract_y
 _atom_site_fract_z
 _atom_site_occupancy
  Tb  Tb0  1  0.940523  0.554878  0.564714  1
  Tb  Tb1  1  0.554878  0.940523  0.939885  1
  Tb  Tb2  1  0.554878  0.940523  0.564714  1
  Tb  Tb3  1  0.940523  0.554878  0.939885  1
  Tb  Tb4  1  0.564010  0.564010  0.935990  1
  Tb  Tb5  1  0.943103  0.943103  0.556897  1
  Tm  Tm6  1  0.349958  0.349958  0.341857  1
  Tm  Tm7  1  0.349958  0.349958  0.958229  1
  Tm  Tm8  1  0.351464  0.957302  0.345617  1
  Tm  Tm9  1  0.957302  0.351464  0.345617  1
  Tm  Tm10  1  0.812014  0.184614  0.188995  1
  Tm  Tm11  1  0.184614  0.812014  0.814377  1
  Tm  Tm12  1  0.184614  0.812014  0.188995  1
  Tm  Tm13  1  0.812014  0.184614  0.814377  1
  Tm  Tm14  1  0.187070  0.187070  0.812930  1
  Tm  Tm15  1  0.811560  0.811560  0.188440  1
  Cd  Cd16  1  0.578884  0.578884  0.582217  1
  Cd  Cd17  1  0.578884  0.578884  0.260012  1
  Cd  Cd18  1  0.579715  0.257630  0.581327  1
  Cd  Cd19  1  0.257630  0.579715  0.581327  1
  Ni  Ni20  1  0.141948  0.577090  0.140481  1
  Ni  Ni21  1  0.577090  0.141948  0.140481  1
  Os  Os22  1  0.143683  0.143683  0.139110  1
  Os  Os23  1  0.143683  0.143683  0.573524  1
