# generated using pymatgen
data_Ho3Tm2In2Bi
_symmetry_space_group_name_H-M   'P 1'
_cell_length_a   6.58016300
_cell_length_b   8.97627415
_cell_length_c   8.94072390
_cell_angle_alpha   119.72480925
_cell_angle_beta   90.00141548
_cell_angle_gamma   89.99838378
_symmetry_Int_Tables_number   1
_chemical_formula_structural   Ho3Tm2In2Bi
_chemical_formula_sum   'Ho6 Tm4 In4 Bi2'
_cell_volume   458.59963927
_cell_formula_units_Z   2
loop_
 _symmetry_equiv_pos_site_id
 _symmetry_equiv_pos_as_xyz
  1  'x, y, z'
loop_
 _atom_site_type_symbol
 _atom_site_label
 _atom_site_symmetry_multiplicity
 _atom_site_fract_x
 _atom_site_fract_y
 _atom_site_fract_z
 _atom_site_occupancy
  Ho  Ho0  1  0.749995  0.228798  0.991112  1
  Ho  Ho1  1  0.749996  0.770911  0.761239  1
  Ho  Ho2  1  0.749989  0.999923  0.238573  1
  Ho  Ho3  1  0.250017  0.765024  0.000542  1
  Ho  Ho4  1  0.249986  0.234743  0.235194  1
  Ho  Ho5  1  0.250004  0.000040  0.763219  1
  Tm  Tm6  1  0.492494  0.328785  0.667324  1
  Tm  Tm7  1  0.492766  0.671249  0.338737  1
  Tm  Tm8  1  0.007221  0.671245  0.338738  1
  Tm  Tm9  1  0.007505  0.328793  0.667325  1
  In  In10  1  0.749999  0.000202  0.595261  1
  In  In11  1  0.250019  0.399029  0.003558  1
  In  In12  1  0.249998  0.600507  0.603698  1
  In  In13  1  0.250003  0.000208  0.398818  1
  Bi  Bi14  1  0.750005  0.603678  0.999973  1
  Bi  Bi15  1  0.750002  0.396867  0.396689  1
