# generated using pymatgen
data_PaSn4Pd15
_symmetry_space_group_name_H-M   'P 1'
_cell_length_a   4.07305300
_cell_length_b   4.07305300
_cell_length_c   20.34275100
_cell_angle_alpha   90.00000000
_cell_angle_beta   90.00000000
_cell_angle_gamma   90.00000000
_symmetry_Int_Tables_number   1
_chemical_formula_structural   PaSn4Pd15
_chemical_formula_sum   'Pa1 Sn4 Pd15'
_cell_volume   337.48137190
_cell_formula_units_Z   1
loop_
 _symmetry_equiv_pos_site_id
 _symmetry_equiv_pos_as_xyz
  1  'x, y, z'
loop_
 _atom_site_type_symbol
 _atom_site_label
 _atom_site_symmetry_multiplicity
 _atom_site_fract_x
 _atom_site_fract_y
 _atom_site_fract_z
 _atom_site_occupancy
  Pa  Pa0  1  0.000000  0.000000  0.000000  1
  Sn  Sn1  1  0.000000  0.000000  0.205761  1
  Sn  Sn2  1  0.000000  0.000000  0.401706  1
  Sn  Sn3  1  0.000000  0.000000  0.598294  1
  Sn  Sn4  1  0.000000  0.000000  0.794239  1
  Pd  Pd5  1  0.500000  0.500000  0.000000  1
  Pd  Pd6  1  0.500000  0.500000  0.199904  1
  Pd  Pd7  1  0.500000  0.500000  0.399468  1
  Pd  Pd8  1  0.500000  0.500000  0.600532  1
  Pd  Pd9  1  0.500000  0.500000  0.800096  1
  Pd  Pd10  1  0.500000  0.000000  0.099516  1
  Pd  Pd11  1  0.500000  0.000000  0.300769  1
  Pd  Pd12  1  0.500000  0.000000  0.500000  1
  Pd  Pd13  1  0.500000  0.000000  0.699231  1
  Pd  Pd14  1  0.500000  0.000000  0.900484  1
  Pd  Pd15  1  0.000000  0.500000  0.099516  1
  Pd  Pd16  1  0.000000  0.500000  0.300769  1
  Pd  Pd17  1  0.000000  0.500000  0.500000  1
  Pd  Pd18  1  0.000000  0.500000  0.699231  1
  Pd  Pd19  1  0.000000  0.500000  0.900484  1
