# generated using pymatgen
data_Dy2Ho10Ni4SnAu
_symmetry_space_group_name_H-M   'P 1'
_cell_length_a   8.33678845
_cell_length_b   8.33678869
_cell_length_c   8.33678807
_cell_angle_alpha   112.82783414
_cell_angle_beta   109.08555280
_cell_angle_gamma   106.56225849
_symmetry_Int_Tables_number   1
_chemical_formula_structural   Dy2Ho10Ni4SnAu
_chemical_formula_sum   'Dy2 Ho10 Ni4 Sn1 Au1'
_cell_volume   444.68229883
_cell_formula_units_Z   1
loop_
 _symmetry_equiv_pos_site_id
 _symmetry_equiv_pos_as_xyz
  1  'x, y, z'
loop_
 _atom_site_type_symbol
 _atom_site_label
 _atom_site_symmetry_multiplicity
 _atom_site_fract_x
 _atom_site_fract_y
 _atom_site_fract_z
 _atom_site_occupancy
  Dy  Dy0  1  0.180646  0.794707  0.975354  1
  Dy  Dy1  1  0.819354  0.794707  0.614060  1
  Ho  Ho2  1  0.023461  0.721317  0.302142  1
  Ho  Ho3  1  0.976539  0.278682  0.697857  1
  Ho  Ho4  1  0.580825  0.278682  0.302142  1
  Ho  Ho5  1  0.419175  0.721317  0.697857  1
  Ho  Ho6  1  0.675765  0.867903  0.192138  1
  Ho  Ho7  1  0.324235  0.516372  0.192138  1
  Ho  Ho8  1  0.324383  0.132145  0.807762  1
  Ho  Ho9  1  0.675617  0.483380  0.807762  1
  Ho  Ho10  1  0.180557  0.205367  0.385924  1
  Ho  Ho11  1  0.819443  0.205367  0.024809  1
  Ni  Ni12  1  0.640077  0.499915  0.139992  1
  Ni  Ni13  1  0.359923  0.499915  0.859839  1
  Ni  Ni14  1  0.874528  0.874727  0.000199  1
  Ni  Ni15  1  0.125472  0.125671  0.000199  1
  Sn  Sn16  1  0.500000  0.000007  0.500007  1
  Au  Au17  1  0.000000  0.499822  0.499822  1
