# generated using pymatgen
data_Cs3Ho2I9
_symmetry_space_group_name_H-M   'P 1'
_cell_length_a   8.63592742
_cell_length_b   8.63592759
_cell_length_c   21.64020569
_cell_angle_alpha   89.33596272
_cell_angle_beta   89.33596413
_cell_angle_gamma   119.89288632
_symmetry_Int_Tables_number   1
_chemical_formula_structural   Cs3Ho2I9
_chemical_formula_sum   'Cs6 Ho4 I18'
_cell_volume   1398.81866429
_cell_formula_units_Z   2
loop_
 _symmetry_equiv_pos_site_id
 _symmetry_equiv_pos_as_xyz
  1  'x, y, z'
loop_
 _atom_site_type_symbol
 _atom_site_label
 _atom_site_symmetry_multiplicity
 _atom_site_fract_x
 _atom_site_fract_y
 _atom_site_fract_z
 _atom_site_occupancy
  Cs  Cs0  1  0.996813  0.003187  0.750000  1
  Cs  Cs1  1  0.665986  0.329728  0.074857  1
  Cs  Cs2  1  0.003187  0.996813  0.250000  1
  Cs  Cs3  1  0.329728  0.665986  0.574857  1
  Cs  Cs4  1  0.334014  0.670272  0.925143  1
  Cs  Cs5  1  0.670272  0.334014  0.425143  1
  Ho  Ho6  1  0.654175  0.324009  0.654840  1
  Ho  Ho7  1  0.345825  0.675991  0.345160  1
  Ho  Ho8  1  0.324009  0.654175  0.154840  1
  Ho  Ho9  1  0.675991  0.345825  0.845160  1
  I  I10  1  0.648452  0.814411  0.077738  1
  I  I11  1  0.351548  0.185589  0.922262  1
  I  I12  1  0.505863  0.017594  0.756771  1
  I  I13  1  0.188372  0.854154  0.414221  1
  I  I14  1  0.854154  0.188372  0.914221  1
  I  I15  1  0.814411  0.648452  0.577738  1
  I  I16  1  0.811628  0.145846  0.585779  1
  I  I17  1  0.311484  0.149847  0.592510  1
  I  I18  1  0.494137  0.982406  0.243229  1
  I  I19  1  0.982406  0.494137  0.743229  1
  I  I20  1  0.145846  0.811628  0.085779  1
  I  I21  1  0.017594  0.505863  0.256771  1
  I  I22  1  0.505957  0.494043  0.750000  1
  I  I23  1  0.850153  0.688516  0.907490  1
  I  I24  1  0.149847  0.311484  0.092510  1
  I  I25  1  0.688516  0.850153  0.407490  1
  I  I26  1  0.494043  0.505957  0.250000  1
  I  I27  1  0.185589  0.351548  0.422262  1
