# generated using pymatgen
data_TaNbHg3F12
_symmetry_space_group_name_H-M   'P 1'
_cell_length_a   9.01345700
_cell_length_b   6.12338300
_cell_length_c   12.24023075
_cell_angle_alpha   85.93644563
_cell_angle_beta   90.00000000
_cell_angle_gamma   90.00000000
_symmetry_Int_Tables_number   1
_chemical_formula_structural   TaNbHg3F12
_chemical_formula_sum   'Ta2 Nb2 Hg6 F24'
_cell_volume   673.87486160
_cell_formula_units_Z   2
loop_
 _symmetry_equiv_pos_site_id
 _symmetry_equiv_pos_as_xyz
  1  'x, y, z'
loop_
 _atom_site_type_symbol
 _atom_site_label
 _atom_site_symmetry_multiplicity
 _atom_site_fract_x
 _atom_site_fract_y
 _atom_site_fract_z
 _atom_site_occupancy
  Ta  Ta0  1  0.142906  0.704690  0.672839  1
  Ta  Ta1  1  0.642906  0.295310  0.827161  1
  Nb  Nb2  1  0.856486  0.295483  0.326866  1
  Nb  Nb3  1  0.356486  0.704517  0.173134  1
  Hg  Hg4  1  0.728714  0.754281  0.562577  1
  Hg  Hg5  1  0.228714  0.245719  0.937423  1
  Hg  Hg6  1  0.269922  0.244358  0.438647  1
  Hg  Hg7  1  0.769922  0.755642  0.061353  1
  Hg  Hg8  1  0.499831  0.001095  0.501121  1
  Hg  Hg9  1  0.999831  0.998905  0.998879  1
  F  F10  1  0.953521  0.586537  0.619887  1
  F  F11  1  0.453521  0.413463  0.880113  1
  F  F12  1  0.048736  0.413439  0.380198  1
  F  F13  1  0.548736  0.586561  0.119802  1
  F  F14  1  0.201964  0.409646  0.718514  1
  F  F15  1  0.701964  0.590354  0.781486  1
  F  F16  1  0.800211  0.594193  0.282769  1
  F  F17  1  0.300211  0.405807  0.217231  1
  F  F18  1  0.058817  0.722882  0.816189  1
  F  F19  1  0.558817  0.277118  0.683811  1
  F  F20  1  0.176963  0.841143  0.215783  1
  F  F21  1  0.676963  0.158857  0.284217  1
  F  F22  1  0.822736  0.163546  0.784040  1
  F  F23  1  0.322736  0.836454  0.715960  1
  F  F24  1  0.264602  0.657460  0.032257  1
  F  F25  1  0.764602  0.342540  0.467743  1
  F  F26  1  0.732284  0.341123  0.967643  1
  F  F27  1  0.232284  0.658877  0.532357  1
  F  F28  1  0.436692  0.981958  0.118413  1
  F  F29  1  0.936692  0.018042  0.381587  1
  F  F30  1  0.566444  0.016485  0.880107  1
  F  F31  1  0.066444  0.983515  0.619893  1
  F  F32  1  0.439172  0.720192  0.317991  1
  F  F33  1  0.939172  0.279808  0.182009  1
