# generated using pymatgen
data_Zr2Sc7Re4P
_symmetry_space_group_name_H-M   'P 1'
_cell_length_a   8.63502500
_cell_length_b   8.64698503
_cell_length_c   8.61347873
_cell_angle_alpha   90.00000255
_cell_angle_beta   90.06213029
_cell_angle_gamma   120.04582117
_symmetry_Int_Tables_number   1
_chemical_formula_structural   Zr2Sc7Re4P
_chemical_formula_sum   'Zr4 Sc14 Re8 P2'
_cell_volume   556.71955122
_cell_formula_units_Z   2
loop_
 _symmetry_equiv_pos_site_id
 _symmetry_equiv_pos_as_xyz
  1  'x, y, z'
loop_
 _atom_site_type_symbol
 _atom_site_label
 _atom_site_symmetry_multiplicity
 _atom_site_fract_x
 _atom_site_fract_y
 _atom_site_fract_z
 _atom_site_occupancy
  Zr  Zr0  1  0.393324  0.196662  0.954488  1
  Zr  Zr1  1  0.195494  0.801400  0.046344  1
  Zr  Zr2  1  0.195494  0.394094  0.046344  1
  Zr  Zr3  1  0.606856  0.803428  0.046390  1
  Sc  Sc4  1  0.197709  0.802464  0.452923  1
  Sc  Sc5  1  0.197709  0.395245  0.452923  1
  Sc  Sc6  1  0.605647  0.802823  0.452799  1
  Sc  Sc7  1  0.802747  0.197398  0.547220  1
  Sc  Sc8  1  0.802747  0.605349  0.547220  1
  Sc  Sc9  1  0.394623  0.197311  0.547809  1
  Sc  Sc10  1  0.802477  0.197837  0.951811  1
  Sc  Sc11  1  0.802477  0.604640  0.951811  1
  Sc  Sc12  1  0.538554  0.462594  0.250308  1
  Sc  Sc13  1  0.538554  0.075960  0.250308  1
  Sc  Sc14  1  0.923979  0.461989  0.250569  1
  Sc  Sc15  1  0.461818  0.538253  0.750383  1
  Sc  Sc16  1  0.461818  0.923566  0.750383  1
  Sc  Sc17  1  0.076444  0.538222  0.749879  1
  Re  Re18  1  0.892934  0.108055  0.249774  1
  Re  Re19  1  0.892934  0.784878  0.249774  1
  Re  Re20  1  0.215993  0.107996  0.248604  1
  Re  Re21  1  0.107781  0.892278  0.750895  1
  Re  Re22  1  0.107781  0.215504  0.750895  1
  Re  Re23  1  0.786205  0.893103  0.750861  1
  Re  Re24  1  0.001198  0.000599  0.498729  1
  Re  Re25  1  0.996747  0.998374  0.000172  1
  P  P26  1  0.333514  0.666758  0.250530  1
  P  P27  1  0.666443  0.333221  0.749852  1
