# generated using pymatgen
data_TbTmLu4FeBi2
_symmetry_space_group_name_H-M   'P 1'
_cell_length_a   8.19352984
_cell_length_b   8.17918411
_cell_length_c   4.14052300
_cell_angle_alpha   90.00000000
_cell_angle_beta   90.00000000
_cell_angle_gamma   120.05144246
_symmetry_Int_Tables_number   1
_chemical_formula_structural   TbTmLu4FeBi2
_chemical_formula_sum   'Tb1 Tm1 Lu4 Fe1 Bi2'
_cell_volume   240.18257615
_cell_formula_units_Z   1
loop_
 _symmetry_equiv_pos_site_id
 _symmetry_equiv_pos_as_xyz
  1  'x, y, z'
loop_
 _atom_site_type_symbol
 _atom_site_label
 _atom_site_symmetry_multiplicity
 _atom_site_fract_x
 _atom_site_fract_y
 _atom_site_fract_z
 _atom_site_occupancy
  Tb  Tb0  1  0.610807  0.000559  0.500000  1
  Tm  Tm1  1  0.386565  0.387410  0.500000  1
  Lu  Lu2  1  0.230079  0.000097  0.000000  1
  Lu  Lu3  1  0.999667  0.615700  0.500000  1
  Lu  Lu4  1  0.771190  0.770393  0.000000  1
  Lu  Lu5  1  0.000911  0.227915  0.000000  1
  Fe  Fe6  1  0.002455  0.996766  0.500000  1
  Bi  Bi7  1  0.330142  0.664637  0.000000  1
  Bi  Bi8  1  0.668184  0.336522  0.000000  1
