# generated using pymatgen
data_Yb3Pr17Si15Pd
_symmetry_space_group_name_H-M   'P 1'
_cell_length_a   7.95505378
_cell_length_b   7.91071973
_cell_length_c   15.19243594
_cell_angle_alpha   89.96998249
_cell_angle_beta   89.65685118
_cell_angle_gamma   90.21603941
_symmetry_Int_Tables_number   1
_chemical_formula_structural   Yb3Pr17Si15Pd
_chemical_formula_sum   'Yb3 Pr17 Si15 Pd1'
_cell_volume   956.03896037
_cell_formula_units_Z   1
loop_
 _symmetry_equiv_pos_site_id
 _symmetry_equiv_pos_as_xyz
  1  'x, y, z'
loop_
 _atom_site_type_symbol
 _atom_site_label
 _atom_site_symmetry_multiplicity
 _atom_site_fract_x
 _atom_site_fract_y
 _atom_site_fract_z
 _atom_site_occupancy
  Yb  Yb0  1  0.309193  0.308833  0.999267  1
  Yb  Yb1  1  0.190000  0.809428  0.250269  1
  Yb  Yb2  1  0.812562  0.190331  0.748909  1
  Pr  Pr3  1  0.691637  0.688040  0.499364  1
  Pr  Pr4  1  0.375478  0.009074  0.447175  1
  Pr  Pr5  1  0.493623  0.873161  0.699968  1
  Pr  Pr6  1  0.508455  0.123748  0.197592  1
  Pr  Pr7  1  0.874872  0.489383  0.298650  1
  Pr  Pr8  1  0.121945  0.511310  0.801960  1
  Pr  Pr9  1  0.625891  0.992079  0.949026  1
  Pr  Pr10  1  0.000051  0.375944  0.550611  1
  Pr  Pr11  1  0.991394  0.624041  0.051298  1
  Pr  Pr12  1  0.131691  0.991053  0.875086  1
  Pr  Pr13  1  0.512901  0.628354  0.125652  1
  Pr  Pr14  1  0.478678  0.365530  0.629693  1
  Pr  Pr15  1  0.628380  0.512106  0.875201  1
  Pr  Pr16  1  0.372478  0.483649  0.373652  1
  Pr  Pr17  1  0.874406  0.017635  0.375541  1
  Pr  Pr18  1  0.987162  0.124807  0.124166  1
  Pr  Pr19  1  0.020165  0.877466  0.624283  1
  Si  Si20  1  0.333104  0.699076  0.948719  1
  Si  Si21  1  0.662895  0.301430  0.450778  1
  Si  Si22  1  0.702447  0.334915  0.052434  1
  Si  Si23  1  0.304069  0.668411  0.548698  1
  Si  Si24  1  0.799721  0.834785  0.199896  1
  Si  Si25  1  0.165434  0.201685  0.298640  1
  Si  Si26  1  0.836963  0.799754  0.800886  1
  Si  Si27  1  0.287654  0.919002  0.058150  1
  Si  Si28  1  0.580699  0.786258  0.309027  1
  Si  Si29  1  0.429774  0.206900  0.814402  1
  Si  Si30  1  0.786794  0.582321  0.690364  1
  Si  Si31  1  0.212268  0.420920  0.189774  1
  Si  Si32  1  0.704524  0.074396  0.558641  1
  Si  Si33  1  0.919595  0.287924  0.942292  1
  Si  Si34  1  0.079548  0.713651  0.441262  1
  Pd  Pd35  1  0.193548  0.172600  0.698670  1
