# generated using pymatgen
data_Nd3Ni5Sb5Ir
_symmetry_space_group_name_H-M   'P 1'
_cell_length_a   4.29569100
_cell_length_b   10.15050800
_cell_length_c   12.84695400
_cell_angle_alpha   90.00000000
_cell_angle_beta   90.00000000
_cell_angle_gamma   90.00000000
_symmetry_Int_Tables_number   1
_chemical_formula_structural   Nd3Ni5Sb5Ir
_chemical_formula_sum   'Nd6 Ni10 Sb10 Ir2'
_cell_volume   560.17146322
_cell_formula_units_Z   2
loop_
 _symmetry_equiv_pos_site_id
 _symmetry_equiv_pos_as_xyz
  1  'x, y, z'
loop_
 _atom_site_type_symbol
 _atom_site_label
 _atom_site_symmetry_multiplicity
 _atom_site_fract_x
 _atom_site_fract_y
 _atom_site_fract_z
 _atom_site_occupancy
  Nd  Nd0  1  0.000000  0.245345  0.000000  1
  Nd  Nd1  1  0.500000  0.754655  0.500000  1
  Nd  Nd2  1  0.000000  0.249815  0.331322  1
  Nd  Nd3  1  0.500000  0.750185  0.168678  1
  Nd  Nd4  1  0.000000  0.249815  0.668678  1
  Nd  Nd5  1  0.500000  0.750185  0.831322  1
  Ni  Ni6  1  0.000000  0.000352  0.163726  1
  Ni  Ni7  1  0.500000  0.999648  0.336274  1
  Ni  Ni8  1  0.000000  0.000352  0.836274  1
  Ni  Ni9  1  0.500000  0.999648  0.663726  1
  Ni  Ni10  1  0.500000  0.995604  0.000000  1
  Ni  Ni11  1  0.000000  0.004396  0.500000  1
  Ni  Ni12  1  0.000000  0.620157  0.316848  1
  Ni  Ni13  1  0.500000  0.379843  0.183152  1
  Ni  Ni14  1  0.000000  0.620157  0.683152  1
  Ni  Ni15  1  0.500000  0.379843  0.816848  1
  Sb  Sb16  1  0.000000  0.512273  0.134396  1
  Sb  Sb17  1  0.500000  0.487727  0.365604  1
  Sb  Sb18  1  0.000000  0.512273  0.865604  1
  Sb  Sb19  1  0.500000  0.487727  0.634396  1
  Sb  Sb20  1  0.000000  0.869553  0.332465  1
  Sb  Sb21  1  0.500000  0.130447  0.167535  1
  Sb  Sb22  1  0.000000  0.869553  0.667535  1
  Sb  Sb23  1  0.500000  0.130447  0.832465  1
  Sb  Sb24  1  0.000000  0.860384  0.000000  1
  Sb  Sb25  1  0.500000  0.139616  0.500000  1
  Ir  Ir26  1  0.500000  0.496657  0.000000  1
  Ir  Ir27  1  0.000000  0.503343  0.500000  1
