# generated using pymatgen
data_Dy6YThC10
_symmetry_space_group_name_H-M   'P 1'
_cell_length_a   3.67614300
_cell_length_b   6.64097418
_cell_length_c   12.03209319
_cell_angle_alpha   91.03274121
_cell_angle_beta   90.00000000
_cell_angle_gamma   90.00000000
_symmetry_Int_Tables_number   1
_chemical_formula_structural   Dy6YThC10
_chemical_formula_sum   'Dy6 Y1 Th1 C10'
_cell_volume   293.69382973
_cell_formula_units_Z   1
loop_
 _symmetry_equiv_pos_site_id
 _symmetry_equiv_pos_as_xyz
  1  'x, y, z'
loop_
 _atom_site_type_symbol
 _atom_site_label
 _atom_site_symmetry_multiplicity
 _atom_site_fract_x
 _atom_site_fract_y
 _atom_site_fract_z
 _atom_site_occupancy
  Dy  Dy0  1  0.000000  0.258239  0.540598  1
  Dy  Dy1  1  0.000000  0.746197  0.458970  1
  Dy  Dy2  1  0.500000  0.109216  0.801788  1
  Dy  Dy3  1  0.500000  0.892184  0.200503  1
  Dy  Dy4  1  0.500000  0.601583  0.694803  1
  Dy  Dy5  1  0.500000  0.402784  0.301429  1
  Y  Y6  1  0.000000  0.242370  0.043347  1
  Th  Th7  1  0.000000  0.741002  0.957286  1
  C  C8  1  0.500000  0.502941  0.499805  1
  C  C9  1  0.500000  0.990386  0.999916  1
  C  C10  1  0.000000  0.360823  0.733489  1
  C  C11  1  0.000000  0.641819  0.270457  1
  C  C12  1  0.000000  0.857093  0.757094  1
  C  C13  1  0.000000  0.146125  0.238832  1
  C  C14  1  0.000000  0.379194  0.844927  1
  C  C15  1  0.000000  0.613751  0.159249  1
  C  C16  1  0.000000  0.086368  0.343519  1
  C  C17  1  0.000000  0.927925  0.653989  1
