# generated using pymatgen
data_Tm2LuMgIr8
_symmetry_space_group_name_H-M   'P 1'
_cell_length_a   5.29946100
_cell_length_b   5.29946051
_cell_length_c   8.60813000
_cell_angle_alpha   90.00000000
_cell_angle_beta   90.00000000
_cell_angle_gamma   120.00000929
_symmetry_Int_Tables_number   1
_chemical_formula_structural   Tm2LuMgIr8
_chemical_formula_sum   'Tm2 Lu1 Mg1 Ir8'
_cell_volume   209.36436728
_cell_formula_units_Z   1
loop_
 _symmetry_equiv_pos_site_id
 _symmetry_equiv_pos_as_xyz
  1  'x, y, z'
loop_
 _atom_site_type_symbol
 _atom_site_label
 _atom_site_symmetry_multiplicity
 _atom_site_fract_x
 _atom_site_fract_y
 _atom_site_fract_z
 _atom_site_occupancy
  Tm  Tm0  1  0.333333  0.666667  0.078072  1
  Tm  Tm1  1  0.666667  0.333333  0.559222  1
  Lu  Lu2  1  0.666667  0.333333  0.930787  1
  Mg  Mg3  1  0.333333  0.666667  0.439555  1
  Ir  Ir4  1  0.000000  0.000000  0.997508  1
  Ir  Ir5  1  0.000000  0.000000  0.497808  1
  Ir  Ir6  1  0.829984  0.659969  0.249956  1
  Ir  Ir7  1  0.171034  0.828966  0.749061  1
  Ir  Ir8  1  0.657933  0.828966  0.749061  1
  Ir  Ir9  1  0.340031  0.170016  0.249956  1
  Ir  Ir10  1  0.829984  0.170016  0.249956  1
  Ir  Ir11  1  0.171034  0.342067  0.749061  1
