# generated using pymatgen
data_CsTbSm2Se5
_symmetry_space_group_name_H-M   'P 1'
_cell_length_a   4.22605000
_cell_length_b   12.83990200
_cell_length_c   22.47321800
_cell_angle_alpha   90.00000000
_cell_angle_beta   90.00000000
_cell_angle_gamma   90.00000000
_symmetry_Int_Tables_number   1
_chemical_formula_structural   CsTbSm2Se5
_chemical_formula_sum   'Cs4 Tb4 Sm8 Se20'
_cell_volume   1219.44327986
_cell_formula_units_Z   4
loop_
 _symmetry_equiv_pos_site_id
 _symmetry_equiv_pos_as_xyz
  1  'x, y, z'
loop_
 _atom_site_type_symbol
 _atom_site_label
 _atom_site_symmetry_multiplicity
 _atom_site_fract_x
 _atom_site_fract_y
 _atom_site_fract_z
 _atom_site_occupancy
  Cs  Cs0  1  0.250000  0.847012  0.095091  1
  Cs  Cs1  1  0.750000  0.152988  0.904909  1
  Cs  Cs2  1  0.750000  0.347012  0.404909  1
  Cs  Cs3  1  0.250000  0.652988  0.595091  1
  Tb  Tb4  1  0.750000  0.393464  0.052725  1
  Tb  Tb5  1  0.250000  0.606536  0.947275  1
  Tb  Tb6  1  0.250000  0.893464  0.447275  1
  Tb  Tb7  1  0.750000  0.106536  0.552725  1
  Sm  Sm8  1  0.750000  0.798469  0.828828  1
  Sm  Sm9  1  0.250000  0.201531  0.171172  1
  Sm  Sm10  1  0.250000  0.298469  0.671172  1
  Sm  Sm11  1  0.750000  0.701531  0.328828  1
  Sm  Sm12  1  0.250000  0.960396  0.699063  1
  Sm  Sm13  1  0.750000  0.039604  0.300937  1
  Sm  Sm14  1  0.750000  0.460396  0.800937  1
  Sm  Sm15  1  0.250000  0.539604  0.199063  1
  Se  Se16  1  0.250000  0.951096  0.568764  1
  Se  Se17  1  0.750000  0.048904  0.431236  1
  Se  Se18  1  0.750000  0.451096  0.931236  1
  Se  Se19  1  0.250000  0.548904  0.068764  1
  Se  Se20  1  0.750000  0.757420  0.956229  1
  Se  Se21  1  0.250000  0.242580  0.043771  1
  Se  Se22  1  0.250000  0.257420  0.543771  1
  Se  Se23  1  0.750000  0.742580  0.456229  1
  Se  Se24  1  0.250000  0.950670  0.828791  1
  Se  Se25  1  0.750000  0.049330  0.171209  1
  Se  Se26  1  0.750000  0.450670  0.671209  1
  Se  Se27  1  0.250000  0.549330  0.328791  1
  Se  Se28  1  0.750000  0.128184  0.682837  1
  Se  Se29  1  0.250000  0.871816  0.317163  1
  Se  Se30  1  0.250000  0.628184  0.817163  1
  Se  Se31  1  0.750000  0.371816  0.182837  1
  Se  Se32  1  0.750000  0.690269  0.199315  1
  Se  Se33  1  0.250000  0.309731  0.800685  1
  Se  Se34  1  0.250000  0.190269  0.300685  1
  Se  Se35  1  0.750000  0.809731  0.699315  1
