# generated using pymatgen
data_Y6Ho6Th4Mg3HgIr4
_symmetry_space_group_name_H-M   'P 1'
_cell_length_a   9.80751240
_cell_length_b   9.80751366
_cell_length_c   9.80751400
_cell_angle_alpha   60.00000561
_cell_angle_beta   60.00000134
_cell_angle_gamma   60.00000517
_symmetry_Int_Tables_number   1
_chemical_formula_structural   Y6Ho6Th4Mg3HgIr4
_chemical_formula_sum   'Y6 Ho6 Th4 Mg3 Hg1 Ir4'
_cell_volume   667.05518832
_cell_formula_units_Z   1
loop_
 _symmetry_equiv_pos_site_id
 _symmetry_equiv_pos_as_xyz
  1  'x, y, z'
loop_
 _atom_site_type_symbol
 _atom_site_label
 _atom_site_symmetry_multiplicity
 _atom_site_fract_x
 _atom_site_fract_y
 _atom_site_fract_z
 _atom_site_occupancy
  Y  Y0  1  0.182540  0.814180  0.814180  1
  Y  Y1  1  0.815032  0.184833  0.184833  1
  Y  Y2  1  0.814180  0.182540  0.814180  1
  Y  Y3  1  0.184833  0.815032  0.184833  1
  Y  Y4  1  0.814180  0.814180  0.182540  1
  Y  Y5  1  0.184833  0.184833  0.815032  1
  Ho  Ho6  1  0.063432  0.436697  0.436697  1
  Ho  Ho7  1  0.436912  0.062682  0.062682  1
  Ho  Ho8  1  0.436697  0.063432  0.436697  1
  Ho  Ho9  1  0.062682  0.436912  0.062682  1
  Ho  Ho10  1  0.436697  0.436697  0.063432  1
  Ho  Ho11  1  0.062682  0.062682  0.436912  1
  Th  Th12  1  0.598254  0.598254  0.598254  1
  Th  Th13  1  0.598808  0.598808  0.204150  1
  Th  Th14  1  0.598808  0.204150  0.598808  1
  Th  Th15  1  0.204150  0.598808  0.598808  1
  Mg  Mg16  1  0.830640  0.830640  0.510076  1
  Mg  Mg17  1  0.830640  0.510076  0.830640  1
  Mg  Mg18  1  0.510076  0.830640  0.830640  1
  Hg  Hg19  1  0.833492  0.833492  0.833492  1
  Ir  Ir20  1  0.393192  0.393192  0.393192  1
  Ir  Ir21  1  0.393248  0.393248  0.820737  1
  Ir  Ir22  1  0.393248  0.820737  0.393248  1
  Ir  Ir23  1  0.820737  0.393248  0.393248  1
