# generated using pymatgen
data_YEr2B7Os
_symmetry_space_group_name_H-M   'P 1'
_cell_length_a   8.00131576
_cell_length_b   8.00131434
_cell_length_c   9.31084500
_cell_angle_alpha   90.00000000
_cell_angle_beta   90.00000000
_cell_angle_gamma   154.68858484
_symmetry_Int_Tables_number   1
_chemical_formula_structural   YEr2B7Os
_chemical_formula_sum   'Y2 Er4 B14 Os2'
_cell_volume   254.85111449
_cell_formula_units_Z   2
loop_
 _symmetry_equiv_pos_site_id
 _symmetry_equiv_pos_as_xyz
  1  'x, y, z'
loop_
 _atom_site_type_symbol
 _atom_site_label
 _atom_site_symmetry_multiplicity
 _atom_site_fract_x
 _atom_site_fract_y
 _atom_site_fract_z
 _atom_site_occupancy
  Y  Y0  1  0.753855  0.246145  0.250000  1
  Y  Y1  1  0.246145  0.753855  0.750000  1
  Er  Er2  1  0.894252  0.105748  0.941268  1
  Er  Er3  1  0.105748  0.894252  0.058732  1
  Er  Er4  1  0.894252  0.105748  0.558732  1
  Er  Er5  1  0.105748  0.894252  0.441268  1
  B  B6  1  0.544858  0.455142  0.250000  1
  B  B7  1  0.455142  0.544858  0.750000  1
  B  B8  1  0.520274  0.479726  0.903956  1
  B  B9  1  0.479726  0.520274  0.096044  1
  B  B10  1  0.479726  0.520274  0.403956  1
  B  B11  1  0.520274  0.479726  0.596044  1
  B  B12  1  0.632161  0.367839  0.849498  1
  B  B13  1  0.367839  0.632161  0.150502  1
  B  B14  1  0.727260  0.272740  0.966315  1
  B  B15  1  0.272740  0.727260  0.033685  1
  B  B16  1  0.272740  0.727260  0.466315  1
  B  B17  1  0.727260  0.272740  0.533685  1
  B  B18  1  0.632161  0.367839  0.650502  1
  B  B19  1  0.367839  0.632161  0.349498  1
  Os  Os20  1  0.053553  0.946447  0.750000  1
  Os  Os21  1  0.946447  0.053553  0.250000  1
