# generated using pymatgen
data_Hf16Co5Pd2W
_symmetry_space_group_name_H-M   'P 1'
_cell_length_a   8.57502099
_cell_length_b   8.66006607
_cell_length_c   8.60202700
_cell_angle_alpha   60.22145500
_cell_angle_beta   59.89576837
_cell_angle_gamma   60.18043829
_symmetry_Int_Tables_number   1
_chemical_formula_structural   Hf16Co5Pd2W
_chemical_formula_sum   'Hf16 Co5 Pd2 W1'
_cell_volume   452.69863674
_cell_formula_units_Z   1
loop_
 _symmetry_equiv_pos_site_id
 _symmetry_equiv_pos_as_xyz
  1  'x, y, z'
loop_
 _atom_site_type_symbol
 _atom_site_label
 _atom_site_symmetry_multiplicity
 _atom_site_fract_x
 _atom_site_fract_y
 _atom_site_fract_z
 _atom_site_occupancy
  Hf  Hf0  1  0.194341  0.601281  0.602188  1
  Hf  Hf1  1  0.606051  0.175772  0.609089  1
  Hf  Hf2  1  0.601591  0.601375  0.194978  1
  Hf  Hf3  1  0.601591  0.601375  0.602057  1
  Hf  Hf4  1  0.814455  0.814966  0.185290  1
  Hf  Hf5  1  0.182098  0.193431  0.812235  1
  Hf  Hf6  1  0.813083  0.197498  0.812596  1
  Hf  Hf7  1  0.195607  0.815962  0.176085  1
  Hf  Hf8  1  0.195607  0.815962  0.812346  1
  Hf  Hf9  1  0.813083  0.197498  0.176823  1
  Hf  Hf10  1  0.450149  0.448574  0.050638  1
  Hf  Hf11  1  0.055190  0.055916  0.444447  1
  Hf  Hf12  1  0.444064  0.055158  0.445679  1
  Hf  Hf13  1  0.055638  0.441310  0.055421  1
  Hf  Hf14  1  0.055638  0.441310  0.447631  1
  Hf  Hf15  1  0.444064  0.055158  0.055098  1
  Co  Co16  1  0.820969  0.385007  0.397011  1
  Co  Co17  1  0.390912  0.827114  0.390986  1
  Co  Co18  1  0.396049  0.385966  0.821030  1
  Co  Co19  1  0.396049  0.385966  0.396953  1
  Co  Co20  1  0.483181  0.829582  0.843619  1
  Pd  Pd21  1  0.831670  0.832614  0.498339  1
  Pd  Pd22  1  0.831670  0.832614  0.837378  1
  W  W23  1  0.827254  0.508585  0.832081  1
