# generated using pymatgen
data_Ta9Ti3Ga8(CuC)4
_symmetry_space_group_name_H-M   'P 1'
_cell_length_a   8.24268087
_cell_length_b   8.24204773
_cell_length_c   8.22549163
_cell_angle_alpha   60.09001381
_cell_angle_beta   60.04044389
_cell_angle_gamma   59.90135638
_symmetry_Int_Tables_number   1
_chemical_formula_structural   Ta9Ti3Ga8(CuC)4
_chemical_formula_sum   'Ta9 Ti3 Ga8 Cu4 C4'
_cell_volume   395.23222737
_cell_formula_units_Z   1
loop_
 _symmetry_equiv_pos_site_id
 _symmetry_equiv_pos_as_xyz
  1  'x, y, z'
loop_
 _atom_site_type_symbol
 _atom_site_label
 _atom_site_symmetry_multiplicity
 _atom_site_fract_x
 _atom_site_fract_y
 _atom_site_fract_z
 _atom_site_occupancy
  Ta  Ta0  1  0.934095  0.932000  0.565795  1
  Ta  Ta1  1  0.686083  0.316683  0.313633  1
  Ta  Ta2  1  0.314274  0.684596  0.684304  1
  Ta  Ta3  1  0.683428  0.682653  0.315882  1
  Ta  Ta4  1  0.685044  0.315544  0.683736  1
  Ta  Ta5  1  0.315215  0.685516  0.314947  1
  Ta  Ta6  1  0.567423  0.933677  0.565408  1
  Ta  Ta7  1  0.563798  0.934698  0.936781  1
  Ta  Ta8  1  0.937034  0.566503  0.561981  1
  Ti  Ti9  1  0.934897  0.566265  0.934626  1
  Ti  Ti10  1  0.316136  0.318454  0.682908  1
  Ti  Ti11  1  0.565433  0.568006  0.934372  1
  Ga  Ga12  1  0.911789  0.261524  0.914675  1
  Ga  Ga13  1  0.334481  0.334280  0.992929  1
  Ga  Ga14  1  0.997207  0.334578  0.334196  1
  Ga  Ga15  1  0.335205  0.334572  0.339092  1
  Ga  Ga16  1  0.256573  0.912571  0.915139  1
  Ga  Ga17  1  0.914872  0.911946  0.914918  1
  Ga  Ga18  1  0.915516  0.916344  0.252221  1
  Ga  Ga19  1  0.335171  0.995450  0.335071  1
  Cu  Cu20  1  0.126029  0.624234  0.124504  1
  Cu  Cu21  1  0.123668  0.123749  0.627905  1
  Cu  Cu22  1  0.624399  0.126291  0.124472  1
  Cu  Cu23  1  0.124402  0.124858  0.125394  1
  C  C24  1  0.619386  0.129137  0.626121  1
  C  C25  1  0.628372  0.623697  0.118809  1
  C  C26  1  0.125717  0.618940  0.629904  1
  C  C27  1  0.624353  0.623232  0.630279  1
