# generated using pymatgen
data_Yb6Ho2BiSb5
_symmetry_space_group_name_H-M   'P 1'
_cell_length_a   8.02551853
_cell_length_b   8.19418212
_cell_length_c   8.20497874
_cell_angle_alpha   109.91952914
_cell_angle_beta   109.01277964
_cell_angle_gamma   109.04314168
_symmetry_Int_Tables_number   1
_chemical_formula_structural   Yb6Ho2BiSb5
_chemical_formula_sum   'Yb6 Ho2 Bi1 Sb5'
_cell_volume   417.57504370
_cell_formula_units_Z   1
loop_
 _symmetry_equiv_pos_site_id
 _symmetry_equiv_pos_as_xyz
  1  'x, y, z'
loop_
 _atom_site_type_symbol
 _atom_site_label
 _atom_site_symmetry_multiplicity
 _atom_site_fract_x
 _atom_site_fract_y
 _atom_site_fract_z
 _atom_site_occupancy
  Yb  Yb0  1  0.498858  0.995789  0.646105  1
  Yb  Yb1  1  0.351900  0.352332  0.352092  1
  Yb  Yb2  1  0.501123  0.999982  0.145169  1
  Yb  Yb3  1  0.004042  0.649328  0.500632  1
  Yb  Yb4  1  0.855505  0.856611  0.853903  1
  Yb  Yb5  1  0.002134  0.144670  0.497944  1
  Ho  Ho6  1  0.144975  0.501155  0.003837  1
  Ho  Ho7  1  0.640122  0.500780  0.002301  1
  Bi  Bi8  1  0.753013  0.376703  0.632258  1
  Sb  Sb9  1  0.377044  0.622472  0.757273  1
  Sb  Sb10  1  0.876905  0.257352  0.122752  1
  Sb  Sb11  1  0.619944  0.742931  0.365595  1
  Sb  Sb12  1  0.119934  0.865299  0.242730  1
  Sb  Sb13  1  0.254499  0.134596  0.877410  1
