# generated using pymatgen
data_Tb3Nd4Er13Pt16
_symmetry_space_group_name_H-M   'P 1'
_cell_length_a   7.51495202
_cell_length_b   7.58916249
_cell_length_c   14.76568200
_cell_angle_alpha   90.00083047
_cell_angle_beta   90.00451355
_cell_angle_gamma   89.92507685
_symmetry_Int_Tables_number   1
_chemical_formula_structural   Tb3Nd4Er13Pt16
_chemical_formula_sum   'Tb3 Nd4 Er13 Pt16'
_cell_volume   842.11848821
_cell_formula_units_Z   1
loop_
 _symmetry_equiv_pos_site_id
 _symmetry_equiv_pos_as_xyz
  1  'x, y, z'
loop_
 _atom_site_type_symbol
 _atom_site_label
 _atom_site_symmetry_multiplicity
 _atom_site_fract_x
 _atom_site_fract_y
 _atom_site_fract_z
 _atom_site_occupancy
  Tb  Tb0  1  0.502046  0.321123  0.904988  1
  Tb  Tb1  1  0.498676  0.680763  0.405415  1
  Tb  Tb2  1  0.997958  0.820828  0.095706  1
  Nd  Nd3  1  0.500030  0.676492  0.093373  1
  Nd  Nd4  1  0.500226  0.324827  0.592919  1
  Nd  Nd5  1  0.999981  0.176387  0.907529  1
  Nd  Nd6  1  0.999563  0.173410  0.592907  1
  Er  Er7  1  0.680898  0.990430  0.250945  1
  Er  Er8  1  0.180823  0.509928  0.251275  1
  Er  Er9  1  0.819671  0.490060  0.750583  1
  Er  Er10  1  0.319915  0.010099  0.750478  1
  Er  Er11  1  0.654652  0.831426  0.622222  1
  Er  Er12  1  0.156259  0.667342  0.878213  1
  Er  Er13  1  0.842929  0.332322  0.377589  1
  Er  Er14  1  0.343380  0.167932  0.122856  1
  Er  Er15  1  0.341366  0.165942  0.377533  1
  Er  Er16  1  0.843492  0.332429  0.124096  1
  Er  Er17  1  0.154710  0.668569  0.622147  1
  Er  Er18  1  0.656692  0.832904  0.877180  1
  Er  Er19  1  0.998300  0.818455  0.405151  1
  Pt  Pt20  1  0.818374  0.642273  0.252559  1
  Pt  Pt21  1  0.312800  0.860513  0.252618  1
  Pt  Pt22  1  0.683265  0.139739  0.750969  1
  Pt  Pt23  1  0.186900  0.362481  0.750325  1
  Pt  Pt24  1  0.547952  0.380325  0.251724  1
  Pt  Pt25  1  0.045924  0.117884  0.250777  1
  Pt  Pt26  1  0.952453  0.877248  0.749584  1
  Pt  Pt27  1  0.453285  0.621878  0.750594  1
  Pt  Pt28  1  0.821283  0.542492  0.538721  1
  Pt  Pt29  1  0.322561  0.966229  0.957469  1
  Pt  Pt30  1  0.685518  0.026987  0.454537  1
  Pt  Pt31  1  0.176096  0.466942  0.043618  1
  Pt  Pt32  1  0.181486  0.473606  0.454056  1
  Pt  Pt33  1  0.682739  0.036016  0.042750  1
  Pt  Pt34  1  0.321902  0.958630  0.538980  1
  Pt  Pt35  1  0.815897  0.535089  0.957613  1
