# generated using pymatgen
data_YEr7B24OsRu3
_symmetry_space_group_name_H-M   'P 1'
_cell_length_a   3.63580200
_cell_length_b   9.10409399
_cell_length_c   11.47954000
_cell_angle_alpha   90.03639549
_cell_angle_beta   90.00000000
_cell_angle_gamma   90.00000000
_symmetry_Int_Tables_number   1
_chemical_formula_structural   YEr7B24OsRu3
_chemical_formula_sum   'Y1 Er7 B24 Os1 Ru3'
_cell_volume   379.98053972
_cell_formula_units_Z   1
loop_
 _symmetry_equiv_pos_site_id
 _symmetry_equiv_pos_as_xyz
  1  'x, y, z'
loop_
 _atom_site_type_symbol
 _atom_site_label
 _atom_site_symmetry_multiplicity
 _atom_site_fract_x
 _atom_site_fract_y
 _atom_site_fract_z
 _atom_site_occupancy
  Y  Y0  1  0.000000  0.322431  0.414033  1
  Er  Er1  1  0.000000  0.678226  0.586325  1
  Er  Er2  1  0.000000  0.822029  0.085728  1
  Er  Er3  1  0.000000  0.177729  0.914078  1
  Er  Er4  1  0.000000  0.943644  0.372208  1
  Er  Er5  1  0.000000  0.056316  0.627148  1
  Er  Er6  1  0.000000  0.443733  0.127578  1
  Er  Er7  1  0.000000  0.555631  0.872876  1
  B  B8  1  0.500000  0.554673  0.433387  1
  B  B9  1  0.500000  0.446488  0.567207  1
  B  B10  1  0.500000  0.053805  0.066565  1
  B  B11  1  0.500000  0.946212  0.933405  1
  B  B12  1  0.500000  0.748556  0.420104  1
  B  B13  1  0.500000  0.251791  0.580477  1
  B  B14  1  0.500000  0.248199  0.079744  1
  B  B15  1  0.500000  0.751590  0.920044  1
  B  B16  1  0.500000  0.791470  0.265863  1
  B  B17  1  0.500000  0.208511  0.734135  1
  B  B18  1  0.500000  0.291083  0.233451  1
  B  B19  1  0.500000  0.708360  0.766133  1
  B  B20  1  0.500000  0.631892  0.184763  1
  B  B21  1  0.500000  0.368108  0.815271  1
  B  B22  1  0.500000  0.131187  0.314641  1
  B  B23  1  0.500000  0.868353  0.685048  1
  B  B24  1  0.500000  0.982697  0.212670  1
  B  B25  1  0.500000  0.017252  0.787114  1
  B  B26  1  0.500000  0.483610  0.286824  1
  B  B27  1  0.500000  0.517116  0.713147  1
  B  B28  1  0.500000  0.607359  0.029783  1
  B  B29  1  0.500000  0.392206  0.970381  1
  B  B30  1  0.500000  0.106674  0.470349  1
  B  B31  1  0.500000  0.892893  0.529505  1
  Os  Os32  1  0.000000  0.862164  0.821237  1
  Ru  Ru33  1  0.000000  0.638416  0.320933  1
  Ru  Ru34  1  0.000000  0.362141  0.679442  1
  Ru  Ru35  1  0.000000  0.137455  0.178403  1
