# generated using pymatgen
data_La3YbMgRu
_symmetry_space_group_name_H-M   'P 1'
_cell_length_a   10.10130707
_cell_length_b   10.11051925
_cell_length_c   10.10130720
_cell_angle_alpha   59.96983093
_cell_angle_beta   60.06033980
_cell_angle_gamma   59.96982785
_symmetry_Int_Tables_number   1
_chemical_formula_structural   La3YbMgRu
_chemical_formula_sum   'La12 Yb4 Mg4 Ru4'
_cell_volume   729.47915755
_cell_formula_units_Z   4
loop_
 _symmetry_equiv_pos_site_id
 _symmetry_equiv_pos_as_xyz
  1  'x, y, z'
loop_
 _atom_site_type_symbol
 _atom_site_label
 _atom_site_symmetry_multiplicity
 _atom_site_fract_x
 _atom_site_fract_y
 _atom_site_fract_z
 _atom_site_occupancy
  La  La0  1  0.593368  0.593752  0.219128  1
  La  La1  1  0.437431  0.062569  0.062569  1
  La  La2  1  0.061429  0.438571  0.061429  1
  La  La3  1  0.438571  0.061429  0.438571  1
  La  La4  1  0.219128  0.593752  0.593368  1
  La  La5  1  0.062569  0.437431  0.437431  1
  La  La6  1  0.593752  0.219128  0.593752  1
  La  La7  1  0.593752  0.593368  0.593752  1
  La  La8  1  0.190776  0.809224  0.190776  1
  La  La9  1  0.809224  0.190776  0.809224  1
  La  La10  1  0.062569  0.062569  0.437431  1
  La  La11  1  0.437431  0.437431  0.062569  1
  Yb  Yb12  1  0.809889  0.190111  0.190111  1
  Yb  Yb13  1  0.190111  0.190111  0.809889  1
  Yb  Yb14  1  0.809889  0.809889  0.190111  1
  Yb  Yb15  1  0.190111  0.809889  0.809889  1
  Mg  Mg16  1  0.827835  0.828263  0.827835  1
  Mg  Mg17  1  0.516067  0.827835  0.828263  1
  Mg  Mg18  1  0.827835  0.516067  0.827835  1
  Mg  Mg19  1  0.828263  0.827835  0.516067  1
  Ru  Ru20  1  0.840973  0.385495  0.388036  1
  Ru  Ru21  1  0.385495  0.388036  0.385495  1
  Ru  Ru22  1  0.385495  0.840973  0.385495  1
  Ru  Ru23  1  0.388036  0.385495  0.840973  1
