# generated using pymatgen
data_Rb6Mo2O9
_symmetry_space_group_name_H-M   'P 1'
_cell_length_a   8.84224748
_cell_length_b   8.84224858
_cell_length_c   11.16427970
_cell_angle_alpha   67.90957472
_cell_angle_beta   67.90956688
_cell_angle_gamma   92.64682455
_symmetry_Int_Tables_number   1
_chemical_formula_structural   Rb6Mo2O9
_chemical_formula_sum   'Rb12 Mo4 O18'
_cell_volume   731.32229693
_cell_formula_units_Z   2
loop_
 _symmetry_equiv_pos_site_id
 _symmetry_equiv_pos_as_xyz
  1  'x, y, z'
loop_
 _atom_site_type_symbol
 _atom_site_label
 _atom_site_symmetry_multiplicity
 _atom_site_fract_x
 _atom_site_fract_y
 _atom_site_fract_z
 _atom_site_occupancy
  Rb  Rb0  1  0.497394  0.695719  0.020558  1
  Rb  Rb1  1  0.304281  0.502606  0.479442  1
  Rb  Rb2  1  0.502606  0.304281  0.979442  1
  Rb  Rb3  1  0.695719  0.497394  0.520558  1
  Rb  Rb4  1  0.002153  0.703553  0.026750  1
  Rb  Rb5  1  0.296447  0.997847  0.473250  1
  Rb  Rb6  1  0.997847  0.296447  0.973250  1
  Rb  Rb7  1  0.703553  0.002153  0.526750  1
  Rb  Rb8  1  0.095208  0.320328  0.265854  1
  Rb  Rb9  1  0.679672  0.904792  0.234146  1
  Rb  Rb10  1  0.904792  0.679672  0.734146  1
  Rb  Rb11  1  0.320328  0.095208  0.765854  1
  Mo  Mo12  1  0.373236  0.626764  0.750000  1
  Mo  Mo13  1  0.626764  0.373236  0.250000  1
  Mo  Mo14  1  0.146884  0.853116  0.250000  1
  Mo  Mo15  1  0.853116  0.146884  0.750000  1
  O  O16  1  0.094502  0.637013  0.283948  1
  O  O17  1  0.362987  0.905498  0.216052  1
  O  O18  1  0.905498  0.362987  0.716052  1
  O  O19  1  0.637013  0.094502  0.783948  1
  O  O20  1  0.884063  0.017076  0.903775  1
  O  O21  1  0.982924  0.115937  0.596225  1
  O  O22  1  0.115937  0.982924  0.096225  1
  O  O23  1  0.017076  0.884063  0.403775  1
  O  O24  1  0.674408  0.577219  0.256301  1
  O  O25  1  0.422781  0.325592  0.243699  1
  O  O26  1  0.325592  0.422781  0.743699  1
  O  O27  1  0.577219  0.674408  0.756301  1
  O  O28  1  0.520142  0.262542  0.458223  1
  O  O29  1  0.737458  0.479858  0.041777  1
  O  O30  1  0.479858  0.737458  0.541777  1
  O  O31  1  0.262542  0.520142  0.958223  1
  O  O32  1  0.226483  0.773517  0.750000  1
  O  O33  1  0.773517  0.226483  0.250000  1
