# generated using pymatgen
data_Hf8Fe5Co(Si7Ni)2
_symmetry_space_group_name_H-M   'P 1'
_cell_length_a   9.47180964
_cell_length_b   9.47199653
_cell_length_c   9.43235719
_cell_angle_alpha   94.12723682
_cell_angle_beta   94.12571445
_cell_angle_gamma   148.83563430
_symmetry_Int_Tables_number   1
_chemical_formula_structural   Hf8Fe5Co(Si7Ni)2
_chemical_formula_sum   'Hf8 Fe5 Co1 Si14 Ni2'
_cell_volume   421.92074679
_cell_formula_units_Z   1
loop_
 _symmetry_equiv_pos_site_id
 _symmetry_equiv_pos_as_xyz
  1  'x, y, z'
loop_
 _atom_site_type_symbol
 _atom_site_label
 _atom_site_symmetry_multiplicity
 _atom_site_fract_x
 _atom_site_fract_y
 _atom_site_fract_z
 _atom_site_occupancy
  Hf  Hf0  1  0.137867  0.137994  0.277232  1
  Hf  Hf1  1  0.862015  0.862149  0.722775  1
  Hf  Hf2  1  0.862039  0.137930  0.999975  1
  Hf  Hf3  1  0.137955  0.862062  0.999980  1
  Hf  Hf4  1  0.503967  0.307523  0.801947  1
  Hf  Hf5  1  0.504422  0.699893  0.196226  1
  Hf  Hf6  1  0.692499  0.496003  0.198029  1
  Hf  Hf7  1  0.300148  0.495547  0.803781  1
  Fe  Fe8  1  0.401523  0.902302  0.800627  1
  Fe  Fe9  1  0.097709  0.598469  0.199331  1
  Fe  Fe10  1  0.096996  0.903113  0.500032  1
  Fe  Fe11  1  0.401867  0.598079  0.500022  1
  Fe  Fe12  1  0.607206  0.392820  0.500008  1
  Co  Co13  1  0.893208  0.106699  0.500003  1
  Si  Si14  1  0.470890  0.065605  0.587097  1
  Si  Si15  1  0.473863  0.878867  0.410426  1
  Si  Si16  1  0.934436  0.529167  0.412986  1
  Si  Si17  1  0.121166  0.526168  0.589656  1
  Si  Si18  1  0.749670  0.749444  0.999853  1
  Si  Si19  1  0.250535  0.250356  0.000148  1
  Si  Si20  1  0.292461  0.292457  0.580183  1
  Si  Si21  1  0.707547  0.707525  0.419844  1
  Si  Si22  1  0.708973  0.290924  0.999968  1
  Si  Si23  1  0.290962  0.709142  0.999965  1
  Si  Si24  1  0.011903  0.310790  0.300933  1
  Si  Si25  1  0.009277  0.710744  0.698727  1
  Si  Si26  1  0.689047  0.987971  0.699043  1
  Si  Si27  1  0.289297  0.990807  0.301236  1
  Ni  Ni28  1  0.896814  0.396250  0.790769  1
  Ni  Ni29  1  0.603742  0.103205  0.209197  1
