# generated using pymatgen
data_PrSm9C4Br15
_symmetry_space_group_name_H-M   'P 1'
_cell_length_a   9.10699354
_cell_length_b   10.08820780
_cell_length_c   11.08948254
_cell_angle_alpha   70.23209173
_cell_angle_beta   66.13228521
_cell_angle_gamma   70.65925735
_symmetry_Int_Tables_number   1
_chemical_formula_structural   PrSm9C4Br15
_chemical_formula_sum   'Pr1 Sm9 C4 Br15'
_cell_volume   854.14627729
_cell_formula_units_Z   1
loop_
 _symmetry_equiv_pos_site_id
 _symmetry_equiv_pos_as_xyz
  1  'x, y, z'
loop_
 _atom_site_type_symbol
 _atom_site_label
 _atom_site_symmetry_multiplicity
 _atom_site_fract_x
 _atom_site_fract_y
 _atom_site_fract_z
 _atom_site_occupancy
  Pr  Pr0  1  0.971807  0.895830  0.736007  1
  Sm  Sm1  1  0.330395  0.747215  0.833253  1
  Sm  Sm2  1  0.668668  0.253557  0.167663  1
  Sm  Sm3  1  0.167645  0.429289  0.045668  1
  Sm  Sm4  1  0.832658  0.568813  0.954959  1
  Sm  Sm5  1  0.077619  0.178327  0.890483  1
  Sm  Sm6  1  0.923058  0.820717  0.109380  1
  Sm  Sm7  1  0.247215  0.540387  0.647519  1
  Sm  Sm8  1  0.752792  0.460922  0.351345  1
  Sm  Sm9  1  0.025998  0.108652  0.261237  1
  C  C10  1  0.879549  0.361997  0.170513  1
  C  C11  1  0.121452  0.635783  0.830726  1
  C  C12  1  0.957179  0.295860  0.059634  1
  C  C13  1  0.043561  0.700778  0.942011  1
  Br  Br14  1  0.498941  0.499562  0.000548  1
  Br  Br15  1  0.135379  0.811604  0.467222  1
  Br  Br16  1  0.868988  0.189050  0.525769  1
  Br  Br17  1  0.261690  0.025073  0.650794  1
  Br  Br18  1  0.745401  0.977068  0.348250  1
  Br  Br19  1  0.332469  0.168742  0.220299  1
  Br  Br20  1  0.661270  0.827274  0.782880  1
  Br  Br21  1  0.453334  0.369937  0.412340  1
  Br  Br22  1  0.546256  0.630974  0.587360  1
  Br  Br23  1  0.952634  0.440353  0.704649  1
  Br  Br24  1  0.047683  0.559026  0.295747  1
  Br  Br25  1  0.231359  0.907527  0.061821  1
  Br  Br26  1  0.764938  0.094873  0.943086  1
  Br  Br27  1  0.383902  0.270517  0.817009  1
  Br  Br28  1  0.616160  0.730290  0.181825  1
