# generated using pymatgen
data_Tb4Y11Er5Bi12
_symmetry_space_group_name_H-M   'P 1'
_cell_length_a   8.26223511
_cell_length_b   9.51962819
_cell_length_c   12.07871501
_cell_angle_alpha   90.00283484
_cell_angle_beta   90.02760921
_cell_angle_gamma   90.00931074
_symmetry_Int_Tables_number   1
_chemical_formula_structural   Tb4Y11Er5Bi12
_chemical_formula_sum   'Tb4 Y11 Er5 Bi12'
_cell_volume   950.03195463
_cell_formula_units_Z   1
loop_
 _symmetry_equiv_pos_site_id
 _symmetry_equiv_pos_as_xyz
  1  'x, y, z'
loop_
 _atom_site_type_symbol
 _atom_site_label
 _atom_site_symmetry_multiplicity
 _atom_site_fract_x
 _atom_site_fract_y
 _atom_site_fract_z
 _atom_site_occupancy
  Tb  Tb0  1  0.186256  0.750011  0.718973  1
  Tb  Tb1  1  0.686321  0.750000  0.781103  1
  Tb  Tb2  1  0.813817  0.250053  0.280998  1
  Tb  Tb3  1  0.313677  0.250257  0.218746  1
  Y  Y4  1  0.806540  0.063016  0.559983  1
  Y  Y5  1  0.693121  0.936978  0.059741  1
  Y  Y6  1  0.193575  0.562932  0.440075  1
  Y  Y7  1  0.693524  0.562871  0.059864  1
  Y  Y8  1  0.193540  0.937069  0.440066  1
  Y  Y9  1  0.306517  0.063095  0.940188  1
  Y  Y10  1  0.806477  0.437047  0.559937  1
  Y  Y11  1  0.354609  0.750212  0.215268  1
  Y  Y12  1  0.854498  0.750067  0.284714  1
  Y  Y13  1  0.645276  0.250385  0.784855  1
  Y  Y14  1  0.146013  0.250475  0.715548  1
  Er  Er15  1  0.026237  0.750022  0.988540  1
  Er  Er16  1  0.526118  0.750063  0.511481  1
  Er  Er17  1  0.974376  0.250385  0.011448  1
  Er  Er18  1  0.473897  0.250089  0.488538  1
  Er  Er19  1  0.306261  0.435284  0.940138  1
  Bi  Bi20  1  0.433702  0.004097  0.672829  1
  Bi  Bi21  1  0.934115  0.496156  0.827393  1
  Bi  Bi22  1  0.566198  0.504061  0.327134  1
  Bi  Bi23  1  0.066311  0.996054  0.172702  1
  Bi  Bi24  1  0.566286  0.996130  0.327204  1
  Bi  Bi25  1  0.066344  0.504186  0.172532  1
  Bi  Bi26  1  0.433518  0.496078  0.672962  1
  Bi  Bi27  1  0.933755  0.004189  0.827356  1
  Bi  Bi28  1  0.407780  0.748413  0.957908  1
  Bi  Bi29  1  0.908471  0.749996  0.541824  1
  Bi  Bi30  1  0.591329  0.250349  0.041641  1
  Bi  Bi31  1  0.091537  0.249980  0.458310  1
