# generated using pymatgen
data_Tb9Dy3TcRu3
_symmetry_space_group_name_H-M   'P 1'
_cell_length_a   6.32004013
_cell_length_b   7.35501515
_cell_length_c   9.25400528
_cell_angle_alpha   89.97824590
_cell_angle_beta   89.94372457
_cell_angle_gamma   89.96666446
_symmetry_Int_Tables_number   1
_chemical_formula_structural   Tb9Dy3TcRu3
_chemical_formula_sum   'Tb9 Dy3 Tc1 Ru3'
_cell_volume   430.16278658
_cell_formula_units_Z   1
loop_
 _symmetry_equiv_pos_site_id
 _symmetry_equiv_pos_as_xyz
  1  'x, y, z'
loop_
 _atom_site_type_symbol
 _atom_site_label
 _atom_site_symmetry_multiplicity
 _atom_site_fract_x
 _atom_site_fract_y
 _atom_site_fract_z
 _atom_site_occupancy
  Tb  Tb0  1  0.833652  0.824199  0.936571  1
  Tb  Tb1  1  0.668612  0.323839  0.934792  1
  Tb  Tb2  1  0.833760  0.824588  0.563353  1
  Tb  Tb3  1  0.332176  0.676037  0.434604  1
  Tb  Tb4  1  0.168488  0.176458  0.065326  1
  Tb  Tb5  1  0.866186  0.540444  0.250157  1
  Tb  Tb6  1  0.629371  0.042542  0.250248  1
  Tb  Tb7  1  0.136236  0.456669  0.749806  1
  Tb  Tb8  1  0.364579  0.957764  0.749759  1
  Dy  Dy9  1  0.332194  0.676003  0.065530  1
  Dy  Dy10  1  0.168335  0.176386  0.434991  1
  Dy  Dy11  1  0.669007  0.323612  0.565061  1
  Tc  Tc12  1  0.039364  0.886869  0.249907  1
  Ru  Ru13  1  0.459441  0.385662  0.250369  1
  Ru  Ru14  1  0.958493  0.115670  0.749387  1
  Ru  Ru15  1  0.540108  0.613257  0.750139  1
