# generated using pymatgen
data_Bi4OsRuO11
_symmetry_space_group_name_H-M   'P 1'
_cell_length_a   6.61961498
_cell_length_b   7.58343447
_cell_length_c   9.96136765
_cell_angle_alpha   101.30319250
_cell_angle_beta   91.90536361
_cell_angle_gamma   90.18737427
_symmetry_Int_Tables_number   1
_chemical_formula_structural   Bi4OsRuO11
_chemical_formula_sum   'Bi8 Os2 Ru2 O22'
_cell_volume   490.06009735
_cell_formula_units_Z   2
loop_
 _symmetry_equiv_pos_site_id
 _symmetry_equiv_pos_as_xyz
  1  'x, y, z'
loop_
 _atom_site_type_symbol
 _atom_site_label
 _atom_site_symmetry_multiplicity
 _atom_site_fract_x
 _atom_site_fract_y
 _atom_site_fract_z
 _atom_site_occupancy
  Bi  Bi0  1  0.755964  0.371737  0.477377  1
  Bi  Bi1  1  0.244036  0.628263  0.522623  1
  Bi  Bi2  1  0.751588  0.872748  0.478989  1
  Bi  Bi3  1  0.248412  0.127252  0.521011  1
  Bi  Bi4  1  0.482109  0.950781  0.821168  1
  Bi  Bi5  1  0.517891  0.049219  0.178832  1
  Bi  Bi6  1  0.403715  0.462281  0.828581  1
  Bi  Bi7  1  0.596285  0.537719  0.171419  1
  Os  Os8  1  0.935358  0.206959  0.814436  1
  Os  Os9  1  0.064642  0.793041  0.185564  1
  Ru  Ru10  1  0.936925  0.704406  0.810500  1
  Ru  Ru11  1  0.063075  0.295594  0.189500  1
  O  O12  1  0.235964  0.721647  0.767016  1
  O  O13  1  0.764036  0.278353  0.232984  1
  O  O14  1  0.636283  0.678418  0.828580  1
  O  O15  1  0.363717  0.321582  0.171420  1
  O  O16  1  0.645805  0.247569  0.840739  1
  O  O17  1  0.354195  0.752431  0.159261  1
  O  O18  1  0.893133  0.171787  0.614607  1
  O  O19  1  0.106867  0.828213  0.385393  1
  O  O20  1  0.224787  0.157525  0.766397  1
  O  O21  1  0.775213  0.842475  0.233603  1
  O  O22  1  0.909362  0.641127  0.603493  1
  O  O23  1  0.090638  0.358873  0.396507  1
  O  O24  1  0.003785  0.546239  0.179989  1
  O  O25  1  0.996215  0.453761  0.820011  1
  O  O26  1  0.997294  0.772477  0.002406  1
  O  O27  1  0.002706  0.227523  0.997594  1
  O  O28  1  0.582291  0.606159  0.391714  1
  O  O29  1  0.417709  0.393841  0.608286  1
  O  O30  1  0.147413  0.046188  0.207415  1
  O  O31  1  0.852587  0.953812  0.792585  1
  O  O32  1  0.539246  0.092497  0.398013  1
  O  O33  1  0.460754  0.907503  0.601987  1
