# generated using pymatgen
data_Ti3Te3Se
_symmetry_space_group_name_H-M   'P 1'
_cell_length_a   10.48556400
_cell_length_b   10.48556418
_cell_length_c   3.68621500
_cell_angle_alpha   90.00000000
_cell_angle_beta   90.00000000
_cell_angle_gamma   119.99999945
_symmetry_Int_Tables_number   1
_chemical_formula_structural   Ti3Te3Se
_chemical_formula_sum   'Ti6 Te6 Se2'
_cell_volume   350.99012198
_cell_formula_units_Z   2
loop_
 _symmetry_equiv_pos_site_id
 _symmetry_equiv_pos_as_xyz
  1  'x, y, z'
loop_
 _atom_site_type_symbol
 _atom_site_label
 _atom_site_symmetry_multiplicity
 _atom_site_fract_x
 _atom_site_fract_y
 _atom_site_fract_z
 _atom_site_occupancy
  Ti  Ti0  1  0.498946  0.638292  0.750000  1
  Ti  Ti1  1  0.860655  0.498946  0.250000  1
  Ti  Ti2  1  0.638292  0.139345  0.250000  1
  Ti  Ti3  1  0.361708  0.860655  0.750000  1
  Ti  Ti4  1  0.139345  0.501054  0.750000  1
  Ti  Ti5  1  0.501054  0.361708  0.250000  1
  Te  Te6  1  0.655745  0.951583  0.750000  1
  Te  Te7  1  0.704161  0.655745  0.250000  1
  Te  Te8  1  0.951583  0.295839  0.250000  1
  Te  Te9  1  0.048417  0.704161  0.750000  1
  Te  Te10  1  0.295839  0.344255  0.750000  1
  Te  Te11  1  0.344255  0.048417  0.250000  1
  Se  Se12  1  0.333333  0.666667  0.250000  1
  Se  Se13  1  0.666667  0.333333  0.750000  1
