# generated using pymatgen
data_Y15Ho4ThIr12
_symmetry_space_group_name_H-M   'P 1'
_cell_length_a   10.97554468
_cell_length_b   10.94705337
_cell_length_c   6.36989991
_cell_angle_alpha   90.04088039
_cell_angle_beta   89.76467093
_cell_angle_gamma   90.13563256
_symmetry_Int_Tables_number   1
_chemical_formula_structural   Y15Ho4ThIr12
_chemical_formula_sum   'Y15 Ho4 Th1 Ir12'
_cell_volume   765.33387775
_cell_formula_units_Z   1
loop_
 _symmetry_equiv_pos_site_id
 _symmetry_equiv_pos_as_xyz
  1  'x, y, z'
loop_
 _atom_site_type_symbol
 _atom_site_label
 _atom_site_symmetry_multiplicity
 _atom_site_fract_x
 _atom_site_fract_y
 _atom_site_fract_z
 _atom_site_occupancy
  Y  Y0  1  0.291225  0.909273  0.876483  1
  Y  Y1  1  0.708092  0.088070  0.879178  1
  Y  Y2  1  0.709059  0.910774  0.378002  1
  Y  Y3  1  0.588461  0.791467  0.878887  1
  Y  Y4  1  0.593125  0.210101  0.378347  1
  Y  Y5  1  0.413575  0.787364  0.379017  1
  Y  Y6  1  0.414007  0.210098  0.877699  1
  Y  Y7  1  0.209091  0.412640  0.622236  1
  Y  Y8  1  0.208497  0.588692  0.122383  1
  Y  Y9  1  0.791106  0.412690  0.121152  1
  Y  Y10  1  0.791396  0.588376  0.621811  1
  Y  Y11  1  0.911786  0.708892  0.122322  1
  Y  Y12  1  0.911057  0.291474  0.620671  1
  Y  Y13  1  0.087510  0.708675  0.621267  1
  Y  Y14  1  0.084853  0.291799  0.119200  1
  Ho  Ho15  1  0.995940  0.998782  0.500567  1
  Ho  Ho16  1  0.999893  0.999680  0.999744  1
  Ho  Ho17  1  0.499984  0.500070  0.002195  1
  Ho  Ho18  1  0.501349  0.499538  0.501705  1
  Th  Th19  1  0.290478  0.089832  0.379362  1
  Ir  Ir20  1  0.848032  0.152795  0.248746  1
  Ir  Ir21  1  0.847395  0.847618  0.751412  1
  Ir  Ir22  1  0.153387  0.152214  0.742589  1
  Ir  Ir23  1  0.155062  0.851001  0.253090  1
  Ir  Ir24  1  0.652779  0.348632  0.750879  1
  Ir  Ir25  1  0.652441  0.651855  0.249047  1
  Ir  Ir26  1  0.347238  0.344734  0.252856  1
  Ir  Ir27  1  0.347599  0.651152  0.751110  1
  Ir  Ir28  1  0.497063  0.000878  0.127815  1
  Ir  Ir29  1  0.498868  0.000100  0.620333  1
  Ir  Ir30  1  0.999781  0.500151  0.875205  1
  Ir  Ir31  1  0.999869  0.500586  0.374692  1
