# generated using pymatgen
data_Dy3Y5Ti11Si16Mo
_symmetry_space_group_name_H-M   'P 1'
_cell_length_a   7.04236566
_cell_length_b   7.04254891
_cell_length_c   12.94734801
_cell_angle_alpha   90.01959569
_cell_angle_beta   89.97819834
_cell_angle_gamma   90.00977938
_symmetry_Int_Tables_number   1
_chemical_formula_structural   Dy3Y5Ti11Si16Mo
_chemical_formula_sum   'Dy3 Y5 Ti11 Si16 Mo1'
_cell_volume   642.13922815
_cell_formula_units_Z   1
loop_
 _symmetry_equiv_pos_site_id
 _symmetry_equiv_pos_as_xyz
  1  'x, y, z'
loop_
 _atom_site_type_symbol
 _atom_site_label
 _atom_site_symmetry_multiplicity
 _atom_site_fract_x
 _atom_site_fract_y
 _atom_site_fract_z
 _atom_site_occupancy
  Dy  Dy0  1  0.502730  0.160083  0.217349  1
  Dy  Dy1  1  0.498911  0.840055  0.715543  1
  Dy  Dy2  1  0.341510  0.001331  0.467097  1
  Y  Y3  1  0.996925  0.659916  0.032969  1
  Y  Y4  1  0.001388  0.341414  0.532891  1
  Y  Y5  1  0.659914  0.996913  0.967040  1
  Y  Y6  1  0.160148  0.502815  0.782622  1
  Y  Y7  1  0.840000  0.498816  0.284404  1
  Ti  Ti8  1  0.348220  0.508289  0.375096  1
  Ti  Ti9  1  0.846270  0.990702  0.376868  1
  Ti  Ti10  1  0.007962  0.152098  0.123885  1
  Ti  Ti11  1  0.990749  0.846308  0.623086  1
  Ti  Ti12  1  0.508375  0.348147  0.624863  1
  Ti  Ti13  1  0.152117  0.007967  0.876092  1
  Ti  Ti14  1  0.826067  0.172593  0.749611  1
  Ti  Ti15  1  0.172663  0.826210  0.250399  1
  Ti  Ti16  1  0.327063  0.327047  0.000044  1
  Ti  Ti17  1  0.492329  0.651888  0.126635  1
  Ti  Ti18  1  0.651876  0.492390  0.873331  1
  Si  Si19  1  0.046708  0.709406  0.435112  1
  Si  Si20  1  0.952710  0.291196  0.934957  1
  Si  Si21  1  0.709227  0.046636  0.564922  1
  Si  Si22  1  0.208482  0.453582  0.185088  1
  Si  Si23  1  0.791291  0.547335  0.684605  1
  Si  Si24  1  0.453651  0.208389  0.814891  1
  Si  Si25  1  0.547255  0.791493  0.315427  1
  Si  Si26  1  0.291227  0.952773  0.065104  1
  Si  Si27  1  0.797906  0.870129  0.184857  1
  Si  Si28  1  0.298826  0.629424  0.565345  1
  Si  Si29  1  0.702457  0.370096  0.065397  1
  Si  Si30  1  0.629243  0.298698  0.434691  1
  Si  Si31  1  0.370182  0.702478  0.934617  1
  Si  Si32  1  0.129861  0.202155  0.315303  1
  Si  Si33  1  0.202304  0.129689  0.684687  1
  Si  Si34  1  0.869996  0.797937  0.815134  1
  Mo  Mo35  1  0.673455  0.673598  0.500037  1
