# generated using pymatgen
data_Ho3Sn3GeIrRh
_symmetry_space_group_name_H-M   'P 1'
_cell_length_a   7.39391400
_cell_length_b   7.39391369
_cell_length_c   4.14889000
_cell_angle_alpha   90.00000000
_cell_angle_beta   90.00000000
_cell_angle_gamma   120.00000138
_symmetry_Int_Tables_number   1
_chemical_formula_structural   Ho3Sn3GeIrRh
_chemical_formula_sum   'Ho3 Sn3 Ge1 Ir1 Rh1'
_cell_volume   196.43158354
_cell_formula_units_Z   1
loop_
 _symmetry_equiv_pos_site_id
 _symmetry_equiv_pos_as_xyz
  1  'x, y, z'
loop_
 _atom_site_type_symbol
 _atom_site_label
 _atom_site_symmetry_multiplicity
 _atom_site_fract_x
 _atom_site_fract_y
 _atom_site_fract_z
 _atom_site_occupancy
  Ho  Ho0  1  0.011950  0.413314  0.000000  1
  Ho  Ho1  1  0.586686  0.598636  0.000000  1
  Ho  Ho2  1  0.401364  0.988050  0.000000  1
  Sn  Sn3  1  0.245211  0.258065  0.500000  1
  Sn  Sn4  1  0.012852  0.754789  0.500000  1
  Sn  Sn5  1  0.741935  0.987148  0.500000  1
  Ge  Ge6  1  0.666667  0.333333  0.500000  1
  Ir  Ir7  1  0.333333  0.666667  0.500000  1
  Rh  Rh8  1  0.000000  0.000000  0.000000  1
