# generated using pymatgen
data_Nb12Co8Re3WC4
_symmetry_space_group_name_H-M   'P 1'
_cell_length_a   8.16658229
_cell_length_b   8.16658224
_cell_length_c   8.16658332
_cell_angle_alpha   60.15578096
_cell_angle_beta   60.15577926
_cell_angle_gamma   60.15578059
_symmetry_Int_Tables_number   1
_chemical_formula_structural   Nb12Co8Re3WC4
_chemical_formula_sum   'Nb12 Co8 Re3 W1 C4'
_cell_volume   386.48778167
_cell_formula_units_Z   1
loop_
 _symmetry_equiv_pos_site_id
 _symmetry_equiv_pos_as_xyz
  1  'x, y, z'
loop_
 _atom_site_type_symbol
 _atom_site_label
 _atom_site_symmetry_multiplicity
 _atom_site_fract_x
 _atom_site_fract_y
 _atom_site_fract_z
 _atom_site_occupancy
  Nb  Nb0  1  0.693661  0.306379  0.693661  1
  Nb  Nb1  1  0.943621  0.556339  0.556339  1
  Nb  Nb2  1  0.558852  0.942346  0.942346  1
  Nb  Nb3  1  0.942346  0.558852  0.942346  1
  Nb  Nb4  1  0.556339  0.556339  0.943621  1
  Nb  Nb5  1  0.942346  0.942346  0.558852  1
  Nb  Nb6  1  0.693661  0.693661  0.306379  1
  Nb  Nb7  1  0.306379  0.693661  0.693661  1
  Nb  Nb8  1  0.691148  0.307654  0.307654  1
  Nb  Nb9  1  0.307654  0.307654  0.691148  1
  Nb  Nb10  1  0.556339  0.943621  0.556339  1
  Nb  Nb11  1  0.307654  0.691148  0.307654  1
  Co  Co12  1  0.325894  0.325894  0.325894  1
  Co  Co13  1  0.228641  0.923421  0.923421  1
  Co  Co14  1  0.923421  0.228641  0.923421  1
  Co  Co15  1  0.923421  0.923421  0.228641  1
  Co  Co16  1  0.326579  0.021359  0.326579  1
  Co  Co17  1  0.326579  0.326579  0.021359  1
  Co  Co18  1  0.021359  0.326579  0.326579  1
  Co  Co19  1  0.924106  0.924106  0.924106  1
  Re  Re20  1  0.625000  0.125000  0.125000  1
  Re  Re21  1  0.125000  0.625000  0.125000  1
  Re  Re22  1  0.125000  0.125000  0.625000  1
  W  W23  1  0.125000  0.125000  0.125000  1
  C  C24  1  0.625000  0.625000  0.625000  1
  C  C25  1  0.125000  0.625000  0.625000  1
  C  C26  1  0.625000  0.125000  0.625000  1
  C  C27  1  0.625000  0.625000  0.125000  1
