# generated using pymatgen
data_YZn4(GaCu)4
_symmetry_space_group_name_H-M   'P 1'
_cell_length_a   5.16988633
_cell_length_b   6.69422692
_cell_length_c   6.69422688
_cell_angle_alpha   98.58858997
_cell_angle_beta   112.71486572
_cell_angle_gamma   67.28515030
_symmetry_Int_Tables_number   1
_chemical_formula_structural   YZn4(GaCu)4
_chemical_formula_sum   'Y1 Zn4 Ga4 Cu4'
_cell_volume   197.13157595
_cell_formula_units_Z   1
loop_
 _symmetry_equiv_pos_site_id
 _symmetry_equiv_pos_as_xyz
  1  'x, y, z'
loop_
 _atom_site_type_symbol
 _atom_site_label
 _atom_site_symmetry_multiplicity
 _atom_site_fract_x
 _atom_site_fract_y
 _atom_site_fract_z
 _atom_site_occupancy
  Y  Y0  1  0.000000  0.000000  0.000000  1
  Zn  Zn1  1  0.714635  0.785365  0.214635  1
  Zn  Zn2  1  0.285365  0.214635  0.785365  1
  Zn  Zn3  1  0.500000  0.782898  0.782898  1
  Zn  Zn4  1  0.500000  0.217102  0.217102  1
  Ga  Ga5  1  0.653547  0.346453  0.653547  1
  Ga  Ga6  1  0.346453  0.653547  0.346453  1
  Ga  Ga7  1  0.000000  0.347251  0.347251  1
  Ga  Ga8  1  0.000000  0.652749  0.652749  1
  Cu  Cu9  1  0.500000  0.000000  0.500000  1
  Cu  Cu10  1  0.000000  0.000000  0.500000  1
  Cu  Cu11  1  0.500000  0.500000  0.000000  1
  Cu  Cu12  1  0.000000  0.500000  0.000000  1
