# generated using pymatgen
data_Cu3Sn6IrRuSe16
_symmetry_space_group_name_H-M   'P 1'
_cell_length_a   7.75079400
_cell_length_b   7.78155668
_cell_length_c   10.97907682
_cell_angle_alpha   90.16114191
_cell_angle_beta   90.00000000
_cell_angle_gamma   90.00000000
_symmetry_Int_Tables_number   1
_chemical_formula_structural   Cu3Sn6IrRuSe16
_chemical_formula_sum   'Cu3 Sn6 Ir1 Ru1 Se16'
_cell_volume   662.18110799
_cell_formula_units_Z   1
loop_
 _symmetry_equiv_pos_site_id
 _symmetry_equiv_pos_as_xyz
  1  'x, y, z'
loop_
 _atom_site_type_symbol
 _atom_site_label
 _atom_site_symmetry_multiplicity
 _atom_site_fract_x
 _atom_site_fract_y
 _atom_site_fract_z
 _atom_site_occupancy
  Cu  Cu0  1  0.000000  0.995647  0.128300  1
  Cu  Cu1  1  0.500000  0.496445  0.624447  1
  Cu  Cu2  1  0.500000  0.003563  0.871495  1
  Sn  Sn3  1  0.000000  0.255692  0.742367  1
  Sn  Sn4  1  0.500000  0.739099  0.252831  1
  Sn  Sn5  1  0.759664  0.004224  0.501494  1
  Sn  Sn6  1  0.248752  0.499242  0.001443  1
  Sn  Sn7  1  0.240336  0.004224  0.501494  1
  Sn  Sn8  1  0.751248  0.499242  0.001443  1
  Ir  Ir9  1  0.500000  0.246856  0.246037  1
  Ru  Ru10  1  0.000000  0.756304  0.751986  1
  Se  Se11  1  0.000000  0.263375  0.492865  1
  Se  Se12  1  0.500000  0.753393  0.999933  1
  Se  Se13  1  0.000000  0.754685  0.525077  1
  Se  Se14  1  0.500000  0.249885  0.016182  1
  Se  Se15  1  0.229986  0.987007  0.750821  1
  Se  Se16  1  0.727903  0.472801  0.247976  1
  Se  Se17  1  0.770014  0.987007  0.750821  1
  Se  Se18  1  0.272097  0.472801  0.247976  1
  Se  Se19  1  0.500000  0.752317  0.502202  1
  Se  Se20  1  0.000000  0.245729  0.998945  1
  Se  Se21  1  0.500000  0.246241  0.479396  1
  Se  Se22  1  0.000000  0.747734  0.984141  1
  Se  Se23  1  0.269516  0.010710  0.251151  1
  Se  Se24  1  0.769328  0.522533  0.751513  1
  Se  Se25  1  0.730484  0.010710  0.251151  1
  Se  Se26  1  0.230672  0.522533  0.751513  1
