# generated using pymatgen
data_KTb(NbCl3)6
_symmetry_space_group_name_H-M   'P 1'
_cell_length_a   10.21777647
_cell_length_b   10.21777575
_cell_length_c   10.21777550
_cell_angle_alpha   55.24762651
_cell_angle_beta   55.24763182
_cell_angle_gamma   55.24763245
_symmetry_Int_Tables_number   1
_chemical_formula_structural   KTb(NbCl3)6
_chemical_formula_sum   'K1 Tb1 Nb6 Cl18'
_cell_volume   670.99556420
_cell_formula_units_Z   1
loop_
 _symmetry_equiv_pos_site_id
 _symmetry_equiv_pos_as_xyz
  1  'x, y, z'
loop_
 _atom_site_type_symbol
 _atom_site_label
 _atom_site_symmetry_multiplicity
 _atom_site_fract_x
 _atom_site_fract_y
 _atom_site_fract_z
 _atom_site_occupancy
  K  K0  1  0.221588  0.221588  0.221588  1
  Tb  Tb1  1  0.498428  0.498428  0.498428  1
  Nb  Nb2  1  0.799365  0.149558  0.912864  1
  Nb  Nb3  1  0.912864  0.799365  0.149558  1
  Nb  Nb4  1  0.149558  0.912864  0.799365  1
  Nb  Nb5  1  0.201919  0.850769  0.086040  1
  Nb  Nb6  1  0.086040  0.201919  0.850769  1
  Nb  Nb7  1  0.850769  0.086040  0.201919  1
  Cl  Cl8  1  0.862031  0.414057  0.726344  1
  Cl  Cl9  1  0.726344  0.862031  0.414057  1
  Cl  Cl10  1  0.414057  0.726344  0.862031  1
  Cl  Cl11  1  0.137737  0.585196  0.274915  1
  Cl  Cl12  1  0.274915  0.137737  0.585196  1
  Cl  Cl13  1  0.585196  0.274915  0.137737  1
  Cl  Cl14  1  0.529315  0.342556  0.806940  1
  Cl  Cl15  1  0.806940  0.529315  0.342556  1
  Cl  Cl16  1  0.342556  0.806940  0.529315  1
  Cl  Cl17  1  0.466415  0.658744  0.196186  1
  Cl  Cl18  1  0.196186  0.466415  0.658744  1
  Cl  Cl19  1  0.658744  0.196186  0.466415  1
  Cl  Cl20  1  0.661049  0.938562  0.073069  1
  Cl  Cl21  1  0.073069  0.661049  0.938562  1
  Cl  Cl22  1  0.938562  0.073069  0.661049  1
  Cl  Cl23  1  0.339506  0.061995  0.925990  1
  Cl  Cl24  1  0.925990  0.339506  0.061995  1
  Cl  Cl25  1  0.061995  0.925990  0.339506  1
