# generated using pymatgen
data_K(CrSe2)2
_symmetry_space_group_name_H-M   'P 1'
_cell_length_a   6.28028800
_cell_length_b   7.22808600
_cell_length_c   16.22435400
_cell_angle_alpha   90.00000000
_cell_angle_beta   90.00000000
_cell_angle_gamma   90.00000000
_symmetry_Int_Tables_number   1
_chemical_formula_structural   K(CrSe2)2
_chemical_formula_sum   'K4 Cr8 Se16'
_cell_volume   736.49581738
_cell_formula_units_Z   4
loop_
 _symmetry_equiv_pos_site_id
 _symmetry_equiv_pos_as_xyz
  1  'x, y, z'
loop_
 _atom_site_type_symbol
 _atom_site_label
 _atom_site_symmetry_multiplicity
 _atom_site_fract_x
 _atom_site_fract_y
 _atom_site_fract_z
 _atom_site_occupancy
  K  K0  1  0.359947  0.000000  0.000000  1
  K  K1  1  0.640053  0.500000  0.500000  1
  K  K2  1  0.024114  0.000000  0.500000  1
  K  K3  1  0.975886  0.500000  0.000000  1
  Cr  Cr4  1  0.002095  0.000000  0.250548  1
  Cr  Cr5  1  0.002095  0.000000  0.749452  1
  Cr  Cr6  1  0.997905  0.500000  0.249452  1
  Cr  Cr7  1  0.997905  0.500000  0.750548  1
  Cr  Cr8  1  0.500000  0.250000  0.250000  1
  Cr  Cr9  1  0.500000  0.750000  0.750000  1
  Cr  Cr10  1  0.500000  0.750000  0.250000  1
  Cr  Cr11  1  0.500000  0.250000  0.750000  1
  Se  Se12  1  0.832962  0.250582  0.338348  1
  Se  Se13  1  0.832962  0.749418  0.661652  1
  Se  Se14  1  0.167038  0.750582  0.161652  1
  Se  Se15  1  0.167038  0.249418  0.838348  1
  Se  Se16  1  0.167038  0.249418  0.161652  1
  Se  Se17  1  0.167038  0.750582  0.838348  1
  Se  Se18  1  0.832962  0.749418  0.338348  1
  Se  Se19  1  0.832962  0.250582  0.661652  1
  Se  Se20  1  0.671799  0.000000  0.162518  1
  Se  Se21  1  0.671799  0.000000  0.837482  1
  Se  Se22  1  0.328201  0.500000  0.337482  1
  Se  Se23  1  0.328201  0.500000  0.662518  1
  Se  Se24  1  0.336677  0.000000  0.337969  1
  Se  Se25  1  0.336677  0.000000  0.662031  1
  Se  Se26  1  0.663323  0.500000  0.162031  1
  Se  Se27  1  0.663323  0.500000  0.837969  1
