# generated using pymatgen
data_Tb15Ce(TmSn4)4
_symmetry_space_group_name_H-M   'P 1'
_cell_length_a   8.03175216
_cell_length_b   8.18259931
_cell_length_c   15.48660800
_cell_angle_alpha   90.01123845
_cell_angle_beta   90.01152799
_cell_angle_gamma   90.03038707
_symmetry_Int_Tables_number   1
_chemical_formula_structural   Tb15Ce(TmSn4)4
_chemical_formula_sum   'Tb15 Ce1 Tm4 Sn16'
_cell_volume   1017.78913645
_cell_formula_units_Z   1
loop_
 _symmetry_equiv_pos_site_id
 _symmetry_equiv_pos_as_xyz
  1  'x, y, z'
loop_
 _atom_site_type_symbol
 _atom_site_label
 _atom_site_symmetry_multiplicity
 _atom_site_fract_x
 _atom_site_fract_y
 _atom_site_fract_z
 _atom_site_occupancy
  Tb  Tb0  1  0.866717  0.662136  0.621600  1
  Tb  Tb1  1  0.633372  0.162239  0.377667  1
  Tb  Tb2  1  0.132951  0.337559  0.122707  1
  Tb  Tb3  1  0.633109  0.161872  0.121929  1
  Tb  Tb4  1  0.133748  0.338062  0.377880  1
  Tb  Tb5  1  0.366364  0.837871  0.622146  1
  Tb  Tb6  1  0.865881  0.661836  0.878256  1
  Tb  Tb7  1  0.520393  0.321701  0.902664  1
  Tb  Tb8  1  0.019291  0.179765  0.596672  1
  Tb  Tb9  1  0.480339  0.679053  0.402833  1
  Tb  Tb10  1  0.979943  0.821166  0.097479  1
  Tb  Tb11  1  0.480141  0.679061  0.097568  1
  Tb  Tb12  1  0.980325  0.820493  0.402833  1
  Tb  Tb13  1  0.520027  0.320617  0.596546  1
  Tb  Tb14  1  0.019604  0.179596  0.902748  1
  Ce  Ce15  1  0.368762  0.836717  0.878981  1
  Tm  Tm16  1  0.197136  0.503036  0.749273  1
  Tm  Tm17  1  0.696648  0.997374  0.749970  1
  Tm  Tm18  1  0.802544  0.497411  0.250069  1
  Tm  Tm19  1  0.302378  0.002860  0.250467  1
  Sn  Sn20  1  0.292678  0.036488  0.043577  1
  Sn  Sn21  1  0.793134  0.463353  0.457460  1
  Sn  Sn22  1  0.706628  0.963651  0.542417  1
  Sn  Sn23  1  0.205467  0.534469  0.957297  1
  Sn  Sn24  1  0.709814  0.964989  0.957305  1
  Sn  Sn25  1  0.207068  0.536205  0.542665  1
  Sn  Sn26  1  0.293237  0.036419  0.457599  1
  Sn  Sn27  1  0.792841  0.463453  0.042476  1
  Sn  Sn28  1  0.563708  0.616834  0.749797  1
  Sn  Sn29  1  0.062570  0.882160  0.750224  1
  Sn  Sn30  1  0.437006  0.382354  0.249896  1
  Sn  Sn31  1  0.936700  0.117567  0.249762  1
  Sn  Sn32  1  0.328401  0.150046  0.749524  1
  Sn  Sn33  1  0.829259  0.351163  0.749727  1
  Sn  Sn34  1  0.670810  0.851277  0.250074  1
  Sn  Sn35  1  0.171003  0.649150  0.249916  1
