# generated using pymatgen
data_YHo7(Sc3Si4)4
_symmetry_space_group_name_H-M   'P 1'
_cell_length_a   7.08362727
_cell_length_b   7.37022533
_cell_length_c   13.96908200
_cell_angle_alpha   90.01382209
_cell_angle_beta   89.98410614
_cell_angle_gamma   90.01017994
_symmetry_Int_Tables_number   1
_chemical_formula_structural   YHo7(Sc3Si4)4
_chemical_formula_sum   'Y1 Ho7 Sc12 Si16'
_cell_volume   729.29678267
_cell_formula_units_Z   1
loop_
 _symmetry_equiv_pos_site_id
 _symmetry_equiv_pos_as_xyz
  1  'x, y, z'
loop_
 _atom_site_type_symbol
 _atom_site_label
 _atom_site_symmetry_multiplicity
 _atom_site_fract_x
 _atom_site_fract_y
 _atom_site_fract_z
 _atom_site_occupancy
  Y  Y0  1  0.011801  0.175707  0.096657  1
  Ho  Ho1  1  0.988032  0.823962  0.902884  1
  Ho  Ho2  1  0.488184  0.675843  0.902927  1
  Ho  Ho3  1  0.988106  0.824148  0.596755  1
  Ho  Ho4  1  0.511857  0.324285  0.096844  1
  Ho  Ho5  1  0.011818  0.175799  0.403273  1
  Ho  Ho6  1  0.511885  0.324438  0.403499  1
  Ho  Ho7  1  0.487986  0.675605  0.596722  1
  Sc  Sc8  1  0.160965  0.502670  0.749871  1
  Sc  Sc9  1  0.838990  0.497107  0.250182  1
  Sc  Sc10  1  0.338819  0.002946  0.250179  1
  Sc  Sc11  1  0.661205  0.997168  0.749885  1
  Sc  Sc12  1  0.331481  0.176511  0.625587  1
  Sc  Sc13  1  0.668616  0.823583  0.374765  1
  Sc  Sc14  1  0.168773  0.676411  0.374793  1
  Sc  Sc15  1  0.668719  0.823502  0.125548  1
  Sc  Sc16  1  0.831468  0.323511  0.625535  1
  Sc  Sc17  1  0.331509  0.176466  0.874289  1
  Sc  Sc18  1  0.831207  0.323855  0.874335  1
  Sc  Sc19  1  0.168969  0.676254  0.125433  1
  Si  Si20  1  0.033278  0.115882  0.749933  1
  Si  Si21  1  0.966440  0.883785  0.250178  1
  Si  Si22  1  0.466551  0.615783  0.250147  1
  Si  Si23  1  0.533262  0.384243  0.749876  1
  Si  Si24  1  0.285512  0.872331  0.749846  1
  Si  Si25  1  0.714224  0.127396  0.250327  1
  Si  Si26  1  0.214767  0.372786  0.250277  1
  Si  Si27  1  0.785543  0.627609  0.749835  1
  Si  Si28  1  0.158563  0.464617  0.539556  1
  Si  Si29  1  0.841379  0.535278  0.460666  1
  Si  Si30  1  0.341212  0.964734  0.460767  1
  Si  Si31  1  0.841285  0.535745  0.039234  1
  Si  Si32  1  0.658581  0.035304  0.539502  1
  Si  Si33  1  0.158562  0.465076  0.960249  1
  Si  Si34  1  0.658317  0.035260  0.960437  1
  Si  Si35  1  0.342134  0.964400  0.039206  1
