# generated using pymatgen
data_Yb4Pr16GaSn11
_symmetry_space_group_name_H-M   'P 1'
_cell_length_a   8.29660966
_cell_length_b   8.29660966
_cell_length_c   14.63365031
_cell_angle_alpha   89.98306026
_cell_angle_beta   90.01693974
_cell_angle_gamma   90.31107225
_symmetry_Int_Tables_number   1
_chemical_formula_structural   Yb4Pr16GaSn11
_chemical_formula_sum   'Yb4 Pr16 Ga1 Sn11'
_cell_volume   1007.27382872
_cell_formula_units_Z   1
loop_
 _symmetry_equiv_pos_site_id
 _symmetry_equiv_pos_as_xyz
  1  'x, y, z'
loop_
 _atom_site_type_symbol
 _atom_site_label
 _atom_site_symmetry_multiplicity
 _atom_site_fract_x
 _atom_site_fract_y
 _atom_site_fract_z
 _atom_site_occupancy
  Yb  Yb0  1  0.999948  0.499951  0.746156  1
  Yb  Yb1  1  0.000835  0.496621  0.246122  1
  Yb  Yb2  1  0.496621  0.000835  0.253878  1
  Yb  Yb3  1  0.499951  0.999948  0.753844  1
  Pr  Pr4  1  0.828374  0.831322  0.601182  1
  Pr  Pr5  1  0.170531  0.838712  0.102749  1
  Pr  Pr6  1  0.167923  0.835729  0.397408  1
  Pr  Pr7  1  0.838712  0.170531  0.397251  1
  Pr  Pr8  1  0.672645  0.669942  0.397826  1
  Pr  Pr9  1  0.667016  0.328848  0.600131  1
  Pr  Pr10  1  0.331307  0.669748  0.600239  1
  Pr  Pr11  1  0.669942  0.672645  0.102174  1
  Pr  Pr12  1  0.669748  0.331307  0.899761  1
  Pr  Pr13  1  0.831322  0.828374  0.898818  1
  Pr  Pr14  1  0.320889  0.323922  0.394020  1
  Pr  Pr15  1  0.172211  0.169447  0.600609  1
  Pr  Pr16  1  0.835729  0.167923  0.102592  1
  Pr  Pr17  1  0.328848  0.667016  0.899869  1
  Pr  Pr18  1  0.323922  0.320889  0.105980  1
  Pr  Pr19  1  0.169447  0.172211  0.899391  1
  Ga  Ga20  1  0.124920  0.124920  0.250000  1
  Sn  Sn21  1  0.628379  0.371245  0.250022  1
  Sn  Sn22  1  0.129524  0.870793  0.750060  1
  Sn  Sn23  1  0.371655  0.371655  0.750000  1
  Sn  Sn24  1  0.371245  0.628379  0.249978  1
  Sn  Sn25  1  0.876905  0.876905  0.250000  1
  Sn  Sn26  1  0.628420  0.628420  0.750000  1
  Sn  Sn27  1  0.000025  0.501201  0.500926  1
  Sn  Sn28  1  0.870793  0.129524  0.749940  1
  Sn  Sn29  1  0.501086  0.999926  0.498119  1
  Sn  Sn30  1  0.501201  0.000025  0.999074  1
  Sn  Sn31  1  0.999926  0.501086  0.001881  1
