# generated using pymatgen
data_Ce6RhAu7
_symmetry_space_group_name_H-M   'P 1'
_cell_length_a   8.27550730
_cell_length_b   8.27550743
_cell_length_c   8.27550536
_cell_angle_alpha   114.35286418
_cell_angle_beta   114.35286735
_cell_angle_gamma   114.35287613
_symmetry_Int_Tables_number   1
_chemical_formula_structural   Ce6RhAu7
_chemical_formula_sum   'Ce6 Rh1 Au7'
_cell_volume   335.12424572
_cell_formula_units_Z   1
loop_
 _symmetry_equiv_pos_site_id
 _symmetry_equiv_pos_as_xyz
  1  'x, y, z'
loop_
 _atom_site_type_symbol
 _atom_site_label
 _atom_site_symmetry_multiplicity
 _atom_site_fract_x
 _atom_site_fract_y
 _atom_site_fract_z
 _atom_site_occupancy
  Ce  Ce0  1  0.383728  0.017463  0.267264  1
  Ce  Ce1  1  0.017463  0.267264  0.383728  1
  Ce  Ce2  1  0.267264  0.383728  0.017463  1
  Ce  Ce3  1  0.616272  0.982537  0.732736  1
  Ce  Ce4  1  0.982537  0.732736  0.616272  1
  Ce  Ce5  1  0.732736  0.616272  0.982537  1
  Rh  Rh6  1  0.000000  0.000000  0.000000  1
  Au  Au7  1  0.067546  0.564918  0.231724  1
  Au  Au8  1  0.231724  0.067546  0.564918  1
  Au  Au9  1  0.564918  0.231724  0.067546  1
  Au  Au10  1  0.768276  0.932454  0.435082  1
  Au  Au11  1  0.932454  0.435082  0.768276  1
  Au  Au12  1  0.435082  0.768276  0.932454  1
  Au  Au13  1  0.500000  0.500000  0.500000  1
