# generated using pymatgen
data_YbTm3TcRu7
_symmetry_space_group_name_H-M   'P 1'
_cell_length_a   5.18894152
_cell_length_b   5.34235530
_cell_length_c   8.93345739
_cell_angle_alpha   89.99999992
_cell_angle_beta   89.91397287
_cell_angle_gamma   120.98294420
_symmetry_Int_Tables_number   1
_chemical_formula_structural   YbTm3TcRu7
_chemical_formula_sum   'Yb1 Tm3 Tc1 Ru7'
_cell_volume   212.31158716
_cell_formula_units_Z   1
loop_
 _symmetry_equiv_pos_site_id
 _symmetry_equiv_pos_as_xyz
  1  'x, y, z'
loop_
 _atom_site_type_symbol
 _atom_site_label
 _atom_site_symmetry_multiplicity
 _atom_site_fract_x
 _atom_site_fract_y
 _atom_site_fract_z
 _atom_site_occupancy
  Yb  Yb0  1  0.326964  0.663482  0.434954  1
  Tm  Tm1  1  0.657250  0.328625  0.562074  1
  Tm  Tm2  1  0.658802  0.329400  0.933346  1
  Tm  Tm3  1  0.329263  0.664632  0.071892  1
  Tc  Tc4  1  0.677990  0.838995  0.749355  1
  Ru  Ru5  1  0.979496  0.989748  0.499325  1
  Ru  Ru6  1  0.979031  0.989515  0.999865  1
  Ru  Ru7  1  0.835263  0.166597  0.249167  1
  Ru  Ru8  1  0.835263  0.668666  0.249167  1
  Ru  Ru9  1  0.359374  0.179687  0.247508  1
  Ru  Ru10  1  0.180652  0.828915  0.751674  1
  Ru  Ru11  1  0.180652  0.351737  0.751674  1
