# generated using pymatgen
data_Tm2Pa(AlPt)3
_symmetry_space_group_name_H-M   'P 1'
_cell_length_a   7.10106190
_cell_length_b   7.10549309
_cell_length_c   8.10273400
_cell_angle_alpha   90.00000000
_cell_angle_beta   90.00000000
_cell_angle_gamma   120.51584974
_symmetry_Int_Tables_number   1
_chemical_formula_structural   Tm2Pa(AlPt)3
_chemical_formula_sum   'Tm4 Pa2 Al6 Pt6'
_cell_volume   352.20758176
_cell_formula_units_Z   2
loop_
 _symmetry_equiv_pos_site_id
 _symmetry_equiv_pos_as_xyz
  1  'x, y, z'
loop_
 _atom_site_type_symbol
 _atom_site_label
 _atom_site_symmetry_multiplicity
 _atom_site_fract_x
 _atom_site_fract_y
 _atom_site_fract_z
 _atom_site_occupancy
  Tm  Tm0  1  0.588385  0.004471  0.750000  1
  Tm  Tm1  1  0.004518  0.588310  0.750000  1
  Tm  Tm2  1  0.419240  0.419185  0.750000  1
  Tm  Tm3  1  0.408991  0.409003  0.250000  1
  Pa  Pa4  1  0.995265  0.577489  0.250000  1
  Pa  Pa5  1  0.577424  0.995199  0.250000  1
  Al  Al6  1  0.757337  0.757332  0.995352  1
  Al  Al7  1  0.240126  0.003847  0.997735  1
  Al  Al8  1  0.003861  0.240134  0.997623  1
  Al  Al9  1  0.757337  0.757332  0.504648  1
  Al  Al10  1  0.240126  0.003847  0.502265  1
  Al  Al11  1  0.003861  0.240134  0.502377  1
  Pt  Pt12  1  0.002923  0.002702  0.750000  1
  Pt  Pt13  1  0.989273  0.989766  0.250000  1
  Pt  Pt14  1  0.672401  0.333135  0.003567  1
  Pt  Pt15  1  0.672401  0.333135  0.496433  1
  Pt  Pt16  1  0.333266  0.672490  0.496371  1
  Pt  Pt17  1  0.333266  0.672490  0.003630  1
