# generated using pymatgen
data_TbPm2UO8
_symmetry_space_group_name_H-M   'P 1'
_cell_length_a   6.67246975
_cell_length_b   6.67247005
_cell_length_c   6.67246954
_cell_angle_alpha   131.70131634
_cell_angle_beta   131.70131791
_cell_angle_gamma   70.70117168
_symmetry_Int_Tables_number   1
_chemical_formula_structural   TbPm2UO8
_chemical_formula_sum   'Tb1 Pm2 U1 O8'
_cell_volume   162.22033266
_cell_formula_units_Z   1
loop_
 _symmetry_equiv_pos_site_id
 _symmetry_equiv_pos_as_xyz
  1  'x, y, z'
loop_
 _atom_site_type_symbol
 _atom_site_label
 _atom_site_symmetry_multiplicity
 _atom_site_fract_x
 _atom_site_fract_y
 _atom_site_fract_z
 _atom_site_occupancy
  Tb  Tb0  1  0.500000  0.500000  0.000000  1
  Pm  Pm1  1  0.000000  0.000000  0.000000  1
  Pm  Pm2  1  0.750000  0.250000  0.500000  1
  U  U3  1  0.250000  0.750000  0.500000  1
  O  O4  1  0.368412  0.398077  0.505478  1
  O  O5  1  0.892599  0.862935  0.494522  1
  O  O6  1  0.137065  0.107401  0.505478  1
  O  O7  1  0.601923  0.107401  0.970336  1
  O  O8  1  0.892599  0.398077  0.029664  1
  O  O9  1  0.601923  0.631588  0.494522  1
  O  O10  1  0.137065  0.631588  0.029664  1
  O  O11  1  0.368412  0.862935  0.970336  1
