# generated using pymatgen
data_TbNb3(PO4)6
_symmetry_space_group_name_H-M   'P 1'
_cell_length_a   8.92980598
_cell_length_b   9.16940352
_cell_length_c   8.92970600
_cell_angle_alpha   89.99686818
_cell_angle_beta   59.99803893
_cell_angle_gamma   119.13575737
_symmetry_Int_Tables_number   1
_chemical_formula_structural   TbNb3(PO4)6
_chemical_formula_sum   'Tb1 Nb3 P6 O24'
_cell_volume   523.64000664
_cell_formula_units_Z   1
loop_
 _symmetry_equiv_pos_site_id
 _symmetry_equiv_pos_as_xyz
  1  'x, y, z'
loop_
 _atom_site_type_symbol
 _atom_site_label
 _atom_site_symmetry_multiplicity
 _atom_site_fract_x
 _atom_site_fract_y
 _atom_site_fract_z
 _atom_site_occupancy
  Tb  Tb0  1  0.725510  0.088229  0.637173  1
  Nb  Nb1  1  0.282995  0.924368  0.358506  1
  Nb  Nb2  1  0.285349  0.427898  0.857327  1
  Nb  Nb3  1  0.716862  0.575216  0.141503  1
  P  P4  1  0.787077  0.748138  0.747558  1
  P  P5  1  0.480372  0.251161  0.536015  1
  P  P6  1  0.495912  0.748216  0.465248  1
  P  P7  1  0.234900  0.251283  0.229103  1
  P  P8  1  0.787306  0.251203  0.983542  1
  P  P9  1  0.213592  0.748173  0.038777  1
  O  O10  1  0.649987  0.909800  0.476132  1
  O  O11  1  0.997152  0.708201  0.096820  1
  O  O12  1  0.221249  0.584172  0.005275  1
  O  O13  1  0.224430  0.776722  0.207328  1
  O  O14  1  0.985137  0.274800  0.957918  1
  O  O15  1  0.793214  0.416455  0.025364  1
  O  O16  1  0.795069  0.240766  0.812517  1
  O  O17  1  0.805321  0.708441  0.905927  1
  O  O18  1  0.984130  0.776598  0.568169  1
  O  O19  1  0.633449  0.241035  0.554065  1
  O  O20  1  0.783389  0.909574  0.740120  1
  O  O21  1  0.589528  0.584017  0.773607  1
  O  O22  1  0.590634  0.084547  0.151964  1
  O  O23  1  0.597578  0.416304  0.376669  1
  O  O24  1  0.232617  0.274608  0.056994  1
  O  O25  1  0.331708  0.274681  0.710295  1
  O  O26  1  0.614511  0.708363  0.288745  1
  O  O27  1  0.342070  0.084367  0.506094  1
  O  O28  1  0.385957  0.909650  0.873657  1
  O  O29  1  0.357945  0.584234  0.636878  1
  O  O30  1  0.236705  0.084679  0.257513  1
  O  O31  1  0.442063  0.416648  0.181064  1
  O  O32  1  0.344888  0.776509  0.447593  1
  O  O33  1  0.053528  0.240937  0.392406  1
