# generated using pymatgen
data_Pr2FeCo2P7Ru9
_symmetry_space_group_name_H-M   'P 1'
_cell_length_a   9.38611105
_cell_length_b   9.41256680
_cell_length_c   3.88363400
_cell_angle_alpha   90.00000000
_cell_angle_beta   90.00000000
_cell_angle_gamma   119.74831168
_symmetry_Int_Tables_number   1
_chemical_formula_structural   Pr2FeCo2P7Ru9
_chemical_formula_sum   'Pr2 Fe1 Co2 P7 Ru9'
_cell_volume   297.89180532
_cell_formula_units_Z   1
loop_
 _symmetry_equiv_pos_site_id
 _symmetry_equiv_pos_as_xyz
  1  'x, y, z'
loop_
 _atom_site_type_symbol
 _atom_site_label
 _atom_site_symmetry_multiplicity
 _atom_site_fract_x
 _atom_site_fract_y
 _atom_site_fract_z
 _atom_site_occupancy
  Pr  Pr0  1  0.334706  0.667558  0.000000  1
  Pr  Pr1  1  0.666094  0.332808  0.500000  1
  Fe  Fe2  1  0.734328  0.844366  0.000000  1
  Co  Co3  1  0.156521  0.890983  0.000000  1
  Co  Co4  1  0.109139  0.265768  0.000000  1
  P  P5  1  0.408592  0.105023  0.000000  1
  P  P6  1  0.893941  0.303808  0.000000  1
  P  P7  1  0.695414  0.591864  0.000000  1
  P  P8  1  0.110178  0.714743  0.500000  1
  P  P9  1  0.285570  0.395441  0.500000  1
  P  P10  1  0.605766  0.887896  0.500000  1
  P  P11  1  0.998669  0.999979  0.000000  1
  Ru  Ru12  1  0.420617  0.361041  0.000000  1
  Ru  Ru13  1  0.638237  0.059351  0.000000  1
  Ru  Ru14  1  0.940852  0.579340  0.000000  1
  Ru  Ru15  1  0.381984  0.947742  0.500000  1
  Ru  Ru16  1  0.051119  0.433008  0.500000  1
  Ru  Ru17  1  0.566615  0.616905  0.500000  1
  Ru  Ru18  1  0.205285  0.118612  0.500000  1
  Ru  Ru19  1  0.881979  0.085026  0.500000  1
  Ru  Ru20  1  0.914393  0.798740  0.500000  1
