# generated using pymatgen
data_Na3Ca2SbO6
_symmetry_space_group_name_H-M   'P 1'
_cell_length_a   11.04268592
_cell_length_b   10.48716847
_cell_length_c   5.86211349
_cell_angle_alpha   79.50113916
_cell_angle_beta   69.03423392
_cell_angle_gamma   31.46463028
_symmetry_Int_Tables_number   1
_chemical_formula_structural   Na3Ca2SbO6
_chemical_formula_sum   'Na6 Ca4 Sb2 O12'
_cell_volume   320.18555039
_cell_formula_units_Z   2
loop_
 _symmetry_equiv_pos_site_id
 _symmetry_equiv_pos_as_xyz
  1  'x, y, z'
loop_
 _atom_site_type_symbol
 _atom_site_label
 _atom_site_symmetry_multiplicity
 _atom_site_fract_x
 _atom_site_fract_y
 _atom_site_fract_z
 _atom_site_occupancy
  Na  Na0  1  0.000000  0.000000  0.000000  1
  Na  Na1  1  0.086176  0.086176  0.413824  1
  Na  Na2  1  0.836176  0.836176  0.163824  1
  Na  Na3  1  0.163824  0.163824  0.836176  1
  Na  Na4  1  0.250000  0.250000  0.250000  1
  Na  Na5  1  0.413824  0.413824  0.086176  1
  Ca  Ca6  1  0.580507  0.580507  0.919493  1
  Ca  Ca7  1  0.919493  0.919493  0.580507  1
  Ca  Ca8  1  0.669493  0.669493  0.330507  1
  Ca  Ca9  1  0.330507  0.330507  0.669493  1
  Sb  Sb10  1  0.750000  0.750000  0.750000  1
  Sb  Sb11  1  0.500000  0.500000  0.500000  1
  O  O12  1  0.287463  0.712537  0.287463  1
  O  O13  1  0.712537  0.287463  0.712537  1
  O  O14  1  0.962537  0.537463  0.962537  1
  O  O15  1  0.537463  0.962537  0.537463  1
  O  O16  1  0.205922  0.646344  0.786292  1
  O  O17  1  0.361442  0.786292  0.646344  1
  O  O18  1  0.786292  0.361442  0.205922  1
  O  O19  1  0.646344  0.205922  0.361442  1
  O  O20  1  0.603656  0.044078  0.888558  1
  O  O21  1  0.888558  0.463708  0.603656  1
  O  O22  1  0.463708  0.888558  0.044078  1
  O  O23  1  0.044078  0.603656  0.463708  1
