# generated using pymatgen
data_Ca3NdOs6O19
_symmetry_space_group_name_H-M   'P 1'
_cell_length_a   7.86853367
_cell_length_b   7.91800815
_cell_length_c   7.91776412
_cell_angle_alpha   109.59289435
_cell_angle_beta   109.33861659
_cell_angle_gamma   109.35727814
_symmetry_Int_Tables_number   1
_chemical_formula_structural   Ca3NdOs6O19
_chemical_formula_sum   'Ca3 Nd1 Os6 O19'
_cell_volume   380.32591180
_cell_formula_units_Z   1
loop_
 _symmetry_equiv_pos_site_id
 _symmetry_equiv_pos_as_xyz
  1  'x, y, z'
loop_
 _atom_site_type_symbol
 _atom_site_label
 _atom_site_symmetry_multiplicity
 _atom_site_fract_x
 _atom_site_fract_y
 _atom_site_fract_z
 _atom_site_occupancy
  Ca  Ca0  1  0.998239  0.999226  0.286157  1
  Ca  Ca1  1  0.999048  0.286946  0.000777  1
  Ca  Ca2  1  0.712094  0.713846  0.713069  1
  Nd  Nd3  1  0.297284  0.999988  0.999994  1
  Os  Os4  1  0.362088  0.499929  0.862144  1
  Os  Os5  1  0.862144  0.362214  0.500078  1
  Os  Os6  1  0.499924  0.137834  0.637767  1
  Os  Os7  1  0.135331  0.634940  0.497539  1
  Os  Os8  1  0.500389  0.862570  0.365031  1
  Os  Os9  1  0.637796  0.502456  0.137376  1
  O  O10  1  0.325429  0.999017  0.326853  1
  O  O11  1  0.326467  0.327827  0.001022  1
  O  O12  1  0.998617  0.673195  0.672161  1
  O  O13  1  0.672868  0.672800  0.998399  1
  O  O14  1  0.000041  0.325626  0.327212  1
  O  O15  1  0.674444  0.001628  0.674451  1
  O  O16  1  0.013739  0.999993  0.999997  1
  O  O17  1  0.342198  0.280780  0.635987  1
  O  O18  1  0.061432  0.355188  0.719240  1
  O  O19  1  0.706211  0.364000  0.644785  1
  O  O20  1  0.365679  0.651117  0.712849  1
  O  O21  1  0.288272  0.937507  0.657674  1
  O  O22  1  0.630573  0.342298  0.279809  1
  O  O23  1  0.283466  0.633621  0.345185  1
  O  O24  1  0.714529  0.061741  0.348908  1
  O  O25  1  0.938290  0.654831  0.288413  1
  O  O26  1  0.649868  0.711560  0.366403  1
  O  O27  1  0.652799  0.287156  0.938267  1
  O  O28  1  0.350735  0.720167  0.062455  1
