# generated using pymatgen
data_TbLu7Ti8(Si4Mo)4
_symmetry_space_group_name_H-M   'P 1'
_cell_length_a   6.94023605
_cell_length_b   6.94256458
_cell_length_c   12.74547121
_cell_angle_alpha   89.97238126
_cell_angle_beta   90.00315114
_cell_angle_gamma   89.96459793
_symmetry_Int_Tables_number   1
_chemical_formula_structural   TbLu7Ti8(Si4Mo)4
_chemical_formula_sum   'Tb1 Lu7 Ti8 Si16 Mo4'
_cell_volume   614.11532061
_cell_formula_units_Z   1
loop_
 _symmetry_equiv_pos_site_id
 _symmetry_equiv_pos_as_xyz
  1  'x, y, z'
loop_
 _atom_site_type_symbol
 _atom_site_label
 _atom_site_symmetry_multiplicity
 _atom_site_fract_x
 _atom_site_fract_y
 _atom_site_fract_z
 _atom_site_occupancy
  Tb  Tb0  1  0.997770  0.659266  0.032770  1
  Lu  Lu1  1  0.341327  0.000278  0.467447  1
  Lu  Lu2  1  0.499851  0.841307  0.716788  1
  Lu  Lu3  1  0.499881  0.158695  0.217875  1
  Lu  Lu4  1  0.841212  0.499843  0.283241  1
  Lu  Lu5  1  0.158964  0.499872  0.782448  1
  Lu  Lu6  1  0.658292  0.999882  0.966737  1
  Lu  Lu7  1  0.000265  0.341487  0.532672  1
  Ti  Ti8  1  0.152476  0.007249  0.874843  1
  Ti  Ti9  1  0.492183  0.651562  0.125968  1
  Ti  Ti10  1  0.507593  0.348767  0.625297  1
  Ti  Ti11  1  0.651345  0.491071  0.873602  1
  Ti  Ti12  1  0.348923  0.507574  0.375030  1
  Ti  Ti13  1  0.848775  0.992843  0.376149  1
  Ti  Ti14  1  0.007786  0.152215  0.124752  1
  Ti  Ti15  1  0.992521  0.848890  0.623997  1
  Si  Si16  1  0.203072  0.132481  0.682495  1
  Si  Si17  1  0.369827  0.703168  0.932389  1
  Si  Si18  1  0.632532  0.296990  0.432951  1
  Si  Si19  1  0.700759  0.365748  0.066789  1
  Si  Si20  1  0.296884  0.632583  0.567252  1
  Si  Si21  1  0.795592  0.869804  0.184697  1
  Si  Si22  1  0.132490  0.202930  0.317644  1
  Si  Si23  1  0.867582  0.797611  0.815773  1
  Si  Si24  1  0.294448  0.954115  0.065232  1
  Si  Si25  1  0.546717  0.793457  0.315716  1
  Si  Si26  1  0.452435  0.206463  0.814728  1
  Si  Si27  1  0.793313  0.547386  0.684413  1
  Si  Si28  1  0.207923  0.451591  0.185970  1
  Si  Si29  1  0.706631  0.047480  0.565169  1
  Si  Si30  1  0.952259  0.290643  0.934136  1
  Si  Si31  1  0.047464  0.706814  0.434867  1
  Mo  Mo32  1  0.327266  0.326026  0.999847  1
  Mo  Mo33  1  0.173691  0.827434  0.250780  1
  Mo  Mo34  1  0.826673  0.173199  0.749474  1
  Mo  Mo35  1  0.673279  0.673278  0.500058  1
