# generated using pymatgen
data_TaTi2CdPt12
_symmetry_space_group_name_H-M   'P 1'
_cell_length_a   5.64850300
_cell_length_b   5.64850267
_cell_length_c   9.16493500
_cell_angle_alpha   90.00000000
_cell_angle_beta   90.00000000
_cell_angle_gamma   119.99999607
_symmetry_Int_Tables_number   1
_chemical_formula_structural   TaTi2CdPt12
_chemical_formula_sum   'Ta1 Ti2 Cd1 Pt12'
_cell_volume   253.23675528
_cell_formula_units_Z   1
loop_
 _symmetry_equiv_pos_site_id
 _symmetry_equiv_pos_as_xyz
  1  'x, y, z'
loop_
 _atom_site_type_symbol
 _atom_site_label
 _atom_site_symmetry_multiplicity
 _atom_site_fract_x
 _atom_site_fract_y
 _atom_site_fract_z
 _atom_site_occupancy
  Ta  Ta0  1  0.666667  0.333333  0.750000  1
  Ti  Ti1  1  0.000000  0.000000  0.494675  1
  Ti  Ti2  1  0.000000  0.000000  0.005325  1
  Cd  Cd3  1  0.333333  0.666667  0.250000  1
  Pt  Pt4  1  0.502904  0.497096  0.506165  1
  Pt  Pt5  1  0.502904  0.005808  0.506165  1
  Pt  Pt6  1  0.994192  0.497096  0.506165  1
  Pt  Pt7  1  0.502904  0.497096  0.993835  1
  Pt  Pt8  1  0.502904  0.005808  0.993835  1
  Pt  Pt9  1  0.994192  0.497096  0.993835  1
  Pt  Pt10  1  0.832256  0.664513  0.250000  1
  Pt  Pt11  1  0.335487  0.167744  0.250000  1
  Pt  Pt12  1  0.832256  0.167744  0.250000  1
  Pt  Pt13  1  0.166217  0.332432  0.750000  1
  Pt  Pt14  1  0.667568  0.833783  0.750000  1
  Pt  Pt15  1  0.166217  0.833783  0.750000  1
