# generated using pymatgen
data_Sc22Al2Tc5Ir
_symmetry_space_group_name_H-M   'P 1'
_cell_length_a   9.71177891
_cell_length_b   9.49961163
_cell_length_c   9.71180226
_cell_angle_alpha   60.38124278
_cell_angle_beta   58.65487375
_cell_angle_gamma   60.38140288
_symmetry_Int_Tables_number   1
_chemical_formula_structural   Sc22Al2Tc5Ir
_chemical_formula_sum   'Sc22 Al2 Tc5 Ir1'
_cell_volume   630.39045821
_cell_formula_units_Z   1
loop_
 _symmetry_equiv_pos_site_id
 _symmetry_equiv_pos_as_xyz
  1  'x, y, z'
loop_
 _atom_site_type_symbol
 _atom_site_label
 _atom_site_symmetry_multiplicity
 _atom_site_fract_x
 _atom_site_fract_y
 _atom_site_fract_z
 _atom_site_occupancy
  Sc  Sc0  1  0.805294  0.805274  0.194482  1
  Sc  Sc1  1  0.197949  0.801686  0.197958  1
  Sc  Sc2  1  0.805522  0.194721  0.194709  1
  Sc  Sc3  1  0.194706  0.194726  0.805518  1
  Sc  Sc4  1  0.802051  0.198314  0.802042  1
  Sc  Sc5  1  0.194478  0.805279  0.805291  1
  Sc  Sc6  1  0.608291  0.620945  0.150411  1
  Sc  Sc7  1  0.620593  0.149834  0.620581  1
  Sc  Sc8  1  0.150404  0.620951  0.608289  1
  Sc  Sc9  1  0.620534  0.608305  0.620526  1
  Sc  Sc10  1  0.391709  0.379055  0.849589  1
  Sc  Sc11  1  0.379407  0.850166  0.379419  1
  Sc  Sc12  1  0.849596  0.379049  0.391711  1
  Sc  Sc13  1  0.379466  0.391695  0.379474  1
  Sc  Sc14  1  0.856281  0.837135  0.470031  1
  Sc  Sc15  1  0.836738  0.470522  0.836735  1
  Sc  Sc16  1  0.470031  0.837129  0.856280  1
  Sc  Sc17  1  0.836800  0.855272  0.836787  1
  Sc  Sc18  1  0.143719  0.162865  0.529969  1
  Sc  Sc19  1  0.163262  0.529478  0.163265  1
  Sc  Sc20  1  0.529969  0.162871  0.143720  1
  Sc  Sc21  1  0.163200  0.144728  0.163213  1
  Al  Al22  1  0.500000  0.000000  0.500000  1
  Al  Al23  1  0.000000  0.500000  0.000000  1
  Tc  Tc24  1  0.000000  0.000000  0.000000  1
  Tc  Tc25  1  0.000000  0.000000  0.500000  1
  Tc  Tc26  1  0.000000  0.500000  0.500000  1
  Tc  Tc27  1  0.500000  0.500000  0.000000  1
  Tc  Tc28  1  0.500000  0.000000  0.000000  1
  Ir  Ir29  1  0.500000  0.500000  0.500000  1
