# generated using pymatgen
data_NiOs4RuO12
_symmetry_space_group_name_H-M   'P 1'
_cell_length_a   4.57344384
_cell_length_b   4.57344384
_cell_length_c   9.43869300
_cell_angle_alpha   90.00000000
_cell_angle_beta   90.00000000
_cell_angle_gamma   89.70807388
_symmetry_Int_Tables_number   1
_chemical_formula_structural   NiOs4RuO12
_chemical_formula_sum   'Ni1 Os4 Ru1 O12'
_cell_volume   197.42080780
_cell_formula_units_Z   1
loop_
 _symmetry_equiv_pos_site_id
 _symmetry_equiv_pos_as_xyz
  1  'x, y, z'
loop_
 _atom_site_type_symbol
 _atom_site_label
 _atom_site_symmetry_multiplicity
 _atom_site_fract_x
 _atom_site_fract_y
 _atom_site_fract_z
 _atom_site_occupancy
  Ni  Ni0  1  0.000000  0.000000  0.000000  1
  Os  Os1  1  0.500000  0.500000  0.166787  1
  Os  Os2  1  0.000000  0.000000  0.668748  1
  Os  Os3  1  0.500000  0.500000  0.833213  1
  Os  Os4  1  0.000000  0.000000  0.331252  1
  Ru  Ru5  1  0.500000  0.500000  0.500000  1
  O  O6  1  0.188732  0.811268  0.500000  1
  O  O7  1  0.811268  0.188732  0.500000  1
  O  O8  1  0.314728  0.314728  0.000000  1
  O  O9  1  0.685272  0.685272  0.000000  1
  O  O10  1  0.203542  0.796458  0.176125  1
  O  O11  1  0.796458  0.203542  0.176125  1
  O  O12  1  0.302848  0.302848  0.668386  1
  O  O13  1  0.697152  0.697152  0.668386  1
  O  O14  1  0.796458  0.203542  0.823875  1
  O  O15  1  0.203542  0.796458  0.823875  1
  O  O16  1  0.697152  0.697152  0.331614  1
  O  O17  1  0.302848  0.302848  0.331614  1
