# generated using pymatgen
data_Tc3SbF24
_symmetry_space_group_name_H-M   'P 1'
_cell_length_a   5.32854565
_cell_length_b   8.80279700
_cell_length_c   9.50745167
_cell_angle_alpha   90.00000000
_cell_angle_beta   89.11403157
_cell_angle_gamma   90.00000000
_symmetry_Int_Tables_number   1
_chemical_formula_structural   Tc3SbF24
_chemical_formula_sum   'Tc3 Sb1 F24'
_cell_volume   445.90421829
_cell_formula_units_Z   1
loop_
 _symmetry_equiv_pos_site_id
 _symmetry_equiv_pos_as_xyz
  1  'x, y, z'
loop_
 _atom_site_type_symbol
 _atom_site_label
 _atom_site_symmetry_multiplicity
 _atom_site_fract_x
 _atom_site_fract_y
 _atom_site_fract_z
 _atom_site_occupancy
  Tc  Tc0  1  0.080935  0.250000  0.374158  1
  Tc  Tc1  1  0.413781  0.250000  0.866181  1
  Tc  Tc2  1  0.581872  0.750000  0.132311  1
  Sb  Sb3  1  0.924081  0.750000  0.627987  1
  F  F4  1  0.212134  0.750000  0.504972  1
  F  F5  1  0.794107  0.250000  0.485729  1
  F  F6  1  0.697515  0.250000  0.977693  1
  F  F7  1  0.302774  0.750000  0.020524  1
  F  F8  1  0.633801  0.750000  0.750784  1
  F  F9  1  0.367742  0.250000  0.259416  1
  F  F10  1  0.128326  0.250000  0.758088  1
  F  F11  1  0.862919  0.750000  0.242152  1
  F  F12  1  0.773533  0.595188  0.512590  1
  F  F13  1  0.223654  0.398325  0.482935  1
  F  F14  1  0.272243  0.398023  0.981084  1
  F  F15  1  0.223654  0.101675  0.482935  1
  F  F16  1  0.723210  0.600553  0.019801  1
  F  F17  1  0.773533  0.904812  0.512590  1
  F  F18  1  0.723210  0.899447  0.019801  1
  F  F19  1  0.272243  0.101977  0.981084  1
  F  F20  1  0.069514  0.593724  0.742551  1
  F  F21  1  0.942762  0.398371  0.261001  1
  F  F22  1  0.555430  0.398778  0.755320  1
  F  F23  1  0.942762  0.101629  0.261001  1
  F  F24  1  0.439662  0.600918  0.244720  1
  F  F25  1  0.069514  0.906276  0.742551  1
  F  F26  1  0.439662  0.899082  0.244720  1
  F  F27  1  0.555430  0.101222  0.755320  1
