# generated using pymatgen
data_Sc4Be8AgRu9
_symmetry_space_group_name_H-M   'P 1'
_cell_length_a   3.22153300
_cell_length_b   8.59036635
_cell_length_c   10.30966951
_cell_angle_alpha   90.61277510
_cell_angle_beta   90.00000000
_cell_angle_gamma   90.00000000
_symmetry_Int_Tables_number   1
_chemical_formula_structural   Sc4Be8AgRu9
_chemical_formula_sum   'Sc4 Be8 Ag1 Ru9'
_cell_volume   285.29500990
_cell_formula_units_Z   1
loop_
 _symmetry_equiv_pos_site_id
 _symmetry_equiv_pos_as_xyz
  1  'x, y, z'
loop_
 _atom_site_type_symbol
 _atom_site_label
 _atom_site_symmetry_multiplicity
 _atom_site_fract_x
 _atom_site_fract_y
 _atom_site_fract_z
 _atom_site_occupancy
  Sc  Sc0  1  0.500000  0.834142  0.200248  1
  Sc  Sc1  1  0.500000  0.165858  0.799752  1
  Sc  Sc2  1  0.500000  0.657352  0.675398  1
  Sc  Sc3  1  0.500000  0.342648  0.324602  1
  Be  Be4  1  0.500000  0.962164  0.593443  1
  Be  Be5  1  0.500000  0.037836  0.406557  1
  Be  Be6  1  0.500000  0.827231  0.890620  1
  Be  Be7  1  0.500000  0.172769  0.109380  1
  Be  Be8  1  0.500000  0.654776  0.405642  1
  Be  Be9  1  0.500000  0.345224  0.594358  1
  Be  Be10  1  0.500000  0.467301  0.903790  1
  Be  Be11  1  0.500000  0.532699  0.096210  1
  Ag  Ag12  1  0.000000  0.000000  0.000000  1
  Ru  Ru13  1  0.000000  0.659682  0.958516  1
  Ru  Ru14  1  0.000000  0.340318  0.041484  1
  Ru  Ru15  1  0.000000  0.840991  0.454986  1
  Ru  Ru16  1  0.000000  0.159009  0.545014  1
  Ru  Ru17  1  0.000000  0.405673  0.755483  1
  Ru  Ru18  1  0.000000  0.594327  0.244517  1
  Ru  Ru19  1  0.000000  0.500000  0.500000  1
  Ru  Ru20  1  0.000000  0.906111  0.744425  1
  Ru  Ru21  1  0.000000  0.093889  0.255575  1
