# generated using pymatgen
data_La2Al20Re3Ir
_symmetry_space_group_name_H-M   'P 1'
_cell_length_a   6.95962594
_cell_length_b   6.97853660
_cell_length_c   9.29603259
_cell_angle_alpha   89.85429895
_cell_angle_beta   89.77377063
_cell_angle_gamma   96.67663483
_symmetry_Int_Tables_number   1
_chemical_formula_structural   La2Al20Re3Ir
_chemical_formula_sum   'La2 Al20 Re3 Ir1'
_cell_volume   448.42226963
_cell_formula_units_Z   1
loop_
 _symmetry_equiv_pos_site_id
 _symmetry_equiv_pos_as_xyz
  1  'x, y, z'
loop_
 _atom_site_type_symbol
 _atom_site_label
 _atom_site_symmetry_multiplicity
 _atom_site_fract_x
 _atom_site_fract_y
 _atom_site_fract_z
 _atom_site_occupancy
  La  La0  1  0.878947  0.127618  0.751594  1
  La  La1  1  0.121053  0.872382  0.248406  1
  Al  Al2  1  0.622666  0.380476  0.545932  1
  Al  Al3  1  0.377334  0.619524  0.454068  1
  Al  Al4  1  0.378377  0.621979  0.045792  1
  Al  Al5  1  0.621623  0.378021  0.954208  1
  Al  Al6  1  0.225025  0.225689  0.501023  1
  Al  Al7  1  0.774975  0.774311  0.498977  1
  Al  Al8  1  0.771996  0.772088  0.999600  1
  Al  Al9  1  0.228004  0.227912  0.000400  1
  Al  Al10  1  0.836800  0.161677  0.101495  1
  Al  Al11  1  0.163200  0.838323  0.898505  1
  Al  Al12  1  0.159190  0.839105  0.601359  1
  Al  Al13  1  0.840810  0.160895  0.398641  1
  Al  Al14  1  0.860817  0.591598  0.749682  1
  Al  Al15  1  0.139183  0.408402  0.250318  1
  Al  Al16  1  0.407585  0.138611  0.750320  1
  Al  Al17  1  0.592415  0.861389  0.249680  1
  Al  Al18  1  0.221270  0.479962  0.748660  1
  Al  Al19  1  0.778730  0.520038  0.251340  1
  Al  Al20  1  0.520856  0.780310  0.752285  1
  Al  Al21  1  0.479144  0.219690  0.247715  1
  Re  Re22  1  0.000000  0.500000  0.500000  1
  Re  Re23  1  0.000000  0.500000  0.000000  1
  Re  Re24  1  0.500000  0.000000  0.000000  1
  Ir  Ir25  1  0.500000  0.000000  0.500000  1
