# generated using pymatgen
data_TbTm5Bi2Os
_symmetry_space_group_name_H-M   'P 1'
_cell_length_a   8.23534200
_cell_length_b   8.21620179
_cell_length_c   4.23870500
_cell_angle_alpha   90.00000000
_cell_angle_beta   90.00000000
_cell_angle_gamma   120.07709956
_symmetry_Int_Tables_number   1
_chemical_formula_structural   TbTm5Bi2Os
_chemical_formula_sum   'Tb1 Tm5 Bi2 Os1'
_cell_volume   248.18677139
_cell_formula_units_Z   1
loop_
 _symmetry_equiv_pos_site_id
 _symmetry_equiv_pos_as_xyz
  1  'x, y, z'
loop_
 _atom_site_type_symbol
 _atom_site_label
 _atom_site_symmetry_multiplicity
 _atom_site_fract_x
 _atom_site_fract_y
 _atom_site_fract_z
 _atom_site_occupancy
  Tb  Tb0  1  0.613164  0.000000  0.000000  1
  Tm  Tm1  1  0.233713  0.000000  0.500000  1
  Tm  Tm2  1  0.000227  0.231233  0.500000  1
  Tm  Tm3  1  0.768994  0.768767  0.500000  1
  Tm  Tm4  1  0.999326  0.616945  0.000000  1
  Tm  Tm5  1  0.382380  0.383055  0.000000  1
  Bi  Bi6  1  0.331160  0.664401  0.500000  1
  Bi  Bi7  1  0.666760  0.335599  0.500000  1
  Os  Os8  1  0.004277  0.000000  0.000000  1
