# generated using pymatgen
data_LiDy6Lu4In7
_symmetry_space_group_name_H-M   'P 1'
_cell_length_a   9.19740500
_cell_length_b   9.19740579
_cell_length_c   6.60808600
_cell_angle_alpha   90.00000000
_cell_angle_beta   90.00000000
_cell_angle_gamma   120.00000076
_symmetry_Int_Tables_number   1
_chemical_formula_structural   LiDy6Lu4In7
_chemical_formula_sum   'Li1 Dy6 Lu4 In7'
_cell_volume   484.10210757
_cell_formula_units_Z   1
loop_
 _symmetry_equiv_pos_site_id
 _symmetry_equiv_pos_as_xyz
  1  'x, y, z'
loop_
 _atom_site_type_symbol
 _atom_site_label
 _atom_site_symmetry_multiplicity
 _atom_site_fract_x
 _atom_site_fract_y
 _atom_site_fract_z
 _atom_site_occupancy
  Li  Li0  1  0.000000  0.000000  0.500000  1
  Dy  Dy1  1  0.292931  0.000000  0.749791  1
  Dy  Dy2  1  0.707069  0.000000  0.250209  1
  Dy  Dy3  1  0.000000  0.292931  0.749791  1
  Dy  Dy4  1  0.000000  0.707069  0.250209  1
  Dy  Dy5  1  0.707069  0.707069  0.749791  1
  Dy  Dy6  1  0.292931  0.292931  0.250209  1
  Lu  Lu7  1  0.333333  0.666667  0.500000  1
  Lu  Lu8  1  0.666667  0.333333  0.500000  1
  Lu  Lu9  1  0.666667  0.333333  0.000000  1
  Lu  Lu10  1  0.333333  0.666667  0.000000  1
  In  In11  1  0.000000  0.000000  0.000000  1
  In  In12  1  0.630986  0.000000  0.747551  1
  In  In13  1  0.369014  0.000000  0.252449  1
  In  In14  1  0.000000  0.630986  0.747551  1
  In  In15  1  0.000000  0.369014  0.252449  1
  In  In16  1  0.369014  0.369014  0.747551  1
  In  In17  1  0.630986  0.630986  0.252449  1
