# generated using pymatgen
data_DyPaNi2Sn
_symmetry_space_group_name_H-M   'P 1'
_cell_length_a   7.38794457
_cell_length_b   7.38794489
_cell_length_c   3.63271500
_cell_angle_alpha   90.00000000
_cell_angle_beta   90.00000000
_cell_angle_gamma   93.54521659
_symmetry_Int_Tables_number   1
_chemical_formula_structural   DyPaNi2Sn
_chemical_formula_sum   'Dy2 Pa2 Ni4 Sn2'
_cell_volume   197.90041334
_cell_formula_units_Z   2
loop_
 _symmetry_equiv_pos_site_id
 _symmetry_equiv_pos_as_xyz
  1  'x, y, z'
loop_
 _atom_site_type_symbol
 _atom_site_label
 _atom_site_symmetry_multiplicity
 _atom_site_fract_x
 _atom_site_fract_y
 _atom_site_fract_z
 _atom_site_occupancy
  Dy  Dy0  1  0.173757  0.326243  0.500000  1
  Dy  Dy1  1  0.826243  0.673757  0.500000  1
  Pa  Pa2  1  0.675030  0.175030  0.500000  1
  Pa  Pa3  1  0.324970  0.824970  0.500000  1
  Ni  Ni4  1  0.867252  0.367252  0.000000  1
  Ni  Ni5  1  0.132748  0.632748  0.000000  1
  Ni  Ni6  1  0.383491  0.116509  0.000000  1
  Ni  Ni7  1  0.616509  0.883491  0.000000  1
  Sn  Sn8  1  0.500000  0.500000  0.000000  1
  Sn  Sn9  1  0.000000  0.000000  0.000000  1
