# generated using pymatgen
data_Zr3In3OsPt2
_symmetry_space_group_name_H-M   'P 1'
_cell_length_a   7.70143100
_cell_length_b   7.70143171
_cell_length_c   6.91087000
_cell_angle_alpha   90.00000000
_cell_angle_beta   90.00000000
_cell_angle_gamma   119.99999266
_symmetry_Int_Tables_number   1
_chemical_formula_structural   Zr3In3OsPt2
_chemical_formula_sum   'Zr6 In6 Os2 Pt4'
_cell_volume   354.98196161
_cell_formula_units_Z   2
loop_
 _symmetry_equiv_pos_site_id
 _symmetry_equiv_pos_as_xyz
  1  'x, y, z'
loop_
 _atom_site_type_symbol
 _atom_site_label
 _atom_site_symmetry_multiplicity
 _atom_site_fract_x
 _atom_site_fract_y
 _atom_site_fract_z
 _atom_site_occupancy
  Zr  Zr0  1  0.403875  0.389393  0.750000  1
  Zr  Zr1  1  0.985518  0.596125  0.750000  1
  Zr  Zr2  1  0.610607  0.014482  0.750000  1
  Zr  Zr3  1  0.612681  0.016985  0.250000  1
  Zr  Zr4  1  0.983015  0.595696  0.250000  1
  Zr  Zr5  1  0.404304  0.387319  0.250000  1
  In  In6  1  0.270913  0.994402  0.999956  1
  In  In7  1  0.723488  0.729087  0.999956  1
  In  In8  1  0.005598  0.276512  0.999956  1
  In  In9  1  0.723488  0.729087  0.500044  1
  In  In10  1  0.270913  0.994402  0.500044  1
  In  In11  1  0.005598  0.276512  0.500044  1
  Os  Os12  1  0.666667  0.333333  0.998768  1
  Os  Os13  1  0.666667  0.333333  0.501232  1
  Pt  Pt14  1  0.000000  0.000000  0.750000  1
  Pt  Pt15  1  0.333333  0.666667  0.495571  1
  Pt  Pt16  1  0.333333  0.666667  0.004429  1
  Pt  Pt17  1  0.000000  0.000000  0.250000  1
