# generated using pymatgen
data_Zr3Sc(BiRh5)2
_symmetry_space_group_name_H-M   'P 1'
_cell_length_a   5.72560739
_cell_length_b   5.72612236
_cell_length_c   8.29458800
_cell_angle_alpha   90.00202820
_cell_angle_beta   89.99710965
_cell_angle_gamma   96.93030767
_symmetry_Int_Tables_number   1
_chemical_formula_structural   Zr3Sc(BiRh5)2
_chemical_formula_sum   'Zr3 Sc1 Bi2 Rh10'
_cell_volume   269.95554516
_cell_formula_units_Z   1
loop_
 _symmetry_equiv_pos_site_id
 _symmetry_equiv_pos_as_xyz
  1  'x, y, z'
loop_
 _atom_site_type_symbol
 _atom_site_label
 _atom_site_symmetry_multiplicity
 _atom_site_fract_x
 _atom_site_fract_y
 _atom_site_fract_z
 _atom_site_occupancy
  Zr  Zr0  1  0.211954  0.788127  0.999986  1
  Zr  Zr1  1  0.211454  0.788628  0.500019  1
  Zr  Zr2  1  0.788379  0.211554  0.999981  1
  Sc  Sc3  1  0.787184  0.212731  0.500171  1
  Bi  Bi4  1  0.502428  0.499148  0.747870  1
  Bi  Bi5  1  0.500894  0.497514  0.252134  1
  Rh  Rh6  1  0.731749  0.732503  0.000487  1
  Rh  Rh7  1  0.734597  0.736660  0.499424  1
  Rh  Rh8  1  0.267394  0.268322  0.999763  1
  Rh  Rh9  1  0.263259  0.265469  0.500256  1
  Rh  Rh10  1  0.499901  0.000149  0.750562  1
  Rh  Rh11  1  0.499895  0.999582  0.249427  1
  Rh  Rh12  1  0.000447  0.999793  0.248991  1
  Rh  Rh13  1  0.000194  0.999601  0.750944  1
  Rh  Rh14  1  0.000407  0.500110  0.750573  1
  Rh  Rh15  1  0.999864  0.500107  0.249410  1
