# generated using pymatgen
data_Li2Nd2BiPb
_symmetry_space_group_name_H-M   'P 1'
_cell_length_a   9.72347500
_cell_length_b   9.73030329
_cell_length_c   7.61941552
_cell_angle_alpha   89.93840255
_cell_angle_beta   90.00000000
_cell_angle_gamma   119.97679223
_symmetry_Int_Tables_number   1
_chemical_formula_structural   Li2Nd2BiPb
_chemical_formula_sum   'Li8 Nd8 Bi4 Pb4'
_cell_volume   624.45529146
_cell_formula_units_Z   4
loop_
 _symmetry_equiv_pos_site_id
 _symmetry_equiv_pos_as_xyz
  1  'x, y, z'
loop_
 _atom_site_type_symbol
 _atom_site_label
 _atom_site_symmetry_multiplicity
 _atom_site_fract_x
 _atom_site_fract_y
 _atom_site_fract_z
 _atom_site_occupancy
  Li  Li0  1  0.166677  0.333355  0.271771  1
  Li  Li1  1  0.168636  0.833679  0.278269  1
  Li  Li2  1  0.665045  0.833679  0.278269  1
  Li  Li3  1  0.832390  0.664781  0.778760  1
  Li  Li4  1  0.832443  0.168111  0.784127  1
  Li  Li5  1  0.335667  0.168111  0.784127  1
  Li  Li6  1  0.333603  0.667208  0.675484  1
  Li  Li7  1  0.665705  0.331409  0.181160  1
  Nd  Nd8  1  0.512421  0.024842  0.492703  1
  Nd  Nd9  1  0.508123  0.486264  0.492609  1
  Nd  Nd10  1  0.978139  0.486264  0.492609  1
  Nd  Nd11  1  0.490684  0.981367  0.997096  1
  Nd  Nd12  1  0.489073  0.508713  0.995853  1
  Nd  Nd13  1  0.019641  0.508713  0.995853  1
  Nd  Nd14  1  0.001982  0.003965  0.499299  1
  Nd  Nd15  1  0.000897  0.001795  0.004098  1
  Bi  Bi16  1  0.166619  0.333239  0.737747  1
  Bi  Bi17  1  0.166218  0.832898  0.736078  1
  Bi  Bi18  1  0.666678  0.832898  0.736078  1
  Bi  Bi19  1  0.833067  0.666135  0.237234  1
  Pb  Pb20  1  0.833483  0.166640  0.234466  1
  Pb  Pb21  1  0.333157  0.166640  0.234466  1
  Pb  Pb22  1  0.332844  0.665689  0.261687  1
  Pb  Pb23  1  0.666805  0.333609  0.762133  1
