# generated using pymatgen
data_LaHf2Zr(NiAs)4
_symmetry_space_group_name_H-M   'P 1'
_cell_length_a   4.00563300
_cell_length_b   4.00563244
_cell_length_c   14.93109900
_cell_angle_alpha   90.00000000
_cell_angle_beta   90.00000000
_cell_angle_gamma   120.00001289
_symmetry_Int_Tables_number   1
_chemical_formula_structural   LaHf2Zr(NiAs)4
_chemical_formula_sum   'La1 Hf2 Zr1 Ni4 As4'
_cell_volume   207.47444051
_cell_formula_units_Z   1
loop_
 _symmetry_equiv_pos_site_id
 _symmetry_equiv_pos_as_xyz
  1  'x, y, z'
loop_
 _atom_site_type_symbol
 _atom_site_label
 _atom_site_symmetry_multiplicity
 _atom_site_fract_x
 _atom_site_fract_y
 _atom_site_fract_z
 _atom_site_occupancy
  La  La0  1  0.000000  0.000000  0.500000  1
  Hf  Hf1  1  0.000000  0.000000  0.240019  1
  Hf  Hf2  1  0.000000  0.000000  0.759981  1
  Zr  Zr3  1  0.000000  0.000000  0.000000  1
  Ni  Ni4  1  0.333333  0.666667  0.141881  1
  Ni  Ni5  1  0.666667  0.333333  0.858119  1
  Ni  Ni6  1  0.666667  0.333333  0.676898  1
  Ni  Ni7  1  0.333333  0.666667  0.323102  1
  As  As8  1  0.333333  0.666667  0.636189  1
  As  As9  1  0.666667  0.333333  0.363811  1
  As  As10  1  0.666667  0.333333  0.110239  1
  As  As11  1  0.333333  0.666667  0.889761  1
