# generated using pymatgen
data_NaYb5(Si3Ir)8
_symmetry_space_group_name_H-M   'P 1'
_cell_length_a   10.07373666
_cell_length_b   10.07373610
_cell_length_c   8.20259527
_cell_angle_alpha   90.08524041
_cell_angle_beta   89.91476178
_cell_angle_gamma   131.92628164
_symmetry_Int_Tables_number   1
_chemical_formula_structural   NaYb5(Si3Ir)8
_chemical_formula_sum   'Na1 Yb5 Si24 Ir8'
_cell_volume   619.30958477
_cell_formula_units_Z   1
loop_
 _symmetry_equiv_pos_site_id
 _symmetry_equiv_pos_as_xyz
  1  'x, y, z'
loop_
 _atom_site_type_symbol
 _atom_site_label
 _atom_site_symmetry_multiplicity
 _atom_site_fract_x
 _atom_site_fract_y
 _atom_site_fract_z
 _atom_site_occupancy
  Na  Na0  1  0.000321  0.500321  0.750000  1
  Yb  Yb1  1  0.500373  0.500405  0.500413  1
  Yb  Yb2  1  0.000405  0.000373  0.999587  1
  Yb  Yb3  1  0.501104  0.001104  0.750000  1
  Yb  Yb4  1  0.998638  0.498638  0.250000  1
  Yb  Yb5  1  0.499268  0.999268  0.250000  1
  Si  Si6  1  0.797154  0.206701  0.502065  1
  Si  Si7  1  0.293057  0.702190  0.998214  1
  Si  Si8  1  0.202190  0.793057  0.501786  1
  Si  Si9  1  0.706701  0.297154  0.997935  1
  Si  Si10  1  0.332933  0.332572  0.832041  1
  Si  Si11  1  0.668850  0.668176  0.167944  1
  Si  Si12  1  0.168176  0.168850  0.332056  1
  Si  Si13  1  0.832572  0.832933  0.667959  1
  Si  Si14  1  0.117708  0.882372  0.727234  1
  Si  Si15  1  0.118309  0.883109  0.273789  1
  Si  Si16  1  0.617055  0.381811  0.226276  1
  Si  Si17  1  0.616906  0.381425  0.772842  1
  Si  Si18  1  0.881811  0.117055  0.273724  1
  Si  Si19  1  0.881425  0.116906  0.727158  1
  Si  Si20  1  0.382372  0.617708  0.772766  1
  Si  Si21  1  0.383109  0.618309  0.226211  1
  Si  Si22  1  0.343438  0.109431  0.498885  1
  Si  Si23  1  0.889804  0.655045  0.501274  1
  Si  Si24  1  0.390822  0.155916  0.000319  1
  Si  Si25  1  0.844610  0.610159  0.001729  1
  Si  Si26  1  0.655916  0.890822  0.499681  1
  Si  Si27  1  0.110159  0.344610  0.498271  1
  Si  Si28  1  0.609431  0.843438  0.001115  1
  Si  Si29  1  0.155045  0.389804  0.998726  1
  Ir  Ir30  1  0.665924  0.331238  0.498795  1
  Ir  Ir31  1  0.168187  0.833008  0.000956  1
  Ir  Ir32  1  0.333008  0.668187  0.499044  1
  Ir  Ir33  1  0.831238  0.165924  0.001205  1
  Ir  Ir34  1  0.127961  0.128183  0.628108  1
  Ir  Ir35  1  0.873222  0.872612  0.372253  1
  Ir  Ir36  1  0.372612  0.373222  0.127747  1
  Ir  Ir37  1  0.628183  0.627961  0.871892  1
