# generated using pymatgen
data_Nb12VFe8Os3N4
_symmetry_space_group_name_H-M   'P 1'
_cell_length_a   8.05251876
_cell_length_b   8.05251846
_cell_length_c   8.05251756
_cell_angle_alpha   60.74433673
_cell_angle_beta   60.74433488
_cell_angle_gamma   60.74434128
_symmetry_Int_Tables_number   1
_chemical_formula_structural   Nb12VFe8Os3N4
_chemical_formula_sum   'Nb12 V1 Fe8 Os3 N4'
_cell_volume   375.41663366
_cell_formula_units_Z   1
loop_
 _symmetry_equiv_pos_site_id
 _symmetry_equiv_pos_as_xyz
  1  'x, y, z'
loop_
 _atom_site_type_symbol
 _atom_site_label
 _atom_site_symmetry_multiplicity
 _atom_site_fract_x
 _atom_site_fract_y
 _atom_site_fract_z
 _atom_site_occupancy
  Nb  Nb0  1  0.806001  0.806001  0.192896  1
  Nb  Nb1  1  0.196281  0.196281  0.804221  1
  Nb  Nb2  1  0.806001  0.192896  0.806001  1
  Nb  Nb3  1  0.196281  0.804221  0.196281  1
  Nb  Nb4  1  0.192896  0.806001  0.806001  1
  Nb  Nb5  1  0.804221  0.196281  0.196281  1
  Nb  Nb6  1  0.443999  0.443999  0.057104  1
  Nb  Nb7  1  0.053719  0.053719  0.445779  1
  Nb  Nb8  1  0.443999  0.057104  0.443999  1
  Nb  Nb9  1  0.053719  0.445779  0.053719  1
  Nb  Nb10  1  0.057104  0.443999  0.443999  1
  Nb  Nb11  1  0.445779  0.053719  0.053719  1
  V  V12  1  0.625000  0.625000  0.625000  1
  Fe  Fe13  1  0.732301  0.426366  0.426366  1
  Fe  Fe14  1  0.426366  0.732301  0.426366  1
  Fe  Fe15  1  0.426366  0.426366  0.732301  1
  Fe  Fe16  1  0.424771  0.424771  0.424771  1
  Fe  Fe17  1  0.517699  0.823634  0.823634  1
  Fe  Fe18  1  0.823634  0.517699  0.823634  1
  Fe  Fe19  1  0.823634  0.823634  0.517699  1
  Fe  Fe20  1  0.825229  0.825229  0.825229  1
  Os  Os21  1  0.125000  0.625000  0.625000  1
  Os  Os22  1  0.625000  0.125000  0.625000  1
  Os  Os23  1  0.625000  0.625000  0.125000  1
  N  N24  1  0.625000  0.125000  0.125000  1
  N  N25  1  0.125000  0.625000  0.125000  1
  N  N26  1  0.125000  0.125000  0.625000  1
  N  N27  1  0.125000  0.125000  0.125000  1
