# generated using pymatgen
data_Tb3ErAl18CuRh5
_symmetry_space_group_name_H-M   'P 1'
_cell_length_a   7.56233432
_cell_length_b   7.56460691
_cell_length_c   9.43978738
_cell_angle_alpha   90.05180715
_cell_angle_beta   90.07232894
_cell_angle_gamma   119.53949056
_symmetry_Int_Tables_number   1
_chemical_formula_structural   Tb3ErAl18CuRh5
_chemical_formula_sum   'Tb3 Er1 Al18 Cu1 Rh5'
_cell_volume   469.81915631
_cell_formula_units_Z   1
loop_
 _symmetry_equiv_pos_site_id
 _symmetry_equiv_pos_as_xyz
  1  'x, y, z'
loop_
 _atom_site_type_symbol
 _atom_site_label
 _atom_site_symmetry_multiplicity
 _atom_site_fract_x
 _atom_site_fract_y
 _atom_site_fract_z
 _atom_site_occupancy
  Tb  Tb0  1  0.994975  0.673111  0.749602  1
  Tb  Tb1  1  0.005032  0.326982  0.250506  1
  Tb  Tb2  1  0.672835  0.994746  0.749558  1
  Er  Er3  1  0.326852  0.005045  0.250201  1
  Al  Al4  1  0.130697  0.130363  0.751748  1
  Al  Al5  1  0.870653  0.870248  0.248758  1
  Al  Al6  1  0.001145  0.338923  0.577179  1
  Al  Al7  1  0.999683  0.662036  0.421997  1
  Al  Al8  1  0.000693  0.665431  0.075276  1
  Al  Al9  1  0.335285  0.000122  0.926391  1
  Al  Al10  1  0.000169  0.335186  0.925674  1
  Al  Al11  1  0.664240  0.000046  0.075325  1
  Al  Al12  1  0.660368  0.999004  0.421778  1
  Al  Al13  1  0.338642  0.001009  0.576312  1
  Al  Al14  1  0.332942  0.332503  0.050829  1
  Al  Al15  1  0.667082  0.666969  0.951236  1
  Al  Al16  1  0.663881  0.663801  0.550478  1
  Al  Al17  1  0.335597  0.335054  0.447572  1
  Al  Al18  1  0.340099  0.550156  0.750389  1
  Al  Al19  1  0.659523  0.449041  0.249440  1
  Al  Al20  1  0.550245  0.339723  0.750294  1
  Al  Al21  1  0.449620  0.660759  0.249479  1
  Cu  Cu22  1  0.999665  0.999972  0.500422  1
  Rh  Rh23  1  0.671791  0.327686  0.499289  1
  Rh  Rh24  1  0.327951  0.671985  0.499442  1
  Rh  Rh25  1  0.328108  0.672124  0.000155  1
  Rh  Rh26  1  0.671828  0.327896  0.000226  1
  Rh  Rh27  1  0.000398  0.000082  0.000441  1
