# generated using pymatgen
data_HoEr2In3Hg2Ir
_symmetry_space_group_name_H-M   'P 1'
_cell_length_a   7.95561320
_cell_length_b   7.96717115
_cell_length_c   3.88055200
_cell_angle_alpha   90.00000000
_cell_angle_beta   90.00000000
_cell_angle_gamma   119.97716804
_symmetry_Int_Tables_number   1
_chemical_formula_structural   HoEr2In3Hg2Ir
_chemical_formula_sum   'Ho1 Er2 In3 Hg2 Ir1'
_cell_volume   213.05994847
_cell_formula_units_Z   1
loop_
 _symmetry_equiv_pos_site_id
 _symmetry_equiv_pos_as_xyz
  1  'x, y, z'
loop_
 _atom_site_type_symbol
 _atom_site_label
 _atom_site_symmetry_multiplicity
 _atom_site_fract_x
 _atom_site_fract_y
 _atom_site_fract_z
 _atom_site_occupancy
  Ho  Ho0  1  0.037100  0.418068  0.000000  1
  Er  Er1  1  0.580973  0.619807  0.000000  1
  Er  Er2  1  0.380670  0.961417  0.000000  1
  In  In3  1  0.998127  0.721463  0.500000  1
  In  In4  1  0.278940  0.276386  0.500000  1
  In  In5  1  0.723591  0.002377  0.500000  1
  Hg  Hg6  1  0.000057  0.999705  0.000000  1
  Hg  Hg7  1  0.666139  0.333420  0.500000  1
  Ir  Ir8  1  0.334403  0.667357  0.500000  1
