# generated using pymatgen
data_Ce2NdZn3CuPd2
_symmetry_space_group_name_H-M   'P 1'
_cell_length_a   7.31251011
_cell_length_b   7.27996197
_cell_length_c   3.99909100
_cell_angle_alpha   90.00000000
_cell_angle_beta   90.00000000
_cell_angle_gamma   119.85286852
_symmetry_Int_Tables_number   1
_chemical_formula_structural   Ce2NdZn3CuPd2
_chemical_formula_sum   'Ce2 Nd1 Zn3 Cu1 Pd2'
_cell_volume   184.64156986
_cell_formula_units_Z   1
loop_
 _symmetry_equiv_pos_site_id
 _symmetry_equiv_pos_as_xyz
  1  'x, y, z'
loop_
 _atom_site_type_symbol
 _atom_site_label
 _atom_site_symmetry_multiplicity
 _atom_site_fract_x
 _atom_site_fract_y
 _atom_site_fract_z
 _atom_site_occupancy
  Ce  Ce0  1  0.589326  0.589587  0.000000  1
  Ce  Ce1  1  0.410674  0.000261  0.000000  1
  Nd  Nd2  1  0.000000  0.410328  0.000000  1
  Zn  Zn3  1  0.000000  0.764206  0.500000  1
  Zn  Zn4  1  0.234784  0.233759  0.500000  1
  Zn  Zn5  1  0.765216  0.998975  0.500000  1
  Cu  Cu6  1  0.000000  0.995824  0.000000  1
  Pd  Pd7  1  0.655255  0.331157  0.500000  1
  Pd  Pd8  1  0.344745  0.675903  0.500000  1
