# generated using pymatgen
data_SmHf2Mg(Co4P3)2
_symmetry_space_group_name_H-M   'P 1'
_cell_length_a   12.10002216
_cell_length_b   12.11997312
_cell_length_c   3.68473900
_cell_angle_alpha   90.00000000
_cell_angle_beta   90.00000000
_cell_angle_gamma   120.05455930
_symmetry_Int_Tables_number   1
_chemical_formula_structural   SmHf2Mg(Co4P3)2
_chemical_formula_sum   'Sm2 Hf4 Mg2 Co16 P12'
_cell_volume   467.72023365
_cell_formula_units_Z   2
loop_
 _symmetry_equiv_pos_site_id
 _symmetry_equiv_pos_as_xyz
  1  'x, y, z'
loop_
 _atom_site_type_symbol
 _atom_site_label
 _atom_site_symmetry_multiplicity
 _atom_site_fract_x
 _atom_site_fract_y
 _atom_site_fract_z
 _atom_site_occupancy
  Sm  Sm0  1  0.333515  0.666331  0.000000  1
  Sm  Sm1  1  0.666485  0.332816  0.000000  1
  Hf  Hf2  1  0.817680  0.816096  0.500000  1
  Hf  Hf3  1  0.000000  0.180760  0.500000  1
  Hf  Hf4  1  0.000000  0.556866  0.000000  1
  Hf  Hf5  1  0.182320  0.998415  0.500000  1
  Mg  Mg6  1  0.444218  0.443319  0.000000  1
  Mg  Mg7  1  0.555782  0.999101  0.000000  1
  Co  Co8  1  0.632187  0.825878  0.000000  1
  Co  Co9  1  0.367813  0.193691  0.000000  1
  Co  Co10  1  0.000000  0.726142  0.500000  1
  Co  Co11  1  0.276632  0.276797  0.500000  1
  Co  Co12  1  0.877437  0.351152  0.500000  1
  Co  Co13  1  0.723368  0.000165  0.500000  1
  Co  Co14  1  0.824380  0.635311  0.000000  1
  Co  Co15  1  0.175620  0.810932  0.000000  1
  Co  Co16  1  0.353740  0.876012  0.500000  1
  Co  Co17  1  0.122563  0.473714  0.500000  1
  Co  Co18  1  0.646260  0.522272  0.500000  1
  Co  Co19  1  0.000000  0.001615  0.000000  1
  Co  Co20  1  0.525596  0.648045  0.500000  1
  Co  Co21  1  0.474404  0.122448  0.500000  1
  Co  Co22  1  0.194645  0.368258  0.000000  1
  Co  Co23  1  0.805355  0.173613  0.000000  1
  P  P24  1  0.000000  0.345133  0.000000  1
  P  P25  1  0.830595  0.525130  0.500000  1
  P  P26  1  0.690601  0.166746  0.500000  1
  P  P27  1  0.173759  0.173114  0.000000  1
  P  P28  1  0.646421  0.648711  0.000000  1
  P  P29  1  0.826241  0.999356  0.000000  1
  P  P30  1  0.524271  0.831982  0.500000  1
  P  P31  1  0.169405  0.694535  0.500000  1
  P  P32  1  0.353579  0.002290  0.000000  1
  P  P33  1  0.475729  0.307712  0.500000  1
  P  P34  1  0.000000  0.829397  0.000000  1
  P  P35  1  0.309399  0.476144  0.500000  1
