# generated using pymatgen
data_LiLu12InFe2Re
_symmetry_space_group_name_H-M   'P 1'
_cell_length_a   8.19481747
_cell_length_b   8.19479000
_cell_length_c   8.19481779
_cell_angle_alpha   106.79258806
_cell_angle_beta   110.38898137
_cell_angle_gamma   111.26625640
_symmetry_Int_Tables_number   1
_chemical_formula_structural   LiLu12InFe2Re
_chemical_formula_sum   'Li1 Lu12 In1 Fe2 Re1'
_cell_volume   422.92048148
_cell_formula_units_Z   1
loop_
 _symmetry_equiv_pos_site_id
 _symmetry_equiv_pos_as_xyz
  1  'x, y, z'
loop_
 _atom_site_type_symbol
 _atom_site_label
 _atom_site_symmetry_multiplicity
 _atom_site_fract_x
 _atom_site_fract_y
 _atom_site_fract_z
 _atom_site_occupancy
  Li  Li0  1  0.500000  0.000000  0.500000  1
  Lu  Lu1  1  0.307130  0.312225  0.619379  1
  Lu  Lu2  1  0.692870  0.687775  0.380621  1
  Lu  Lu3  1  0.692846  0.312225  0.005095  1
  Lu  Lu4  1  0.307154  0.687775  0.994905  1
  Lu  Lu5  1  0.192161  0.423915  0.231753  1
  Lu  Lu6  1  0.807839  0.576085  0.768247  1
  Lu  Lu7  1  0.192161  0.960411  0.768251  1
  Lu  Lu8  1  0.949645  0.195369  0.754288  1
  Lu  Lu9  1  0.807839  0.039589  0.231749  1
  Lu  Lu10  1  0.050355  0.804631  0.245712  1
  Lu  Lu11  1  0.441082  0.195369  0.245722  1
  Lu  Lu12  1  0.558918  0.804631  0.754278  1
  In  In13  1  0.000000  0.500000  0.500000  1
  Fe  Fe14  1  0.382387  0.382380  0.999993  1
  Fe  Fe15  1  0.617613  0.617620  0.000007  1
  Re  Re16  1  0.000000  0.000000  0.000000  1
