# generated using pymatgen
data_Y2GaRuRh
_symmetry_space_group_name_H-M   'P 1'
_cell_length_a   5.54556396
_cell_length_b   5.54556385
_cell_length_c   5.54556334
_cell_angle_alpha   136.88900183
_cell_angle_beta   115.36405646
_cell_angle_gamma   80.88598627
_symmetry_Int_Tables_number   1
_chemical_formula_structural   Y2GaRuRh
_chemical_formula_sum   'Y2 Ga1 Ru1 Rh1'
_cell_volume   101.97560364
_cell_formula_units_Z   1
loop_
 _symmetry_equiv_pos_site_id
 _symmetry_equiv_pos_as_xyz
  1  'x, y, z'
loop_
 _atom_site_type_symbol
 _atom_site_label
 _atom_site_symmetry_multiplicity
 _atom_site_fract_x
 _atom_site_fract_y
 _atom_site_fract_z
 _atom_site_occupancy
  Y  Y0  1  0.699497  0.203309  0.496188  1
  Y  Y1  1  0.292879  0.796691  0.496188  1
  Ga  Ga2  1  0.007150  0.000000  0.007150  1
  Ru  Ru3  1  0.263802  0.500000  0.763802  1
  Rh  Rh4  1  0.736671  0.500000  0.236671  1
