# generated using pymatgen
data_Na8Sn13Hg3
_symmetry_space_group_name_H-M   'P 1'
_cell_length_a   10.35578100
_cell_length_b   10.35577988
_cell_length_c   7.24433800
_cell_angle_alpha   90.00000000
_cell_angle_beta   90.00000000
_cell_angle_gamma   119.99999398
_symmetry_Int_Tables_number   1
_chemical_formula_structural   Na8Sn13Hg3
_chemical_formula_sum   'Na8 Sn13 Hg3'
_cell_volume   672.81401814
_cell_formula_units_Z   1
loop_
 _symmetry_equiv_pos_site_id
 _symmetry_equiv_pos_as_xyz
  1  'x, y, z'
loop_
 _atom_site_type_symbol
 _atom_site_label
 _atom_site_symmetry_multiplicity
 _atom_site_fract_x
 _atom_site_fract_y
 _atom_site_fract_z
 _atom_site_occupancy
  Na  Na0  1  0.525102  0.050202  0.249575  1
  Na  Na1  1  0.050495  0.525248  0.745907  1
  Na  Na2  1  0.474752  0.525248  0.745907  1
  Na  Na3  1  0.525102  0.474898  0.249575  1
  Na  Na4  1  0.474752  0.949505  0.745907  1
  Na  Na5  1  0.949798  0.474898  0.249575  1
  Na  Na6  1  0.000000  0.000000  0.750454  1
  Na  Na7  1  0.000000  0.000000  0.251539  1
  Sn  Sn8  1  0.163095  0.836905  0.044745  1
  Sn  Sn9  1  0.831559  0.663119  0.542092  1
  Sn  Sn10  1  0.336881  0.168441  0.542092  1
  Sn  Sn11  1  0.830480  0.169520  0.954400  1
  Sn  Sn12  1  0.830480  0.660960  0.954400  1
  Sn  Sn13  1  0.831559  0.168441  0.542092  1
  Sn  Sn14  1  0.339040  0.169520  0.954400  1
  Sn  Sn15  1  0.673810  0.836905  0.044745  1
  Sn  Sn16  1  0.666288  0.833144  0.459807  1
  Sn  Sn17  1  0.166856  0.333712  0.459807  1
  Sn  Sn18  1  0.166856  0.833144  0.459807  1
  Sn  Sn19  1  0.163095  0.326190  0.044745  1
  Sn  Sn20  1  0.333333  0.666667  0.044968  1
  Hg  Hg21  1  0.333333  0.666667  0.464185  1
  Hg  Hg22  1  0.666667  0.333333  0.538117  1
  Hg  Hg23  1  0.666667  0.333333  0.961156  1
