# generated using pymatgen
data_HoEr15CdCo4Hg3
_symmetry_space_group_name_H-M   'P 1'
_cell_length_a   9.38792300
_cell_length_b   9.38720119
_cell_length_c   9.38722600
_cell_angle_alpha   59.99991258
_cell_angle_beta   60.00245596
_cell_angle_gamma   60.00269542
_symmetry_Int_Tables_number   1
_chemical_formula_structural   HoEr15CdCo4Hg3
_chemical_formula_sum   'Ho1 Er15 Cd1 Co4 Hg3'
_cell_volume   584.98474461
_cell_formula_units_Z   1
loop_
 _symmetry_equiv_pos_site_id
 _symmetry_equiv_pos_as_xyz
  1  'x, y, z'
loop_
 _atom_site_type_symbol
 _atom_site_label
 _atom_site_symmetry_multiplicity
 _atom_site_fract_x
 _atom_site_fract_y
 _atom_site_fract_z
 _atom_site_occupancy
  Ho  Ho0  1  0.957170  0.347964  0.347434  1
  Er  Er1  1  0.938500  0.936546  0.562477  1
  Er  Er2  1  0.812663  0.187002  0.187621  1
  Er  Er3  1  0.937737  0.562040  0.562479  1
  Er  Er4  1  0.937737  0.562040  0.937746  1
  Er  Er5  1  0.812087  0.812000  0.187957  1
  Er  Er6  1  0.347442  0.347915  0.347400  1
  Er  Er7  1  0.562426  0.936575  0.938542  1
  Er  Er8  1  0.562426  0.936575  0.562457  1
  Er  Er9  1  0.188001  0.811940  0.812084  1
  Er  Er10  1  0.187662  0.187010  0.812664  1
  Er  Er11  1  0.347442  0.347915  0.957244  1
  Er  Er12  1  0.348260  0.955300  0.348220  1
  Er  Er13  1  0.812663  0.187002  0.812715  1
  Er  Er14  1  0.562434  0.562036  0.937766  1
  Er  Er15  1  0.188001  0.811940  0.187975  1
  Cd  Cd16  1  0.579511  0.261383  0.579554  1
  Co  Co17  1  0.576054  0.141055  0.141446  1
  Co  Co18  1  0.141502  0.140994  0.141379  1
  Co  Co19  1  0.141431  0.575947  0.141312  1
  Co  Co20  1  0.141502  0.140994  0.576124  1
  Hg  Hg21  1  0.584308  0.582616  0.248722  1
  Hg  Hg22  1  0.248739  0.582597  0.584332  1
  Hg  Hg23  1  0.584308  0.582616  0.584354  1
