# generated using pymatgen
data_NaLa6RhCl12
_symmetry_space_group_name_H-M   'P 1'
_cell_length_a   9.07296131
_cell_length_b   9.41681082
_cell_length_c   9.37288100
_cell_angle_alpha   107.67230395
_cell_angle_beta   107.25723918
_cell_angle_gamma   107.22238881
_symmetry_Int_Tables_number   1
_chemical_formula_structural   NaLa6RhCl12
_chemical_formula_sum   'Na1 La6 Rh1 Cl12'
_cell_volume   659.79694807
_cell_formula_units_Z   1
loop_
 _symmetry_equiv_pos_site_id
 _symmetry_equiv_pos_as_xyz
  1  'x, y, z'
loop_
 _atom_site_type_symbol
 _atom_site_label
 _atom_site_symmetry_multiplicity
 _atom_site_fract_x
 _atom_site_fract_y
 _atom_site_fract_z
 _atom_site_occupancy
  Na  Na0  1  0.500000  0.500000  0.500000  1
  La  La1  1  0.129889  0.341374  0.033208  1
  La  La2  1  0.316189  0.029192  0.113203  1
  La  La3  1  0.031930  0.128397  0.343221  1
  La  La4  1  0.968071  0.871603  0.656780  1
  La  La5  1  0.683811  0.970809  0.886797  1
  La  La6  1  0.870111  0.658626  0.966792  1
  Rh  Rh7  1  0.000000  0.000000  0.000000  1
  Cl  Cl8  1  0.212893  0.686718  0.071536  1
  Cl  Cl9  1  0.462027  0.371908  0.165825  1
  Cl  Cl10  1  0.681247  0.069567  0.212805  1
  Cl  Cl11  1  0.929420  0.789954  0.312360  1
  Cl  Cl12  1  0.160667  0.453848  0.368956  1
  Cl  Cl13  1  0.372858  0.164811  0.454471  1
  Cl  Cl14  1  0.627142  0.835189  0.545530  1
  Cl  Cl15  1  0.839334  0.546152  0.631044  1
  Cl  Cl16  1  0.070581  0.210046  0.687641  1
  Cl  Cl17  1  0.318754  0.930434  0.787195  1
  Cl  Cl18  1  0.537973  0.628092  0.834176  1
  Cl  Cl19  1  0.787107  0.313282  0.928464  1
