# generated using pymatgen
data_K4Rb2NbTlAs4
_symmetry_space_group_name_H-M   'P 1'
_cell_length_a   19.36804232
_cell_length_b   10.63924841
_cell_length_c   8.01654123
_cell_angle_alpha   90.20724388
_cell_angle_beta   89.92846363
_cell_angle_gamma   90.15127412
_symmetry_Int_Tables_number   1
_chemical_formula_structural   K4Rb2NbTlAs4
_chemical_formula_sum   'K16 Rb8 Nb4 Tl4 As16'
_cell_volume   1651.88198413
_cell_formula_units_Z   4
loop_
 _symmetry_equiv_pos_site_id
 _symmetry_equiv_pos_as_xyz
  1  'x, y, z'
loop_
 _atom_site_type_symbol
 _atom_site_label
 _atom_site_symmetry_multiplicity
 _atom_site_fract_x
 _atom_site_fract_y
 _atom_site_fract_z
 _atom_site_occupancy
  K  K0  1  0.653764  0.249688  0.175675  1
  K  K1  1  0.155966  0.248502  0.326807  1
  K  K2  1  0.499627  0.250002  0.445076  1
  K  K3  1  0.242629  0.953371  0.489919  1
  K  K4  1  0.756232  0.047462  0.506481  1
  K  K5  1  0.756163  0.452478  0.506965  1
  K  K6  1  0.500690  0.750108  0.559855  1
  K  K7  1  0.844883  0.750358  0.681382  1
  K  K8  1  0.079973  0.019572  0.718866  1
  K  K9  1  0.079520  0.481209  0.722321  1
  K  K10  1  0.579164  0.020186  0.775049  1
  K  K11  1  0.579214  0.479638  0.775765  1
  K  K12  1  0.344677  0.751023  0.819932  1
  K  K13  1  0.002186  0.750347  0.940210  1
  K  K14  1  0.256762  0.046375  0.991602  1
  K  K15  1  0.256504  0.452429  0.992539  1
  Rb  Rb16  1  0.742756  0.547260  0.005840  1
  Rb  Rb17  1  0.742815  0.952775  0.006511  1
  Rb  Rb18  1  0.006836  0.250313  0.058909  1
  Rb  Rb19  1  0.421345  0.521305  0.218978  1
  Rb  Rb20  1  0.421673  0.978723  0.220684  1
  Rb  Rb21  1  0.921092  0.521747  0.282055  1
  Rb  Rb22  1  0.921190  0.978553  0.282105  1
  Rb  Rb23  1  0.243275  0.547600  0.494661  1
  Nb  Nb24  1  0.168957  0.751926  0.098792  1
  Nb  Nb25  1  0.667798  0.749857  0.403529  1
  Nb  Nb26  1  0.329692  0.247740  0.606618  1
  Nb  Nb27  1  0.829861  0.250121  0.891243  1
  Tl  Tl28  1  0.555670  0.749859  0.063110  1
  Tl  Tl29  1  0.056765  0.750046  0.438389  1
  Tl  Tl30  1  0.947465  0.250120  0.566027  1
  Tl  Tl31  1  0.447425  0.248780  0.932033  1
  As  As32  1  0.291132  0.752756  0.194789  1
  As  As33  1  0.103919  0.558174  0.205732  1
  As  As34  1  0.104329  0.943728  0.212364  1
  As  As35  1  0.828040  0.249896  0.201337  1
  As  As36  1  0.328568  0.248983  0.296618  1
  As  As37  1  0.602654  0.556827  0.293044  1
  As  As38  1  0.603064  0.942651  0.294431  1
  As  As39  1  0.790612  0.750158  0.310325  1
  As  As40  1  0.206459  0.246894  0.706782  1
  As  As41  1  0.396730  0.055322  0.709476  1
  As  As42  1  0.397214  0.440937  0.713301  1
  As  As43  1  0.666227  0.749926  0.713850  1
  As  As44  1  0.168263  0.753847  0.787470  1
  As  As45  1  0.896849  0.057340  0.784265  1
  As  As46  1  0.896953  0.443210  0.785247  1
  As  As47  1  0.706409  0.249875  0.793037  1
