# generated using pymatgen
data_NdTh2Mg2AlIr3
_symmetry_space_group_name_H-M   'P 1'
_cell_length_a   7.37546595
_cell_length_b   7.51456320
_cell_length_c   4.07294800
_cell_angle_alpha   90.00000000
_cell_angle_beta   90.00000000
_cell_angle_gamma   119.72778246
_symmetry_Int_Tables_number   1
_chemical_formula_structural   NdTh2Mg2AlIr3
_chemical_formula_sum   'Nd1 Th2 Mg2 Al1 Ir3'
_cell_volume   196.02771008
_cell_formula_units_Z   1
loop_
 _symmetry_equiv_pos_site_id
 _symmetry_equiv_pos_as_xyz
  1  'x, y, z'
loop_
 _atom_site_type_symbol
 _atom_site_label
 _atom_site_symmetry_multiplicity
 _atom_site_fract_x
 _atom_site_fract_y
 _atom_site_fract_z
 _atom_site_occupancy
  Nd  Nd0  1  0.410903  0.008480  0.500000  1
  Th  Th1  1  0.005022  0.416053  0.500000  1
  Th  Th2  1  0.573853  0.569906  0.500000  1
  Mg  Mg3  1  0.751244  0.996934  0.000000  1
  Mg  Mg4  1  0.004201  0.768089  0.000000  1
  Al  Al5  1  0.232298  0.232053  0.000000  1
  Ir  Ir6  1  0.329702  0.630013  0.000000  1
  Ir  Ir7  1  0.675743  0.351671  0.000000  1
  Ir  Ir8  1  0.017035  0.026801  0.500000  1
