# generated using pymatgen
data_Sr5VWN7
_symmetry_space_group_name_H-M   'P 1'
_cell_length_a   6.46028062
_cell_length_b   9.22512249
_cell_length_c   9.30573349
_cell_angle_alpha   114.32859185
_cell_angle_beta   97.60586704
_cell_angle_gamma   89.50356681
_symmetry_Int_Tables_number   1
_chemical_formula_structural   Sr5VWN7
_chemical_formula_sum   'Sr10 V2 W2 N14'
_cell_volume   500.25140605
_cell_formula_units_Z   2
loop_
 _symmetry_equiv_pos_site_id
 _symmetry_equiv_pos_as_xyz
  1  'x, y, z'
loop_
 _atom_site_type_symbol
 _atom_site_label
 _atom_site_symmetry_multiplicity
 _atom_site_fract_x
 _atom_site_fract_y
 _atom_site_fract_z
 _atom_site_occupancy
  Sr  Sr0  1  0.850193  0.585170  0.337372  1
  Sr  Sr1  1  0.266702  0.982569  0.560802  1
  Sr  Sr2  1  0.704338  0.411764  0.852095  1
  Sr  Sr3  1  0.295662  0.588236  0.147905  1
  Sr  Sr4  1  0.394459  0.791078  0.915158  1
  Sr  Sr5  1  0.605541  0.208922  0.084842  1
  Sr  Sr6  1  0.149807  0.414830  0.662628  1
  Sr  Sr7  1  0.889536  0.845292  0.756540  1
  Sr  Sr8  1  0.110464  0.154708  0.243460  1
  Sr  Sr9  1  0.733298  0.017431  0.439198  1
  V  V10  1  0.576332  0.359906  0.475480  1
  V  V11  1  0.423668  0.640094  0.524520  1
  W  W12  1  0.121984  0.216830  0.915224  1
  W  W13  1  0.878016  0.783170  0.084776  1
  N  N14  1  0.540269  0.548216  0.659418  1
  N  N15  1  0.459731  0.451784  0.340582  1
  N  N16  1  0.168386  0.700068  0.569193  1
  N  N17  1  0.831614  0.299932  0.430807  1
  N  N18  1  0.420399  0.201515  0.477195  1
  N  N19  1  0.579601  0.798485  0.522805  1
  N  N20  1  0.949285  0.134760  0.715053  1
  N  N21  1  0.050715  0.865240  0.284947  1
  N  N22  1  0.236127  0.052153  0.965409  1
  N  N23  1  0.763873  0.947847  0.034591  1
  N  N24  1  0.354899  0.332295  0.904578  1
  N  N25  1  0.968112  0.347635  0.078557  1
  N  N26  1  0.031888  0.652365  0.921443  1
  N  N27  1  0.645101  0.667705  0.095422  1
