# generated using pymatgen
data_Hf20C17O
_symmetry_space_group_name_H-M   'P 1'
_cell_length_a   8.68305237
_cell_length_b   8.68478220
_cell_length_c   10.87999069
_cell_angle_alpha   63.00719768
_cell_angle_beta   63.04059762
_cell_angle_gamma   44.50797777
_symmetry_Int_Tables_number   1
_chemical_formula_structural   Hf20C17O
_chemical_formula_sum   'Hf20 C17 O1'
_cell_volume   501.33256666
_cell_formula_units_Z   1
loop_
 _symmetry_equiv_pos_site_id
 _symmetry_equiv_pos_as_xyz
  1  'x, y, z'
loop_
 _atom_site_type_symbol
 _atom_site_label
 _atom_site_symmetry_multiplicity
 _atom_site_fract_x
 _atom_site_fract_y
 _atom_site_fract_z
 _atom_site_occupancy
  Hf  Hf0  1  0.228200  0.481553  0.941902  1
  Hf  Hf1  1  0.721514  0.967688  0.955753  1
  Hf  Hf2  1  0.564515  0.330520  0.648385  1
  Hf  Hf3  1  0.435668  0.669087  0.350877  1
  Hf  Hf4  1  0.281934  0.028718  0.041157  1
  Hf  Hf5  1  0.081906  0.813751  0.645154  1
  Hf  Hf6  1  0.123654  0.373203  0.750115  1
  Hf  Hf7  1  0.915131  0.181761  0.359728  1
  Hf  Hf8  1  0.967889  0.720113  0.457122  1
  Hf  Hf9  1  0.769044  0.526234  0.049901  1
  Hf  Hf10  1  0.627302  0.877083  0.748436  1
  Hf  Hf11  1  0.815255  0.082567  0.144744  1
  Hf  Hf12  1  0.476609  0.224488  0.448165  1
  Hf  Hf13  1  0.670601  0.435515  0.850666  1
  Hf  Hf14  1  0.521292  0.776456  0.553941  1
  Hf  Hf15  1  0.329171  0.563818  0.149095  1
  Hf  Hf16  1  0.378897  0.118951  0.252985  1
  Hf  Hf17  1  0.185450  0.920040  0.854097  1
  Hf  Hf18  1  0.031867  0.278752  0.544331  1
  Hf  Hf19  1  0.871772  0.634182  0.252101  1
  C  C20  1  0.925906  0.675846  0.851692  1
  C  C21  1  0.574677  0.827044  0.148119  1
  C  C22  1  0.776820  0.026383  0.549555  1
  C  C23  1  0.422742  0.173718  0.853865  1
  C  C24  1  0.628324  0.374288  0.249191  1
  C  C25  1  0.275010  0.527589  0.550529  1
  C  C26  1  0.473264  0.725757  0.950928  1
  C  C27  1  0.323087  0.074186  0.650379  1
  C  C28  1  0.173174  0.424437  0.350758  1
  C  C29  1  0.975249  0.223477  0.951949  1
  C  C30  1  0.826230  0.575415  0.648008  1
  C  C31  1  0.026062  0.773243  0.051199  1
  C  C32  1  0.676642  0.924559  0.348476  1
  C  C33  1  0.726419  0.471371  0.447494  1
  C  C34  1  0.525209  0.275880  0.051329  1
  C  C35  1  0.375068  0.623919  0.750642  1
  C  C36  1  0.222703  0.976916  0.447243  1
  O  O37  1  0.075741  0.321491  0.149994  1
