# generated using pymatgen
data_Hf6Fe2Sn6IrRh3
_symmetry_space_group_name_H-M   'P 1'
_cell_length_a   7.42456700
_cell_length_b   7.42456707
_cell_length_c   6.94940900
_cell_angle_alpha   90.00000000
_cell_angle_beta   90.00000000
_cell_angle_gamma   119.99999525
_symmetry_Int_Tables_number   1
_chemical_formula_structural   Hf6Fe2Sn6IrRh3
_chemical_formula_sum   'Hf6 Fe2 Sn6 Ir1 Rh3'
_cell_volume   331.75753096
_cell_formula_units_Z   1
loop_
 _symmetry_equiv_pos_site_id
 _symmetry_equiv_pos_as_xyz
  1  'x, y, z'
loop_
 _atom_site_type_symbol
 _atom_site_label
 _atom_site_symmetry_multiplicity
 _atom_site_fract_x
 _atom_site_fract_y
 _atom_site_fract_z
 _atom_site_occupancy
  Hf  Hf0  1  0.006705  0.392656  0.749274  1
  Hf  Hf1  1  0.607344  0.614049  0.749274  1
  Hf  Hf2  1  0.385951  0.993295  0.749274  1
  Hf  Hf3  1  0.995731  0.387682  0.250395  1
  Hf  Hf4  1  0.612318  0.608049  0.250395  1
  Hf  Hf5  1  0.391951  0.004269  0.250395  1
  Fe  Fe6  1  0.000000  0.000000  0.749735  1
  Fe  Fe7  1  0.000000  0.000000  0.249999  1
  Sn  Sn8  1  0.265620  0.262824  0.500210  1
  Sn  Sn9  1  0.997204  0.734380  0.500210  1
  Sn  Sn10  1  0.999230  0.734359  0.999592  1
  Sn  Sn11  1  0.737176  0.002796  0.500210  1
  Sn  Sn12  1  0.735130  0.000770  0.999592  1
  Sn  Sn13  1  0.265641  0.264870  0.999592  1
  Ir  Ir14  1  0.333333  0.666667  0.489766  1
  Rh  Rh15  1  0.666667  0.333333  0.511451  1
  Rh  Rh16  1  0.333333  0.666667  0.012247  1
  Rh  Rh17  1  0.666667  0.333333  0.988386  1
