# generated using pymatgen
data_Pr4TmP12Ru19
_symmetry_space_group_name_H-M   'P 1'
_cell_length_a   12.63415800
_cell_length_b   12.63415819
_cell_length_c   4.02111900
_cell_angle_alpha   90.00000000
_cell_angle_beta   90.00000000
_cell_angle_gamma   119.99999951
_symmetry_Int_Tables_number   1
_chemical_formula_structural   Pr4TmP12Ru19
_chemical_formula_sum   'Pr4 Tm1 P12 Ru19'
_cell_volume   555.86608023
_cell_formula_units_Z   1
loop_
 _symmetry_equiv_pos_site_id
 _symmetry_equiv_pos_as_xyz
  1  'x, y, z'
loop_
 _atom_site_type_symbol
 _atom_site_label
 _atom_site_symmetry_multiplicity
 _atom_site_fract_x
 _atom_site_fract_y
 _atom_site_fract_z
 _atom_site_occupancy
  Pr  Pr0  1  0.816244  0.000615  0.500000  1
  Pr  Pr1  1  0.999385  0.815629  0.500000  1
  Pr  Pr2  1  0.184371  0.183756  0.500000  1
  Pr  Pr3  1  0.666667  0.333333  0.000000  1
  Tm  Tm4  1  0.333333  0.666667  0.000000  1
  P  P5  1  0.187301  0.997645  0.000000  1
  P  P6  1  0.002355  0.189656  0.000000  1
  P  P7  1  0.810344  0.812699  0.000000  1
  P  P8  1  0.520232  0.696464  0.500000  1
  P  P9  1  0.303536  0.823767  0.500000  1
  P  P10  1  0.176233  0.479768  0.500000  1
  P  P11  1  0.475414  0.170181  0.500000  1
  P  P12  1  0.694767  0.524586  0.500000  1
  P  P13  1  0.829819  0.305233  0.500000  1
  P  P14  1  0.625897  0.000887  0.000000  1
  P  P15  1  0.999113  0.625011  0.000000  1
  P  P16  1  0.374989  0.374103  0.000000  1
  Ru  Ru17  1  0.445292  0.999031  0.000000  1
  Ru  Ru18  1  0.000969  0.446261  0.000000  1
  Ru  Ru19  1  0.553739  0.554708  0.000000  1
  Ru  Ru20  1  0.285395  0.997203  0.500000  1
  Ru  Ru21  1  0.002797  0.288194  0.500000  1
  Ru  Ru22  1  0.711806  0.714605  0.500000  1
  Ru  Ru23  1  0.617466  0.804973  0.000000  1
  Ru  Ru24  1  0.195027  0.812493  0.000000  1
  Ru  Ru25  1  0.187507  0.382534  0.000000  1
  Ru  Ru26  1  0.378409  0.182772  0.000000  1
  Ru  Ru27  1  0.804364  0.621591  0.000000  1
  Ru  Ru28  1  0.817228  0.195636  0.000000  1
  Ru  Ru29  1  0.504041  0.873039  0.500000  1
  Ru  Ru30  1  0.126961  0.631003  0.500000  1
  Ru  Ru31  1  0.368997  0.495959  0.500000  1
  Ru  Ru32  1  0.490266  0.367073  0.500000  1
  Ru  Ru33  1  0.876806  0.509734  0.500000  1
  Ru  Ru34  1  0.632927  0.123194  0.500000  1
  Ru  Ru35  1  0.000000  0.000000  0.000000  1
