# generated using pymatgen
data_V3GaTcS8
_symmetry_space_group_name_H-M   'P 1'
_cell_length_a   6.90072648
_cell_length_b   6.90072716
_cell_length_c   6.82168529
_cell_angle_alpha   59.61596805
_cell_angle_beta   59.61596353
_cell_angle_gamma   59.99999842
_symmetry_Int_Tables_number   1
_chemical_formula_structural   V3GaTcS8
_chemical_formula_sum   'V3 Ga1 Tc1 S8'
_cell_volume   228.36043857
_cell_formula_units_Z   1
loop_
 _symmetry_equiv_pos_site_id
 _symmetry_equiv_pos_as_xyz
  1  'x, y, z'
loop_
 _atom_site_type_symbol
 _atom_site_label
 _atom_site_symmetry_multiplicity
 _atom_site_fract_x
 _atom_site_fract_y
 _atom_site_fract_z
 _atom_site_occupancy
  V  V0  1  0.608003  0.186630  0.597365  1
  V  V1  1  0.186630  0.608003  0.597365  1
  V  V2  1  0.608003  0.608003  0.597365  1
  Ga  Ga3  1  0.001717  0.001717  0.994848  1
  Tc  Tc4  1  0.601668  0.601668  0.194998  1
  S  S5  1  0.864266  0.864266  0.407202  1
  S  S6  1  0.861015  0.412232  0.865738  1
  S  S7  1  0.412232  0.861015  0.865738  1
  S  S8  1  0.861015  0.861015  0.865738  1
  S  S9  1  0.373052  0.373052  0.880844  1
  S  S10  1  0.365227  0.365227  0.377600  1
  S  S11  1  0.891945  0.365227  0.377600  1
  S  S12  1  0.365227  0.891945  0.377600  1
