# generated using pymatgen
data_Y15Er5(Bi2Ir)4
_symmetry_space_group_name_H-M   'P 1'
_cell_length_a   8.00123951
_cell_length_b   9.01957165
_cell_length_c   12.51772437
_cell_angle_alpha   90.03921673
_cell_angle_beta   89.96389709
_cell_angle_gamma   90.01941229
_symmetry_Int_Tables_number   1
_chemical_formula_structural   Y15Er5(Bi2Ir)4
_chemical_formula_sum   'Y15 Er5 Bi8 Ir4'
_cell_volume   903.37559821
_cell_formula_units_Z   1
loop_
 _symmetry_equiv_pos_site_id
 _symmetry_equiv_pos_as_xyz
  1  'x, y, z'
loop_
 _atom_site_type_symbol
 _atom_site_label
 _atom_site_symmetry_multiplicity
 _atom_site_fract_x
 _atom_site_fract_y
 _atom_site_fract_z
 _atom_site_occupancy
  Y  Y0  1  0.661079  0.750595  0.709551  1
  Y  Y1  1  0.339332  0.249724  0.290413  1
  Y  Y2  1  0.160932  0.249274  0.790598  1
  Y  Y3  1  0.838705  0.750638  0.209864  1
  Y  Y4  1  0.128815  0.751080  0.808453  1
  Y  Y5  1  0.871258  0.249144  0.191778  1
  Y  Y6  1  0.629347  0.249611  0.691346  1
  Y  Y7  1  0.371409  0.750392  0.308432  1
  Y  Y8  1  0.555242  0.751907  0.998954  1
  Y  Y9  1  0.444991  0.248235  0.001073  1
  Y  Y10  1  0.054766  0.248872  0.500955  1
  Y  Y11  1  0.943886  0.750839  0.498832  1
  Y  Y12  1  0.825476  0.457629  0.931697  1
  Y  Y13  1  0.174602  0.542543  0.068412  1
  Y  Y14  1  0.325203  0.542338  0.568333  1
  Er  Er15  1  0.171640  0.957331  0.068367  1
  Er  Er16  1  0.671471  0.457490  0.432344  1
  Er  Er17  1  0.828393  0.042894  0.931815  1
  Er  Er18  1  0.671989  0.042452  0.431683  1
  Er  Er19  1  0.328718  0.957316  0.567813  1
  Bi  Bi20  1  0.935553  0.007559  0.672154  1
  Bi  Bi21  1  0.064847  0.992473  0.327680  1
  Bi  Bi22  1  0.435521  0.992652  0.827247  1
  Bi  Bi23  1  0.064584  0.507415  0.328322  1
  Bi  Bi24  1  0.564663  0.007615  0.172472  1
  Bi  Bi25  1  0.935025  0.492397  0.672136  1
  Bi  Bi26  1  0.565933  0.492385  0.171882  1
  Bi  Bi27  1  0.434539  0.507561  0.828146  1
  Ir  Ir28  1  0.927429  0.752123  0.991373  1
  Ir  Ir29  1  0.072502  0.248006  0.008783  1
  Ir  Ir30  1  0.429055  0.248687  0.508060  1
  Ir  Ir31  1  0.573096  0.750825  0.491029  1
