# generated using pymatgen
data_Ho15ErIn3HgRh4
_symmetry_space_group_name_H-M   'P 1'
_cell_length_a   9.60007486
_cell_length_b   9.58868939
_cell_length_c   9.60007503
_cell_angle_alpha   60.09511698
_cell_angle_beta   60.07711088
_cell_angle_gamma   60.09512061
_symmetry_Int_Tables_number   1
_chemical_formula_structural   Ho15ErIn3HgRh4
_chemical_formula_sum   'Ho15 Er1 In3 Hg1 Rh4'
_cell_volume   626.13730382
_cell_formula_units_Z   1
loop_
 _symmetry_equiv_pos_site_id
 _symmetry_equiv_pos_as_xyz
  1  'x, y, z'
loop_
 _atom_site_type_symbol
 _atom_site_label
 _atom_site_symmetry_multiplicity
 _atom_site_fract_x
 _atom_site_fract_y
 _atom_site_fract_z
 _atom_site_occupancy
  Ho  Ho0  1  0.190165  0.189613  0.812306  1
  Ho  Ho1  1  0.438659  0.058243  0.063402  1
  Ho  Ho2  1  0.436171  0.059815  0.436171  1
  Ho  Ho3  1  0.062201  0.436894  0.062201  1
  Ho  Ho4  1  0.648296  0.050762  0.648296  1
  Ho  Ho5  1  0.189845  0.809874  0.812228  1
  Ho  Ho6  1  0.063402  0.058243  0.438659  1
  Ho  Ho7  1  0.812306  0.189613  0.190165  1
  Ho  Ho8  1  0.812228  0.809874  0.189845  1
  Ho  Ho9  1  0.647962  0.647926  0.051288  1
  Ho  Ho10  1  0.652360  0.650890  0.652360  1
  Ho  Ho11  1  0.064215  0.434252  0.436850  1
  Ho  Ho12  1  0.051288  0.647926  0.647962  1
  Ho  Ho13  1  0.810269  0.190481  0.810269  1
  Ho  Ho14  1  0.436850  0.434252  0.064215  1
  Er  Er15  1  0.188879  0.812476  0.188879  1
  In  In16  1  0.417418  0.420319  0.746576  1
  In  In17  1  0.746576  0.420319  0.417418  1
  In  In18  1  0.416882  0.419163  0.416882  1
  Hg  Hg19  1  0.414065  0.759375  0.414065  1
  Rh  Rh20  1  0.858231  0.426221  0.858231  1
  Rh  Rh21  1  0.858381  0.858136  0.426726  1
  Rh  Rh22  1  0.426726  0.858136  0.858381  1
  Rh  Rh23  1  0.856624  0.857200  0.856624  1
