# generated using pymatgen
data_La10Al4IrOs3Ru2
_symmetry_space_group_name_H-M   'P 1'
_cell_length_a   8.68356398
_cell_length_b   8.66740018
_cell_length_c   8.65083868
_cell_angle_alpha   109.45066229
_cell_angle_beta   109.73009014
_cell_angle_gamma   109.46916372
_symmetry_Int_Tables_number   1
_chemical_formula_structural   La10Al4IrOs3Ru2
_chemical_formula_sum   'La10 Al4 Ir1 Os3 Ru2'
_cell_volume   499.74446905
_cell_formula_units_Z   1
loop_
 _symmetry_equiv_pos_site_id
 _symmetry_equiv_pos_as_xyz
  1  'x, y, z'
loop_
 _atom_site_type_symbol
 _atom_site_label
 _atom_site_symmetry_multiplicity
 _atom_site_fract_x
 _atom_site_fract_y
 _atom_site_fract_z
 _atom_site_occupancy
  La  La0  1  0.249817  0.684614  0.441110  1
  La  La1  1  0.746264  0.812375  0.058171  1
  La  La2  1  0.440026  0.249685  0.689371  1
  La  La3  1  0.686736  0.437762  0.250461  1
  La  La4  1  0.061055  0.750627  0.811301  1
  La  La5  1  0.812168  0.061677  0.748825  1
  La  La6  1  0.211609  0.213212  0.211094  1
  La  La7  1  0.502235  0.000485  0.290138  1
  La  La8  1  0.290832  0.500326  0.000201  1
  La  La9  1  0.000571  0.289762  0.500151  1
  Al  Al10  1  0.499776  0.001391  0.913110  1
  Al  Al11  1  0.587898  0.586620  0.588369  1
  Al  Al12  1  0.911638  0.498676  0.999135  1
  Al  Al13  1  0.000924  0.912489  0.500401  1
  Ir  Ir14  1  0.114553  0.864475  0.249617  1
  Os  Os15  1  0.250175  0.116715  0.865519  1
  Os  Os16  1  0.749601  0.383926  0.633642  1
  Os  Os17  1  0.866745  0.250641  0.116604  1
  Ru  Ru18  1  0.633491  0.750172  0.382964  1
  Ru  Ru19  1  0.383886  0.634371  0.749817  1
