# generated using pymatgen
data_Sr3WI2O5
_symmetry_space_group_name_H-M   'P 1'
_cell_length_a   7.73208873
_cell_length_b   7.73208866
_cell_length_c   11.64956500
_cell_angle_alpha   90.00000000
_cell_angle_beta   90.00000000
_cell_angle_gamma   135.37589981
_symmetry_Int_Tables_number   1
_chemical_formula_structural   Sr3WI2O5
_chemical_formula_sum   'Sr6 W2 I4 O10'
_cell_volume   489.23815393
_cell_formula_units_Z   2
loop_
 _symmetry_equiv_pos_site_id
 _symmetry_equiv_pos_as_xyz
  1  'x, y, z'
loop_
 _atom_site_type_symbol
 _atom_site_label
 _atom_site_symmetry_multiplicity
 _atom_site_fract_x
 _atom_site_fract_y
 _atom_site_fract_z
 _atom_site_occupancy
  Sr  Sr0  1  0.333490  0.666510  0.967075  1
  Sr  Sr1  1  0.666510  0.333490  0.467075  1
  Sr  Sr2  1  0.333490  0.666510  0.532925  1
  Sr  Sr3  1  0.121769  0.878231  0.750000  1
  Sr  Sr4  1  0.666510  0.333490  0.032925  1
  Sr  Sr5  1  0.878231  0.121769  0.250000  1
  W  W6  1  0.242114  0.757886  0.250000  1
  W  W7  1  0.757886  0.242114  0.750000  1
  I  I8  1  0.499637  0.500363  0.750000  1
  I  I9  1  0.000000  0.000000  0.000000  1
  I  I10  1  0.000000  0.000000  0.500000  1
  I  I11  1  0.500363  0.499637  0.250000  1
  O  O12  1  0.502922  0.953165  0.134524  1
  O  O13  1  0.880593  0.119407  0.750000  1
  O  O14  1  0.953165  0.502922  0.634524  1
  O  O15  1  0.497078  0.046835  0.865476  1
  O  O16  1  0.119407  0.880593  0.250000  1
  O  O17  1  0.497078  0.046835  0.634524  1
  O  O18  1  0.953165  0.502922  0.865476  1
  O  O19  1  0.046835  0.497078  0.134524  1
  O  O20  1  0.502922  0.953165  0.365476  1
  O  O21  1  0.046835  0.497078  0.365476  1
