# generated using pymatgen
data_Tb6Al24FeCu2Ru5
_symmetry_space_group_name_H-M   'P 1'
_cell_length_a   8.81796252
_cell_length_b   8.81796251
_cell_length_c   9.44914304
_cell_angle_alpha   89.99067542
_cell_angle_beta   90.00932661
_cell_angle_gamma   119.44254312
_symmetry_Int_Tables_number   1
_chemical_formula_structural   Tb6Al24FeCu2Ru5
_chemical_formula_sum   'Tb6 Al24 Fe1 Cu2 Ru5'
_cell_volume   639.84061368
_cell_formula_units_Z   1
loop_
 _symmetry_equiv_pos_site_id
 _symmetry_equiv_pos_as_xyz
  1  'x, y, z'
loop_
 _atom_site_type_symbol
 _atom_site_label
 _atom_site_symmetry_multiplicity
 _atom_site_fract_x
 _atom_site_fract_y
 _atom_site_fract_z
 _atom_site_occupancy
  Tb  Tb0  1  0.384609  0.189942  0.249632  1
  Tb  Tb1  1  0.805841  0.194159  0.249711  1
  Tb  Tb2  1  0.810058  0.615391  0.249632  1
  Tb  Tb3  1  0.615391  0.810058  0.750368  1
  Tb  Tb4  1  0.194159  0.805841  0.750289  1
  Tb  Tb5  1  0.189942  0.384609  0.750368  1
  Al  Al6  1  0.439342  0.877141  0.250300  1
  Al  Al7  1  0.122859  0.560658  0.250300  1
  Al  Al8  1  0.439066  0.560934  0.250461  1
  Al  Al9  1  0.560658  0.122859  0.749700  1
  Al  Al10  1  0.877141  0.439342  0.749700  1
  Al  Al11  1  0.560934  0.439066  0.749539  1
  Al  Al12  1  0.160909  0.839091  0.424712  1
  Al  Al13  1  0.153826  0.317782  0.423569  1
  Al  Al14  1  0.682218  0.846174  0.423569  1
  Al  Al15  1  0.839091  0.160909  0.575288  1
  Al  Al16  1  0.846174  0.682218  0.576431  1
  Al  Al17  1  0.317782  0.153826  0.576431  1
  Al  Al18  1  0.836549  0.163451  0.923586  1
  Al  Al19  1  0.843032  0.676929  0.921885  1
  Al  Al20  1  0.323071  0.156968  0.921885  1
  Al  Al21  1  0.163451  0.836549  0.076414  1
  Al  Al22  1  0.156968  0.323071  0.078115  1
  Al  Al23  1  0.676929  0.843032  0.078115  1
  Al  Al24  1  0.332181  0.667819  0.517689  1
  Al  Al25  1  0.667819  0.332181  0.482311  1
  Al  Al26  1  0.667682  0.332318  0.019329  1
  Al  Al27  1  0.332318  0.667682  0.980671  1
  Al  Al28  1  0.001582  0.998418  0.255757  1
  Al  Al29  1  0.998418  0.001582  0.744243  1
  Fe  Fe30  1  0.000000  0.000000  0.500000  1
  Cu  Cu31  1  0.500000  0.500000  0.500000  1
  Cu  Cu32  1  0.500000  0.500000  0.000000  1
  Ru  Ru33  1  0.000000  0.000000  0.000000  1
  Ru  Ru34  1  0.500000  0.000000  0.500000  1
  Ru  Ru35  1  0.000000  0.500000  0.500000  1
  Ru  Ru36  1  0.500000  0.000000  0.000000  1
  Ru  Ru37  1  0.000000  0.500000  0.000000  1
