# generated using pymatgen
data_Hf18Nb3Re5GeP
_symmetry_space_group_name_H-M   'P 1'
_cell_length_a   8.64861500
_cell_length_b   8.64861586
_cell_length_c   8.73475100
_cell_angle_alpha   90.00000000
_cell_angle_beta   90.00000000
_cell_angle_gamma   120.00000054
_symmetry_Int_Tables_number   1
_chemical_formula_structural   Hf18Nb3Re5GeP
_chemical_formula_sum   'Hf18 Nb3 Re5 Ge1 P1'
_cell_volume   565.81483598
_cell_formula_units_Z   1
loop_
 _symmetry_equiv_pos_site_id
 _symmetry_equiv_pos_as_xyz
  1  'x, y, z'
loop_
 _atom_site_type_symbol
 _atom_site_label
 _atom_site_symmetry_multiplicity
 _atom_site_fract_x
 _atom_site_fract_y
 _atom_site_fract_z
 _atom_site_occupancy
  Hf  Hf0  1  0.196472  0.803528  0.460887  1
  Hf  Hf1  1  0.196472  0.392943  0.460887  1
  Hf  Hf2  1  0.607057  0.803528  0.460887  1
  Hf  Hf3  1  0.803994  0.196006  0.555046  1
  Hf  Hf4  1  0.803994  0.607988  0.555046  1
  Hf  Hf5  1  0.392012  0.196006  0.555046  1
  Hf  Hf6  1  0.803994  0.196006  0.944954  1
  Hf  Hf7  1  0.803994  0.607988  0.944954  1
  Hf  Hf8  1  0.392012  0.196006  0.944954  1
  Hf  Hf9  1  0.196472  0.803528  0.039113  1
  Hf  Hf10  1  0.196472  0.392943  0.039113  1
  Hf  Hf11  1  0.607057  0.803528  0.039113  1
  Hf  Hf12  1  0.537137  0.462863  0.250000  1
  Hf  Hf13  1  0.537137  0.074272  0.250000  1
  Hf  Hf14  1  0.925728  0.462863  0.250000  1
  Hf  Hf15  1  0.459333  0.540667  0.750000  1
  Hf  Hf16  1  0.459333  0.918666  0.750000  1
  Hf  Hf17  1  0.081334  0.540667  0.750000  1
  Nb  Nb18  1  0.888882  0.111118  0.250000  1
  Nb  Nb19  1  0.888882  0.777766  0.250000  1
  Nb  Nb20  1  0.222234  0.111118  0.250000  1
  Re  Re21  1  0.109531  0.890469  0.750000  1
  Re  Re22  1  0.109531  0.219061  0.750000  1
  Re  Re23  1  0.780939  0.890469  0.750000  1
  Re  Re24  1  0.000000  0.000000  0.501793  1
  Re  Re25  1  0.000000  0.000000  0.998207  1
  Ge  Ge26  1  0.333333  0.666667  0.250000  1
  P  P27  1  0.666667  0.333333  0.750000  1
