# generated using pymatgen
data_Tb2PaCo2Ge7
_symmetry_space_group_name_H-M   'P 1'
_cell_length_a   12.66152884
_cell_length_b   12.66152666
_cell_length_c   4.18191300
_cell_angle_alpha   90.00000000
_cell_angle_beta   90.00000000
_cell_angle_gamma   160.58522637
_symmetry_Int_Tables_number   1
_chemical_formula_structural   Tb2PaCo2Ge7
_chemical_formula_sum   'Tb2 Pa1 Co2 Ge7'
_cell_volume   222.85064084
_cell_formula_units_Z   1
loop_
 _symmetry_equiv_pos_site_id
 _symmetry_equiv_pos_as_xyz
  1  'x, y, z'
loop_
 _atom_site_type_symbol
 _atom_site_label
 _atom_site_symmetry_multiplicity
 _atom_site_fract_x
 _atom_site_fract_y
 _atom_site_fract_z
 _atom_site_occupancy
  Tb  Tb0  1  0.098671  0.901329  0.500000  1
  Tb  Tb1  1  0.467327  0.532673  0.500000  1
  Pa  Pa2  1  0.783042  0.216958  0.000000  1
  Co  Co3  1  0.654972  0.345028  0.000000  1
  Co  Co4  1  0.911083  0.088917  0.000000  1
  Ge  Ge5  1  0.371378  0.628622  0.000000  1
  Ge  Ge6  1  0.561626  0.438374  0.000000  1
  Ge  Ge7  1  0.871046  0.128954  0.500000  1
  Ge  Ge8  1  0.004437  0.995563  0.000000  1
  Ge  Ge9  1  0.194752  0.805248  0.000000  1
  Ge  Ge10  1  0.283304  0.716696  0.500000  1
  Ge  Ge11  1  0.695062  0.304938  0.500000  1
