# generated using pymatgen
data_Hf8In4Cu5IrAu2
_symmetry_space_group_name_H-M   'P 1'
_cell_length_a   7.35344393
_cell_length_b   7.34516583
_cell_length_c   6.88076570
_cell_angle_alpha   90.12155277
_cell_angle_beta   90.07970385
_cell_angle_gamma   90.00323261
_symmetry_Int_Tables_number   1
_chemical_formula_structural   Hf8In4Cu5IrAu2
_chemical_formula_sum   'Hf8 In4 Cu5 Ir1 Au2'
_cell_volume   371.64454489
_cell_formula_units_Z   1
loop_
 _symmetry_equiv_pos_site_id
 _symmetry_equiv_pos_as_xyz
  1  'x, y, z'
loop_
 _atom_site_type_symbol
 _atom_site_label
 _atom_site_symmetry_multiplicity
 _atom_site_fract_x
 _atom_site_fract_y
 _atom_site_fract_z
 _atom_site_occupancy
  Hf  Hf0  1  0.157678  0.152805  0.008636  1
  Hf  Hf1  1  0.857287  0.851972  0.004984  1
  Hf  Hf2  1  0.642818  0.346663  0.487338  1
  Hf  Hf3  1  0.340883  0.647472  0.489648  1
  Hf  Hf4  1  0.683417  0.305588  0.009948  1
  Hf  Hf5  1  0.302858  0.686802  0.007341  1
  Hf  Hf6  1  0.812865  0.807066  0.492376  1
  Hf  Hf7  1  0.199242  0.194335  0.494157  1
  In  In8  1  0.502959  0.992356  0.248345  1
  In  In9  1  0.490942  0.001821  0.748534  1
  In  In10  1  0.992881  0.500579  0.247828  1
  In  In11  1  0.007044  0.504979  0.748845  1
  Cu  Cu12  1  0.630264  0.631997  0.203584  1
  Cu  Cu13  1  0.879311  0.123601  0.293154  1
  Cu  Cu14  1  0.370086  0.371498  0.796637  1
  Cu  Cu15  1  0.123664  0.880038  0.294718  1
  Cu  Cu16  1  0.130146  0.871917  0.706562  1
  Ir  Ir17  1  0.375672  0.378123  0.220428  1
  Au  Au18  1  0.623499  0.624426  0.789620  1
  Au  Au19  1  0.876483  0.125962  0.707316  1
