# generated using pymatgen
data_Dy19Tm(Cd3Ru)2
_symmetry_space_group_name_H-M   'P 1'
_cell_length_a   9.58374300
_cell_length_b   9.58374284
_cell_length_c   9.85093100
_cell_angle_alpha   90.00000000
_cell_angle_beta   90.00000000
_cell_angle_gamma   119.99999712
_symmetry_Int_Tables_number   1
_chemical_formula_structural   Dy19Tm(Cd3Ru)2
_chemical_formula_sum   'Dy19 Tm1 Cd6 Ru2'
_cell_volume   783.57077936
_cell_formula_units_Z   1
loop_
 _symmetry_equiv_pos_site_id
 _symmetry_equiv_pos_as_xyz
  1  'x, y, z'
loop_
 _atom_site_type_symbol
 _atom_site_label
 _atom_site_symmetry_multiplicity
 _atom_site_fract_x
 _atom_site_fract_y
 _atom_site_fract_z
 _atom_site_occupancy
  Dy  Dy0  1  0.000000  0.000000  0.000000  1
  Dy  Dy1  1  0.209720  0.790280  0.440044  1
  Dy  Dy2  1  0.209720  0.419440  0.440044  1
  Dy  Dy3  1  0.580560  0.790280  0.440044  1
  Dy  Dy4  1  0.790280  0.209720  0.559956  1
  Dy  Dy5  1  0.790280  0.580560  0.559956  1
  Dy  Dy6  1  0.419440  0.209720  0.559956  1
  Dy  Dy7  1  0.790057  0.209943  0.940082  1
  Dy  Dy8  1  0.790057  0.580112  0.940082  1
  Dy  Dy9  1  0.419888  0.209943  0.940082  1
  Dy  Dy10  1  0.209943  0.790057  0.059918  1
  Dy  Dy11  1  0.209943  0.419888  0.059918  1
  Dy  Dy12  1  0.580112  0.790057  0.059918  1
  Dy  Dy13  1  0.541245  0.458755  0.250047  1
  Dy  Dy14  1  0.541245  0.082490  0.250047  1
  Dy  Dy15  1  0.917510  0.458755  0.250047  1
  Dy  Dy16  1  0.458755  0.541245  0.749953  1
  Dy  Dy17  1  0.458755  0.917510  0.749953  1
  Dy  Dy18  1  0.082490  0.541245  0.749953  1
  Tm  Tm19  1  0.000000  0.000000  0.500000  1
  Cd  Cd20  1  0.885580  0.114420  0.250392  1
  Cd  Cd21  1  0.885580  0.771160  0.250392  1
  Cd  Cd22  1  0.228840  0.114420  0.250392  1
  Cd  Cd23  1  0.114420  0.885580  0.749608  1
  Cd  Cd24  1  0.114420  0.228840  0.749608  1
  Cd  Cd25  1  0.771160  0.885580  0.749608  1
  Ru  Ru26  1  0.333333  0.666667  0.250052  1
  Ru  Ru27  1  0.666667  0.333333  0.749948  1
