# generated using pymatgen
data_Eu2TlPdRh
_symmetry_space_group_name_H-M   'P 1'
_cell_length_a   5.96831917
_cell_length_b   5.96831914
_cell_length_c   8.44379200
_cell_angle_alpha   76.96645668
_cell_angle_beta   76.96647645
_cell_angle_gamma   58.75207405
_symmetry_Int_Tables_number   1
_chemical_formula_structural   Eu2TlPdRh
_chemical_formula_sum   'Eu4 Tl2 Pd2 Rh2'
_cell_volume   248.38126514
_cell_formula_units_Z   2
loop_
 _symmetry_equiv_pos_site_id
 _symmetry_equiv_pos_as_xyz
  1  'x, y, z'
loop_
 _atom_site_type_symbol
 _atom_site_label
 _atom_site_symmetry_multiplicity
 _atom_site_fract_x
 _atom_site_fract_y
 _atom_site_fract_z
 _atom_site_occupancy
  Eu  Eu0  1  0.800208  0.500320  0.353264  1
  Eu  Eu1  1  0.499680  0.199792  0.146736  1
  Eu  Eu2  1  0.205725  0.505787  0.649722  1
  Eu  Eu3  1  0.494213  0.794275  0.850278  1
  Tl  Tl4  1  0.156949  0.843051  0.250000  1
  Tl  Tl5  1  0.852467  0.147533  0.750000  1
  Pd  Pd6  1  0.997300  0.284990  0.998704  1
  Pd  Pd7  1  0.715010  0.002700  0.501296  1
  Rh  Rh8  1  0.004396  0.725949  0.006384  1
  Rh  Rh9  1  0.274051  0.995604  0.493616  1
