# generated using pymatgen
data_Th3Al3Co2Cu
_symmetry_space_group_name_H-M   'P 1'
_cell_length_a   7.12085600
_cell_length_b   7.12085670
_cell_length_c   4.00122900
_cell_angle_alpha   90.00000000
_cell_angle_beta   90.00000000
_cell_angle_gamma   119.99999675
_symmetry_Int_Tables_number   1
_chemical_formula_structural   Th3Al3Co2Cu
_chemical_formula_sum   'Th3 Al3 Co2 Cu1'
_cell_volume   175.70677323
_cell_formula_units_Z   1
loop_
 _symmetry_equiv_pos_site_id
 _symmetry_equiv_pos_as_xyz
  1  'x, y, z'
loop_
 _atom_site_type_symbol
 _atom_site_label
 _atom_site_symmetry_multiplicity
 _atom_site_fract_x
 _atom_site_fract_y
 _atom_site_fract_z
 _atom_site_occupancy
  Th  Th0  1  0.571826  0.000000  0.000000  1
  Th  Th1  1  0.000000  0.571826  0.000000  1
  Th  Th2  1  0.428174  0.428174  0.000000  1
  Al  Al3  1  0.233186  0.000000  0.500000  1
  Al  Al4  1  0.000000  0.233186  0.500000  1
  Al  Al5  1  0.766814  0.766814  0.500000  1
  Co  Co6  1  0.333333  0.666667  0.500000  1
  Co  Co7  1  0.666667  0.333333  0.500000  1
  Cu  Cu8  1  0.000000  0.000000  0.000000  1
