# generated using pymatgen
data_Na2Co9P7Ru3
_symmetry_space_group_name_H-M   'P 1'
_cell_length_a   3.63119900
_cell_length_b   8.98773899
_cell_length_c   8.98773900
_cell_angle_alpha   120.00000371
_cell_angle_beta   90.00000000
_cell_angle_gamma   90.00000000
_symmetry_Int_Tables_number   1
_chemical_formula_structural   Na2Co9P7Ru3
_chemical_formula_sum   'Na2 Co9 P7 Ru3'
_cell_volume   254.02798873
_cell_formula_units_Z   1
loop_
 _symmetry_equiv_pos_site_id
 _symmetry_equiv_pos_as_xyz
  1  'x, y, z'
loop_
 _atom_site_type_symbol
 _atom_site_label
 _atom_site_symmetry_multiplicity
 _atom_site_fract_x
 _atom_site_fract_y
 _atom_site_fract_z
 _atom_site_occupancy
  Na  Na0  1  0.000000  0.666667  0.333333  1
  Na  Na1  1  0.500000  0.333333  0.666667  1
  Co  Co2  1  0.000000  0.566655  0.941859  1
  Co  Co3  1  0.000000  0.375204  0.433345  1
  Co  Co4  1  0.000000  0.058141  0.624796  1
  Co  Co5  1  0.000000  0.878762  0.159632  1
  Co  Co6  1  0.000000  0.280870  0.121238  1
  Co  Co7  1  0.000000  0.840368  0.719130  1
  Co  Co8  1  0.500000  0.949951  0.387751  1
  Co  Co9  1  0.500000  0.437799  0.050049  1
  Co  Co10  1  0.500000  0.612249  0.562201  1
  P  P11  1  0.000000  0.000000  0.000000  1
  P  P12  1  0.500000  0.709160  0.120772  1
  P  P13  1  0.500000  0.411613  0.290840  1
  P  P14  1  0.500000  0.879228  0.588387  1
  P  P15  1  0.000000  0.587034  0.702092  1
  P  P16  1  0.000000  0.115060  0.412966  1
  P  P17  1  0.000000  0.297908  0.884940  1
  Ru  Ru18  1  0.500000  0.778990  0.904366  1
  Ru  Ru19  1  0.500000  0.125376  0.221010  1
  Ru  Ru20  1  0.500000  0.095634  0.874624  1
