# generated using pymatgen
data_Li4Ca2TbSmSi8
_symmetry_space_group_name_H-M   'P 1'
_cell_length_a   3.81069100
_cell_length_b   7.80301049
_cell_length_c   10.46654643
_cell_angle_alpha   90.02272083
_cell_angle_beta   90.00000000
_cell_angle_gamma   90.00000000
_symmetry_Int_Tables_number   1
_chemical_formula_structural   Li4Ca2TbSmSi8
_chemical_formula_sum   'Li4 Ca2 Tb1 Sm1 Si8'
_cell_volume   311.22128745
_cell_formula_units_Z   1
loop_
 _symmetry_equiv_pos_site_id
 _symmetry_equiv_pos_as_xyz
  1  'x, y, z'
loop_
 _atom_site_type_symbol
 _atom_site_label
 _atom_site_symmetry_multiplicity
 _atom_site_fract_x
 _atom_site_fract_y
 _atom_site_fract_z
 _atom_site_occupancy
  Li  Li0  1  0.250000  0.996230  0.388808  1
  Li  Li1  1  0.750000  0.004391  0.609502  1
  Li  Li2  1  0.250000  0.496888  0.109115  1
  Li  Li3  1  0.750000  0.508445  0.890890  1
  Ca  Ca4  1  0.750000  0.865270  0.134848  1
  Ca  Ca5  1  0.750000  0.362358  0.365537  1
  Tb  Tb6  1  0.250000  0.131574  0.864789  1
  Sm  Sm7  1  0.250000  0.631337  0.636007  1
  Si  Si8  1  0.750000  0.268165  0.062744  1
  Si  Si9  1  0.250000  0.737210  0.930038  1
  Si  Si10  1  0.750000  0.767419  0.434233  1
  Si  Si11  1  0.250000  0.231990  0.572579  1
  Si  Si12  1  0.750000  0.840144  0.818620  1
  Si  Si13  1  0.250000  0.162842  0.170839  1
  Si  Si14  1  0.750000  0.335061  0.684340  1
  Si  Si15  1  0.250000  0.660675  0.327110  1
