# generated using pymatgen
data_Pr2Al8Fe9
_symmetry_space_group_name_H-M   'P 1'
_cell_length_a   6.62967017
_cell_length_b   6.62966955
_cell_length_c   6.62967000
_cell_angle_alpha   83.80918084
_cell_angle_beta   96.19081339
_cell_angle_gamma   96.19082852
_symmetry_Int_Tables_number   1
_chemical_formula_structural   Pr2Al8Fe9
_chemical_formula_sum   'Pr2 Al8 Fe9'
_cell_volume   286.63425447
_cell_formula_units_Z   1
loop_
 _symmetry_equiv_pos_site_id
 _symmetry_equiv_pos_as_xyz
  1  'x, y, z'
loop_
 _atom_site_type_symbol
 _atom_site_label
 _atom_site_symmetry_multiplicity
 _atom_site_fract_x
 _atom_site_fract_y
 _atom_site_fract_z
 _atom_site_occupancy
  Pr  Pr0  1  0.639797  0.360204  0.360203  1
  Pr  Pr1  1  0.360203  0.639797  0.639797  1
  Al  Al2  1  0.310083  0.310083  0.000000  1
  Al  Al3  1  0.689917  0.689917  0.000000  1
  Al  Al4  1  0.881844  0.118156  0.118156  1
  Al  Al5  1  0.310082  0.000000  0.310082  1
  Al  Al6  1  0.000000  0.689918  0.310083  1
  Al  Al7  1  0.689918  0.000000  0.689917  1
  Al  Al8  1  0.000000  0.310083  0.689918  1
  Al  Al9  1  0.118156  0.881844  0.881843  1
  Fe  Fe10  1  0.499999  0.000000  0.000000  1
  Fe  Fe11  1  0.000000  0.499999  0.000000  1
  Fe  Fe12  1  0.335079  0.664922  0.158568  1
  Fe  Fe13  1  0.158568  0.335077  0.335078  1
  Fe  Fe14  1  0.664922  0.841432  0.335078  1
  Fe  Fe15  1  0.000000  0.000000  0.499999  1
  Fe  Fe16  1  0.335078  0.158567  0.664922  1
  Fe  Fe17  1  0.841433  0.664921  0.664922  1
  Fe  Fe18  1  0.664923  0.335078  0.841433  1
