# generated using pymatgen
data_Li2NpBr6
_symmetry_space_group_name_H-M   'P 1'
_cell_length_a   6.97610700
_cell_length_b   6.97610685
_cell_length_c   13.47839600
_cell_angle_alpha   90.00000000
_cell_angle_beta   90.00000000
_cell_angle_gamma   119.99999596
_symmetry_Int_Tables_number   1
_chemical_formula_structural   Li2NpBr6
_chemical_formula_sum   'Li4 Np2 Br12'
_cell_volume   568.06118914
_cell_formula_units_Z   2
loop_
 _symmetry_equiv_pos_site_id
 _symmetry_equiv_pos_as_xyz
  1  'x, y, z'
loop_
 _atom_site_type_symbol
 _atom_site_label
 _atom_site_symmetry_multiplicity
 _atom_site_fract_x
 _atom_site_fract_y
 _atom_site_fract_z
 _atom_site_occupancy
  Li  Li0  1  0.000000  0.000000  0.750000  1
  Li  Li1  1  0.666667  0.333333  0.750000  1
  Li  Li2  1  0.333333  0.666667  0.250000  1
  Li  Li3  1  0.000000  0.000000  0.250000  1
  Np  Np4  1  0.333333  0.666667  0.750000  1
  Np  Np5  1  0.666667  0.333333  0.250000  1
  Br  Br6  1  0.001746  0.334897  0.635315  1
  Br  Br7  1  0.333152  0.998254  0.635315  1
  Br  Br8  1  0.665103  0.666848  0.635315  1
  Br  Br9  1  0.665103  0.998254  0.864685  1
  Br  Br10  1  0.333152  0.334897  0.864685  1
  Br  Br11  1  0.001746  0.666848  0.864685  1
  Br  Br12  1  0.998254  0.333152  0.135315  1
  Br  Br13  1  0.334897  0.001746  0.135315  1
  Br  Br14  1  0.666848  0.665103  0.135315  1
  Br  Br15  1  0.666848  0.001746  0.364685  1
  Br  Br16  1  0.334897  0.333152  0.364685  1
  Br  Br17  1  0.998254  0.665103  0.364685  1
