# generated using pymatgen
data_Tb6P5Se
_symmetry_space_group_name_H-M   'P 1'
_cell_length_a   4.03351784
_cell_length_b   9.93819612
_cell_length_c   8.07367278
_cell_angle_alpha   90.06404092
_cell_angle_beta   60.02040751
_cell_angle_gamma   89.98784768
_symmetry_Int_Tables_number   1
_chemical_formula_structural   Tb6P5Se
_chemical_formula_sum   'Tb6 P5 Se1'
_cell_volume   280.33811475
_cell_formula_units_Z   1
loop_
 _symmetry_equiv_pos_site_id
 _symmetry_equiv_pos_as_xyz
  1  'x, y, z'
loop_
 _atom_site_type_symbol
 _atom_site_label
 _atom_site_symmetry_multiplicity
 _atom_site_fract_x
 _atom_site_fract_y
 _atom_site_fract_z
 _atom_site_occupancy
  Tb  Tb0  1  0.944375  0.892804  0.648850  1
  Tb  Tb1  1  0.265849  0.237090  0.329487  1
  Tb  Tb2  1  0.605836  0.564978  0.988932  1
  Tb  Tb3  1  0.281691  0.242867  0.813488  1
  Tb  Tb4  1  0.605701  0.564974  0.488914  1
  Tb  Tb5  1  0.928400  0.887139  0.164829  1
  P  P6  1  0.271150  0.729828  0.322523  1
  P  P7  1  0.939650  0.400130  0.655516  1
  P  P8  1  0.604956  0.064953  0.489265  1
  P  P9  1  0.940800  0.396960  0.154605  1
  P  P10  1  0.270301  0.733020  0.823509  1
  Se  Se11  1  0.604801  0.064989  0.989176  1
