# generated using pymatgen
data_Er4Sc8TlInFe3
_symmetry_space_group_name_H-M   'P 1'
_cell_length_a   7.96886248
_cell_length_b   7.96735951
_cell_length_c   7.96886369
_cell_angle_alpha   108.29401447
_cell_angle_beta   108.04577203
_cell_angle_gamma   112.11459491
_symmetry_Int_Tables_number   1
_chemical_formula_structural   Er4Sc8TlInFe3
_chemical_formula_sum   'Er4 Sc8 Tl1 In1 Fe3'
_cell_volume   388.81665593
_cell_formula_units_Z   1
loop_
 _symmetry_equiv_pos_site_id
 _symmetry_equiv_pos_as_xyz
  1  'x, y, z'
loop_
 _atom_site_type_symbol
 _atom_site_label
 _atom_site_symmetry_multiplicity
 _atom_site_fract_x
 _atom_site_fract_y
 _atom_site_fract_z
 _atom_site_occupancy
  Er  Er0  1  0.304021  0.303496  0.607596  1
  Er  Er1  1  0.695979  0.696504  0.392404  1
  Er  Er2  1  0.695899  0.303496  0.999476  1
  Er  Er3  1  0.304101  0.696504  0.000524  1
  Sc  Sc4  1  0.188921  0.421352  0.232432  1
  Sc  Sc5  1  0.811079  0.578648  0.767568  1
  Sc  Sc6  1  0.188912  0.956428  0.767516  1
  Sc  Sc7  1  0.957197  0.188264  0.768978  1
  Sc  Sc8  1  0.811088  0.043572  0.232484  1
  Sc  Sc9  1  0.042803  0.811736  0.231022  1
  Sc  Sc10  1  0.419286  0.188264  0.231066  1
  Sc  Sc11  1  0.580714  0.811736  0.768934  1
  Tl  Tl12  1  0.000000  0.500000  0.500000  1
  In  In13  1  0.500000  0.000000  0.500000  1
  Fe  Fe14  1  0.377598  0.377253  0.999656  1
  Fe  Fe15  1  0.622402  0.622747  0.000344  1
  Fe  Fe16  1  0.000000  0.000000  0.000000  1
