# generated using pymatgen
data_Sm10HgGe2Se7
_symmetry_space_group_name_H-M   'P 1'
_cell_length_a   11.16652617
_cell_length_b   11.16652496
_cell_length_c   7.32594813
_cell_angle_alpha   83.65675864
_cell_angle_beta   83.65676314
_cell_angle_gamma   142.05152367
_symmetry_Int_Tables_number   1
_chemical_formula_structural   Sm10HgGe2Se7
_chemical_formula_sum   'Sm10 Hg1 Ge2 Se7'
_cell_volume   528.32230714
_cell_formula_units_Z   1
loop_
 _symmetry_equiv_pos_site_id
 _symmetry_equiv_pos_as_xyz
  1  'x, y, z'
loop_
 _atom_site_type_symbol
 _atom_site_label
 _atom_site_symmetry_multiplicity
 _atom_site_fract_x
 _atom_site_fract_y
 _atom_site_fract_z
 _atom_site_occupancy
  Sm  Sm0  1  0.244791  0.244791  0.747578  1
  Sm  Sm1  1  0.858193  0.653513  0.744026  1
  Sm  Sm2  1  0.755209  0.755209  0.252422  1
  Sm  Sm3  1  0.452427  0.048729  0.741230  1
  Sm  Sm4  1  0.346487  0.141807  0.255974  1
  Sm  Sm5  1  0.048729  0.452427  0.741230  1
  Sm  Sm6  1  0.951271  0.547573  0.258770  1
  Sm  Sm7  1  0.653513  0.858193  0.744026  1
  Sm  Sm8  1  0.547573  0.951271  0.258770  1
  Sm  Sm9  1  0.141807  0.346487  0.255974  1
  Hg  Hg10  1  0.500000  0.500000  0.000000  1
  Ge  Ge11  1  0.199796  0.800204  0.500000  1
  Ge  Ge12  1  0.800204  0.199796  0.500000  1
  Se  Se13  1  0.899069  0.100931  0.000000  1
  Se  Se14  1  0.400573  0.599427  0.500000  1
  Se  Se15  1  0.000000  0.000000  0.500000  1
  Se  Se16  1  0.599427  0.400573  0.500000  1
  Se  Se17  1  0.100931  0.899069  0.000000  1
  Se  Se18  1  0.700782  0.299218  0.000000  1
  Se  Se19  1  0.299218  0.700782  0.000000  1
