# generated using pymatgen
data_Ta8SiGe(B2Mo)2
_symmetry_space_group_name_H-M   'P 1'
_cell_length_a   7.27944611
_cell_length_b   7.27944674
_cell_length_c   7.27945412
_cell_angle_alpha   129.62769081
_cell_angle_beta   129.62768992
_cell_angle_gamma   74.00272886
_symmetry_Int_Tables_number   1
_chemical_formula_structural   Ta8SiGe(B2Mo)2
_chemical_formula_sum   'Ta8 Si1 Ge1 B4 Mo2'
_cell_volume   223.16147770
_cell_formula_units_Z   1
loop_
 _symmetry_equiv_pos_site_id
 _symmetry_equiv_pos_as_xyz
  1  'x, y, z'
loop_
 _atom_site_type_symbol
 _atom_site_label
 _atom_site_symmetry_multiplicity
 _atom_site_fract_x
 _atom_site_fract_y
 _atom_site_fract_z
 _atom_site_occupancy
  Ta  Ta0  1  0.807723  0.973517  0.504464  1
  Ta  Ta1  1  0.303261  0.807725  0.834207  1
  Ta  Ta2  1  0.196741  0.030948  0.504465  1
  Ta  Ta3  1  0.526483  0.692277  0.495536  1
  Ta  Ta4  1  0.030946  0.526481  0.834206  1
  Ta  Ta5  1  0.692275  0.196739  0.165793  1
  Ta  Ta6  1  0.973519  0.469054  0.165794  1
  Ta  Ta7  1  0.469052  0.303259  0.495535  1
  Si  Si8  1  0.250000  0.250000  0.000000  1
  Ge  Ge9  1  0.749999  0.750001  0.000000  1
  B  B10  1  0.380422  0.880422  0.260844  1
  B  B11  1  0.880422  0.619578  0.500000  1
  B  B12  1  0.619578  0.119578  0.739156  1
  B  B13  1  0.119578  0.380422  0.500000  1
  Mo  Mo14  1  0.000234  0.000233  0.999999  1
  Mo  Mo15  1  0.499767  0.499766  0.000001  1
