# generated using pymatgen
data_Dy5Tm11(HgRh)4
_symmetry_space_group_name_H-M   'P 1'
_cell_length_a   9.52373061
_cell_length_b   9.52136833
_cell_length_c   9.52136778
_cell_angle_alpha   59.80045957
_cell_angle_beta   59.71578738
_cell_angle_gamma   59.71578448
_symmetry_Int_Tables_number   1
_chemical_formula_structural   Dy5Tm11(HgRh)4
_chemical_formula_sum   'Dy5 Tm11 Hg4 Rh4'
_cell_volume   606.95733941
_cell_formula_units_Z   1
loop_
 _symmetry_equiv_pos_site_id
 _symmetry_equiv_pos_as_xyz
  1  'x, y, z'
loop_
 _atom_site_type_symbol
 _atom_site_label
 _atom_site_symmetry_multiplicity
 _atom_site_fract_x
 _atom_site_fract_y
 _atom_site_fract_z
 _atom_site_occupancy
  Dy  Dy0  1  0.063391  0.063413  0.436788  1
  Dy  Dy1  1  0.437530  0.061488  0.437073  1
  Dy  Dy2  1  0.063391  0.436788  0.063413  1
  Dy  Dy3  1  0.055349  0.647423  0.647423  1
  Dy  Dy4  1  0.437530  0.437073  0.061488  1
  Tm  Tm5  1  0.647827  0.054246  0.647324  1
  Tm  Tm6  1  0.187864  0.813284  0.187622  1
  Tm  Tm7  1  0.187864  0.187622  0.813284  1
  Tm  Tm8  1  0.811244  0.811704  0.189908  1
  Tm  Tm9  1  0.439293  0.061111  0.061111  1
  Tm  Tm10  1  0.812576  0.188059  0.188059  1
  Tm  Tm11  1  0.060822  0.438282  0.438282  1
  Tm  Tm12  1  0.811244  0.189908  0.811704  1
  Tm  Tm13  1  0.189668  0.812295  0.812295  1
  Tm  Tm14  1  0.647827  0.647324  0.054246  1
  Tm  Tm15  1  0.648950  0.649581  0.649581  1
  Hg  Hg16  1  0.415556  0.416125  0.416125  1
  Hg  Hg17  1  0.754188  0.415755  0.415755  1
  Hg  Hg18  1  0.416581  0.754249  0.413926  1
  Hg  Hg19  1  0.416581  0.413926  0.754249  1
  Rh  Rh20  1  0.855228  0.856582  0.428715  1
  Rh  Rh21  1  0.854311  0.858609  0.858609  1
  Rh  Rh22  1  0.429957  0.856439  0.856439  1
  Rh  Rh23  1  0.855228  0.428715  0.856582  1
