# generated using pymatgen
data_Dy4Co(Si2Os)5
_symmetry_space_group_name_H-M   'P 1'
_cell_length_a   8.07327518
_cell_length_b   8.05970516
_cell_length_c   5.77485263
_cell_angle_alpha   70.48559947
_cell_angle_beta   70.63907881
_cell_angle_gamma   94.03486198
_symmetry_Int_Tables_number   1
_chemical_formula_structural   Dy4Co(Si2Os)5
_chemical_formula_sum   'Dy4 Co1 Si10 Os5'
_cell_volume   327.14281476
_cell_formula_units_Z   1
loop_
 _symmetry_equiv_pos_site_id
 _symmetry_equiv_pos_as_xyz
  1  'x, y, z'
loop_
 _atom_site_type_symbol
 _atom_site_label
 _atom_site_symmetry_multiplicity
 _atom_site_fract_x
 _atom_site_fract_y
 _atom_site_fract_z
 _atom_site_occupancy
  Dy  Dy0  1  0.867355  0.600295  0.753107  1
  Dy  Dy1  1  0.397550  0.125226  0.749676  1
  Dy  Dy2  1  0.131960  0.397264  0.244180  1
  Dy  Dy3  1  0.599741  0.869142  0.257371  1
  Co  Co4  1  0.256752  0.543852  0.632319  1
  Si  Si5  1  0.072055  0.270141  0.828028  1
  Si  Si6  1  0.738509  0.931645  0.666496  1
  Si  Si7  1  0.934627  0.739291  0.163798  1
  Si  Si8  1  0.264489  0.065160  0.331829  1
  Si  Si9  1  0.211036  0.788750  0.732332  1
  Si  Si10  1  0.795372  0.209299  0.242763  1
  Si  Si11  1  0.507234  0.489161  0.741893  1
  Si  Si12  1  0.477569  0.511339  0.272216  1
  Si  Si13  1  0.775804  0.226474  0.750891  1
  Si  Si14  1  0.227475  0.769869  0.263953  1
  Os  Os15  1  0.452588  0.740464  0.874961  1
  Os  Os16  1  0.743048  0.456661  0.369467  1
  Os  Os17  1  0.542637  0.263484  0.129698  1
  Os  Os18  1  0.005951  0.997488  0.748028  1
  Os  Os19  1  0.998247  0.004994  0.246995  1
