# generated using pymatgen
data_Nb6BiS12
_symmetry_space_group_name_H-M   'P 1'
_cell_length_a   5.81475669
_cell_length_b   5.81475566
_cell_length_c   14.15942200
_cell_angle_alpha   86.09850171
_cell_angle_beta   86.09850241
_cell_angle_gamma   120.00935386
_symmetry_Int_Tables_number   1
_chemical_formula_structural   Nb6BiS12
_chemical_formula_sum   'Nb6 Bi1 S12'
_cell_volume   410.71269696
_cell_formula_units_Z   1
loop_
 _symmetry_equiv_pos_site_id
 _symmetry_equiv_pos_as_xyz
  1  'x, y, z'
loop_
 _atom_site_type_symbol
 _atom_site_label
 _atom_site_symmetry_multiplicity
 _atom_site_fract_x
 _atom_site_fract_y
 _atom_site_fract_z
 _atom_site_occupancy
  Nb  Nb0  1  0.085536  0.085536  0.743095  1
  Nb  Nb1  1  0.419038  0.752613  0.742719  1
  Nb  Nb2  1  0.752613  0.419038  0.742719  1
  Nb  Nb3  1  0.247387  0.580962  0.257281  1
  Nb  Nb4  1  0.580962  0.247387  0.257281  1
  Nb  Nb5  1  0.914464  0.914464  0.256905  1
  Bi  Bi6  1  0.000000  0.000000  0.000000  1
  S  S7  1  0.289407  0.289407  0.144175  1
  S  S8  1  0.613839  0.951860  0.144098  1
  S  S9  1  0.951860  0.613839  0.144098  1
  S  S10  1  0.048140  0.386161  0.855902  1
  S  S11  1  0.386161  0.048140  0.855902  1
  S  S12  1  0.710593  0.710593  0.855825  1
  S  S13  1  0.210107  0.210107  0.367434  1
  S  S14  1  0.544930  0.877493  0.367462  1
  S  S15  1  0.877493  0.544930  0.367462  1
  S  S16  1  0.122507  0.455070  0.632538  1
  S  S17  1  0.455070  0.122507  0.632538  1
  S  S18  1  0.789893  0.789893  0.632566  1
