# generated using pymatgen
data_Dy6Lu10In4IrPt3
_symmetry_space_group_name_H-M   'P 1'
_cell_length_a   9.58791985
_cell_length_b   9.57628047
_cell_length_c   9.57628000
_cell_angle_alpha   59.99999472
_cell_angle_beta   60.04014419
_cell_angle_gamma   60.04014563
_symmetry_Int_Tables_number   1
_chemical_formula_structural   Dy6Lu10In4IrPt3
_chemical_formula_sum   'Dy6 Lu10 In4 Ir1 Pt3'
_cell_volume   622.10878225
_cell_formula_units_Z   1
loop_
 _symmetry_equiv_pos_site_id
 _symmetry_equiv_pos_as_xyz
  1  'x, y, z'
loop_
 _atom_site_type_symbol
 _atom_site_label
 _atom_site_symmetry_multiplicity
 _atom_site_fract_x
 _atom_site_fract_y
 _atom_site_fract_z
 _atom_site_occupancy
  Dy  Dy0  1  0.188788  0.811418  0.811418  1
  Dy  Dy1  1  0.812261  0.189296  0.189296  1
  Dy  Dy2  1  0.812261  0.189296  0.809148  1
  Dy  Dy3  1  0.188788  0.811418  0.188376  1
  Dy  Dy4  1  0.812261  0.809148  0.189296  1
  Dy  Dy5  1  0.188788  0.188376  0.811418  1
  Lu  Lu6  1  0.602301  0.597922  0.597922  1
  Lu  Lu7  1  0.602301  0.597922  0.201854  1
  Lu  Lu8  1  0.602301  0.201854  0.597922  1
  Lu  Lu9  1  0.199659  0.600114  0.600114  1
  Lu  Lu10  1  0.058066  0.438820  0.438820  1
  Lu  Lu11  1  0.439287  0.060485  0.060485  1
  Lu  Lu12  1  0.439287  0.060485  0.439744  1
  Lu  Lu13  1  0.058066  0.438820  0.064294  1
  Lu  Lu14  1  0.439287  0.439744  0.060485  1
  Lu  Lu15  1  0.058066  0.064294  0.438820  1
  In  In16  1  0.832699  0.832338  0.832338  1
  In  In17  1  0.832699  0.832338  0.502626  1
  In  In18  1  0.832699  0.502626  0.832338  1
  In  In19  1  0.501709  0.832764  0.832764  1
  Ir  Ir20  1  0.823658  0.392114  0.392114  1
  Pt  Pt21  1  0.391590  0.392388  0.392388  1
  Pt  Pt22  1  0.391590  0.392388  0.823634  1
  Pt  Pt23  1  0.391590  0.823634  0.392388  1
