# generated using pymatgen
data_Sr4SiAs3Au4
_symmetry_space_group_name_H-M   'P 1'
_cell_length_a   8.84170105
_cell_length_b   4.45511900
_cell_length_c   7.75310105
_cell_angle_alpha   90.00000000
_cell_angle_beta   89.98788914
_cell_angle_gamma   90.00000000
_symmetry_Int_Tables_number   1
_chemical_formula_structural   Sr4SiAs3Au4
_chemical_formula_sum   'Sr4 Si1 As3 Au4'
_cell_volume   305.40108097
_cell_formula_units_Z   1
loop_
 _symmetry_equiv_pos_site_id
 _symmetry_equiv_pos_as_xyz
  1  'x, y, z'
loop_
 _atom_site_type_symbol
 _atom_site_label
 _atom_site_symmetry_multiplicity
 _atom_site_fract_x
 _atom_site_fract_y
 _atom_site_fract_z
 _atom_site_occupancy
  Sr  Sr0  1  0.498790  0.750000  0.248949  1
  Sr  Sr1  1  0.000731  0.750000  0.250328  1
  Sr  Sr2  1  0.998701  0.250000  0.750092  1
  Sr  Sr3  1  0.501763  0.250000  0.751305  1
  Si  Si4  1  0.750356  0.250000  0.080137  1
  As  As5  1  0.250302  0.250000  0.417514  1
  As  As6  1  0.749714  0.750000  0.584480  1
  As  As7  1  0.249733  0.750000  0.915763  1
  Au  Au8  1  0.249195  0.250000  0.083708  1
  Au  Au9  1  0.749409  0.250000  0.400346  1
  Au  Au10  1  0.250702  0.750000  0.584014  1
  Au  Au11  1  0.750608  0.750000  0.933368  1
