# generated using pymatgen
data_TbPa2(ZnPd)3
_symmetry_space_group_name_H-M   'P 1'
_cell_length_a   7.40516900
_cell_length_b   7.36410847
_cell_length_c   3.79847400
_cell_angle_alpha   90.00000000
_cell_angle_beta   90.00000000
_cell_angle_gamma   120.18461235
_symmetry_Int_Tables_number   1
_chemical_formula_structural   TbPa2(ZnPd)3
_chemical_formula_sum   'Tb1 Pa2 Zn3 Pd3'
_cell_volume   179.05399830
_cell_formula_units_Z   1
loop_
 _symmetry_equiv_pos_site_id
 _symmetry_equiv_pos_as_xyz
  1  'x, y, z'
loop_
 _atom_site_type_symbol
 _atom_site_label
 _atom_site_symmetry_multiplicity
 _atom_site_fract_x
 _atom_site_fract_y
 _atom_site_fract_z
 _atom_site_occupancy
  Tb  Tb0  1  0.402480  0.000000  0.000000  1
  Pa  Pa1  1  0.002297  0.409308  0.000000  1
  Pa  Pa2  1  0.592988  0.590692  0.000000  1
  Zn  Zn3  1  0.006542  0.752871  0.500000  1
  Zn  Zn4  1  0.253671  0.247129  0.500000  1
  Zn  Zn5  1  0.740285  0.000000  0.500000  1
  Pd  Pd6  1  0.990802  0.000000  0.000000  1
  Pd  Pd7  1  0.331706  0.652480  0.500000  1
  Pd  Pd8  1  0.679228  0.347520  0.500000  1
