# generated using pymatgen
data_MgCu2Sn3S8
_symmetry_space_group_name_H-M   'P 1'
_cell_length_a   7.41310234
_cell_length_b   7.41310242
_cell_length_c   7.41310324
_cell_angle_alpha   60.39202287
_cell_angle_beta   60.39202767
_cell_angle_gamma   60.39201916
_symmetry_Int_Tables_number   1
_chemical_formula_structural   MgCu2Sn3S8
_chemical_formula_sum   'Mg1 Cu2 Sn3 S8'
_cell_volume   290.61531259
_cell_formula_units_Z   1
loop_
 _symmetry_equiv_pos_site_id
 _symmetry_equiv_pos_as_xyz
  1  'x, y, z'
loop_
 _atom_site_type_symbol
 _atom_site_label
 _atom_site_symmetry_multiplicity
 _atom_site_fract_x
 _atom_site_fract_y
 _atom_site_fract_z
 _atom_site_occupancy
  Mg  Mg0  1  0.500000  0.500000  0.500000  1
  Cu  Cu1  1  0.112600  0.112600  0.112600  1
  Cu  Cu2  1  0.887400  0.887400  0.887400  1
  Sn  Sn3  1  0.000000  0.500000  0.500000  1
  Sn  Sn4  1  0.500000  0.500000  0.000000  1
  Sn  Sn5  1  0.500000  0.000000  0.500000  1
  S  S6  1  0.751088  0.751088  0.751088  1
  S  S7  1  0.263389  0.744890  0.744890  1
  S  S8  1  0.744890  0.744890  0.263389  1
  S  S9  1  0.744890  0.263389  0.744890  1
  S  S10  1  0.248912  0.248912  0.248912  1
  S  S11  1  0.736611  0.255110  0.255110  1
  S  S12  1  0.255110  0.255110  0.736611  1
  S  S13  1  0.255110  0.736611  0.255110  1
