# generated using pymatgen
data_Er5Sc(Be2Rh5)2
_symmetry_space_group_name_H-M   'P 1'
_cell_length_a   9.73409000
_cell_length_b   9.73409000
_cell_length_c   3.31955300
_cell_angle_alpha   90.00000000
_cell_angle_beta   90.00000000
_cell_angle_gamma   90.00000000
_symmetry_Int_Tables_number   1
_chemical_formula_structural   Er5Sc(Be2Rh5)2
_chemical_formula_sum   'Er5 Sc1 Be4 Rh10'
_cell_volume   314.53597261
_cell_formula_units_Z   1
loop_
 _symmetry_equiv_pos_site_id
 _symmetry_equiv_pos_as_xyz
  1  'x, y, z'
loop_
 _atom_site_type_symbol
 _atom_site_label
 _atom_site_symmetry_multiplicity
 _atom_site_fract_x
 _atom_site_fract_y
 _atom_site_fract_z
 _atom_site_occupancy
  Er  Er0  1  0.823737  0.326817  0.000000  1
  Er  Er1  1  0.326817  0.176263  0.000000  1
  Er  Er2  1  0.673183  0.823737  0.000000  1
  Er  Er3  1  0.176263  0.673183  0.000000  1
  Er  Er4  1  0.000000  0.000000  0.000000  1
  Sc  Sc5  1  0.500000  0.500000  0.000000  1
  Be  Be6  1  0.621066  0.121994  0.000000  1
  Be  Be7  1  0.121994  0.378934  0.000000  1
  Be  Be8  1  0.878006  0.621066  0.000000  1
  Be  Be9  1  0.378934  0.878006  0.000000  1
  Rh  Rh10  1  0.072022  0.221074  0.500000  1
  Rh  Rh11  1  0.221074  0.927978  0.500000  1
  Rh  Rh12  1  0.778926  0.072022  0.500000  1
  Rh  Rh13  1  0.927978  0.778926  0.500000  1
  Rh  Rh14  1  0.430347  0.716325  0.500000  1
  Rh  Rh15  1  0.569653  0.283675  0.500000  1
  Rh  Rh16  1  0.716325  0.569653  0.500000  1
  Rh  Rh17  1  0.283675  0.430347  0.500000  1
  Rh  Rh18  1  0.500000  0.000000  0.500000  1
  Rh  Rh19  1  0.000000  0.500000  0.500000  1
