# generated using pymatgen
data_Dy5Ho5Si5Bi
_symmetry_space_group_name_H-M   'P 1'
_cell_length_a   8.52195039
_cell_length_b   8.56384194
_cell_length_c   6.35299200
_cell_angle_alpha   90.00000000
_cell_angle_beta   90.00000000
_cell_angle_gamma   119.80383916
_symmetry_Int_Tables_number   1
_chemical_formula_structural   Dy5Ho5Si5Bi
_chemical_formula_sum   'Dy5 Ho5 Si5 Bi1'
_cell_volume   402.32001824
_cell_formula_units_Z   1
loop_
 _symmetry_equiv_pos_site_id
 _symmetry_equiv_pos_as_xyz
  1  'x, y, z'
loop_
 _atom_site_type_symbol
 _atom_site_label
 _atom_site_symmetry_multiplicity
 _atom_site_fract_x
 _atom_site_fract_y
 _atom_site_fract_z
 _atom_site_occupancy
  Dy  Dy0  1  0.984859  0.744912  0.750000  1
  Dy  Dy1  1  0.998383  0.243417  0.250000  1
  Dy  Dy2  1  0.754822  0.756490  0.250000  1
  Dy  Dy3  1  0.767711  0.000060  0.750000  1
  Dy  Dy4  1  0.240370  0.000079  0.250000  1
  Ho  Ho5  1  0.239993  0.255230  0.750000  1
  Ho  Ho6  1  0.330692  0.653850  0.495117  1
  Ho  Ho7  1  0.676760  0.346071  0.004906  1
  Ho  Ho8  1  0.676760  0.346071  0.495094  1
  Ho  Ho9  1  0.330692  0.653850  0.004883  1
  Si  Si10  1  0.393393  0.390873  0.250000  1
  Si  Si11  1  0.002542  0.609182  0.250000  1
  Si  Si12  1  0.998941  0.394543  0.750000  1
  Si  Si13  1  0.603841  0.605132  0.750000  1
  Si  Si14  1  0.606793  0.000022  0.250000  1
  Bi  Bi15  1  0.393449  0.000219  0.750000  1
