# generated using pymatgen
data_Tb2Gd6Si12Pd3Au
_symmetry_space_group_name_H-M   'P 1'
_cell_length_a   8.17137600
_cell_length_b   8.17137546
_cell_length_c   8.18876600
_cell_angle_alpha   90.00000000
_cell_angle_beta   90.00000000
_cell_angle_gamma   120.00001028
_symmetry_Int_Tables_number   1
_chemical_formula_structural   Tb2Gd6Si12Pd3Au
_chemical_formula_sum   'Tb2 Gd6 Si12 Pd3 Au1'
_cell_volume   473.52117920
_cell_formula_units_Z   1
loop_
 _symmetry_equiv_pos_site_id
 _symmetry_equiv_pos_as_xyz
  1  'x, y, z'
loop_
 _atom_site_type_symbol
 _atom_site_label
 _atom_site_symmetry_multiplicity
 _atom_site_fract_x
 _atom_site_fract_y
 _atom_site_fract_z
 _atom_site_occupancy
  Tb  Tb0  1  0.000000  0.000000  0.251312  1
  Tb  Tb1  1  0.000000  0.000000  0.748088  1
  Gd  Gd2  1  0.501187  0.002372  0.252524  1
  Gd  Gd3  1  0.500165  0.000331  0.747851  1
  Gd  Gd4  1  0.997628  0.498813  0.252524  1
  Gd  Gd5  1  0.999669  0.499835  0.747851  1
  Gd  Gd6  1  0.501187  0.498813  0.252524  1
  Gd  Gd7  1  0.500165  0.499835  0.747851  1
  Si  Si8  1  0.161811  0.323624  0.999292  1
  Si  Si9  1  0.833508  0.667016  0.999848  1
  Si  Si10  1  0.676376  0.838189  0.999292  1
  Si  Si11  1  0.835018  0.670037  0.501644  1
  Si  Si12  1  0.332984  0.166492  0.999848  1
  Si  Si13  1  0.165489  0.330978  0.498463  1
  Si  Si14  1  0.161811  0.838189  0.999292  1
  Si  Si15  1  0.329963  0.164982  0.501644  1
  Si  Si16  1  0.833508  0.166492  0.999848  1
  Si  Si17  1  0.669022  0.834511  0.498463  1
  Si  Si18  1  0.835018  0.164982  0.501644  1
  Si  Si19  1  0.165489  0.834511  0.498463  1
  Pd  Pd20  1  0.666667  0.333333  0.000033  1
  Pd  Pd21  1  0.666667  0.333333  0.500906  1
  Pd  Pd22  1  0.333333  0.666667  0.499160  1
  Au  Au23  1  0.333333  0.666667  0.001641  1
