# generated using pymatgen
data_Sm5MnRuO12
_symmetry_space_group_name_H-M   'P 1'
_cell_length_a   6.98265474
_cell_length_b   6.98265321
_cell_length_c   7.44445921
_cell_angle_alpha   74.53541499
_cell_angle_beta   74.53541609
_cell_angle_gamma   50.35471500
_symmetry_Int_Tables_number   1
_chemical_formula_structural   Sm5MnRuO12
_chemical_formula_sum   'Sm5 Mn1 Ru1 O12'
_cell_volume   267.08581706
_cell_formula_units_Z   1
loop_
 _symmetry_equiv_pos_site_id
 _symmetry_equiv_pos_as_xyz
  1  'x, y, z'
loop_
 _atom_site_type_symbol
 _atom_site_label
 _atom_site_symmetry_multiplicity
 _atom_site_fract_x
 _atom_site_fract_y
 _atom_site_fract_z
 _atom_site_occupancy
  Sm  Sm0  1  0.309023  0.298410  0.358014  1
  Sm  Sm1  1  0.701590  0.690977  0.641986  1
  Sm  Sm2  1  0.694237  0.694228  0.164651  1
  Sm  Sm3  1  0.305772  0.305763  0.835349  1
  Sm  Sm4  1  0.998153  0.001847  0.500000  1
  Mn  Mn5  1  0.749625  0.250375  0.000000  1
  Ru  Ru6  1  0.239449  0.760551  0.000000  1
  O  O7  1  0.098288  0.597186  0.575830  1
  O  O8  1  0.995290  0.003397  0.176023  1
  O  O9  1  0.402814  0.901712  0.424170  1
  O  O10  1  0.503143  0.497276  0.175952  1
  O  O11  1  0.097984  0.579044  0.080341  1
  O  O12  1  0.906217  0.401937  0.422944  1
  O  O13  1  0.996603  0.004710  0.823977  1
  O  O14  1  0.598063  0.093782  0.577056  1
  O  O15  1  0.502724  0.496857  0.824048  1
  O  O16  1  0.581727  0.101657  0.078776  1
  O  O17  1  0.420956  0.902016  0.919659  1
  O  O18  1  0.898343  0.418273  0.921224  1
