# generated using pymatgen
data_FeF10
_symmetry_space_group_name_H-M   'P 1'
_cell_length_a   3.89965096
_cell_length_b   3.88879019
_cell_length_c   11.41656712
_cell_angle_alpha   90.59500164
_cell_angle_beta   80.32421940
_cell_angle_gamma   89.61872116
_symmetry_Int_Tables_number   1
_chemical_formula_structural   FeF10
_chemical_formula_sum   'Fe1 F10'
_cell_volume   170.65311565
_cell_formula_units_Z   1
loop_
 _symmetry_equiv_pos_site_id
 _symmetry_equiv_pos_as_xyz
  1  'x, y, z'
loop_
 _atom_site_type_symbol
 _atom_site_label
 _atom_site_symmetry_multiplicity
 _atom_site_fract_x
 _atom_site_fract_y
 _atom_site_fract_z
 _atom_site_occupancy
  Fe  Fe0  1  0.646766  0.690402  0.273773  1
  F  F1  1  0.316336  0.140108  0.000435  1
  F  F2  1  0.071009  0.172868  0.921812  1
  F  F3  1  0.703533  0.649114  0.817317  1
  F  F4  1  0.150201  0.160038  0.626284  1
  F  F5  1  0.526843  0.685608  0.718582  1
  F  F6  1  0.982750  0.221125  0.526937  1
  F  F7  1  0.572935  0.695021  0.430183  1
  F  F8  1  0.648630  0.190175  0.274026  1
  F  F9  1  0.147111  0.690367  0.273924  1
  F  F10  1  0.720458  0.684072  0.117255  1
