# generated using pymatgen
data_Ba3Pr2Al9
_symmetry_space_group_name_H-M   'P 1'
_cell_length_a   12.42272472
_cell_length_b   12.42272471
_cell_length_c   12.42272638
_cell_angle_alpha   27.49333174
_cell_angle_beta   27.49332011
_cell_angle_gamma   27.49332346
_symmetry_Int_Tables_number   1
_chemical_formula_structural   Ba3Pr2Al9
_chemical_formula_sum   'Ba3 Pr2 Al9'
_cell_volume   360.61517927
_cell_formula_units_Z   1
loop_
 _symmetry_equiv_pos_site_id
 _symmetry_equiv_pos_as_xyz
  1  'x, y, z'
loop_
 _atom_site_type_symbol
 _atom_site_label
 _atom_site_symmetry_multiplicity
 _atom_site_fract_x
 _atom_site_fract_y
 _atom_site_fract_z
 _atom_site_occupancy
  Ba  Ba0  1  0.500000  0.500000  0.500000  1
  Ba  Ba1  1  0.217629  0.217629  0.217629  1
  Ba  Ba2  1  0.782371  0.782371  0.782371  1
  Pr  Pr3  1  0.315033  0.315033  0.315033  1
  Pr  Pr4  1  0.684967  0.684967  0.684967  1
  Al  Al5  1  0.000000  0.000000  0.000000  1
  Al  Al6  1  0.119752  0.119752  0.119752  1
  Al  Al7  1  0.880248  0.880248  0.880248  1
  Al  Al8  1  0.715584  0.234365  0.234365  1
  Al  Al9  1  0.234365  0.234365  0.715584  1
  Al  Al10  1  0.234365  0.715584  0.234365  1
  Al  Al11  1  0.765635  0.284416  0.765635  1
  Al  Al12  1  0.284416  0.765635  0.765635  1
  Al  Al13  1  0.765635  0.765635  0.284416  1
