# generated using pymatgen
data_Pr4SnB4Ir9
_symmetry_space_group_name_H-M   'P 1'
_cell_length_a   11.08072476
_cell_length_b   11.08072438
_cell_length_c   11.08072476
_cell_angle_alpha   29.49516473
_cell_angle_beta   29.49516859
_cell_angle_gamma   29.49516818
_symmetry_Int_Tables_number   1
_chemical_formula_structural   Pr4SnB4Ir9
_chemical_formula_sum   'Pr4 Sn1 B4 Ir9'
_cell_volume   291.91540285
_cell_formula_units_Z   1
loop_
 _symmetry_equiv_pos_site_id
 _symmetry_equiv_pos_as_xyz
  1  'x, y, z'
loop_
 _atom_site_type_symbol
 _atom_site_label
 _atom_site_symmetry_multiplicity
 _atom_site_fract_x
 _atom_site_fract_y
 _atom_site_fract_z
 _atom_site_occupancy
  Pr  Pr0  1  0.147443  0.147443  0.147443  1
  Pr  Pr1  1  0.951220  0.951220  0.951220  1
  Pr  Pr2  1  0.852557  0.852557  0.852557  1
  Pr  Pr3  1  0.048780  0.048780  0.048780  1
  Sn  Sn4  1  0.500000  0.500000  0.500000  1
  B  B5  1  0.616889  0.616889  0.616889  1
  B  B6  1  0.716478  0.716478  0.716478  1
  B  B7  1  0.383111  0.383111  0.383111  1
  B  B8  1  0.283522  0.283522  0.283522  1
  Ir  Ir9  1  0.405227  0.906939  0.405227  1
  Ir  Ir10  1  0.906939  0.405227  0.405227  1
  Ir  Ir11  1  0.500000  0.500000  0.000000  1
  Ir  Ir12  1  0.500000  0.000000  0.500000  1
  Ir  Ir13  1  0.000000  0.500000  0.500000  1
  Ir  Ir14  1  0.594773  0.093061  0.594773  1
  Ir  Ir15  1  0.594773  0.594773  0.093061  1
  Ir  Ir16  1  0.093061  0.594773  0.594773  1
  Ir  Ir17  1  0.405227  0.405227  0.906939  1
