# generated using pymatgen
data_Sr12In5Sn7Au12
_symmetry_space_group_name_H-M   'P 1'
_cell_length_a   4.90104200
_cell_length_b   8.42878100
_cell_length_c   23.79595601
_cell_angle_alpha   89.99654347
_cell_angle_beta   90.00000000
_cell_angle_gamma   90.00000000
_symmetry_Int_Tables_number   1
_chemical_formula_structural   Sr12In5Sn7Au12
_chemical_formula_sum   'Sr12 In5 Sn7 Au12'
_cell_volume   983.00641285
_cell_formula_units_Z   1
loop_
 _symmetry_equiv_pos_site_id
 _symmetry_equiv_pos_as_xyz
  1  'x, y, z'
loop_
 _atom_site_type_symbol
 _atom_site_label
 _atom_site_symmetry_multiplicity
 _atom_site_fract_x
 _atom_site_fract_y
 _atom_site_fract_z
 _atom_site_occupancy
  Sr  Sr0  1  0.750000  0.209459  0.498153  1
  Sr  Sr1  1  0.250000  0.789949  0.166784  1
  Sr  Sr2  1  0.250000  0.791638  0.502138  1
  Sr  Sr3  1  0.250000  0.789458  0.834174  1
  Sr  Sr4  1  0.250000  0.709392  0.334296  1
  Sr  Sr5  1  0.750000  0.210819  0.833862  1
  Sr  Sr6  1  0.750000  0.292444  0.998331  1
  Sr  Sr7  1  0.750000  0.290143  0.665503  1
  Sr  Sr8  1  0.750000  0.290770  0.333890  1
  Sr  Sr9  1  0.250000  0.710445  0.666656  1
  Sr  Sr10  1  0.250000  0.707391  0.002834  1
  Sr  Sr11  1  0.750000  0.210623  0.165610  1
  In  In12  1  0.250000  0.419251  0.564486  1
  In  In13  1  0.250000  0.082156  0.398207  1
  In  In14  1  0.250000  0.081331  0.063350  1
  In  In15  1  0.250000  0.417911  0.898271  1
  In  In16  1  0.750000  0.582884  0.102243  1
  Sn  Sn17  1  0.250000  0.417585  0.768197  1
  Sn  Sn18  1  0.750000  0.582407  0.231362  1
  Sn  Sn19  1  0.750000  0.581512  0.437001  1
  Sn  Sn20  1  0.750000  0.918364  0.936631  1
  Sn  Sn21  1  0.250000  0.082975  0.268434  1
  Sn  Sn22  1  0.750000  0.916572  0.602265  1
  Sn  Sn23  1  0.750000  0.918409  0.731264  1
  Au  Au24  1  0.250000  0.087986  0.592005  1
  Au  Au25  1  0.250000  0.086080  0.739855  1
  Au  Au26  1  0.750000  0.586892  0.907451  1
  Au  Au27  1  0.750000  0.913642  0.408236  1
  Au  Au28  1  0.750000  0.580954  0.567313  1
  Au  Au29  1  0.750000  0.585538  0.760295  1
  Au  Au30  1  0.250000  0.414732  0.430957  1
  Au  Au31  1  0.250000  0.414563  0.239547  1
  Au  Au32  1  0.750000  0.915536  0.067296  1
  Au  Au33  1  0.250000  0.411210  0.091797  1
  Au  Au34  1  0.250000  0.084750  0.930879  1
  Au  Au35  1  0.750000  0.914230  0.260426  1
