# generated using pymatgen
data_Y5Lu5InSb5
_symmetry_space_group_name_H-M   'P 1'
_cell_length_a   6.31973300
_cell_length_b   8.90536271
_cell_length_c   8.89801634
_cell_angle_alpha   120.02731998
_cell_angle_beta   89.99853891
_cell_angle_gamma   90.00292059
_symmetry_Int_Tables_number   1
_chemical_formula_structural   Y5Lu5InSb5
_chemical_formula_sum   'Y5 Lu5 In1 Sb5'
_cell_volume   433.56533201
_cell_formula_units_Z   1
loop_
 _symmetry_equiv_pos_site_id
 _symmetry_equiv_pos_as_xyz
  1  'x, y, z'
loop_
 _atom_site_type_symbol
 _atom_site_label
 _atom_site_symmetry_multiplicity
 _atom_site_fract_x
 _atom_site_fract_y
 _atom_site_fract_z
 _atom_site_occupancy
  Y  Y0  1  0.750015  0.244692  0.000000  1
  Y  Y1  1  0.750024  0.753191  0.757961  1
  Y  Y2  1  0.750024  0.995230  0.242039  1
  Y  Y3  1  0.250022  0.246993  0.244604  1
  Y  Y4  1  0.250022  0.002389  0.755396  1
  Lu  Lu5  1  0.499567  0.334902  0.668681  1
  Lu  Lu6  1  0.499567  0.666221  0.331319  1
  Lu  Lu7  1  0.000472  0.666234  0.331312  1
  Lu  Lu8  1  0.000472  0.334922  0.668688  1
  Lu  Lu9  1  0.250026  0.756308  0.000000  1
  In  In10  1  0.749689  0.604329  0.000000  1
  Sb  Sb11  1  0.750019  0.390259  0.391289  1
  Sb  Sb12  1  0.750019  0.998968  0.608711  1
  Sb  Sb13  1  0.250018  0.395357  0.000000  1
  Sb  Sb14  1  0.250025  0.610449  0.610895  1
  Sb  Sb15  1  0.250025  0.999555  0.389105  1
