# generated using pymatgen
data_Er20In3Hg3Ru2
_symmetry_space_group_name_H-M   'P 1'
_cell_length_a   9.50239700
_cell_length_b   9.50239708
_cell_length_c   9.70074300
_cell_angle_alpha   90.00000000
_cell_angle_beta   90.00000000
_cell_angle_gamma   120.00000321
_symmetry_Int_Tables_number   1
_chemical_formula_structural   Er20In3Hg3Ru2
_chemical_formula_sum   'Er20 In3 Hg3 Ru2'
_cell_volume   758.58100187
_cell_formula_units_Z   1
loop_
 _symmetry_equiv_pos_site_id
 _symmetry_equiv_pos_as_xyz
  1  'x, y, z'
loop_
 _atom_site_type_symbol
 _atom_site_label
 _atom_site_symmetry_multiplicity
 _atom_site_fract_x
 _atom_site_fract_y
 _atom_site_fract_z
 _atom_site_occupancy
  Er  Er0  1  0.000000  0.000000  0.486776  1
  Er  Er1  1  0.000000  0.000000  0.013224  1
  Er  Er2  1  0.209739  0.790261  0.439854  1
  Er  Er3  1  0.209739  0.419479  0.439854  1
  Er  Er4  1  0.580521  0.790261  0.439854  1
  Er  Er5  1  0.790319  0.209681  0.560235  1
  Er  Er6  1  0.790319  0.580636  0.560235  1
  Er  Er7  1  0.419364  0.209681  0.560235  1
  Er  Er8  1  0.790319  0.209681  0.939765  1
  Er  Er9  1  0.790319  0.580636  0.939765  1
  Er  Er10  1  0.419364  0.209681  0.939765  1
  Er  Er11  1  0.209739  0.790261  0.060146  1
  Er  Er12  1  0.209739  0.419479  0.060146  1
  Er  Er13  1  0.580521  0.790261  0.060146  1
  Er  Er14  1  0.540850  0.459150  0.250000  1
  Er  Er15  1  0.540850  0.081701  0.250000  1
  Er  Er16  1  0.918299  0.459150  0.250000  1
  Er  Er17  1  0.460328  0.539672  0.750000  1
  Er  Er18  1  0.460328  0.920658  0.750000  1
  Er  Er19  1  0.079342  0.539672  0.750000  1
  In  In20  1  0.112773  0.887227  0.750000  1
  In  In21  1  0.112773  0.225547  0.750000  1
  In  In22  1  0.774453  0.887227  0.750000  1
  Hg  Hg23  1  0.880333  0.119667  0.250000  1
  Hg  Hg24  1  0.880333  0.760667  0.250000  1
  Hg  Hg25  1  0.239333  0.119667  0.250000  1
  Ru  Ru26  1  0.333333  0.666667  0.250000  1
  Ru  Ru27  1  0.666667  0.333333  0.750000  1
