# generated using pymatgen
data_Sc5Si6MoOs6
_symmetry_space_group_name_H-M   'P 1'
_cell_length_a   7.58597865
_cell_length_b   7.58727161
_cell_length_c   7.58597904
_cell_angle_alpha   127.11953199
_cell_angle_beta   124.27471629
_cell_angle_gamma   80.40307240
_symmetry_Int_Tables_number   1
_chemical_formula_structural   Sc5Si6MoOs6
_chemical_formula_sum   'Sc5 Si6 Mo1 Os6'
_cell_volume   277.58726938
_cell_formula_units_Z   1
loop_
 _symmetry_equiv_pos_site_id
 _symmetry_equiv_pos_as_xyz
  1  'x, y, z'
loop_
 _atom_site_type_symbol
 _atom_site_label
 _atom_site_symmetry_multiplicity
 _atom_site_fract_x
 _atom_site_fract_y
 _atom_site_fract_z
 _atom_site_occupancy
  Sc  Sc0  1  0.452539  0.422052  0.469513  1
  Sc  Sc1  1  0.548550  0.997077  0.948528  1
  Sc  Sc2  1  0.047052  0.016863  0.469810  1
  Sc  Sc3  1  0.951819  0.401052  0.949234  1
  Sc  Sc4  1  0.249849  0.593744  0.843895  1
  Si  Si5  1  0.249796  0.024028  0.274232  1
  Si  Si6  1  0.750401  0.977236  0.726835  1
  Si  Si7  1  0.153120  0.671422  0.495340  1
  Si  Si8  1  0.823441  0.341969  0.494814  1
  Si  Si9  1  0.676081  0.671422  0.018302  1
  Si  Si10  1  0.347156  0.341969  0.018529  1
  Mo  Mo11  1  0.750135  0.594278  0.344143  1
  Os  Os12  1  0.979737  0.253072  0.232766  1
  Os  Os13  1  0.520306  0.253072  0.773334  1
  Os  Os14  1  0.358851  0.749170  0.359038  1
  Os  Os15  1  0.609200  0.000201  0.358367  1
  Os  Os16  1  0.890132  0.749170  0.890318  1
  Os  Os17  1  0.141834  0.000201  0.891001  1
