# generated using pymatgen
data_Yb3Zr2Si12Ir19
_symmetry_space_group_name_H-M   'P 1'
_cell_length_a   12.77255506
_cell_length_b   12.77468641
_cell_length_c   3.96983800
_cell_angle_alpha   90.00000000
_cell_angle_beta   90.00000000
_cell_angle_gamma   119.88292615
_symmetry_Int_Tables_number   1
_chemical_formula_structural   Yb3Zr2Si12Ir19
_chemical_formula_sum   'Yb3 Zr2 Si12 Ir19'
_cell_volume   561.62002285
_cell_formula_units_Z   1
loop_
 _symmetry_equiv_pos_site_id
 _symmetry_equiv_pos_as_xyz
  1  'x, y, z'
loop_
 _atom_site_type_symbol
 _atom_site_label
 _atom_site_symmetry_multiplicity
 _atom_site_fract_x
 _atom_site_fract_y
 _atom_site_fract_z
 _atom_site_occupancy
  Yb  Yb0  1  0.665517  0.332653  0.000000  1
  Yb  Yb1  1  0.814854  0.999501  0.500000  1
  Yb  Yb2  1  0.999637  0.815040  0.500000  1
  Zr  Zr3  1  0.332107  0.664705  0.000000  1
  Zr  Zr4  1  0.183548  0.184420  0.500000  1
  Si  Si5  1  0.818280  0.818890  0.000000  1
  Si  Si6  1  0.180882  0.999765  0.000000  1
  Si  Si7  1  0.001783  0.182111  0.000000  1
  Si  Si8  1  0.309881  0.829860  0.500000  1
  Si  Si9  1  0.170505  0.481857  0.500000  1
  Si  Si10  1  0.518291  0.689280  0.500000  1
  Si  Si11  1  0.831322  0.311704  0.500000  1
  Si  Si12  1  0.482351  0.168985  0.500000  1
  Si  Si13  1  0.687116  0.517950  0.500000  1
  Si  Si14  1  0.366993  0.365607  0.000000  1
  Si  Si15  1  0.633005  0.000971  0.000000  1
  Si  Si16  1  0.999036  0.631952  0.000000  1
  Ir  Ir17  1  0.195748  0.816235  0.000000  1
  Ir  Ir18  1  0.184746  0.375200  0.000000  1
  Ir  Ir19  1  0.618955  0.804441  0.000000  1
  Ir  Ir20  1  0.819333  0.195554  0.000000  1
  Ir  Ir21  1  0.371689  0.181321  0.000000  1
  Ir  Ir22  1  0.804519  0.621731  0.000000  1
  Ir  Ir23  1  0.715990  0.716836  0.500000  1
  Ir  Ir24  1  0.282888  0.001832  0.500000  1
  Ir  Ir25  1  0.003850  0.283901  0.500000  1
  Ir  Ir26  1  0.129734  0.638170  0.500000  1
  Ir  Ir27  1  0.361493  0.491894  0.500000  1
  Ir  Ir28  1  0.506328  0.870502  0.500000  1
  Ir  Ir29  1  0.639843  0.123853  0.500000  1
  Ir  Ir30  1  0.484428  0.359944  0.500000  1
  Ir  Ir31  1  0.876619  0.514006  0.500000  1
  Ir  Ir32  1  0.550635  0.551909  0.000000  1
  Ir  Ir33  1  0.448439  0.003854  0.000000  1
  Ir  Ir34  1  0.005942  0.449800  0.000000  1
  Ir  Ir35  1  0.003714  0.003764  0.000000  1
