# generated using pymatgen
data_NdY2Ga6Ni8Ir
_symmetry_space_group_name_H-M   'P 1'
_cell_length_a   8.77782262
_cell_length_b   8.93284313
_cell_length_c   4.12895600
_cell_angle_alpha   90.00000000
_cell_angle_beta   90.00000000
_cell_angle_gamma   119.35850340
_symmetry_Int_Tables_number   1
_chemical_formula_structural   NdY2Ga6Ni8Ir
_chemical_formula_sum   'Nd1 Y2 Ga6 Ni8 Ir1'
_cell_volume   282.17504175
_cell_formula_units_Z   1
loop_
 _symmetry_equiv_pos_site_id
 _symmetry_equiv_pos_as_xyz
  1  'x, y, z'
loop_
 _atom_site_type_symbol
 _atom_site_label
 _atom_site_symmetry_multiplicity
 _atom_site_fract_x
 _atom_site_fract_y
 _atom_site_fract_z
 _atom_site_occupancy
  Nd  Nd0  1  0.667406  0.334218  0.500000  1
  Y  Y1  1  0.334438  0.668513  0.500000  1
  Y  Y2  1  0.009761  0.999141  0.000000  1
  Ga  Ga3  1  0.473549  0.997661  0.000000  1
  Ga  Ga4  1  0.993604  0.470664  0.000000  1
  Ga  Ga5  1  0.521156  0.530530  0.000000  1
  Ga  Ga6  1  0.732472  0.999426  0.500000  1
  Ga  Ga7  1  0.995637  0.722092  0.500000  1
  Ga  Ga8  1  0.272726  0.279089  0.500000  1
  Ni  Ni9  1  0.199518  0.374368  0.000000  1
  Ni  Ni10  1  0.630538  0.831986  0.000000  1
  Ni  Ni11  1  0.165297  0.779763  0.000000  1
  Ni  Ni12  1  0.826570  0.629951  0.000000  1
  Ni  Ni13  1  0.802698  0.167193  0.000000  1
  Ni  Ni14  1  0.380613  0.216689  0.000000  1
  Ni  Ni15  1  0.997349  0.285712  0.500000  1
  Ni  Ni16  1  0.709591  0.714047  0.500000  1
  Ir  Ir17  1  0.287078  0.998958  0.500000  1
