# generated using pymatgen
data_NaAc3(PIr)4
_symmetry_space_group_name_H-M   'P 1'
_cell_length_a   6.39714725
_cell_length_b   6.39714725
_cell_length_c   6.39714725
_cell_angle_alpha   90.68349746
_cell_angle_beta   90.68349746
_cell_angle_gamma   89.31650254
_symmetry_Int_Tables_number   1
_chemical_formula_structural   NaAc3(PIr)4
_chemical_formula_sum   'Na1 Ac3 P4 Ir4'
_cell_volume   261.73816892
_cell_formula_units_Z   1
loop_
 _symmetry_equiv_pos_site_id
 _symmetry_equiv_pos_as_xyz
  1  'x, y, z'
loop_
 _atom_site_type_symbol
 _atom_site_label
 _atom_site_symmetry_multiplicity
 _atom_site_fract_x
 _atom_site_fract_y
 _atom_site_fract_z
 _atom_site_occupancy
  Na  Na0  1  0.390268  0.890268  0.609732  1
  Ac  Ac1  1  0.886722  0.622032  0.390534  1
  Ac  Ac2  1  0.609466  0.386722  0.877968  1
  Ac  Ac3  1  0.122032  0.109466  0.113278  1
  P  P4  1  0.660809  0.160809  0.339191  1
  P  P5  1  0.165276  0.329956  0.663051  1
  P  P6  1  0.336949  0.665276  0.170044  1
  P  P7  1  0.829956  0.836949  0.834724  1
  Ir  Ir8  1  0.086666  0.586666  0.913334  1
  Ir  Ir9  1  0.585748  0.912735  0.086627  1
  Ir  Ir10  1  0.913373  0.085748  0.587265  1
  Ir  Ir11  1  0.412735  0.413373  0.414252  1
