# generated using pymatgen
data_Tm4Sn4Sb2Rh7
_symmetry_space_group_name_H-M   'P 1'
_cell_length_a   7.56220148
_cell_length_b   7.56524393
_cell_length_c   7.56220138
_cell_angle_alpha   109.54145135
_cell_angle_beta   109.31451618
_cell_angle_gamma   109.54145411
_symmetry_Int_Tables_number   1
_chemical_formula_structural   Tm4Sn4Sb2Rh7
_chemical_formula_sum   'Tm4 Sn4 Sb2 Rh7'
_cell_volume   333.10629435
_cell_formula_units_Z   1
loop_
 _symmetry_equiv_pos_site_id
 _symmetry_equiv_pos_as_xyz
  1  'x, y, z'
loop_
 _atom_site_type_symbol
 _atom_site_label
 _atom_site_symmetry_multiplicity
 _atom_site_fract_x
 _atom_site_fract_y
 _atom_site_fract_z
 _atom_site_occupancy
  Tm  Tm0  1  0.498730  0.997459  0.998730  1
  Tm  Tm1  1  0.998638  0.492299  0.998638  1
  Tm  Tm2  1  0.998730  0.997459  0.498730  1
  Tm  Tm3  1  0.493662  0.492299  0.493662  1
  Sn  Sn4  1  0.312849  0.994424  0.312849  1
  Sn  Sn5  1  0.997098  0.688426  0.691329  1
  Sn  Sn6  1  0.691329  0.688426  0.997098  1
  Sn  Sn7  1  0.681574  0.994424  0.681574  1
  Sb  Sb8  1  0.997520  0.318019  0.320499  1
  Sb  Sb9  1  0.320499  0.318019  0.997520  1
  Rh  Rh10  1  0.251382  0.502765  0.751382  1
  Rh  Rh11  1  0.501461  0.250590  0.749129  1
  Rh  Rh12  1  0.749129  0.250590  0.501461  1
  Rh  Rh13  1  0.501484  0.748641  0.247159  1
  Rh  Rh14  1  0.007377  0.014753  0.007377  1
  Rh  Rh15  1  0.247159  0.748641  0.501484  1
  Rh  Rh16  1  0.751382  0.502765  0.251382  1
