# generated using pymatgen
data_Y4Ga24PdPt8
_symmetry_space_group_name_H-M   'P 1'
_cell_length_a   7.50718591
_cell_length_b   7.58183853
_cell_length_c   13.40571790
_cell_angle_alpha   84.76566553
_cell_angle_beta   79.58392317
_cell_angle_gamma   60.38233546
_symmetry_Int_Tables_number   1
_chemical_formula_structural   Y4Ga24PdPt8
_chemical_formula_sum   'Y4 Ga24 Pd1 Pt8'
_cell_volume   652.40192438
_cell_formula_units_Z   1
loop_
 _symmetry_equiv_pos_site_id
 _symmetry_equiv_pos_as_xyz
  1  'x, y, z'
loop_
 _atom_site_type_symbol
 _atom_site_label
 _atom_site_symmetry_multiplicity
 _atom_site_fract_x
 _atom_site_fract_y
 _atom_site_fract_z
 _atom_site_occupancy
  Y  Y0  1  0.393579  0.168624  0.811379  1
  Y  Y1  1  0.606421  0.831376  0.188621  1
  Y  Y2  1  0.732432  0.497214  0.811666  1
  Y  Y3  1  0.267568  0.502786  0.188334  1
  Ga  Ga4  1  0.687234  0.832616  0.938903  1
  Ga  Ga5  1  0.312766  0.167384  0.061097  1
  Ga  Ga6  1  0.145715  0.833078  0.558917  1
  Ga  Ga7  1  0.854285  0.166922  0.441083  1
  Ga  Ga8  1  0.478158  0.167274  0.555876  1
  Ga  Ga9  1  0.521842  0.832726  0.444124  1
  Ga  Ga10  1  0.220316  0.165239  0.324115  1
  Ga  Ga11  1  0.779684  0.834761  0.675885  1
  Ga  Ga12  1  0.437495  0.504057  0.674820  1
  Ga  Ga13  1  0.562505  0.495943  0.325180  1
  Ga  Ga14  1  0.106894  0.163960  0.674285  1
  Ga  Ga15  1  0.893106  0.836040  0.325715  1
  Ga  Ga16  1  0.355625  0.498760  0.939190  1
  Ga  Ga17  1  0.644375  0.501240  0.060810  1
  Ga  Ga18  1  0.019825  0.169894  0.943793  1
  Ga  Ga19  1  0.980175  0.830106  0.056207  1
  Ga  Ga20  1  0.187220  0.498793  0.443081  1
  Ga  Ga21  1  0.812780  0.501207  0.556919  1
  Ga  Ga22  1  0.734919  0.163809  0.182072  1
  Ga  Ga23  1  0.265081  0.836191  0.817928  1
  Ga  Ga24  1  0.060867  0.629678  0.817482  1
  Ga  Ga25  1  0.939133  0.370322  0.182518  1
  Ga  Ga26  1  0.856874  0.039289  0.816988  1
  Ga  Ga27  1  0.143126  0.960711  0.183013  1
  Pd  Pd28  1  0.000000  0.500000  0.000000  1
  Pt  Pt29  1  0.117435  0.496942  0.638262  1
  Pt  Pt30  1  0.882565  0.503058  0.361738  1
  Pt  Pt31  1  0.659824  0.170041  0.999109  1
  Pt  Pt32  1  0.340176  0.829959  0.000891  1
  Pt  Pt33  1  0.541511  0.165797  0.360394  1
  Pt  Pt34  1  0.458489  0.834203  0.639606  1
  Pt  Pt35  1  0.779405  0.172382  0.637051  1
  Pt  Pt36  1  0.220595  0.827618  0.362949  1
