# generated using pymatgen
data_Er4Lu(AlBi)2
_symmetry_space_group_name_H-M   'P 1'
_cell_length_a   8.76556200
_cell_length_b   8.76556181
_cell_length_c   8.03166400
_cell_angle_alpha   90.00000000
_cell_angle_beta   90.00000000
_cell_angle_gamma   125.49211879
_symmetry_Int_Tables_number   1
_chemical_formula_structural   Er4Lu(AlBi)2
_chemical_formula_sum   'Er8 Lu2 Al4 Bi4'
_cell_volume   502.45097372
_cell_formula_units_Z   2
loop_
 _symmetry_equiv_pos_site_id
 _symmetry_equiv_pos_as_xyz
  1  'x, y, z'
loop_
 _atom_site_type_symbol
 _atom_site_label
 _atom_site_symmetry_multiplicity
 _atom_site_fract_x
 _atom_site_fract_y
 _atom_site_fract_z
 _atom_site_occupancy
  Er  Er0  1  0.040473  0.297019  0.332378  1
  Er  Er1  1  0.959527  0.702981  0.667622  1
  Er  Er2  1  0.459527  0.202981  0.832378  1
  Er  Er3  1  0.797019  0.540473  0.167622  1
  Er  Er4  1  0.540473  0.797019  0.167622  1
  Er  Er5  1  0.202981  0.459527  0.832378  1
  Er  Er6  1  0.702981  0.959527  0.667622  1
  Er  Er7  1  0.297019  0.040473  0.332378  1
  Lu  Lu8  1  0.000000  0.000000  0.000000  1
  Lu  Lu9  1  0.500000  0.500000  0.500000  1
  Al  Al10  1  0.376400  0.376400  0.123383  1
  Al  Al11  1  0.623600  0.623600  0.876617  1
  Al  Al12  1  0.123600  0.123600  0.623383  1
  Al  Al13  1  0.876400  0.876400  0.376617  1
  Bi  Bi14  1  0.793820  0.206180  0.000000  1
  Bi  Bi15  1  0.206180  0.793820  0.000000  1
  Bi  Bi16  1  0.706180  0.293820  0.500000  1
  Bi  Bi17  1  0.293820  0.706180  0.500000  1
