# generated using pymatgen
data_Mn5GePd10
_symmetry_space_group_name_H-M   'P 1'
_cell_length_a   4.10758100
_cell_length_b   5.46251813
_cell_length_c   10.84701590
_cell_angle_alpha   89.49884731
_cell_angle_beta   90.00000000
_cell_angle_gamma   90.00000000
_symmetry_Int_Tables_number   1
_chemical_formula_structural   Mn5GePd10
_chemical_formula_sum   'Mn5 Ge1 Pd10'
_cell_volume   243.37316559
_cell_formula_units_Z   1
loop_
 _symmetry_equiv_pos_site_id
 _symmetry_equiv_pos_as_xyz
  1  'x, y, z'
loop_
 _atom_site_type_symbol
 _atom_site_label
 _atom_site_symmetry_multiplicity
 _atom_site_fract_x
 _atom_site_fract_y
 _atom_site_fract_z
 _atom_site_occupancy
  Mn  Mn0  1  0.000000  0.000000  0.000000  1
  Mn  Mn1  1  0.500000  0.177076  0.358257  1
  Mn  Mn2  1  0.500000  0.822924  0.641743  1
  Mn  Mn3  1  0.500000  0.687020  0.137526  1
  Mn  Mn4  1  0.500000  0.312980  0.862474  1
  Ge  Ge5  1  0.000000  0.500000  0.500000  1
  Pd  Pd6  1  0.500000  0.196504  0.111335  1
  Pd  Pd7  1  0.500000  0.803496  0.888665  1
  Pd  Pd8  1  0.500000  0.688026  0.393827  1
  Pd  Pd9  1  0.500000  0.311974  0.606173  1
  Pd  Pd10  1  0.000000  0.000000  0.500000  1
  Pd  Pd11  1  0.000000  0.500000  0.000000  1
  Pd  Pd12  1  0.000000  0.927493  0.242842  1
  Pd  Pd13  1  0.000000  0.072507  0.757158  1
  Pd  Pd14  1  0.000000  0.429957  0.260169  1
  Pd  Pd15  1  0.000000  0.570043  0.739831  1
