# generated using pymatgen
data_Sr20Si3Bi8Sb
_symmetry_space_group_name_H-M   'P 1'
_cell_length_a   8.71227484
_cell_length_b   10.16621500
_cell_length_c   13.78798497
_cell_angle_alpha   90.00000000
_cell_angle_beta   89.87745987
_cell_angle_gamma   90.00000000
_symmetry_Int_Tables_number   1
_chemical_formula_structural   Sr20Si3Bi8Sb
_chemical_formula_sum   'Sr20 Si3 Bi8 Sb1'
_cell_volume   1221.21088240
_cell_formula_units_Z   1
loop_
 _symmetry_equiv_pos_site_id
 _symmetry_equiv_pos_as_xyz
  1  'x, y, z'
loop_
 _atom_site_type_symbol
 _atom_site_label
 _atom_site_symmetry_multiplicity
 _atom_site_fract_x
 _atom_site_fract_y
 _atom_site_fract_z
 _atom_site_occupancy
  Sr  Sr0  1  0.330206  0.972354  0.076289  1
  Sr  Sr1  1  0.825127  0.039253  0.418046  1
  Sr  Sr2  1  0.671168  0.470599  0.921092  1
  Sr  Sr3  1  0.175170  0.521050  0.584026  1
  Sr  Sr4  1  0.671168  0.029401  0.921092  1
  Sr  Sr5  1  0.175170  0.978950  0.584026  1
  Sr  Sr6  1  0.330206  0.527646  0.076289  1
  Sr  Sr7  1  0.825127  0.460747  0.418046  1
  Sr  Sr8  1  0.671777  0.750000  0.212684  1
  Sr  Sr9  1  0.175567  0.250000  0.285145  1
  Sr  Sr10  1  0.328454  0.250000  0.787432  1
  Sr  Sr11  1  0.817380  0.750000  0.724710  1
  Sr  Sr12  1  0.156355  0.750000  0.297242  1
  Sr  Sr13  1  0.646241  0.250000  0.191793  1
  Sr  Sr14  1  0.853080  0.250000  0.693987  1
  Sr  Sr15  1  0.350490  0.750000  0.806206  1
  Sr  Sr16  1  0.542873  0.750000  0.500599  1
  Sr  Sr17  1  0.055093  0.250000  0.000990  1
  Sr  Sr18  1  0.445123  0.250000  0.499402  1
  Sr  Sr19  1  0.945421  0.750000  0.001712  1
  Si  Si20  1  0.562611  0.750000  0.988961  1
  Si  Si21  1  0.062100  0.250000  0.508606  1
  Si  Si22  1  0.440141  0.250000  0.008262  1
  Bi  Bi23  1  0.948754  0.006128  0.171650  1
  Bi  Bi24  1  0.447044  0.992025  0.330068  1
  Bi  Bi25  1  0.052093  0.506670  0.830376  1
  Bi  Bi26  1  0.554848  0.492312  0.668888  1
  Bi  Bi27  1  0.052093  0.993330  0.830376  1
  Bi  Bi28  1  0.554848  0.007688  0.668888  1
  Bi  Bi29  1  0.948754  0.493872  0.171650  1
  Bi  Bi30  1  0.447044  0.507975  0.330068  1
  Sb  Sb31  1  0.938474  0.750000  0.491390  1
