# generated using pymatgen
data_Pa4P3Se
_symmetry_space_group_name_H-M   'P 1'
_cell_length_a   3.99128462
_cell_length_b   8.93383523
_cell_length_c   10.56757827
_cell_angle_alpha   40.48200473
_cell_angle_beta   124.55949888
_cell_angle_gamma   132.10392955
_symmetry_Int_Tables_number   1
_chemical_formula_structural   Pa4P3Se
_chemical_formula_sum   'Pa4 P3 Se1'
_cell_volume   180.21034633
_cell_formula_units_Z   1
loop_
 _symmetry_equiv_pos_site_id
 _symmetry_equiv_pos_as_xyz
  1  'x, y, z'
loop_
 _atom_site_type_symbol
 _atom_site_label
 _atom_site_symmetry_multiplicity
 _atom_site_fract_x
 _atom_site_fract_y
 _atom_site_fract_z
 _atom_site_occupancy
  Pa  Pa0  1  0.504215  0.398590  0.284723  1
  Pa  Pa1  1  0.740783  0.658225  0.516174  1
  Pa  Pa2  1  0.229735  0.133942  0.032863  1
  Pa  Pa3  1  0.015791  0.922731  0.768196  1
  P  P4  1  0.883106  0.284445  0.651436  1
  P  P5  1  0.362166  0.772289  0.149538  1
  P  P6  1  0.622394  0.028294  0.400558  1
  Se  Se7  1  0.122878  0.528375  0.900472  1
