# generated using pymatgen
data_YTh7(Nb3Si4)4
_symmetry_space_group_name_H-M   'P 1'
_cell_length_a   7.02731587
_cell_length_b   7.23736244
_cell_length_c   13.59039768
_cell_angle_alpha   90.08466774
_cell_angle_beta   89.88032480
_cell_angle_gamma   90.04282593
_symmetry_Int_Tables_number   1
_chemical_formula_structural   YTh7(Nb3Si4)4
_chemical_formula_sum   'Y1 Th7 Nb12 Si16'
_cell_volume   691.19473430
_cell_formula_units_Z   1
loop_
 _symmetry_equiv_pos_site_id
 _symmetry_equiv_pos_as_xyz
  1  'x, y, z'
loop_
 _atom_site_type_symbol
 _atom_site_label
 _atom_site_symmetry_multiplicity
 _atom_site_fract_x
 _atom_site_fract_y
 _atom_site_fract_z
 _atom_site_occupancy
  Y  Y0  1  0.999725  0.828981  0.596833  1
  Th  Th1  1  0.501372  0.668927  0.595182  1
  Th  Th2  1  0.000652  0.830499  0.903850  1
  Th  Th3  1  0.500495  0.330498  0.095783  1
  Th  Th4  1  0.998577  0.170680  0.405676  1
  Th  Th5  1  0.498376  0.330392  0.406430  1
  Th  Th6  1  0.000380  0.169730  0.095800  1
  Th  Th7  1  0.500700  0.670011  0.902482  1
  Nb  Nb8  1  0.661885  0.172932  0.623971  1
  Nb  Nb9  1  0.162620  0.327434  0.873796  1
  Nb  Nb10  1  0.337432  0.827851  0.125136  1
  Nb  Nb11  1  0.835483  0.673117  0.375696  1
  Nb  Nb12  1  0.336401  0.828019  0.375546  1
  Nb  Nb13  1  0.836758  0.671880  0.125198  1
  Nb  Nb14  1  0.665868  0.170465  0.874029  1
  Nb  Nb15  1  0.164356  0.327851  0.624430  1
  Nb  Nb16  1  0.836075  0.490644  0.750420  1
  Nb  Nb17  1  0.337450  0.005656  0.748746  1
  Nb  Nb18  1  0.163119  0.507854  0.250609  1
  Nb  Nb19  1  0.663102  0.993320  0.250957  1
  Si  Si20  1  0.660551  0.957093  0.457780  1
  Si  Si21  1  0.160390  0.543381  0.043287  1
  Si  Si22  1  0.341038  0.044103  0.955261  1
  Si  Si23  1  0.843765  0.462245  0.545255  1
  Si  Si24  1  0.333824  0.038715  0.544995  1
  Si  Si25  1  0.839578  0.456102  0.955926  1
  Si  Si26  1  0.660049  0.956256  0.043530  1
  Si  Si27  1  0.157457  0.546647  0.458414  1
  Si  Si28  1  0.459067  0.367188  0.749399  1
  Si  Si29  1  0.960692  0.128641  0.747287  1
  Si  Si30  1  0.540767  0.631406  0.250887  1
  Si  Si31  1  0.040787  0.869083  0.250683  1
  Si  Si32  1  0.703786  0.884099  0.746930  1
  Si  Si33  1  0.196873  0.617665  0.747667  1
  Si  Si34  1  0.300170  0.115353  0.250872  1
  Si  Si35  1  0.800382  0.385278  0.251257  1
