# generated using pymatgen
data_Gd6HoScO12
_symmetry_space_group_name_H-M   'P 1'
_cell_length_a   6.74838980
_cell_length_b   6.74839009
_cell_length_c   6.74838973
_cell_angle_alpha   93.03519678
_cell_angle_beta   93.03519830
_cell_angle_gamma   93.03519542
_symmetry_Int_Tables_number   1
_chemical_formula_structural   Gd6HoScO12
_chemical_formula_sum   'Gd6 Ho1 Sc1 O12'
_cell_volume   305.98584419
_cell_formula_units_Z   1
loop_
 _symmetry_equiv_pos_site_id
 _symmetry_equiv_pos_as_xyz
  1  'x, y, z'
loop_
 _atom_site_type_symbol
 _atom_site_label
 _atom_site_symmetry_multiplicity
 _atom_site_fract_x
 _atom_site_fract_y
 _atom_site_fract_z
 _atom_site_occupancy
  Gd  Gd0  1  0.741526  0.927543  0.436458  1
  Gd  Gd1  1  0.436458  0.741526  0.927543  1
  Gd  Gd2  1  0.072457  0.563542  0.258474  1
  Gd  Gd3  1  0.927543  0.436458  0.741526  1
  Gd  Gd4  1  0.563542  0.258474  0.072457  1
  Gd  Gd5  1  0.258474  0.072457  0.563542  1
  Ho  Ho6  1  0.000000  0.000000  0.000000  1
  Sc  Sc7  1  0.500000  0.500000  0.500000  1
  O  O8  1  0.066599  0.909853  0.314903  1
  O  O9  1  0.685097  0.933401  0.090147  1
  O  O10  1  0.462001  0.803376  0.589877  1
  O  O11  1  0.090147  0.685097  0.933401  1
  O  O12  1  0.803376  0.589877  0.462001  1
  O  O13  1  0.410123  0.537999  0.196624  1
  O  O14  1  0.589877  0.462001  0.803376  1
  O  O15  1  0.196624  0.410123  0.537999  1
  O  O16  1  0.909853  0.314903  0.066599  1
  O  O17  1  0.537999  0.196624  0.410123  1
  O  O18  1  0.314903  0.066599  0.909853  1
  O  O19  1  0.933401  0.090147  0.685097  1
