# generated using pymatgen
data_Lu12GaCo4Hg
_symmetry_space_group_name_H-M   'P 1'
_cell_length_a   8.10745990
_cell_length_b   8.10746002
_cell_length_c   8.10745982
_cell_angle_alpha   112.08751193
_cell_angle_beta   110.15500535
_cell_angle_gamma   106.22538367
_symmetry_Int_Tables_number   1
_chemical_formula_structural   Lu12GaCo4Hg
_chemical_formula_sum   'Lu12 Ga1 Co4 Hg1'
_cell_volume   409.13084337
_cell_formula_units_Z   1
loop_
 _symmetry_equiv_pos_site_id
 _symmetry_equiv_pos_as_xyz
  1  'x, y, z'
loop_
 _atom_site_type_symbol
 _atom_site_label
 _atom_site_symmetry_multiplicity
 _atom_site_fract_x
 _atom_site_fract_y
 _atom_site_fract_z
 _atom_site_occupancy
  Lu  Lu0  1  0.959359  0.261897  0.697462  1
  Lu  Lu1  1  0.040641  0.738103  0.302538  1
  Lu  Lu2  1  0.674273  0.861597  0.187323  1
  Lu  Lu3  1  0.325727  0.513051  0.187323  1
  Lu  Lu4  1  0.325727  0.138403  0.812677  1
  Lu  Lu5  1  0.674273  0.486949  0.812677  1
  Lu  Lu6  1  0.564435  0.261897  0.302538  1
  Lu  Lu7  1  0.435565  0.738103  0.697462  1
  Lu  Lu8  1  0.180645  0.779917  0.960561  1
  Lu  Lu9  1  0.819355  0.779917  0.599273  1
  Lu  Lu10  1  0.180645  0.220083  0.400727  1
  Lu  Lu11  1  0.819355  0.220083  0.039439  1
  Ga  Ga12  1  0.000000  0.500000  0.500000  1
  Co  Co13  1  0.116267  0.116267  0.000000  1
  Co  Co14  1  0.883733  0.883733  0.000000  1
  Co  Co15  1  0.662218  0.500000  0.162218  1
  Co  Co16  1  0.337782  0.500000  0.837782  1
  Hg  Hg17  1  0.500000  0.000000  0.500000  1
