# generated using pymatgen
data_ZrTa2(BOs)3
_symmetry_space_group_name_H-M   'P 1'
_cell_length_a   3.17140300
_cell_length_b   9.11462000
_cell_length_c   15.88258500
_cell_angle_alpha   90.00000000
_cell_angle_beta   90.00000000
_cell_angle_gamma   90.00000000
_symmetry_Int_Tables_number   1
_chemical_formula_structural   ZrTa2(BOs)3
_chemical_formula_sum   'Zr4 Ta8 B12 Os12'
_cell_volume   459.10411776
_cell_formula_units_Z   4
loop_
 _symmetry_equiv_pos_site_id
 _symmetry_equiv_pos_as_xyz
  1  'x, y, z'
loop_
 _atom_site_type_symbol
 _atom_site_label
 _atom_site_symmetry_multiplicity
 _atom_site_fract_x
 _atom_site_fract_y
 _atom_site_fract_z
 _atom_site_occupancy
  Zr  Zr0  1  0.000000  0.682418  0.206136  1
  Zr  Zr1  1  0.000000  0.317582  0.793864  1
  Zr  Zr2  1  0.000000  0.182418  0.293864  1
  Zr  Zr3  1  0.000000  0.817582  0.706136  1
  Ta  Ta4  1  0.000000  0.800553  0.494827  1
  Ta  Ta5  1  0.000000  0.199447  0.505173  1
  Ta  Ta6  1  0.000000  0.300553  0.005173  1
  Ta  Ta7  1  0.000000  0.699447  0.994827  1
  Ta  Ta8  1  0.000000  0.515030  0.593426  1
  Ta  Ta9  1  0.000000  0.484970  0.406574  1
  Ta  Ta10  1  0.000000  0.015030  0.906574  1
  Ta  Ta11  1  0.000000  0.984970  0.093426  1
  B  B12  1  0.500000  0.604620  0.496991  1
  B  B13  1  0.500000  0.395380  0.503009  1
  B  B14  1  0.500000  0.104620  0.003009  1
  B  B15  1  0.500000  0.895380  0.996991  1
  B  B16  1  0.000000  0.609153  0.832935  1
  B  B17  1  0.000000  0.390847  0.167065  1
  B  B18  1  0.000000  0.109153  0.667065  1
  B  B19  1  0.000000  0.890847  0.332935  1
  B  B20  1  0.500000  0.713245  0.595901  1
  B  B21  1  0.500000  0.286755  0.404099  1
  B  B22  1  0.500000  0.213245  0.904099  1
  B  B23  1  0.500000  0.786755  0.095901  1
  Os  Os24  1  0.500000  0.719453  0.359972  1
  Os  Os25  1  0.500000  0.280547  0.640028  1
  Os  Os26  1  0.500000  0.219453  0.140028  1
  Os  Os27  1  0.500000  0.780547  0.859972  1
  Os  Os28  1  0.500000  0.514660  0.093207  1
  Os  Os29  1  0.500000  0.485340  0.906793  1
  Os  Os30  1  0.500000  0.014660  0.406793  1
  Os  Os31  1  0.500000  0.985340  0.593207  1
  Os  Os32  1  0.500000  0.566492  0.733821  1
  Os  Os33  1  0.500000  0.433508  0.266179  1
  Os  Os34  1  0.500000  0.066492  0.766179  1
  Os  Os35  1  0.500000  0.933508  0.233821  1
