# generated using pymatgen
data_EuPa5F24
_symmetry_space_group_name_H-M   'P 1'
_cell_length_a   8.39389579
_cell_length_b   8.47358888
_cell_length_c   8.41324000
_cell_angle_alpha   63.24634372
_cell_angle_beta   63.60897948
_cell_angle_gamma   80.20610828
_symmetry_Int_Tables_number   1
_chemical_formula_structural   EuPa5F24
_chemical_formula_sum   'Eu1 Pa5 F24'
_cell_volume   478.31955898
_cell_formula_units_Z   1
loop_
 _symmetry_equiv_pos_site_id
 _symmetry_equiv_pos_as_xyz
  1  'x, y, z'
loop_
 _atom_site_type_symbol
 _atom_site_label
 _atom_site_symmetry_multiplicity
 _atom_site_fract_x
 _atom_site_fract_y
 _atom_site_fract_z
 _atom_site_occupancy
  Eu  Eu0  1  0.776911  0.633027  0.171155  1
  Pa  Pa1  1  0.634515  0.770891  0.669431  1
  Pa  Pa2  1  0.372442  0.223557  0.330282  1
  Pa  Pa3  1  0.221180  0.368834  0.832664  1
  Pa  Pa4  1  0.789187  0.208261  0.744443  1
  Pa  Pa5  1  0.215072  0.787464  0.247721  1
  F  F6  1  0.319723  0.261604  0.605501  1
  F  F7  1  0.680463  0.757578  0.400954  1
  F  F8  1  0.734086  0.682496  0.889058  1
  F  F9  1  0.270584  0.327594  0.098454  1
  F  F10  1  0.826196  0.948470  0.941570  1
  F  F11  1  0.171124  0.071805  0.047073  1
  F  F12  1  0.071518  0.164827  0.546312  1
  F  F13  1  0.939774  0.817598  0.466175  1
  F  F14  1  0.399654  0.600541  0.749032  1
  F  F15  1  0.592339  0.389096  0.247123  1
  F  F16  1  0.485880  0.997401  0.514328  1
  F  F17  1  0.005356  0.486312  0.998227  1
  F  F18  1  0.500327  0.249779  0.790420  1
  F  F19  1  0.488743  0.756377  0.208596  1
  F  F20  1  0.732066  0.491161  0.722121  1
  F  F21  1  0.250211  0.500193  0.295139  1
  F  F22  1  0.399258  0.811154  0.925310  1
  F  F23  1  0.598507  0.180819  0.074508  1
  F  F24  1  0.194930  0.601171  0.568540  1
  F  F25  1  0.821798  0.387687  0.444880  1
  F  F26  1  0.723811  0.027933  0.641291  1
  F  F27  1  0.271170  0.978092  0.345518  1
  F  F28  1  0.976177  0.280878  0.833567  1
  F  F29  1  0.036997  0.737401  0.150607  1
