# generated using pymatgen
data_Ca5Eu3(SiO4)4
_symmetry_space_group_name_H-M   'P 1'
_cell_length_a   5.14546838
_cell_length_b   6.96327000
_cell_length_c   11.70891655
_cell_angle_alpha   90.00000000
_cell_angle_beta   90.02519018
_cell_angle_gamma   90.00000000
_symmetry_Int_Tables_number   1
_chemical_formula_structural   Ca5Eu3(SiO4)4
_chemical_formula_sum   'Ca5 Eu3 Si4 O16'
_cell_volume   419.52207512
_cell_formula_units_Z   1
loop_
 _symmetry_equiv_pos_site_id
 _symmetry_equiv_pos_as_xyz
  1  'x, y, z'
loop_
 _atom_site_type_symbol
 _atom_site_label
 _atom_site_symmetry_multiplicity
 _atom_site_fract_x
 _atom_site_fract_y
 _atom_site_fract_z
 _atom_site_occupancy
  Ca  Ca0  1  0.010578  0.750000  0.280769  1
  Ca  Ca1  1  0.498523  0.500916  0.495928  1
  Ca  Ca2  1  0.001656  0.500862  0.003663  1
  Ca  Ca3  1  0.498523  0.999084  0.495928  1
  Ca  Ca4  1  0.001656  0.999138  0.003663  1
  Eu  Eu5  1  0.485506  0.750000  0.781214  1
  Eu  Eu6  1  0.980850  0.250000  0.716520  1
  Eu  Eu7  1  0.519649  0.250000  0.218732  1
  Si  Si8  1  0.923719  0.750000  0.585471  1
  Si  Si9  1  0.423469  0.250000  0.910114  1
  Si  Si10  1  0.073787  0.250000  0.406549  1
  Si  Si11  1  0.579273  0.750000  0.097249  1
  O  O12  1  0.195899  0.442641  0.341299  1
  O  O13  1  0.712260  0.561131  0.161601  1
  O  O14  1  0.796361  0.939927  0.651179  1
  O  O15  1  0.296856  0.059299  0.845269  1
  O  O16  1  0.796361  0.560073  0.651179  1
  O  O17  1  0.296856  0.440701  0.845269  1
  O  O18  1  0.195899  0.057359  0.341299  1
  O  O19  1  0.712260  0.938869  0.161601  1
  O  O20  1  0.790391  0.750000  0.454929  1
  O  O21  1  0.286714  0.250000  0.039783  1
  O  O22  1  0.213771  0.250000  0.535865  1
  O  O23  1  0.709255  0.750000  0.965983  1
  O  O24  1  0.259820  0.750000  0.095481  1
  O  O25  1  0.755091  0.250000  0.414560  1
  O  O26  1  0.742309  0.250000  0.917332  1
  O  O27  1  0.242708  0.750000  0.581573  1
