# generated using pymatgen
data_Y15Tm(Al3Co)2
_symmetry_space_group_name_H-M   'P 1'
_cell_length_a   10.25313800
_cell_length_b   10.23560854
_cell_length_c   6.89652200
_cell_angle_alpha   89.96734866
_cell_angle_beta   90.00000000
_cell_angle_gamma   120.05666840
_symmetry_Int_Tables_number   1
_chemical_formula_structural   Y15Tm(Al3Co)2
_chemical_formula_sum   'Y15 Tm1 Al6 Co2'
_cell_volume   626.44486905
_cell_formula_units_Z   1
loop_
 _symmetry_equiv_pos_site_id
 _symmetry_equiv_pos_as_xyz
  1  'x, y, z'
loop_
 _atom_site_type_symbol
 _atom_site_label
 _atom_site_symmetry_multiplicity
 _atom_site_fract_x
 _atom_site_fract_y
 _atom_site_fract_z
 _atom_site_occupancy
  Y  Y0  1  0.349138  0.174452  0.496858  1
  Y  Y1  1  0.825314  0.174451  0.496859  1
  Y  Y2  1  0.174798  0.349595  0.997080  1
  Y  Y3  1  0.650334  0.825284  0.996572  1
  Y  Y4  1  0.174951  0.825285  0.996573  1
  Y  Y5  1  0.667104  0.334210  0.171455  1
  Y  Y6  1  0.333370  0.666739  0.671111  1
  Y  Y7  1  0.533965  0.067930  0.789683  1
  Y  Y8  1  0.932288  0.467080  0.788821  1
  Y  Y9  1  0.534792  0.467080  0.788820  1
  Y  Y10  1  0.466095  0.932190  0.289857  1
  Y  Y11  1  0.067016  0.534132  0.290269  1
  Y  Y12  1  0.467116  0.534132  0.290268  1
  Y  Y13  1  0.999392  0.998781  0.773221  1
  Y  Y14  1  0.999397  0.998798  0.275000  1
  Tm  Tm15  1  0.824401  0.648802  0.496336  1
  Al  Al16  1  0.837169  0.674338  0.032866  1
  Al  Al17  1  0.325852  0.163005  0.031739  1
  Al  Al18  1  0.837153  0.163005  0.031739  1
  Al  Al19  1  0.162827  0.325652  0.531660  1
  Al  Al20  1  0.675057  0.836273  0.531659  1
  Al  Al21  1  0.161217  0.836273  0.531659  1
  Co  Co22  1  0.667859  0.335718  0.562637  1
  Co  Co23  1  0.333396  0.666793  0.063498  1
