# generated using pymatgen
data_Eu16Cd4IrRu3
_symmetry_space_group_name_H-M   'P 1'
_cell_length_a   10.16950570
_cell_length_b   10.16715345
_cell_length_c   10.16715200
_cell_angle_alpha   59.99999821
_cell_angle_beta   60.00764940
_cell_angle_gamma   60.00765059
_symmetry_Int_Tables_number   1
_chemical_formula_structural   Eu16Cd4IrRu3
_chemical_formula_sum   'Eu16 Cd4 Ir1 Ru3'
_cell_volume   743.41914761
_cell_formula_units_Z   1
loop_
 _symmetry_equiv_pos_site_id
 _symmetry_equiv_pos_as_xyz
  1  'x, y, z'
loop_
 _atom_site_type_symbol
 _atom_site_label
 _atom_site_symmetry_multiplicity
 _atom_site_fract_x
 _atom_site_fract_y
 _atom_site_fract_z
 _atom_site_occupancy
  Eu  Eu0  1  0.342488  0.344117  0.344117  1
  Eu  Eu1  1  0.342488  0.344117  0.969276  1
  Eu  Eu2  1  0.342488  0.969276  0.344117  1
  Eu  Eu3  1  0.971169  0.342943  0.342943  1
  Eu  Eu4  1  0.810177  0.191333  0.191333  1
  Eu  Eu5  1  0.191503  0.809073  0.809073  1
  Eu  Eu6  1  0.191503  0.809073  0.190351  1
  Eu  Eu7  1  0.810177  0.191333  0.807157  1
  Eu  Eu8  1  0.191503  0.190351  0.809073  1
  Eu  Eu9  1  0.810177  0.807157  0.191333  1
  Eu  Eu10  1  0.948990  0.551128  0.551128  1
  Eu  Eu11  1  0.550907  0.949270  0.949270  1
  Eu  Eu12  1  0.550907  0.949270  0.550552  1
  Eu  Eu13  1  0.948990  0.551128  0.948754  1
  Eu  Eu14  1  0.550907  0.550552  0.949270  1
  Eu  Eu15  1  0.948990  0.948754  0.551128  1
  Cd  Cd16  1  0.579110  0.578887  0.578887  1
  Cd  Cd17  1  0.579110  0.578887  0.263116  1
  Cd  Cd18  1  0.579110  0.263116  0.578887  1
  Cd  Cd19  1  0.264532  0.578490  0.578490  1
  Ir  Ir20  1  0.588465  0.137179  0.137179  1
  Ru  Ru21  1  0.135436  0.134327  0.134327  1
  Ru  Ru22  1  0.135436  0.134327  0.595912  1
  Ru  Ru23  1  0.135436  0.595912  0.134327  1
