# generated using pymatgen
data_MnTcWCl10
_symmetry_space_group_name_H-M   'P 1'
_cell_length_a   9.04162276
_cell_length_b   9.04162310
_cell_length_c   12.77974668
_cell_angle_alpha   87.01036950
_cell_angle_beta   87.01037182
_cell_angle_gamma   138.83429554
_symmetry_Int_Tables_number   1
_chemical_formula_structural   MnTcWCl10
_chemical_formula_sum   'Mn2 Tc2 W2 Cl20'
_cell_volume   680.08959861
_cell_formula_units_Z   2
loop_
 _symmetry_equiv_pos_site_id
 _symmetry_equiv_pos_as_xyz
  1  'x, y, z'
loop_
 _atom_site_type_symbol
 _atom_site_label
 _atom_site_symmetry_multiplicity
 _atom_site_fract_x
 _atom_site_fract_y
 _atom_site_fract_z
 _atom_site_occupancy
  Mn  Mn0  1  0.047094  0.952906  0.750000  1
  Mn  Mn1  1  0.952906  0.047094  0.250000  1
  Tc  Tc2  1  0.432464  0.567536  0.750000  1
  Tc  Tc3  1  0.567536  0.432464  0.250000  1
  W  W4  1  0.271512  0.728488  0.750000  1
  W  W5  1  0.728488  0.271512  0.250000  1
  Cl  Cl6  1  0.779015  0.478705  0.378030  1
  Cl  Cl7  1  0.521295  0.220985  0.121970  1
  Cl  Cl8  1  0.220985  0.521295  0.621970  1
  Cl  Cl9  1  0.478705  0.779015  0.878030  1
  Cl  Cl10  1  0.893074  0.785992  0.142556  1
  Cl  Cl11  1  0.214008  0.106926  0.357444  1
  Cl  Cl12  1  0.106926  0.214008  0.857444  1
  Cl  Cl13  1  0.785992  0.893074  0.642556  1
  Cl  Cl14  1  0.069579  0.588012  0.150567  1
  Cl  Cl15  1  0.411988  0.930421  0.349433  1
  Cl  Cl16  1  0.930421  0.411988  0.849433  1
  Cl  Cl17  1  0.588012  0.069579  0.650567  1
  Cl  Cl18  1  0.593819  0.666233  0.354505  1
  Cl  Cl19  1  0.333767  0.406181  0.145495  1
  Cl  Cl20  1  0.406181  0.333767  0.645495  1
  Cl  Cl21  1  0.666233  0.593819  0.854506  1
  Cl  Cl22  1  0.943114  0.266963  0.358405  1
  Cl  Cl23  1  0.733037  0.056886  0.141595  1
  Cl  Cl24  1  0.056886  0.733037  0.641595  1
  Cl  Cl25  1  0.266963  0.943114  0.858405  1
