# generated using pymatgen
data_Er4MgPb3C
_symmetry_space_group_name_H-M   'P 1'
_cell_length_a   8.96650900
_cell_length_b   8.96650962
_cell_length_c   6.35571300
_cell_angle_alpha   90.00000000
_cell_angle_beta   90.00000000
_cell_angle_gamma   120.00000142
_symmetry_Int_Tables_number   1
_chemical_formula_structural   Er4MgPb3C
_chemical_formula_sum   'Er8 Mg2 Pb6 C2'
_cell_volume   442.52897387
_cell_formula_units_Z   2
loop_
 _symmetry_equiv_pos_site_id
 _symmetry_equiv_pos_as_xyz
  1  'x, y, z'
loop_
 _atom_site_type_symbol
 _atom_site_label
 _atom_site_symmetry_multiplicity
 _atom_site_fract_x
 _atom_site_fract_y
 _atom_site_fract_z
 _atom_site_occupancy
  Er  Er0  1  0.210358  0.000000  0.251541  1
  Er  Er1  1  0.789642  0.000000  0.748459  1
  Er  Er2  1  0.000000  0.210358  0.251541  1
  Er  Er3  1  0.000000  0.789642  0.748459  1
  Er  Er4  1  0.789642  0.789642  0.251541  1
  Er  Er5  1  0.210358  0.210358  0.748459  1
  Er  Er6  1  0.666667  0.333333  0.500000  1
  Er  Er7  1  0.333333  0.666667  0.500000  1
  Mg  Mg8  1  0.333333  0.666667  0.000000  1
  Mg  Mg9  1  0.666667  0.333333  0.000000  1
  Pb  Pb10  1  0.592553  0.000000  0.251243  1
  Pb  Pb11  1  0.407447  0.000000  0.748757  1
  Pb  Pb12  1  0.000000  0.592553  0.251243  1
  Pb  Pb13  1  0.000000  0.407447  0.748757  1
  Pb  Pb14  1  0.407447  0.407447  0.251243  1
  Pb  Pb15  1  0.592553  0.592553  0.748757  1
  C  C16  1  0.000000  0.000000  0.000000  1
  C  C17  1  0.000000  0.000000  0.500000  1
