# generated using pymatgen
data_SrTbDyGa8Ag3
_symmetry_space_group_name_H-M   'P 1'
_cell_length_a   4.39363783
_cell_length_b   8.51181014
_cell_length_c   8.51181998
_cell_angle_alpha   68.59230844
_cell_angle_beta   74.87560011
_cell_angle_gamma   74.87558847
_symmetry_Int_Tables_number   1
_chemical_formula_structural   SrTbDyGa8Ag3
_chemical_formula_sum   'Sr1 Tb1 Dy1 Ga8 Ag3'
_cell_volume   281.19261177
_cell_formula_units_Z   1
loop_
 _symmetry_equiv_pos_site_id
 _symmetry_equiv_pos_as_xyz
  1  'x, y, z'
loop_
 _atom_site_type_symbol
 _atom_site_label
 _atom_site_symmetry_multiplicity
 _atom_site_fract_x
 _atom_site_fract_y
 _atom_site_fract_z
 _atom_site_occupancy
  Sr  Sr0  1  0.499940  0.500058  0.500057  1
  Tb  Tb1  1  0.800125  0.199945  0.199945  1
  Dy  Dy2  1  0.199790  0.800149  0.800149  1
  Ga  Ga3  1  0.353825  0.362805  0.929541  1
  Ga  Ga4  1  0.646213  0.637445  0.070161  1
  Ga  Ga5  1  0.353824  0.929542  0.362805  1
  Ga  Ga6  1  0.646212  0.070161  0.637445  1
  Ga  Ga7  1  0.163022  0.470878  0.202847  1
  Ga  Ga8  1  0.836852  0.529382  0.797132  1
  Ga  Ga9  1  0.163023  0.202846  0.470878  1
  Ga  Ga10  1  0.836851  0.797132  0.529382  1
  Ag  Ag11  1  0.500105  0.999886  0.999886  1
  Ag  Ag12  1  0.000110  0.808676  0.191094  1
  Ag  Ag13  1  0.000110  0.191094  0.808676  1
