# generated using pymatgen
data_Ho16Er4(OsRh3)3
_symmetry_space_group_name_H-M   'P 1'
_cell_length_a   10.80588200
_cell_length_b   10.80588200
_cell_length_c   6.37551200
_cell_angle_alpha   90.00000000
_cell_angle_beta   90.00000000
_cell_angle_gamma   90.00000000
_symmetry_Int_Tables_number   1
_chemical_formula_structural   Ho16Er4(OsRh3)3
_chemical_formula_sum   'Ho16 Er4 Os3 Rh9'
_cell_volume   744.44995671
_cell_formula_units_Z   1
loop_
 _symmetry_equiv_pos_site_id
 _symmetry_equiv_pos_as_xyz
  1  'x, y, z'
loop_
 _atom_site_type_symbol
 _atom_site_label
 _atom_site_symmetry_multiplicity
 _atom_site_fract_x
 _atom_site_fract_y
 _atom_site_fract_z
 _atom_site_occupancy
  Ho  Ho0  1  0.293908  0.086193  0.376658  1
  Ho  Ho1  1  0.293887  0.914108  0.876766  1
  Ho  Ho2  1  0.706113  0.085892  0.876766  1
  Ho  Ho3  1  0.706092  0.913807  0.376658  1
  Ho  Ho4  1  0.585892  0.793887  0.876766  1
  Ho  Ho5  1  0.586193  0.206092  0.376658  1
  Ho  Ho6  1  0.413807  0.793908  0.376658  1
  Ho  Ho7  1  0.414108  0.206113  0.876766  1
  Ho  Ho8  1  0.208118  0.413183  0.625419  1
  Ho  Ho9  1  0.207668  0.587046  0.120532  1
  Ho  Ho10  1  0.792332  0.412954  0.120532  1
  Ho  Ho11  1  0.791882  0.586817  0.625419  1
  Ho  Ho12  1  0.912954  0.707668  0.120532  1
  Ho  Ho13  1  0.913183  0.291882  0.625419  1
  Ho  Ho14  1  0.086817  0.708118  0.625419  1
  Ho  Ho15  1  0.087046  0.292332  0.120532  1
  Er  Er16  1  0.000000  0.000000  0.499522  1
  Er  Er17  1  0.000000  0.000000  0.999624  1
  Er  Er18  1  0.500000  0.500000  0.999624  1
  Er  Er19  1  0.500000  0.500000  0.499522  1
  Os  Os20  1  0.500000  0.000000  0.123509  1
  Os  Os21  1  0.500000  0.000000  0.623134  1
  Os  Os22  1  0.000000  0.500000  0.877441  1
  Rh  Rh23  1  0.848661  0.153085  0.250445  1
  Rh  Rh24  1  0.848312  0.847200  0.749790  1
  Rh  Rh25  1  0.151688  0.152800  0.749790  1
  Rh  Rh26  1  0.151339  0.846915  0.250445  1
  Rh  Rh27  1  0.652800  0.348312  0.749790  1
  Rh  Rh28  1  0.653085  0.651339  0.250445  1
  Rh  Rh29  1  0.346915  0.348661  0.250445  1
  Rh  Rh30  1  0.347200  0.651688  0.749790  1
  Rh  Rh31  1  0.000000  0.500000  0.379185  1
