# generated using pymatgen
data_Dy6TiAl23(CoOs3)2
_symmetry_space_group_name_H-M   'P 1'
_cell_length_a   8.81609900
_cell_length_b   8.81609901
_cell_length_c   9.47263200
_cell_angle_alpha   90.00000000
_cell_angle_beta   90.00000000
_cell_angle_gamma   119.99999620
_symmetry_Int_Tables_number   1
_chemical_formula_structural   Dy6TiAl23(CoOs3)2
_chemical_formula_sum   'Dy6 Ti1 Al23 Co2 Os6'
_cell_volume   637.60869618
_cell_formula_units_Z   1
loop_
 _symmetry_equiv_pos_site_id
 _symmetry_equiv_pos_as_xyz
  1  'x, y, z'
loop_
 _atom_site_type_symbol
 _atom_site_label
 _atom_site_symmetry_multiplicity
 _atom_site_fract_x
 _atom_site_fract_y
 _atom_site_fract_z
 _atom_site_occupancy
  Dy  Dy0  1  0.194207  0.388415  0.251795  1
  Dy  Dy1  1  0.806463  0.612926  0.746936  1
  Dy  Dy2  1  0.611585  0.805793  0.251795  1
  Dy  Dy3  1  0.387074  0.193537  0.746936  1
  Dy  Dy4  1  0.194207  0.805793  0.251795  1
  Dy  Dy5  1  0.806463  0.193537  0.746936  1
  Ti  Ti6  1  0.333333  0.666667  0.989958  1
  Al  Al7  1  0.666667  0.333333  0.984935  1
  Al  Al8  1  0.666667  0.333333  0.517077  1
  Al  Al9  1  0.333333  0.666667  0.482244  1
  Al  Al10  1  0.159368  0.318738  0.575429  1
  Al  Al11  1  0.840411  0.680821  0.424767  1
  Al  Al12  1  0.681262  0.840632  0.575429  1
  Al  Al13  1  0.840983  0.681964  0.076599  1
  Al  Al14  1  0.319179  0.159589  0.424767  1
  Al  Al15  1  0.155693  0.311388  0.925724  1
  Al  Al16  1  0.159368  0.840632  0.575429  1
  Al  Al17  1  0.318036  0.159017  0.076599  1
  Al  Al18  1  0.840411  0.159589  0.424767  1
  Al  Al19  1  0.688612  0.844307  0.925724  1
  Al  Al20  1  0.840983  0.159017  0.076599  1
  Al  Al21  1  0.155693  0.844307  0.925724  1
  Al  Al22  1  0.561039  0.122078  0.253270  1
  Al  Al23  1  0.440815  0.881630  0.748859  1
  Al  Al24  1  0.877922  0.438961  0.253270  1
  Al  Al25  1  0.118370  0.559185  0.748859  1
  Al  Al26  1  0.561039  0.438961  0.253270  1
  Al  Al27  1  0.440815  0.559185  0.748859  1
  Al  Al28  1  0.000000  0.000000  0.250799  1
  Al  Al29  1  0.000000  0.000000  0.749051  1
  Co  Co30  1  0.000000  0.000000  0.000818  1
  Co  Co31  1  0.000000  0.000000  0.499566  1
  Os  Os32  1  0.498869  0.997738  0.003003  1
  Os  Os33  1  0.002262  0.501131  0.003003  1
  Os  Os34  1  0.499852  0.999703  0.502136  1
  Os  Os35  1  0.498869  0.501131  0.003003  1
  Os  Os36  1  0.000297  0.500148  0.502136  1
  Os  Os37  1  0.499852  0.500148  0.502136  1
