# generated using pymatgen
data_Sc6MnNiC8
_symmetry_space_group_name_H-M   'P 1'
_cell_length_a   6.62098944
_cell_length_b   6.62099005
_cell_length_c   5.56814245
_cell_angle_alpha   84.24367313
_cell_angle_beta   84.24366373
_cell_angle_gamma   130.26989899
_symmetry_Int_Tables_number   1
_chemical_formula_structural   Sc6MnNiC8
_chemical_formula_sum   'Sc6 Mn1 Ni1 C8'
_cell_volume   180.86929679
_cell_formula_units_Z   1
loop_
 _symmetry_equiv_pos_site_id
 _symmetry_equiv_pos_as_xyz
  1  'x, y, z'
loop_
 _atom_site_type_symbol
 _atom_site_label
 _atom_site_symmetry_multiplicity
 _atom_site_fract_x
 _atom_site_fract_y
 _atom_site_fract_z
 _atom_site_occupancy
  Sc  Sc0  1  0.750321  0.750321  0.750735  1
  Sc  Sc1  1  0.319216  0.694992  0.496268  1
  Sc  Sc2  1  0.180749  0.805295  0.003495  1
  Sc  Sc3  1  0.694992  0.319216  0.496268  1
  Sc  Sc4  1  0.249375  0.249375  0.249454  1
  Sc  Sc5  1  0.805295  0.180749  0.003495  1
  Mn  Mn6  1  0.250979  0.250979  0.748543  1
  Ni  Ni7  1  0.748809  0.748809  0.252555  1
  C  C8  1  0.292971  0.534244  0.914973  1
  C  C9  1  0.534244  0.292971  0.914973  1
  C  C10  1  0.451380  0.706261  0.080759  1
  C  C11  1  0.706261  0.451380  0.080759  1
  C  C12  1  0.207152  0.966014  0.584691  1
  C  C13  1  0.793768  0.048476  0.419169  1
  C  C14  1  0.966014  0.207152  0.584691  1
  C  C15  1  0.048476  0.793768  0.419169  1
