# generated using pymatgen
data_Ca5Sn2PbF
_symmetry_space_group_name_H-M   'P 1'
_cell_length_a   9.51531626
_cell_length_b   9.51531581
_cell_length_c   9.51531691
_cell_angle_alpha   128.74597630
_cell_angle_beta   128.74597590
_cell_angle_gamma   75.41965222
_symmetry_Int_Tables_number   1
_chemical_formula_structural   Ca5Sn2PbF
_chemical_formula_sum   'Ca10 Sn4 Pb2 F2'
_cell_volume   509.99433429
_cell_formula_units_Z   2
loop_
 _symmetry_equiv_pos_site_id
 _symmetry_equiv_pos_as_xyz
  1  'x, y, z'
loop_
 _atom_site_type_symbol
 _atom_site_label
 _atom_site_symmetry_multiplicity
 _atom_site_fract_x
 _atom_site_fract_y
 _atom_site_fract_z
 _atom_site_occupancy
  Ca  Ca0  1  0.500000  0.500000  0.000000  1
  Ca  Ca1  1  0.000000  0.000000  0.000000  1
  Ca  Ca2  1  0.508245  0.008245  0.819323  1
  Ca  Ca3  1  0.188921  0.688921  0.180677  1
  Ca  Ca4  1  0.008245  0.188921  0.500000  1
  Ca  Ca5  1  0.688921  0.508245  0.500000  1
  Ca  Ca6  1  0.491755  0.991755  0.180677  1
  Ca  Ca7  1  0.811079  0.311079  0.819323  1
  Ca  Ca8  1  0.991755  0.811079  0.500000  1
  Ca  Ca9  1  0.311079  0.491755  0.500000  1
  Sn  Sn10  1  0.872196  0.372196  0.244393  1
  Sn  Sn11  1  0.127804  0.627804  0.755607  1
  Sn  Sn12  1  0.372196  0.127804  0.500000  1
  Sn  Sn13  1  0.627804  0.872196  0.500000  1
  Pb  Pb14  1  0.250000  0.250000  0.000000  1
  Pb  Pb15  1  0.750000  0.750000  0.000000  1
  F  F16  1  0.250000  0.750000  0.500000  1
  F  F17  1  0.750000  0.250000  0.500000  1
