# generated using pymatgen
data_Y11Er5Cd4OsPt3
_symmetry_space_group_name_H-M   'P 1'
_cell_length_a   9.68587326
_cell_length_b   9.70172863
_cell_length_c   9.70172769
_cell_angle_alpha   59.58410454
_cell_angle_beta   59.63090000
_cell_angle_gamma   59.63089391
_symmetry_Int_Tables_number   1
_chemical_formula_structural   Y11Er5Cd4OsPt3
_chemical_formula_sum   'Y11 Er5 Cd4 Os1 Pt3'
_cell_volume   639.01061019
_cell_formula_units_Z   1
loop_
 _symmetry_equiv_pos_site_id
 _symmetry_equiv_pos_as_xyz
  1  'x, y, z'
loop_
 _atom_site_type_symbol
 _atom_site_label
 _atom_site_symmetry_multiplicity
 _atom_site_fract_x
 _atom_site_fract_y
 _atom_site_fract_z
 _atom_site_occupancy
  Y  Y0  1  0.189565  0.809205  0.809205  1
  Y  Y1  1  0.189055  0.814157  0.189669  1
  Y  Y2  1  0.809354  0.189567  0.809439  1
  Y  Y3  1  0.189055  0.189669  0.814157  1
  Y  Y4  1  0.809354  0.809439  0.189567  1
  Y  Y5  1  0.936176  0.564693  0.564693  1
  Y  Y6  1  0.558503  0.938025  0.938025  1
  Y  Y7  1  0.565079  0.936403  0.564303  1
  Y  Y8  1  0.937920  0.557823  0.938465  1
  Y  Y9  1  0.565079  0.564303  0.936403  1
  Y  Y10  1  0.937920  0.938465  0.557823  1
  Er  Er11  1  0.351804  0.351127  0.351127  1
  Er  Er12  1  0.349650  0.349346  0.949371  1
  Er  Er13  1  0.349650  0.949371  0.349346  1
  Er  Er14  1  0.948797  0.349447  0.349447  1
  Er  Er15  1  0.814120  0.189363  0.189363  1
  Cd  Cd16  1  0.580095  0.580203  0.580203  1
  Cd  Cd17  1  0.580892  0.580782  0.255087  1
  Cd  Cd18  1  0.580892  0.255087  0.580782  1
  Cd  Cd19  1  0.255041  0.580893  0.580893  1
  Os  Os20  1  0.142359  0.144493  0.144493  1
  Pt  Pt21  1  0.144720  0.144523  0.568626  1
  Pt  Pt22  1  0.144720  0.568626  0.144523  1
  Pt  Pt23  1  0.570203  0.144993  0.144993  1
