# generated using pymatgen
data_BaAc3(SbPt)4
_symmetry_space_group_name_H-M   'P 1'
_cell_length_a   4.64812700
_cell_length_b   8.73073038
_cell_length_c   7.97671700
_cell_angle_alpha   89.94957343
_cell_angle_beta   90.00000000
_cell_angle_gamma   90.00000000
_symmetry_Int_Tables_number   1
_chemical_formula_structural   BaAc3(SbPt)4
_chemical_formula_sum   'Ba1 Ac3 Sb4 Pt4'
_cell_volume   323.70736347
_cell_formula_units_Z   1
loop_
 _symmetry_equiv_pos_site_id
 _symmetry_equiv_pos_as_xyz
  1  'x, y, z'
loop_
 _atom_site_type_symbol
 _atom_site_label
 _atom_site_symmetry_multiplicity
 _atom_site_fract_x
 _atom_site_fract_y
 _atom_site_fract_z
 _atom_site_occupancy
  Ba  Ba0  1  0.250000  0.502155  0.248379  1
  Ac  Ac1  1  0.750000  0.001609  0.747141  1
  Ac  Ac2  1  0.250000  0.003340  0.251607  1
  Ac  Ac3  1  0.750000  0.502702  0.752661  1
  Sb  Sb4  1  0.750000  0.255917  0.416696  1
  Sb  Sb5  1  0.250000  0.257041  0.915571  1
  Sb  Sb6  1  0.250000  0.752590  0.583982  1
  Sb  Sb7  1  0.750000  0.762581  0.083964  1
  Pt  Pt8  1  0.250000  0.750627  0.916706  1
  Pt  Pt9  1  0.250000  0.230195  0.582674  1
  Pt  Pt10  1  0.750000  0.754445  0.422633  1
  Pt  Pt11  1  0.750000  0.226798  0.077990  1
