# generated using pymatgen
data_GdEr(WN3)2
_symmetry_space_group_name_H-M   'P 1'
_cell_length_a   7.35848348
_cell_length_b   7.35848393
_cell_length_c   6.28076185
_cell_angle_alpha   73.82756747
_cell_angle_beta   73.82756996
_cell_angle_gamma   82.22010594
_symmetry_Int_Tables_number   1
_chemical_formula_structural   GdEr(WN3)2
_chemical_formula_sum   'Gd2 Er2 W4 N12'
_cell_volume   313.08659370
_cell_formula_units_Z   2
loop_
 _symmetry_equiv_pos_site_id
 _symmetry_equiv_pos_as_xyz
  1  'x, y, z'
loop_
 _atom_site_type_symbol
 _atom_site_label
 _atom_site_symmetry_multiplicity
 _atom_site_fract_x
 _atom_site_fract_y
 _atom_site_fract_z
 _atom_site_occupancy
  Gd  Gd0  1  0.711687  0.288313  0.250000  1
  Gd  Gd1  1  0.288313  0.711687  0.750000  1
  Er  Er2  1  0.910348  0.089652  0.750000  1
  Er  Er3  1  0.089652  0.910348  0.250000  1
  W  W4  1  0.620542  0.798868  0.268910  1
  W  W5  1  0.201132  0.379458  0.231090  1
  W  W6  1  0.379458  0.201132  0.731090  1
  W  W7  1  0.798868  0.620542  0.768910  1
  N  N8  1  0.655166  0.634174  0.065415  1
  N  N9  1  0.375933  0.887779  0.333409  1
  N  N10  1  0.365826  0.344834  0.434585  1
  N  N11  1  0.112221  0.624067  0.166591  1
  N  N12  1  0.003833  0.214221  0.349503  1
  N  N13  1  0.785779  0.996167  0.150497  1
  N  N14  1  0.214221  0.003833  0.849503  1
  N  N15  1  0.624067  0.112221  0.666591  1
  N  N16  1  0.344834  0.365826  0.934585  1
  N  N17  1  0.887779  0.375933  0.833409  1
  N  N18  1  0.634174  0.655166  0.565415  1
  N  N19  1  0.996167  0.785779  0.650497  1
