# generated using pymatgen
data_NaSr3PtO6
_symmetry_space_group_name_H-M   'P 1'
_cell_length_a   6.83716856
_cell_length_b   6.83716869
_cell_length_c   6.83716856
_cell_angle_alpha   90.69105790
_cell_angle_beta   90.69105931
_cell_angle_gamma   90.69106026
_symmetry_Int_Tables_number   1
_chemical_formula_structural   NaSr3PtO6
_chemical_formula_sum   'Na2 Sr6 Pt2 O12'
_cell_volume   319.54595353
_cell_formula_units_Z   2
loop_
 _symmetry_equiv_pos_site_id
 _symmetry_equiv_pos_as_xyz
  1  'x, y, z'
loop_
 _atom_site_type_symbol
 _atom_site_label
 _atom_site_symmetry_multiplicity
 _atom_site_fract_x
 _atom_site_fract_y
 _atom_site_fract_z
 _atom_site_occupancy
  Na  Na0  1  0.250000  0.250000  0.250000  1
  Na  Na1  1  0.750000  0.750000  0.750000  1
  Sr  Sr2  1  0.750000  0.392003  0.107997  1
  Sr  Sr3  1  0.107997  0.750000  0.392003  1
  Sr  Sr4  1  0.392003  0.107997  0.750000  1
  Sr  Sr5  1  0.250000  0.607997  0.892003  1
  Sr  Sr6  1  0.892003  0.250000  0.607997  1
  Sr  Sr7  1  0.607997  0.892003  0.250000  1
  Pt  Pt8  1  0.000000  0.000000  0.000000  1
  Pt  Pt9  1  0.500000  0.500000  0.500000  1
  O  O10  1  0.443604  0.782282  0.576388  1
  O  O11  1  0.576388  0.443604  0.782282  1
  O  O12  1  0.782282  0.576388  0.443604  1
  O  O13  1  0.056396  0.923612  0.717718  1
  O  O14  1  0.717718  0.056396  0.923612  1
  O  O15  1  0.923612  0.717718  0.056396  1
  O  O16  1  0.556396  0.217718  0.423612  1
  O  O17  1  0.423612  0.556396  0.217718  1
  O  O18  1  0.217718  0.423612  0.556396  1
  O  O19  1  0.943604  0.076388  0.282282  1
  O  O20  1  0.076388  0.282282  0.943604  1
  O  O21  1  0.282282  0.943604  0.076388  1
