# generated using pymatgen
data_Zr8Co2IrOs
_symmetry_space_group_name_H-M   'P 1'
_cell_length_a   8.70073602
_cell_length_b   8.70073597
_cell_length_c   8.69424500
_cell_angle_alpha   60.02467145
_cell_angle_beta   60.02467164
_cell_angle_gamma   60.05678677
_symmetry_Int_Tables_number   1
_chemical_formula_structural   Zr8Co2IrOs
_chemical_formula_sum   'Zr16 Co4 Ir2 Os2'
_cell_volume   465.77576489
_cell_formula_units_Z   2
loop_
 _symmetry_equiv_pos_site_id
 _symmetry_equiv_pos_as_xyz
  1  'x, y, z'
loop_
 _atom_site_type_symbol
 _atom_site_label
 _atom_site_symmetry_multiplicity
 _atom_site_fract_x
 _atom_site_fract_y
 _atom_site_fract_z
 _atom_site_occupancy
  Zr  Zr0  1  0.055990  0.647676  0.648167  1
  Zr  Zr1  1  0.647676  0.055990  0.648167  1
  Zr  Zr2  1  0.646883  0.646883  0.058400  1
  Zr  Zr3  1  0.646883  0.646883  0.647836  1
  Zr  Zr4  1  0.799558  0.799558  0.200442  1
  Zr  Zr5  1  0.200529  0.200529  0.799471  1
  Zr  Zr6  1  0.798921  0.199893  0.801124  1
  Zr  Zr7  1  0.199893  0.798921  0.200061  1
  Zr  Zr8  1  0.199893  0.798921  0.801124  1
  Zr  Zr9  1  0.798921  0.199893  0.200061  1
  Zr  Zr10  1  0.436552  0.436552  0.063448  1
  Zr  Zr11  1  0.064647  0.064647  0.435353  1
  Zr  Zr12  1  0.436471  0.067333  0.435391  1
  Zr  Zr13  1  0.067333  0.436471  0.060805  1
  Zr  Zr14  1  0.067333  0.436471  0.435391  1
  Zr  Zr15  1  0.436471  0.067333  0.060805  1
  Co  Co16  1  0.422978  0.858084  0.859469  1
  Co  Co17  1  0.858084  0.422978  0.859469  1
  Co  Co18  1  0.858590  0.858590  0.422216  1
  Co  Co19  1  0.858590  0.858590  0.860604  1
  Ir  Ir20  1  0.747588  0.415972  0.418220  1
  Ir  Ir21  1  0.415972  0.747588  0.418220  1
  Os  Os22  1  0.417124  0.417124  0.746432  1
  Os  Os23  1  0.417124  0.417124  0.419320  1
