# generated using pymatgen
data_Na2Sr(SiPt)4
_symmetry_space_group_name_H-M   'P 1'
_cell_length_a   6.54064068
_cell_length_b   6.54063974
_cell_length_c   6.54064048
_cell_angle_alpha   111.64237909
_cell_angle_beta   111.64238351
_cell_angle_gamma   105.21107072
_symmetry_Int_Tables_number   1
_chemical_formula_structural   Na2Sr(SiPt)4
_chemical_formula_sum   'Na2 Sr1 Si4 Pt4'
_cell_volume   214.51221014
_cell_formula_units_Z   1
loop_
 _symmetry_equiv_pos_site_id
 _symmetry_equiv_pos_as_xyz
  1  'x, y, z'
loop_
 _atom_site_type_symbol
 _atom_site_label
 _atom_site_symmetry_multiplicity
 _atom_site_fract_x
 _atom_site_fract_y
 _atom_site_fract_z
 _atom_site_occupancy
  Na  Na0  1  0.500000  0.000000  0.500000  1
  Na  Na1  1  0.000000  0.500000  0.500000  1
  Sr  Sr2  1  0.500000  0.500000  0.000000  1
  Si  Si3  1  0.358967  0.991453  0.000000  1
  Si  Si4  1  0.991453  0.358967  0.000000  1
  Si  Si5  1  0.008547  0.008547  0.367514  1
  Si  Si6  1  0.641033  0.641033  0.632486  1
  Pt  Pt7  1  0.717695  0.015911  0.000000  1
  Pt  Pt8  1  0.015911  0.717695  0.000000  1
  Pt  Pt9  1  0.282306  0.282306  0.298217  1
  Pt  Pt10  1  0.984089  0.984089  0.701784  1
