# generated using pymatgen
data_Th2Co3Si5
_symmetry_space_group_name_H-M   'P 1'
_cell_length_a   8.01190530
_cell_length_b   8.01190447
_cell_length_c   8.01190426
_cell_angle_alpha   138.23858286
_cell_angle_beta   105.54904864
_cell_angle_gamma   89.19852770
_symmetry_Int_Tables_number   1
_chemical_formula_structural   Th2Co3Si5
_chemical_formula_sum   'Th4 Co6 Si10'
_cell_volume   315.83244050
_cell_formula_units_Z   2
loop_
 _symmetry_equiv_pos_site_id
 _symmetry_equiv_pos_as_xyz
  1  'x, y, z'
loop_
 _atom_site_type_symbol
 _atom_site_label
 _atom_site_symmetry_multiplicity
 _atom_site_fract_x
 _atom_site_fract_y
 _atom_site_fract_z
 _atom_site_occupancy
  Th  Th0  1  0.867279  0.630960  0.236319  1
  Th  Th1  1  0.132721  0.369040  0.763681  1
  Th  Th2  1  0.605358  0.869040  0.736319  1
  Th  Th3  1  0.394642  0.130960  0.263681  1
  Co  Co4  1  0.000000  0.250000  0.250000  1
  Co  Co5  1  0.751107  0.136116  0.614992  1
  Co  Co6  1  0.521125  0.636116  0.885008  1
  Co  Co7  1  0.478875  0.363884  0.114992  1
  Co  Co8  1  0.000000  0.750000  0.750000  1
  Co  Co9  1  0.248893  0.863884  0.385008  1
  Si  Si10  1  0.041691  0.894231  0.147461  1
  Si  Si11  1  0.958309  0.105769  0.852539  1
  Si  Si12  1  0.253230  0.605769  0.647461  1
  Si  Si13  1  0.746770  0.394231  0.352539  1
  Si  Si14  1  0.235256  0.985256  0.750000  1
  Si  Si15  1  0.764744  0.514744  0.750000  1
  Si  Si16  1  0.764744  0.014744  0.250000  1
  Si  Si17  1  0.500000  0.250000  0.750000  1
  Si  Si18  1  0.500000  0.750000  0.250000  1
  Si  Si19  1  0.235256  0.485256  0.250000  1
