# generated using pymatgen
data_CeHo4Pb3C
_symmetry_space_group_name_H-M   'P 1'
_cell_length_a   9.02115700
_cell_length_b   9.09234565
_cell_length_c   6.58813400
_cell_angle_alpha   90.00000000
_cell_angle_beta   90.00000000
_cell_angle_gamma   119.74133435
_symmetry_Int_Tables_number   1
_chemical_formula_structural   CeHo4Pb3C
_chemical_formula_sum   'Ce2 Ho8 Pb6 C2'
_cell_volume   469.19926800
_cell_formula_units_Z   2
loop_
 _symmetry_equiv_pos_site_id
 _symmetry_equiv_pos_as_xyz
  1  'x, y, z'
loop_
 _atom_site_type_symbol
 _atom_site_label
 _atom_site_symmetry_multiplicity
 _atom_site_fract_x
 _atom_site_fract_y
 _atom_site_fract_z
 _atom_site_occupancy
  Ce  Ce0  1  0.212373  0.000000  0.250000  1
  Ce  Ce1  1  0.787627  0.000000  0.750000  1
  Ho  Ho2  1  0.999870  0.212319  0.250000  1
  Ho  Ho3  1  0.000130  0.787681  0.750000  1
  Ho  Ho4  1  0.787550  0.787681  0.250000  1
  Ho  Ho5  1  0.212450  0.212319  0.750000  1
  Ho  Ho6  1  0.333030  0.666062  0.000000  1
  Ho  Ho7  1  0.666970  0.333938  0.000000  1
  Ho  Ho8  1  0.666970  0.333938  0.500000  1
  Ho  Ho9  1  0.333030  0.666062  0.500000  1
  Pb  Pb10  1  0.595119  0.000000  0.250000  1
  Pb  Pb11  1  0.404881  0.000000  0.750000  1
  Pb  Pb12  1  0.998136  0.592735  0.250000  1
  Pb  Pb13  1  0.001864  0.407265  0.750000  1
  Pb  Pb14  1  0.405401  0.407265  0.250000  1
  Pb  Pb15  1  0.594599  0.592735  0.750000  1
  C  C16  1  0.000000  0.000000  0.000000  1
  C  C17  1  0.000000  0.000000  0.500000  1
