# generated using pymatgen
data_Er2Ga4CoNi
_symmetry_space_group_name_H-M   'P 1'
_cell_length_a   5.39012199
_cell_length_b   5.39012230
_cell_length_c   6.73440200
_cell_angle_alpha   90.00000000
_cell_angle_beta   90.00000000
_cell_angle_gamma   135.55935889
_symmetry_Int_Tables_number   1
_chemical_formula_structural   Er2Ga4CoNi
_chemical_formula_sum   'Er2 Ga4 Co1 Ni1'
_cell_volume   136.99342453
_cell_formula_units_Z   1
loop_
 _symmetry_equiv_pos_site_id
 _symmetry_equiv_pos_as_xyz
  1  'x, y, z'
loop_
 _atom_site_type_symbol
 _atom_site_label
 _atom_site_symmetry_multiplicity
 _atom_site_fract_x
 _atom_site_fract_y
 _atom_site_fract_z
 _atom_site_occupancy
  Er  Er0  1  0.568547  0.431453  0.250000  1
  Er  Er1  1  0.429829  0.570171  0.750000  1
  Ga  Ga2  1  0.853774  0.146226  0.054015  1
  Ga  Ga3  1  0.146387  0.853613  0.946528  1
  Ga  Ga4  1  0.146387  0.853613  0.553472  1
  Ga  Ga5  1  0.853774  0.146226  0.445985  1
  Co  Co6  1  0.290836  0.709164  0.250000  1
  Ni  Ni7  1  0.710466  0.289534  0.750000  1
