# generated using pymatgen
data_Tb2Pa2Pd3PtPb2
_symmetry_space_group_name_H-M   'P 1'
_cell_length_a   7.92734836
_cell_length_b   7.92032624
_cell_length_c   3.66246300
_cell_angle_alpha   90.00000000
_cell_angle_beta   90.00000000
_cell_angle_gamma   89.91265226
_symmetry_Int_Tables_number   1
_chemical_formula_structural   Tb2Pa2Pd3PtPb2
_chemical_formula_sum   'Tb2 Pa2 Pd3 Pt1 Pb2'
_cell_volume   229.95547569
_cell_formula_units_Z   1
loop_
 _symmetry_equiv_pos_site_id
 _symmetry_equiv_pos_as_xyz
  1  'x, y, z'
loop_
 _atom_site_type_symbol
 _atom_site_label
 _atom_site_symmetry_multiplicity
 _atom_site_fract_x
 _atom_site_fract_y
 _atom_site_fract_z
 _atom_site_occupancy
  Tb  Tb0  1  0.827422  0.671806  0.500000  1
  Tb  Tb1  1  0.323771  0.830374  0.500000  1
  Pa  Pa2  1  0.665923  0.173068  0.500000  1
  Pa  Pa3  1  0.173995  0.325490  0.500000  1
  Pd  Pd4  1  0.127665  0.608476  0.000000  1
  Pd  Pd5  1  0.629062  0.886207  0.000000  1
  Pd  Pd6  1  0.873440  0.359812  0.000000  1
  Pt  Pt7  1  0.377321  0.138738  0.000000  1
  Pb  Pb8  1  0.998188  0.990215  0.000000  1
  Pb  Pb9  1  0.503213  0.515814  0.000000  1
