# generated using pymatgen
data_Ti12Re5Ir6Ru
_symmetry_space_group_name_H-M   'P 1'
_cell_length_a   4.38650800
_cell_length_b   6.23566100
_cell_length_c   13.22172800
_cell_angle_alpha   90.00000000
_cell_angle_beta   89.99840154
_cell_angle_gamma   90.00000000
_symmetry_Int_Tables_number   1
_chemical_formula_structural   Ti12Re5Ir6Ru
_chemical_formula_sum   'Ti12 Re5 Ir6 Ru1'
_cell_volume   361.65097564
_cell_formula_units_Z   1
loop_
 _symmetry_equiv_pos_site_id
 _symmetry_equiv_pos_as_xyz
  1  'x, y, z'
loop_
 _atom_site_type_symbol
 _atom_site_label
 _atom_site_symmetry_multiplicity
 _atom_site_fract_x
 _atom_site_fract_y
 _atom_site_fract_z
 _atom_site_occupancy
  Ti  Ti0  1  0.500000  0.250994  0.000000  1
  Ti  Ti1  1  0.500000  0.749008  0.000000  1
  Ti  Ti2  1  0.000067  0.250740  0.167404  1
  Ti  Ti3  1  0.000067  0.749260  0.167404  1
  Ti  Ti4  1  0.500075  0.249595  0.333435  1
  Ti  Ti5  1  0.500075  0.750403  0.333435  1
  Ti  Ti6  1  0.000000  0.250327  0.500000  1
  Ti  Ti7  1  0.000000  0.749673  0.500000  1
  Ti  Ti8  1  0.499924  0.249595  0.666565  1
  Ti  Ti9  1  0.499924  0.750403  0.666565  1
  Ti  Ti10  1  0.999933  0.250740  0.832596  1
  Ti  Ti11  1  0.999933  0.749260  0.832596  1
  Re  Re12  1  0.500077  0.499999  0.165907  1
  Re  Re13  1  0.000079  0.000000  0.332801  1
  Re  Re14  1  0.500000  0.499999  0.500000  1
  Re  Re15  1  0.999921  0.000000  0.667199  1
  Re  Re16  1  0.499922  0.499999  0.834093  1
  Ir  Ir17  1  0.000000  0.499999  0.000000  1
  Ir  Ir18  1  0.500083  0.000000  0.165551  1
  Ir  Ir19  1  0.000093  0.499999  0.332774  1
  Ir  Ir20  1  0.500000  0.000000  0.500000  1
  Ir  Ir21  1  0.999907  0.499999  0.667226  1
  Ir  Ir22  1  0.499916  0.000000  0.834448  1
  Ru  Ru23  1  0.000000  0.000000  0.000000  1
