# generated using pymatgen
data_Yb2In2Pt3RhO14
_symmetry_space_group_name_H-M   'P 1'
_cell_length_a   7.09922045
_cell_length_b   7.17508223
_cell_length_c   7.17508173
_cell_angle_alpha   60.79648495
_cell_angle_beta   60.69599885
_cell_angle_gamma   60.69601012
_symmetry_Int_Tables_number   1
_chemical_formula_structural   Yb2In2Pt3RhO14
_chemical_formula_sum   'Yb2 In2 Pt3 Rh1 O14'
_cell_volume   262.68757801
_cell_formula_units_Z   1
loop_
 _symmetry_equiv_pos_site_id
 _symmetry_equiv_pos_as_xyz
  1  'x, y, z'
loop_
 _atom_site_type_symbol
 _atom_site_label
 _atom_site_symmetry_multiplicity
 _atom_site_fract_x
 _atom_site_fract_y
 _atom_site_fract_z
 _atom_site_occupancy
  Yb  Yb0  1  0.125000  0.625000  0.125000  1
  Yb  Yb1  1  0.125000  0.125000  0.625000  1
  In  In2  1  0.125000  0.125000  0.125000  1
  In  In3  1  0.625000  0.125000  0.125000  1
  Pt  Pt4  1  0.625000  0.625000  0.125000  1
  Pt  Pt5  1  0.625000  0.125000  0.625000  1
  Pt  Pt6  1  0.625000  0.625000  0.625000  1
  Rh  Rh7  1  0.125000  0.625000  0.625000  1
  O  O8  1  0.261220  0.237964  0.237964  1
  O  O9  1  0.711361  0.288736  0.288736  1
  O  O10  1  0.705932  0.288073  0.719263  1
  O  O11  1  0.292373  0.716201  0.293347  1
  O  O12  1  0.705932  0.719263  0.288073  1
  O  O13  1  0.292373  0.293347  0.716201  1
  O  O14  1  0.960647  0.540242  0.540242  1
  O  O15  1  0.289353  0.709758  0.709758  1
  O  O16  1  0.957627  0.956653  0.533799  1
  O  O17  1  0.544068  0.961927  0.530737  1
  O  O18  1  0.544068  0.530737  0.961927  1
  O  O19  1  0.957627  0.533799  0.956653  1
  O  O20  1  0.538639  0.961264  0.961264  1
  O  O21  1  0.988780  0.012036  0.012036  1
