# generated using pymatgen
data_NdEr4(In2Pt)2
_symmetry_space_group_name_H-M   'P 1'
_cell_length_a   3.61042800
_cell_length_b   8.19126100
_cell_length_c   18.31119600
_cell_angle_alpha   90.00000000
_cell_angle_beta   90.00000000
_cell_angle_gamma   90.00000000
_symmetry_Int_Tables_number   1
_chemical_formula_structural   NdEr4(In2Pt)2
_chemical_formula_sum   'Nd2 Er8 In8 Pt4'
_cell_volume   541.53454271
_cell_formula_units_Z   2
loop_
 _symmetry_equiv_pos_site_id
 _symmetry_equiv_pos_as_xyz
  1  'x, y, z'
loop_
 _atom_site_type_symbol
 _atom_site_label
 _atom_site_symmetry_multiplicity
 _atom_site_fract_x
 _atom_site_fract_y
 _atom_site_fract_z
 _atom_site_occupancy
  Nd  Nd0  1  0.000000  0.000000  0.000000  1
  Nd  Nd1  1  0.000000  0.500000  0.500000  1
  Er  Er2  1  0.000000  0.120574  0.413679  1
  Er  Er3  1  0.000000  0.879426  0.586321  1
  Er  Er4  1  0.000000  0.379426  0.913679  1
  Er  Er5  1  0.000000  0.620574  0.086321  1
  Er  Er6  1  0.000000  0.242331  0.219445  1
  Er  Er7  1  0.000000  0.757669  0.780555  1
  Er  Er8  1  0.000000  0.257669  0.719445  1
  Er  Er9  1  0.000000  0.742331  0.280555  1
  In  In10  1  0.500000  0.421705  0.348047  1
  In  In11  1  0.500000  0.578295  0.651953  1
  In  In12  1  0.500000  0.078295  0.848047  1
  In  In13  1  0.500000  0.921705  0.151953  1
  In  In14  1  0.500000  0.300858  0.067554  1
  In  In15  1  0.500000  0.699142  0.932446  1
  In  In16  1  0.500000  0.199142  0.567554  1
  In  In17  1  0.500000  0.800858  0.432446  1
  Pt  Pt18  1  0.500000  0.026044  0.303613  1
  Pt  Pt19  1  0.500000  0.973956  0.696387  1
  Pt  Pt20  1  0.500000  0.473956  0.803613  1
  Pt  Pt21  1  0.500000  0.526044  0.196387  1
