# generated using pymatgen
data_Y8In2RuPt
_symmetry_space_group_name_H-M   'P 1'
_cell_length_a   9.72439909
_cell_length_b   9.71660010
_cell_length_c   9.71663443
_cell_angle_alpha   60.01453483
_cell_angle_beta   59.88743124
_cell_angle_gamma   59.88630568
_symmetry_Int_Tables_number   1
_chemical_formula_structural   Y8In2RuPt
_chemical_formula_sum   'Y16 In4 Ru2 Pt2'
_cell_volume   648.15777052
_cell_formula_units_Z   2
loop_
 _symmetry_equiv_pos_site_id
 _symmetry_equiv_pos_as_xyz
  1  'x, y, z'
loop_
 _atom_site_type_symbol
 _atom_site_label
 _atom_site_symmetry_multiplicity
 _atom_site_fract_x
 _atom_site_fract_y
 _atom_site_fract_z
 _atom_site_occupancy
  Y  Y0  1  0.441904  0.436255  0.059980  1
  Y  Y1  1  0.650029  0.643071  0.054570  1
  Y  Y2  1  0.186085  0.808950  0.196065  1
  Y  Y3  1  0.061471  0.435738  0.059820  1
  Y  Y4  1  0.192683  0.808200  0.808204  1
  Y  Y5  1  0.061016  0.439002  0.439007  1
  Y  Y6  1  0.810829  0.189958  0.189964  1
  Y  Y7  1  0.653833  0.650366  0.650350  1
  Y  Y8  1  0.809755  0.196719  0.808011  1
  Y  Y9  1  0.186078  0.196085  0.808943  1
  Y  Y10  1  0.048307  0.648263  0.648246  1
  Y  Y11  1  0.438278  0.061048  0.061036  1
  Y  Y12  1  0.061475  0.059835  0.435729  1
  Y  Y13  1  0.650053  0.054542  0.643065  1
  Y  Y14  1  0.809765  0.808012  0.196702  1
  Y  Y15  1  0.441885  0.059998  0.436251  1
  In  In16  1  0.416008  0.416907  0.416905  1
  In  In17  1  0.416611  0.417485  0.749228  1
  In  In18  1  0.416628  0.749208  0.417484  1
  In  In19  1  0.749926  0.416809  0.416816  1
  Ru  Ru20  1  0.857689  0.424317  0.860631  1
  Ru  Ru21  1  0.857668  0.860607  0.424368  1
  Pt  Pt22  1  0.426586  0.859347  0.859348  1
  Pt  Pt23  1  0.855435  0.859281  0.859280  1
