# generated using pymatgen
data_YLu5(AlAu)6
_symmetry_space_group_name_H-M   'P 1'
_cell_length_a   7.32848159
_cell_length_b   7.33043786
_cell_length_c   7.91854800
_cell_angle_alpha   90.00000000
_cell_angle_beta   90.00000000
_cell_angle_gamma   120.15432707
_symmetry_Int_Tables_number   1
_chemical_formula_structural   YLu5(AlAu)6
_chemical_formula_sum   'Y1 Lu5 Al6 Au6'
_cell_volume   367.82617262
_cell_formula_units_Z   1
loop_
 _symmetry_equiv_pos_site_id
 _symmetry_equiv_pos_as_xyz
  1  'x, y, z'
loop_
 _atom_site_type_symbol
 _atom_site_label
 _atom_site_symmetry_multiplicity
 _atom_site_fract_x
 _atom_site_fract_y
 _atom_site_fract_z
 _atom_site_occupancy
  Y  Y0  1  0.414642  0.414465  0.750000  1
  Lu  Lu1  1  0.586790  0.000222  0.750000  1
  Lu  Lu2  1  0.000531  0.587130  0.750000  1
  Lu  Lu3  1  0.000261  0.588612  0.250000  1
  Lu  Lu4  1  0.588488  0.000123  0.250000  1
  Lu  Lu5  1  0.411948  0.411984  0.250000  1
  Al  Al6  1  0.751626  0.751561  0.002435  1
  Al  Al7  1  0.248020  0.999704  0.000053  1
  Al  Al8  1  0.999765  0.248255  0.000656  1
  Al  Al9  1  0.751626  0.751561  0.497565  1
  Al  Al10  1  0.248020  0.999704  0.499947  1
  Al  Al11  1  0.999765  0.248255  0.499344  1
  Au  Au12  1  0.994796  0.995908  0.750000  1
  Au  Au13  1  0.001129  0.000258  0.250000  1
  Au  Au14  1  0.669066  0.332134  0.004229  1
  Au  Au15  1  0.669066  0.332134  0.495771  1
  Au  Au16  1  0.332232  0.668996  0.496297  1
  Au  Au17  1  0.332232  0.668996  0.003703  1
