# generated using pymatgen
data_CsSnPRh2
_symmetry_space_group_name_H-M   'P 1'
_cell_length_a   8.51989578
_cell_length_b   8.51989552
_cell_length_c   8.51989593
_cell_angle_alpha   152.43550456
_cell_angle_beta   152.43550383
_cell_angle_gamma   39.37766219
_symmetry_Int_Tables_number   1
_chemical_formula_structural   CsSnPRh2
_chemical_formula_sum   'Cs1 Sn1 P1 Rh2'
_cell_volume   132.19106375
_cell_formula_units_Z   1
loop_
 _symmetry_equiv_pos_site_id
 _symmetry_equiv_pos_as_xyz
  1  'x, y, z'
loop_
 _atom_site_type_symbol
 _atom_site_label
 _atom_site_symmetry_multiplicity
 _atom_site_fract_x
 _atom_site_fract_y
 _atom_site_fract_z
 _atom_site_occupancy
  Cs  Cs0  1  0.018462  0.018462  0.000000  1
  Sn  Sn1  1  0.343930  0.343930  0.000000  1
  P  P2  1  0.667484  0.667484  0.000000  1
  Rh  Rh3  1  0.735062  0.235062  0.500000  1
  Rh  Rh4  1  0.235062  0.735062  0.500000  1
