# generated using pymatgen
data_Ca20Rh3Au
_symmetry_space_group_name_H-M   'P 1'
_cell_length_a   6.85744402
_cell_length_b   7.56051638
_cell_length_c   16.12824700
_cell_angle_alpha   90.00000000
_cell_angle_beta   90.00000000
_cell_angle_gamma   89.87624220
_symmetry_Int_Tables_number   1
_chemical_formula_structural   Ca20Rh3Au
_chemical_formula_sum   'Ca20 Rh3 Au1'
_cell_volume   836.18020610
_cell_formula_units_Z   1
loop_
 _symmetry_equiv_pos_site_id
 _symmetry_equiv_pos_as_xyz
  1  'x, y, z'
loop_
 _atom_site_type_symbol
 _atom_site_label
 _atom_site_symmetry_multiplicity
 _atom_site_fract_x
 _atom_site_fract_y
 _atom_site_fract_z
 _atom_site_occupancy
  Ca  Ca0  1  0.351466  0.310292  0.059030  1
  Ca  Ca1  1  0.644897  0.690100  0.934772  1
  Ca  Ca2  1  0.854774  0.190908  0.935373  1
  Ca  Ca3  1  0.644897  0.690100  0.565228  1
  Ca  Ca4  1  0.149241  0.811672  0.062269  1
  Ca  Ca5  1  0.351466  0.310292  0.440970  1
  Ca  Ca6  1  0.149241  0.811672  0.437731  1
  Ca  Ca7  1  0.854774  0.190908  0.564627  1
  Ca  Ca8  1  0.141831  0.090858  0.250000  1
  Ca  Ca9  1  0.843374  0.907325  0.750000  1
  Ca  Ca10  1  0.656296  0.406083  0.750000  1
  Ca  Ca11  1  0.336719  0.605691  0.250000  1
  Ca  Ca12  1  0.322957  0.035158  0.645839  1
  Ca  Ca13  1  0.678545  0.952950  0.359210  1
  Ca  Ca14  1  0.832341  0.469355  0.358733  1
  Ca  Ca15  1  0.678545  0.952950  0.140790  1
  Ca  Ca16  1  0.176770  0.535304  0.645685  1
  Ca  Ca17  1  0.322957  0.035158  0.854161  1
  Ca  Ca18  1  0.176770  0.535304  0.854315  1
  Ca  Ca19  1  0.832341  0.469355  0.141267  1
  Rh  Rh20  1  0.464744  0.739898  0.750000  1
  Rh  Rh21  1  0.035484  0.239892  0.750000  1
  Rh  Rh22  1  0.957561  0.760466  0.250000  1
  Au  Au23  1  0.542011  0.258308  0.250000  1
