# generated using pymatgen
data_Dy3Er17Ir7Ru5
_symmetry_space_group_name_H-M   'P 1'
_cell_length_a   10.75265848
_cell_length_b   10.75706073
_cell_length_c   6.38958578
_cell_angle_alpha   89.89040083
_cell_angle_beta   89.93048596
_cell_angle_gamma   90.16942661
_symmetry_Int_Tables_number   1
_chemical_formula_structural   Dy3Er17Ir7Ru5
_chemical_formula_sum   'Dy3 Er17 Ir7 Ru5'
_cell_volume   739.05908673
_cell_formula_units_Z   1
loop_
 _symmetry_equiv_pos_site_id
 _symmetry_equiv_pos_as_xyz
  1  'x, y, z'
loop_
 _atom_site_type_symbol
 _atom_site_label
 _atom_site_symmetry_multiplicity
 _atom_site_fract_x
 _atom_site_fract_y
 _atom_site_fract_z
 _atom_site_occupancy
  Dy  Dy0  1  0.293257  0.086696  0.377222  1
  Dy  Dy1  1  0.292446  0.912907  0.877745  1
  Dy  Dy2  1  0.707956  0.087079  0.877448  1
  Er  Er3  1  0.707133  0.913418  0.376552  1
  Er  Er4  1  0.586218  0.792999  0.877872  1
  Er  Er5  1  0.587007  0.207410  0.377920  1
  Er  Er6  1  0.414153  0.792916  0.377822  1
  Er  Er7  1  0.413871  0.207373  0.877007  1
  Er  Er8  1  0.206639  0.414276  0.622207  1
  Er  Er9  1  0.206520  0.585996  0.122176  1
  Er  Er10  1  0.792916  0.413341  0.122177  1
  Er  Er11  1  0.793319  0.586076  0.623122  1
  Er  Er12  1  0.913779  0.706261  0.121969  1
  Er  Er13  1  0.913522  0.292950  0.621725  1
  Er  Er14  1  0.086330  0.706755  0.621637  1
  Er  Er15  1  0.085983  0.293083  0.123467  1
  Er  Er16  1  0.999281  0.000526  0.499432  1
  Er  Er17  1  0.999266  0.000199  0.001032  1
  Er  Er18  1  0.499861  0.500208  0.000239  1
  Er  Er19  1  0.500005  0.500147  0.499621  1
  Ir  Ir20  1  0.847109  0.845970  0.749333  1
  Ir  Ir21  1  0.152591  0.153999  0.751310  1
  Ir  Ir22  1  0.152321  0.846082  0.250997  1
  Ir  Ir23  1  0.652242  0.348469  0.749703  1
  Ir  Ir24  1  0.653219  0.652615  0.249980  1
  Ir  Ir25  1  0.347236  0.347678  0.249922  1
  Ir  Ir26  1  0.347200  0.652170  0.749617  1
  Ru  Ru27  1  0.847920  0.152794  0.251122  1
  Ru  Ru28  1  0.500909  0.000146  0.123513  1
  Ru  Ru29  1  0.500409  0.000173  0.623083  1
  Ru  Ru30  1  0.999698  0.499919  0.876434  1
  Ru  Ru31  1  0.999687  0.499367  0.376594  1
