# generated using pymatgen
data_Be6Si6NiRu11
_symmetry_space_group_name_H-M   'P 1'
_cell_length_a   4.04293800
_cell_length_b   5.71884800
_cell_length_c   12.11474200
_cell_angle_alpha   89.99972258
_cell_angle_beta   90.00057193
_cell_angle_gamma   90.00030617
_symmetry_Int_Tables_number   1
_chemical_formula_structural   Be6Si6NiRu11
_chemical_formula_sum   'Be6 Si6 Ni1 Ru11'
_cell_volume   280.10431854
_cell_formula_units_Z   1
loop_
 _symmetry_equiv_pos_site_id
 _symmetry_equiv_pos_as_xyz
  1  'x, y, z'
loop_
 _atom_site_type_symbol
 _atom_site_label
 _atom_site_symmetry_multiplicity
 _atom_site_fract_x
 _atom_site_fract_y
 _atom_site_fract_z
 _atom_site_occupancy
  Be  Be0  1  0.999995  0.497707  0.000089  1
  Be  Be1  1  0.499983  0.998519  0.165837  1
  Be  Be2  1  0.999996  0.503694  0.333353  1
  Be  Be3  1  0.499996  0.998549  0.500832  1
  Be  Be4  1  0.999995  0.497684  0.666548  1
  Be  Be5  1  0.500012  0.005860  0.833315  1
  Si  Si6  1  0.999995  0.001730  0.000061  1
  Si  Si7  1  0.499989  0.502915  0.164502  1
  Si  Si8  1  0.999997  0.995425  0.333349  1
  Si  Si9  1  0.499997  0.502893  0.502162  1
  Si  Si10  1  0.999997  0.001755  0.666582  1
  Si  Si11  1  0.500006  0.493879  0.833326  1
  Ni  Ni12  1  0.000086  0.751239  0.833405  1
  Ru  Ru13  1  0.499996  0.249397  0.999650  1
  Ru  Ru14  1  0.499995  0.750460  0.991895  1
  Ru  Ru15  1  0.999995  0.249698  0.168158  1
  Ru  Ru16  1  0.999986  0.749404  0.163783  1
  Ru  Ru17  1  0.499996  0.250904  0.333319  1
  Ru  Ru18  1  0.499994  0.749374  0.333335  1
  Ru  Ru19  1  0.999997  0.249705  0.498498  1
  Ru  Ru20  1  0.999996  0.749388  0.502894  1
  Ru  Ru21  1  0.499998  0.249401  0.667011  1
  Ru  Ru22  1  0.500000  0.750470  0.674771  1
  Ru  Ru23  1  0.000002  0.249948  0.833325  1
