# generated using pymatgen
data_EuYTmTaO7
_symmetry_space_group_name_H-M   'P 1'
_cell_length_a   6.47059784
_cell_length_b   6.44545438
_cell_length_c   7.54194000
_cell_angle_alpha   90.00000000
_cell_angle_beta   90.00000000
_cell_angle_gamma   108.91854724
_symmetry_Int_Tables_number   1
_chemical_formula_structural   EuYTmTaO7
_chemical_formula_sum   'Eu2 Y2 Tm2 Ta2 O14'
_cell_volume   297.55221170
_cell_formula_units_Z   2
loop_
 _symmetry_equiv_pos_site_id
 _symmetry_equiv_pos_as_xyz
  1  'x, y, z'
loop_
 _atom_site_type_symbol
 _atom_site_label
 _atom_site_symmetry_multiplicity
 _atom_site_fract_x
 _atom_site_fract_y
 _atom_site_fract_z
 _atom_site_occupancy
  Eu  Eu0  1  0.504042  0.503691  0.500047  1
  Eu  Eu1  1  0.495958  0.496309  0.000047  1
  Y  Y2  1  0.534473  0.999606  0.751566  1
  Y  Y3  1  0.465527  0.000394  0.251566  1
  Tm  Tm4  1  0.999002  0.467010  0.748583  1
  Tm  Tm5  1  0.000998  0.532990  0.248583  1
  Ta  Ta6  1  0.999917  0.999924  0.500039  1
  Ta  Ta7  1  0.000083  0.000076  0.000039  1
  O  O8  1  0.644143  0.361926  0.750068  1
  O  O9  1  0.355857  0.638074  0.250068  1
  O  O10  1  0.936099  0.069455  0.750002  1
  O  O11  1  0.063901  0.930545  0.250002  1
  O  O12  1  0.934342  0.677999  0.533020  1
  O  O13  1  0.065658  0.322001  0.033020  1
  O  O14  1  0.322202  0.072957  0.969545  1
  O  O15  1  0.677798  0.927043  0.469545  1
  O  O16  1  0.361011  0.630244  0.749850  1
  O  O17  1  0.638989  0.369756  0.249850  1
  O  O18  1  0.939066  0.681425  0.963325  1
  O  O19  1  0.060934  0.318575  0.463325  1
  O  O20  1  0.319109  0.068641  0.533955  1
  O  O21  1  0.680891  0.931359  0.033955  1
