# generated using pymatgen
data_Tm8MoRuI8
_symmetry_space_group_name_H-M   'P 1'
_cell_length_a   11.28787145
_cell_length_b   11.28787256
_cell_length_c   6.13611700
_cell_angle_alpha   89.23868331
_cell_angle_beta   89.23868831
_cell_angle_gamma   88.65415335
_symmetry_Int_Tables_number   1
_chemical_formula_structural   Tm8MoRuI8
_chemical_formula_sum   'Tm8 Mo1 Ru1 I8'
_cell_volume   781.48929805
_cell_formula_units_Z   1
loop_
 _symmetry_equiv_pos_site_id
 _symmetry_equiv_pos_as_xyz
  1  'x, y, z'
loop_
 _atom_site_type_symbol
 _atom_site_label
 _atom_site_symmetry_multiplicity
 _atom_site_fract_x
 _atom_site_fract_y
 _atom_site_fract_z
 _atom_site_occupancy
  Tm  Tm0  1  0.196201  0.917288  0.995806  1
  Tm  Tm1  1  0.803789  0.082739  0.004805  1
  Tm  Tm2  1  0.082712  0.803799  0.504194  1
  Tm  Tm3  1  0.917261  0.196211  0.495195  1
  Tm  Tm4  1  0.805532  0.921998  0.506825  1
  Tm  Tm5  1  0.194540  0.078064  0.492538  1
  Tm  Tm6  1  0.078002  0.194468  0.993175  1
  Tm  Tm7  1  0.921936  0.805460  0.007462  1
  Mo  Mo8  1  0.000266  0.999734  0.250000  1
  Ru  Ru9  1  0.999721  0.000279  0.750000  1
  I  I10  1  0.357206  0.848210  0.513021  1
  I  I11  1  0.642779  0.151755  0.487286  1
  I  I12  1  0.151790  0.642794  0.986979  1
  I  I13  1  0.848245  0.357221  0.012714  1
  I  I14  1  0.352197  0.145328  0.995465  1
  I  I15  1  0.647814  0.854664  0.004229  1
  I  I16  1  0.854672  0.647803  0.504535  1
  I  I17  1  0.145336  0.352186  0.495771  1
