# generated using pymatgen
data_Tb5ErU4O20
_symmetry_space_group_name_H-M   'P 1'
_cell_length_a   6.65979931
_cell_length_b   7.51735545
_cell_length_c   8.42292886
_cell_angle_alpha   100.94754048
_cell_angle_beta   97.66127227
_cell_angle_gamma   107.24872777
_symmetry_Int_Tables_number   1
_chemical_formula_structural   Tb5ErU4O20
_chemical_formula_sum   'Tb5 Er1 U4 O20'
_cell_volume   387.22224272
_cell_formula_units_Z   1
loop_
 _symmetry_equiv_pos_site_id
 _symmetry_equiv_pos_as_xyz
  1  'x, y, z'
loop_
 _atom_site_type_symbol
 _atom_site_label
 _atom_site_symmetry_multiplicity
 _atom_site_fract_x
 _atom_site_fract_y
 _atom_site_fract_z
 _atom_site_occupancy
  Tb  Tb0  1  0.614347  0.703318  0.699396  1
  Tb  Tb1  1  0.385653  0.296682  0.300604  1
  Tb  Tb2  1  0.197603  0.896326  0.891706  1
  Tb  Tb3  1  0.802397  0.103674  0.108294  1
  Tb  Tb4  1  0.000000  0.000000  0.500000  1
  Er  Er5  1  0.000000  0.500000  0.500000  1
  U  U6  1  0.400994  0.803893  0.302081  1
  U  U7  1  0.198821  0.399877  0.898690  1
  U  U8  1  0.801179  0.600123  0.101310  1
  U  U9  1  0.599006  0.196107  0.697919  1
  O  O10  1  0.439697  0.532133  0.137100  1
  O  O11  1  0.555637  0.987764  0.841025  1
  O  O12  1  0.268860  0.144582  0.745003  1
  O  O13  1  0.358643  0.594494  0.442532  1
  O  O14  1  0.053480  0.727287  0.333702  1
  O  O15  1  0.444363  0.012236  0.158975  1
  O  O16  1  0.150275  0.183975  0.031836  1
  O  O17  1  0.560303  0.467867  0.862900  1
  O  O18  1  0.854508  0.336466  0.949872  1
  O  O19  1  0.256147  0.605791  0.758296  1
  O  O20  1  0.953793  0.769217  0.650732  1
  O  O21  1  0.353745  0.062226  0.453036  1
  O  O22  1  0.646255  0.937774  0.546964  1
  O  O23  1  0.046207  0.230783  0.349268  1
  O  O24  1  0.743853  0.394209  0.241704  1
  O  O25  1  0.145492  0.663534  0.050128  1
  O  O26  1  0.849725  0.816025  0.968164  1
  O  O27  1  0.946520  0.272713  0.666298  1
  O  O28  1  0.641357  0.405506  0.557468  1
  O  O29  1  0.731140  0.855418  0.254997  1
