# generated using pymatgen
data_BaSr2GaF9
_symmetry_space_group_name_H-M   'P 1'
_cell_length_a   5.75454975
_cell_length_b   5.75442880
_cell_length_c   12.97332443
_cell_angle_alpha   91.40675382
_cell_angle_beta   101.40154522
_cell_angle_gamma   91.17533774
_symmetry_Int_Tables_number   1
_chemical_formula_structural   BaSr2GaF9
_chemical_formula_sum   'Ba2 Sr4 Ga2 F18'
_cell_volume   420.85479039
_cell_formula_units_Z   2
loop_
 _symmetry_equiv_pos_site_id
 _symmetry_equiv_pos_as_xyz
  1  'x, y, z'
loop_
 _atom_site_type_symbol
 _atom_site_label
 _atom_site_symmetry_multiplicity
 _atom_site_fract_x
 _atom_site_fract_y
 _atom_site_fract_z
 _atom_site_occupancy
  Ba  Ba0  1  0.712356  0.735377  0.899496  1
  Ba  Ba1  1  0.287644  0.264623  0.100504  1
  Sr  Sr2  1  0.957862  0.243701  0.383395  1
  Sr  Sr3  1  0.042138  0.756299  0.616605  1
  Sr  Sr4  1  0.554120  0.265183  0.615817  1
  Sr  Sr5  1  0.445880  0.734817  0.384183  1
  Ga  Ga6  1  0.796908  0.789987  0.177106  1
  Ga  Ga7  1  0.203092  0.210013  0.822894  1
  F  F8  1  0.156345  0.961986  0.913467  1
  F  F9  1  0.843655  0.038014  0.086533  1
  F  F10  1  0.266525  0.445469  0.728953  1
  F  F11  1  0.733475  0.554531  0.271047  1
  F  F12  1  0.620928  0.003410  0.254698  1
  F  F13  1  0.379072  0.996590  0.745302  1
  F  F14  1  0.958770  0.591466  0.097765  1
  F  F15  1  0.041230  0.408534  0.902235  1
  F  F16  1  0.076944  0.895910  0.275492  1
  F  F17  1  0.923056  0.104090  0.724508  1
  F  F18  1  0.504555  0.703661  0.083421  1
  F  F19  1  0.495445  0.296339  0.916579  1
  F  F20  1  0.748284  0.995619  0.497837  1
  F  F21  1  0.251716  0.004381  0.502163  1
  F  F22  1  0.750103  0.491510  0.494122  1
  F  F23  1  0.249897  0.508490  0.505878  1
  F  F24  1  0.741630  0.614733  0.708589  1
  F  F25  1  0.258370  0.385267  0.291411  1
