# generated using pymatgen
data_Nb4FeCo3Si4
_symmetry_space_group_name_H-M   'P 1'
_cell_length_a   3.68232300
_cell_length_b   6.26854584
_cell_length_c   7.06634876
_cell_angle_alpha   90.23309484
_cell_angle_beta   90.00000000
_cell_angle_gamma   90.00000000
_symmetry_Int_Tables_number   1
_chemical_formula_structural   Nb4FeCo3Si4
_chemical_formula_sum   'Nb4 Fe1 Co3 Si4'
_cell_volume   163.10983982
_cell_formula_units_Z   1
loop_
 _symmetry_equiv_pos_site_id
 _symmetry_equiv_pos_as_xyz
  1  'x, y, z'
loop_
 _atom_site_type_symbol
 _atom_site_label
 _atom_site_symmetry_multiplicity
 _atom_site_fract_x
 _atom_site_fract_y
 _atom_site_fract_z
 _atom_site_occupancy
  Nb  Nb0  1  0.250000  0.519661  0.179458  1
  Nb  Nb1  1  0.750000  0.478819  0.821226  1
  Nb  Nb2  1  0.750000  0.983113  0.683367  1
  Nb  Nb3  1  0.250000  0.020717  0.317932  1
  Fe  Fe4  1  0.250000  0.141437  0.935801  1
  Co  Co5  1  0.250000  0.642007  0.562577  1
  Co  Co6  1  0.750000  0.358273  0.436409  1
  Co  Co7  1  0.750000  0.855674  0.063577  1
  Si  Si8  1  0.250000  0.775673  0.882619  1
  Si  Si9  1  0.750000  0.222432  0.116507  1
  Si  Si10  1  0.750000  0.724680  0.383523  1
  Si  Si11  1  0.250000  0.277515  0.617005  1
