# generated using pymatgen
data_Nd4Mn3Al2Co3O20
_symmetry_space_group_name_H-M   'P 1'
_cell_length_a   5.73918500
_cell_length_b   7.50304916
_cell_length_c   8.60453422
_cell_angle_alpha   89.22609809
_cell_angle_beta   90.00000000
_cell_angle_gamma   90.00000000
_symmetry_Int_Tables_number   1
_chemical_formula_structural   Nd4Mn3Al2Co3O20
_chemical_formula_sum   'Nd4 Mn3 Al2 Co3 O20'
_cell_volume   370.48938069
_cell_formula_units_Z   1
loop_
 _symmetry_equiv_pos_site_id
 _symmetry_equiv_pos_as_xyz
  1  'x, y, z'
loop_
 _atom_site_type_symbol
 _atom_site_label
 _atom_site_symmetry_multiplicity
 _atom_site_fract_x
 _atom_site_fract_y
 _atom_site_fract_z
 _atom_site_occupancy
  Nd  Nd0  1  0.001098  0.366887  0.673917  1
  Nd  Nd1  1  0.001098  0.633113  0.326083  1
  Nd  Nd2  1  0.001449  0.854084  0.830885  1
  Nd  Nd3  1  0.001449  0.145916  0.169115  1
  Mn  Mn4  1  0.744270  0.000000  0.500000  1
  Mn  Mn5  1  0.737298  0.500000  0.000000  1
  Mn  Mn6  1  0.255550  0.000000  0.500000  1
  Al  Al7  1  0.501780  0.606575  0.639637  1
  Al  Al8  1  0.501780  0.393425  0.360363  1
  Co  Co9  1  0.499653  0.090538  0.850851  1
  Co  Co10  1  0.499653  0.909462  0.149149  1
  Co  Co11  1  0.259439  0.500000  0.000000  1
  O  O12  1  0.249360  0.901642  0.292546  1
  O  O13  1  0.249360  0.098358  0.707454  1
  O  O14  1  0.741636  0.400985  0.212125  1
  O  O15  1  0.741636  0.599015  0.787875  1
  O  O16  1  0.750626  0.098775  0.707672  1
  O  O17  1  0.750626  0.901225  0.292328  1
  O  O18  1  0.257864  0.596184  0.789601  1
  O  O19  1  0.257864  0.403816  0.210399  1
  O  O20  1  0.497049  0.342922  0.938611  1
  O  O21  1  0.497049  0.657078  0.061389  1
  O  O22  1  0.499660  0.841149  0.569277  1
  O  O23  1  0.499660  0.158851  0.430723  1
  O  O24  1  0.280870  0.000000  0.000000  1
  O  O25  1  0.714593  0.500000  0.500000  1
  O  O26  1  0.718464  0.000000  0.000000  1
  O  O27  1  0.286654  0.500000  0.500000  1
  O  O28  1  0.000103  0.158358  0.448308  1
  O  O29  1  0.000103  0.841642  0.551692  1
  O  O30  1  0.001152  0.655790  0.051233  1
  O  O31  1  0.001152  0.344210  0.948767  1
