# generated using pymatgen
data_Sm5MnPtO12
_symmetry_space_group_name_H-M   'P 1'
_cell_length_a   6.99802733
_cell_length_b   6.99802761
_cell_length_c   7.44346793
_cell_angle_alpha   74.54635715
_cell_angle_beta   74.54635974
_cell_angle_gamma   50.50446095
_symmetry_Int_Tables_number   1
_chemical_formula_structural   Sm5MnPtO12
_chemical_formula_sum   'Sm5 Mn1 Pt1 O12'
_cell_volume   268.80934160
_cell_formula_units_Z   1
loop_
 _symmetry_equiv_pos_site_id
 _symmetry_equiv_pos_as_xyz
  1  'x, y, z'
loop_
 _atom_site_type_symbol
 _atom_site_label
 _atom_site_symmetry_multiplicity
 _atom_site_fract_x
 _atom_site_fract_y
 _atom_site_fract_z
 _atom_site_occupancy
  Sm  Sm0  1  0.297996  0.308419  0.358506  1
  Sm  Sm1  1  0.691581  0.702004  0.641494  1
  Sm  Sm2  1  0.694511  0.693859  0.165551  1
  Sm  Sm3  1  0.306141  0.305489  0.834449  1
  Sm  Sm4  1  0.001825  0.998175  0.500000  1
  Mn  Mn5  1  0.247242  0.752758  0.000000  1
  Pt  Pt6  1  0.755544  0.244456  0.000000  1
  O  O7  1  0.094818  0.598100  0.576237  1
  O  O8  1  0.010729  0.988218  0.176530  1
  O  O9  1  0.401900  0.905182  0.423763  1
  O  O10  1  0.492779  0.507534  0.177678  1
  O  O11  1  0.102093  0.579817  0.079354  1
  O  O12  1  0.902288  0.402440  0.424765  1
  O  O13  1  0.011782  0.989271  0.823470  1
  O  O14  1  0.597560  0.097711  0.575235  1
  O  O15  1  0.492466  0.507221  0.822322  1
  O  O16  1  0.575486  0.096924  0.081275  1
  O  O17  1  0.420183  0.897907  0.920646  1
  O  O18  1  0.903076  0.424514  0.918725  1
