# generated using pymatgen
data_CsRh2F12
_symmetry_space_group_name_H-M   'P 1'
_cell_length_a   6.09194153
_cell_length_b   6.15004816
_cell_length_c   10.12537650
_cell_angle_alpha   98.15742295
_cell_angle_beta   94.75491810
_cell_angle_gamma   118.55944459
_symmetry_Int_Tables_number   1
_chemical_formula_structural   CsRh2F12
_chemical_formula_sum   'Cs1 Rh2 F12'
_cell_volume   324.82983636
_cell_formula_units_Z   1
loop_
 _symmetry_equiv_pos_site_id
 _symmetry_equiv_pos_as_xyz
  1  'x, y, z'
loop_
 _atom_site_type_symbol
 _atom_site_label
 _atom_site_symmetry_multiplicity
 _atom_site_fract_x
 _atom_site_fract_y
 _atom_site_fract_z
 _atom_site_occupancy
  Cs  Cs0  1  0.992513  0.968584  0.934392  1
  Rh  Rh1  1  0.219045  0.499778  0.590862  1
  Rh  Rh2  1  0.375559  0.692552  0.131077  1
  F  F3  1  0.246936  0.872446  0.232121  1
  F  F4  1  0.526692  0.646772  0.716090  1
  F  F5  1  0.065025  0.523493  0.004399  1
  F  F6  1  0.236911  0.425498  0.224858  1
  F  F7  1  0.497777  0.510248  0.021021  1
  F  F8  1  0.314928  0.287660  0.492306  1
  F  F9  1  0.686199  0.857209  0.250018  1
  F  F10  1  0.126440  0.714521  0.694712  1
  F  F11  1  0.912783  0.355202  0.470124  1
  F  F12  1  0.062361  0.255262  0.697560  1
  F  F13  1  0.378351  0.748741  0.490307  1
  F  F14  1  0.506481  0.952035  0.028149  1
