# generated using pymatgen
data_Rb8HfAs4
_symmetry_space_group_name_H-M   'P 1'
_cell_length_a   11.46619375
_cell_length_b   11.46619381
_cell_length_c   11.46619400
_cell_angle_alpha   59.99999946
_cell_angle_beta   59.99999928
_cell_angle_gamma   59.99999970
_symmetry_Int_Tables_number   1
_chemical_formula_structural   Rb8HfAs4
_chemical_formula_sum   'Rb16 Hf2 As8'
_cell_volume   1065.96473373
_cell_formula_units_Z   2
loop_
 _symmetry_equiv_pos_site_id
 _symmetry_equiv_pos_as_xyz
  1  'x, y, z'
loop_
 _atom_site_type_symbol
 _atom_site_label
 _atom_site_symmetry_multiplicity
 _atom_site_fract_x
 _atom_site_fract_y
 _atom_site_fract_z
 _atom_site_occupancy
  Rb  Rb0  1  0.625000  0.625000  0.125000  1
  Rb  Rb1  1  0.625000  0.125000  0.625000  1
  Rb  Rb2  1  0.125000  0.625000  0.625000  1
  Rb  Rb3  1  0.625000  0.625000  0.625000  1
  Rb  Rb4  1  0.029312  0.470688  0.470688  1
  Rb  Rb5  1  0.779312  0.220688  0.220688  1
  Rb  Rb6  1  0.470688  0.029312  0.470688  1
  Rb  Rb7  1  0.470688  0.470688  0.029312  1
  Rb  Rb8  1  0.029312  0.029312  0.470688  1
  Rb  Rb9  1  0.029312  0.470688  0.029312  1
  Rb  Rb10  1  0.470688  0.029312  0.029312  1
  Rb  Rb11  1  0.779312  0.220688  0.779312  1
  Rb  Rb12  1  0.220688  0.779312  0.220688  1
  Rb  Rb13  1  0.220688  0.220688  0.779312  1
  Rb  Rb14  1  0.779312  0.779312  0.220688  1
  Rb  Rb15  1  0.220688  0.779312  0.779312  1
  Hf  Hf16  1  0.750000  0.750000  0.750000  1
  Hf  Hf17  1  0.500000  0.500000  0.500000  1
  As  As18  1  0.845636  0.845636  0.463094  1
  As  As19  1  0.845636  0.463094  0.845636  1
  As  As20  1  0.404364  0.404364  0.786906  1
  As  As21  1  0.404364  0.786906  0.404364  1
  As  As22  1  0.786906  0.404364  0.404364  1
  As  As23  1  0.845636  0.845636  0.845636  1
  As  As24  1  0.463094  0.845636  0.845636  1
  As  As25  1  0.404364  0.404364  0.404364  1
