# generated using pymatgen
data_Dy16In3HgRh4
_symmetry_space_group_name_H-M   'P 1'
_cell_length_a   9.66885297
_cell_length_b   9.66885278
_cell_length_c   9.63510261
_cell_angle_alpha   59.88405213
_cell_angle_beta   59.88405443
_cell_angle_gamma   59.99999899
_symmetry_Int_Tables_number   1
_chemical_formula_structural   Dy16In3HgRh4
_chemical_formula_sum   'Dy16 In3 Hg1 Rh4'
_cell_volume   635.81080433
_cell_formula_units_Z   1
loop_
 _symmetry_equiv_pos_site_id
 _symmetry_equiv_pos_as_xyz
  1  'x, y, z'
loop_
 _atom_site_type_symbol
 _atom_site_label
 _atom_site_symmetry_multiplicity
 _atom_site_fract_x
 _atom_site_fract_y
 _atom_site_fract_z
 _atom_site_occupancy
  Dy  Dy0  1  0.688617  0.311700  0.311065  1
  Dy  Dy1  1  0.688617  0.688617  0.311065  1
  Dy  Dy2  1  0.311700  0.688617  0.311065  1
  Dy  Dy3  1  0.936907  0.936907  0.560115  1
  Dy  Dy4  1  0.149695  0.149695  0.550915  1
  Dy  Dy5  1  0.566071  0.936907  0.560115  1
  Dy  Dy6  1  0.149467  0.149467  0.149470  1
  Dy  Dy7  1  0.310964  0.310964  0.689033  1
  Dy  Dy8  1  0.936907  0.566071  0.560115  1
  Dy  Dy9  1  0.563093  0.563093  0.936271  1
  Dy  Dy10  1  0.563093  0.937544  0.936271  1
  Dy  Dy11  1  0.937544  0.563093  0.936271  1
  Dy  Dy12  1  0.149467  0.551594  0.149470  1
  Dy  Dy13  1  0.310964  0.689040  0.689033  1
  Dy  Dy14  1  0.689040  0.310964  0.689033  1
  Dy  Dy15  1  0.551594  0.149467  0.149470  1
  In  In16  1  0.248311  0.916826  0.918037  1
  In  In17  1  0.916826  0.248311  0.918037  1
  In  In18  1  0.916826  0.916826  0.918037  1
  Hg  Hg19  1  0.914686  0.914686  0.255943  1
  Rh  Rh20  1  0.357444  0.357444  0.357142  1
  Rh  Rh21  1  0.927972  0.357444  0.357142  1
  Rh  Rh22  1  0.356753  0.356753  0.929742  1
  Rh  Rh23  1  0.357444  0.927972  0.357142  1
