# generated using pymatgen
data_YbS4(BrO8)2
_symmetry_space_group_name_H-M   'P 1'
_cell_length_a   6.48963821
_cell_length_b   6.48963850
_cell_length_c   8.94434700
_cell_angle_alpha   73.93652242
_cell_angle_beta   73.93652168
_cell_angle_gamma   87.60220782
_symmetry_Int_Tables_number   1
_chemical_formula_structural   YbS4(BrO8)2
_chemical_formula_sum   'Yb1 S4 Br2 O16'
_cell_volume   347.60745170
_cell_formula_units_Z   1
loop_
 _symmetry_equiv_pos_site_id
 _symmetry_equiv_pos_as_xyz
  1  'x, y, z'
loop_
 _atom_site_type_symbol
 _atom_site_label
 _atom_site_symmetry_multiplicity
 _atom_site_fract_x
 _atom_site_fract_y
 _atom_site_fract_z
 _atom_site_occupancy
  Yb  Yb0  1  0.000000  0.000000  0.000000  1
  S  S1  1  0.084423  0.587567  0.748628  1
  S  S2  1  0.587567  0.084423  0.748628  1
  S  S3  1  0.915577  0.412433  0.251372  1
  S  S4  1  0.412433  0.915577  0.251372  1
  Br  Br5  1  0.000000  0.000000  0.500000  1
  Br  Br6  1  0.500000  0.500000  0.500000  1
  O  O7  1  0.328966  0.636667  0.676021  1
  O  O8  1  0.636667  0.328966  0.676021  1
  O  O9  1  0.671034  0.363333  0.323979  1
  O  O10  1  0.363333  0.671034  0.323979  1
  O  O11  1  0.018461  0.710160  0.865507  1
  O  O12  1  0.710160  0.018461  0.865507  1
  O  O13  1  0.981539  0.289840  0.134493  1
  O  O14  1  0.289840  0.981539  0.134493  1
  O  O15  1  0.984326  0.673053  0.604996  1
  O  O16  1  0.673053  0.984326  0.604996  1
  O  O17  1  0.015674  0.326947  0.395004  1
  O  O18  1  0.326947  0.015674  0.395004  1
  O  O19  1  0.034378  0.358809  0.803952  1
  O  O20  1  0.358809  0.034378  0.803952  1
  O  O21  1  0.965622  0.641191  0.196048  1
  O  O22  1  0.641191  0.965622  0.196048  1
