# generated using pymatgen
data_Zr12Al3V(Os2N)4
_symmetry_space_group_name_H-M   'P 1'
_cell_length_a   8.59003206
_cell_length_b   8.59003201
_cell_length_c   8.57000971
_cell_angle_alpha   59.92268548
_cell_angle_beta   59.92268947
_cell_angle_gamma   60.00000442
_symmetry_Int_Tables_number   1
_chemical_formula_structural   Zr12Al3V(Os2N)4
_chemical_formula_sum   'Zr12 Al3 V1 Os8 N4'
_cell_volume   446.62949558
_cell_formula_units_Z   1
loop_
 _symmetry_equiv_pos_site_id
 _symmetry_equiv_pos_as_xyz
  1  'x, y, z'
loop_
 _atom_site_type_symbol
 _atom_site_label
 _atom_site_symmetry_multiplicity
 _atom_site_fract_x
 _atom_site_fract_y
 _atom_site_fract_z
 _atom_site_occupancy
  Zr  Zr0  1  0.807181  0.807181  0.194546  1
  Zr  Zr1  1  0.192697  0.192697  0.808437  1
  Zr  Zr2  1  0.806169  0.192697  0.808437  1
  Zr  Zr3  1  0.191091  0.807181  0.194546  1
  Zr  Zr4  1  0.192697  0.806169  0.808437  1
  Zr  Zr5  1  0.807181  0.191091  0.194546  1
  Zr  Zr6  1  0.442819  0.442819  0.055454  1
  Zr  Zr7  1  0.057303  0.057303  0.441563  1
  Zr  Zr8  1  0.443831  0.057303  0.441563  1
  Zr  Zr9  1  0.058909  0.442819  0.055454  1
  Zr  Zr10  1  0.057303  0.443831  0.441563  1
  Zr  Zr11  1  0.442819  0.058909  0.055454  1
  Al  Al12  1  0.125000  0.625000  0.625000  1
  Al  Al13  1  0.625000  0.125000  0.625000  1
  Al  Al14  1  0.625000  0.625000  0.625000  1
  V  V15  1  0.625000  0.625000  0.125000  1
  Os  Os16  1  0.746156  0.420858  0.412126  1
  Os  Os17  1  0.420858  0.746156  0.412126  1
  Os  Os18  1  0.419977  0.419977  0.740067  1
  Os  Os19  1  0.420858  0.420858  0.412126  1
  Os  Os20  1  0.503844  0.829142  0.837874  1
  Os  Os21  1  0.829142  0.503844  0.837874  1
  Os  Os22  1  0.830023  0.830023  0.509933  1
  Os  Os23  1  0.829142  0.829142  0.837874  1
  N  N24  1  0.625000  0.125000  0.125000  1
  N  N25  1  0.125000  0.625000  0.125000  1
  N  N26  1  0.125000  0.125000  0.625000  1
  N  N27  1  0.125000  0.125000  0.125000  1
