# generated using pymatgen
data_Dy10PPb6S
_symmetry_space_group_name_H-M   'P 1'
_cell_length_a   9.15266700
_cell_length_b   9.15266663
_cell_length_c   6.79623800
_cell_angle_alpha   90.00000000
_cell_angle_beta   90.00000000
_cell_angle_gamma   119.99999771
_symmetry_Int_Tables_number   1
_chemical_formula_structural   Dy10PPb6S
_chemical_formula_sum   'Dy10 P1 Pb6 S1'
_cell_volume   493.05404613
_cell_formula_units_Z   1
loop_
 _symmetry_equiv_pos_site_id
 _symmetry_equiv_pos_as_xyz
  1  'x, y, z'
loop_
 _atom_site_type_symbol
 _atom_site_label
 _atom_site_symmetry_multiplicity
 _atom_site_fract_x
 _atom_site_fract_y
 _atom_site_fract_z
 _atom_site_occupancy
  Dy  Dy0  1  0.239206  0.000000  0.251918  1
  Dy  Dy1  1  0.760794  0.000000  0.748082  1
  Dy  Dy2  1  0.000000  0.239206  0.251918  1
  Dy  Dy3  1  0.000000  0.760794  0.748082  1
  Dy  Dy4  1  0.760794  0.760794  0.251918  1
  Dy  Dy5  1  0.239206  0.239206  0.748082  1
  Dy  Dy6  1  0.333333  0.666667  0.000000  1
  Dy  Dy7  1  0.666667  0.333333  0.000000  1
  Dy  Dy8  1  0.666667  0.333333  0.500000  1
  Dy  Dy9  1  0.333333  0.666667  0.500000  1
  P  P10  1  0.000000  0.000000  0.500000  1
  Pb  Pb11  1  0.601078  0.000000  0.250459  1
  Pb  Pb12  1  0.398922  0.000000  0.749541  1
  Pb  Pb13  1  0.000000  0.601078  0.250459  1
  Pb  Pb14  1  0.000000  0.398922  0.749541  1
  Pb  Pb15  1  0.398922  0.398922  0.250459  1
  Pb  Pb16  1  0.601078  0.601078  0.749541  1
  S  S17  1  0.000000  0.000000  0.000000  1
