# generated using pymatgen
data_Hg4SbSe2Cl5
_symmetry_space_group_name_H-M   'P 1'
_cell_length_a   8.47560936
_cell_length_b   10.81590100
_cell_length_c   9.18013637
_cell_angle_alpha   90.00000000
_cell_angle_beta   113.36222373
_cell_angle_gamma   90.00000000
_symmetry_Int_Tables_number   1
_chemical_formula_structural   Hg4SbSe2Cl5
_chemical_formula_sum   'Hg8 Sb2 Se4 Cl10'
_cell_volume   772.56165378
_cell_formula_units_Z   2
loop_
 _symmetry_equiv_pos_site_id
 _symmetry_equiv_pos_as_xyz
  1  'x, y, z'
loop_
 _atom_site_type_symbol
 _atom_site_label
 _atom_site_symmetry_multiplicity
 _atom_site_fract_x
 _atom_site_fract_y
 _atom_site_fract_z
 _atom_site_occupancy
  Hg  Hg0  1  0.928470  0.178938  0.330634  1
  Hg  Hg1  1  0.071530  0.678938  0.669366  1
  Hg  Hg2  1  0.954447  0.668544  0.358316  1
  Hg  Hg3  1  0.045553  0.168544  0.641684  1
  Hg  Hg4  1  0.495696  0.182641  0.991443  1
  Hg  Hg5  1  0.504304  0.682641  0.008557  1
  Hg  Hg6  1  0.802811  0.432282  0.002386  1
  Hg  Hg7  1  0.197189  0.932282  0.997614  1
  Sb  Sb8  1  0.498205  0.426885  0.508515  1
  Sb  Sb9  1  0.501795  0.926885  0.491485  1
  Se  Se10  1  0.804602  0.196002  0.021872  1
  Se  Se11  1  0.195398  0.696002  0.978128  1
  Se  Se12  1  0.184091  0.166156  0.951319  1
  Se  Se13  1  0.815909  0.666156  0.048681  1
  Cl  Cl14  1  0.825655  0.919988  0.677159  1
  Cl  Cl15  1  0.174345  0.419988  0.322841  1
  Cl  Cl16  1  0.845482  0.432270  0.706772  1
  Cl  Cl17  1  0.154518  0.932270  0.293228  1
  Cl  Cl18  1  0.418798  0.454481  0.772932  1
  Cl  Cl19  1  0.581202  0.954481  0.227068  1
  Cl  Cl20  1  0.587276  0.390211  0.272599  1
  Cl  Cl21  1  0.412724  0.890211  0.727401  1
  Cl  Cl22  1  0.497616  0.205202  0.561113  1
  Cl  Cl23  1  0.502384  0.705202  0.438887  1
