# generated using pymatgen
data_Tb4YMoRuO12
_symmetry_space_group_name_H-M   'P 1'
_cell_length_a   6.86453422
_cell_length_b   6.86521394
_cell_length_c   7.56467687
_cell_angle_alpha   73.70772127
_cell_angle_beta   73.76448694
_cell_angle_gamma   49.56008923
_symmetry_Int_Tables_number   1
_chemical_formula_structural   Tb4YMoRuO12
_chemical_formula_sum   'Tb4 Y1 Mo1 Ru1 O12'
_cell_volume   258.09381881
_cell_formula_units_Z   1
loop_
 _symmetry_equiv_pos_site_id
 _symmetry_equiv_pos_as_xyz
  1  'x, y, z'
loop_
 _atom_site_type_symbol
 _atom_site_label
 _atom_site_symmetry_multiplicity
 _atom_site_fract_x
 _atom_site_fract_y
 _atom_site_fract_z
 _atom_site_occupancy
  Tb  Tb0  1  0.492309  0.507369  0.500242  1
  Tb  Tb1  1  0.180551  0.192303  0.174394  1
  Tb  Tb2  1  0.808004  0.819254  0.825761  1
  Tb  Tb3  1  0.792192  0.816259  0.358839  1
  Y  Y4  1  0.183841  0.207600  0.641248  1
  Mo  Mo5  1  0.298398  0.701768  0.999962  1
  Ru  Ru6  1  0.736961  0.263074  0.999847  1
  O  O7  1  0.007703  0.990789  0.177968  1
  O  O8  1  0.009290  0.992855  0.821245  1
  O  O9  1  0.504026  0.494075  0.798051  1
  O  O10  1  0.506228  0.495797  0.202100  1
  O  O11  1  0.588070  0.099066  0.577016  1
  O  O12  1  0.901079  0.411404  0.423400  1
  O  O13  1  0.392813  0.911150  0.428932  1
  O  O14  1  0.406658  0.911598  0.917530  1
  O  O15  1  0.088456  0.593476  0.082129  1
  O  O16  1  0.586941  0.073061  0.084655  1
  O  O17  1  0.927297  0.412590  0.914790  1
  O  O18  1  0.089184  0.606512  0.571889  1
