# generated using pymatgen
data_Pa8Zn(FeO8)3
_symmetry_space_group_name_H-M   'P 1'
_cell_length_a   5.39243200
_cell_length_b   5.35925260
_cell_length_c   15.87071999
_cell_angle_alpha   89.53405898
_cell_angle_beta   90.00000000
_cell_angle_gamma   90.00000000
_symmetry_Int_Tables_number   1
_chemical_formula_structural   Pa8Zn(FeO8)3
_chemical_formula_sum   'Pa8 Zn1 Fe3 O24'
_cell_volume   458.63920241
_cell_formula_units_Z   1
loop_
 _symmetry_equiv_pos_site_id
 _symmetry_equiv_pos_as_xyz
  1  'x, y, z'
loop_
 _atom_site_type_symbol
 _atom_site_label
 _atom_site_symmetry_multiplicity
 _atom_site_fract_x
 _atom_site_fract_y
 _atom_site_fract_z
 _atom_site_occupancy
  Pa  Pa0  1  0.256339  0.458661  0.657803  1
  Pa  Pa1  1  0.244126  0.955705  0.841680  1
  Pa  Pa2  1  0.244126  0.044295  0.158320  1
  Pa  Pa3  1  0.256339  0.541339  0.342197  1
  Pa  Pa4  1  0.746350  0.040904  0.342047  1
  Pa  Pa5  1  0.754664  0.543952  0.158264  1
  Pa  Pa6  1  0.754664  0.456048  0.841736  1
  Pa  Pa7  1  0.746350  0.959096  0.657953  1
  Zn  Zn8  1  0.788617  0.500000  0.500000  1
  Fe  Fe9  1  0.298615  0.500000  0.000000  1
  Fe  Fe10  1  0.205394  0.000000  0.500000  1
  Fe  Fe11  1  0.699713  0.000000  0.000000  1
  O  O12  1  0.056289  0.645378  0.908747  1
  O  O13  1  0.441639  0.146932  0.592250  1
  O  O14  1  0.441639  0.853068  0.407750  1
  O  O15  1  0.056289  0.354622  0.091253  1
  O  O16  1  0.941484  0.854882  0.091641  1
  O  O17  1  0.561620  0.352932  0.410175  1
  O  O18  1  0.561620  0.647068  0.589825  1
  O  O19  1  0.941484  0.145118  0.908359  1
  O  O20  1  0.023736  0.785158  0.251137  1
  O  O21  1  0.476638  0.284739  0.250305  1
  O  O22  1  0.476638  0.715261  0.749695  1
  O  O23  1  0.023736  0.214842  0.748863  1
  O  O24  1  0.976020  0.715113  0.750071  1
  O  O25  1  0.524200  0.215160  0.750615  1
  O  O26  1  0.524200  0.784840  0.249385  1
  O  O27  1  0.976020  0.284887  0.249929  1
  O  O28  1  0.054657  0.750101  0.588608  1
  O  O29  1  0.448489  0.241870  0.913282  1
  O  O30  1  0.448489  0.758130  0.086718  1
  O  O31  1  0.054657  0.249899  0.411392  1
  O  O32  1  0.948778  0.750853  0.415390  1
  O  O33  1  0.548802  0.257995  0.086983  1
  O  O34  1  0.548802  0.742005  0.913017  1
  O  O35  1  0.948778  0.249147  0.584610  1
