# generated using pymatgen
data_Mn(TcO4)2
_symmetry_space_group_name_H-M   'P 1'
_cell_length_a   10.10478857
_cell_length_b   10.10478901
_cell_length_c   10.10478910
_cell_angle_alpha   55.73605534
_cell_angle_beta   55.73606040
_cell_angle_gamma   55.73606691
_symmetry_Int_Tables_number   1
_chemical_formula_structural   Mn(TcO4)2
_chemical_formula_sum   'Mn3 Tc6 O24'
_cell_volume   657.41568075
_cell_formula_units_Z   3
loop_
 _symmetry_equiv_pos_site_id
 _symmetry_equiv_pos_as_xyz
  1  'x, y, z'
loop_
 _atom_site_type_symbol
 _atom_site_label
 _atom_site_symmetry_multiplicity
 _atom_site_fract_x
 _atom_site_fract_y
 _atom_site_fract_z
 _atom_site_occupancy
  Mn  Mn0  1  0.357430  0.357430  0.357430  1
  Mn  Mn1  1  0.641917  0.641917  0.641917  1
  Mn  Mn2  1  0.851919  0.851919  0.851919  1
  Tc  Tc3  1  0.035894  0.473802  0.739594  1
  Tc  Tc4  1  0.473802  0.739594  0.035894  1
  Tc  Tc5  1  0.739594  0.035894  0.473802  1
  Tc  Tc6  1  0.251531  0.959753  0.540336  1
  Tc  Tc7  1  0.540336  0.251531  0.959753  1
  Tc  Tc8  1  0.959753  0.540336  0.251531  1
  O  O9  1  0.127271  0.501749  0.293856  1
  O  O10  1  0.293856  0.127271  0.501749  1
  O  O11  1  0.006386  0.335010  0.947127  1
  O  O12  1  0.501749  0.293856  0.127271  1
  O  O13  1  0.013696  0.668958  0.720332  1
  O  O14  1  0.239103  0.383122  0.602995  1
  O  O15  1  0.383122  0.602995  0.239103  1
  O  O16  1  0.335010  0.947127  0.006386  1
  O  O17  1  0.602995  0.239103  0.383122  1
  O  O18  1  0.038799  0.976256  0.679763  1
  O  O19  1  0.288159  0.968169  0.349233  1
  O  O20  1  0.349233  0.288159  0.968169  1
  O  O21  1  0.668958  0.720332  0.013696  1
  O  O22  1  0.720332  0.013696  0.668958  1
  O  O23  1  0.947127  0.006386  0.335010  1
  O  O24  1  0.391284  0.761987  0.633172  1
  O  O25  1  0.679763  0.038799  0.976256  1
  O  O26  1  0.633172  0.391284  0.761987  1
  O  O27  1  0.761987  0.633172  0.391284  1
  O  O28  1  0.968169  0.349233  0.288159  1
  O  O29  1  0.512680  0.680753  0.880320  1
  O  O30  1  0.976256  0.679763  0.038799  1
  O  O31  1  0.680753  0.880320  0.512680  1
  O  O32  1  0.880320  0.512680  0.680753  1
