# generated using pymatgen
data_Rb3GeTe3
_symmetry_space_group_name_H-M   'P 1'
_cell_length_a   8.79307314
_cell_length_b   8.79307360
_cell_length_c   9.28831256
_cell_angle_alpha   75.07755501
_cell_angle_beta   75.07754908
_cell_angle_gamma   109.65228556
_symmetry_Int_Tables_number   1
_chemical_formula_structural   Rb3GeTe3
_chemical_formula_sum   'Rb6 Ge2 Te6'
_cell_volume   604.98652922
_cell_formula_units_Z   2
loop_
 _symmetry_equiv_pos_site_id
 _symmetry_equiv_pos_as_xyz
  1  'x, y, z'
loop_
 _atom_site_type_symbol
 _atom_site_label
 _atom_site_symmetry_multiplicity
 _atom_site_fract_x
 _atom_site_fract_y
 _atom_site_fract_z
 _atom_site_occupancy
  Rb  Rb0  1  0.206381  0.206381  0.324142  1
  Rb  Rb1  1  0.000000  0.500000  0.000000  1
  Rb  Rb2  1  0.658069  0.341931  0.500000  1
  Rb  Rb3  1  0.341931  0.658069  0.500000  1
  Rb  Rb4  1  0.500000  0.000000  0.000000  1
  Rb  Rb5  1  0.793619  0.793619  0.675858  1
  Ge  Ge6  1  0.110015  0.110015  0.858170  1
  Ge  Ge7  1  0.889985  0.889985  0.141830  1
  Te  Te8  1  0.637833  0.637833  0.121912  1
  Te  Te9  1  0.362167  0.362167  0.878088  1
  Te  Te10  1  0.751767  0.051025  0.298567  1
  Te  Te11  1  0.948975  0.248233  0.701433  1
  Te  Te12  1  0.248233  0.948975  0.701433  1
  Te  Te13  1  0.051025  0.751767  0.298567  1
