# generated using pymatgen
data_Ac3Al11Cu
_symmetry_space_group_name_H-M   'P 1'
_cell_length_a   8.90849807
_cell_length_b   8.90849763
_cell_length_c   8.90849714
_cell_angle_alpha   150.54078215
_cell_angle_beta   104.99458318
_cell_angle_gamma   82.56312921
_symmetry_Int_Tables_number   1
_chemical_formula_structural   Ac3Al11Cu
_chemical_formula_sum   'Ac3 Al11 Cu1'
_cell_volume   328.95529853
_cell_formula_units_Z   1
loop_
 _symmetry_equiv_pos_site_id
 _symmetry_equiv_pos_as_xyz
  1  'x, y, z'
loop_
 _atom_site_type_symbol
 _atom_site_label
 _atom_site_symmetry_multiplicity
 _atom_site_fract_x
 _atom_site_fract_y
 _atom_site_fract_z
 _atom_site_occupancy
  Ac  Ac0  1  0.998855  0.000000  0.998855  1
  Ac  Ac1  1  0.333687  0.332871  0.000816  1
  Ac  Ac2  1  0.667943  0.667129  0.000816  1
  Al  Al3  1  0.394406  0.000000  0.394406  1
  Al  Al4  1  0.251692  0.500000  0.751692  1
  Al  Al5  1  0.741682  0.500000  0.241682  1
  Al  Al6  1  0.588206  0.842332  0.745874  1
  Al  Al7  1  0.903542  0.157668  0.745874  1
  Al  Al8  1  0.291464  0.669178  0.622285  1
  Al  Al9  1  0.953107  0.330822  0.622285  1
  Al  Al10  1  0.045045  0.665830  0.379214  1
  Al  Al11  1  0.713382  0.334170  0.379214  1
  Al  Al12  1  0.088968  0.836497  0.252471  1
  Al  Al13  1  0.415973  0.163503  0.252471  1
  Cu  Cu14  1  0.623048  0.000000  0.623048  1
