# generated using pymatgen
data_La3(NdIr)2
_symmetry_space_group_name_H-M   'P 1'
_cell_length_a   9.17628361
_cell_length_b   9.17628380
_cell_length_c   7.38323959
_cell_angle_alpha   84.32041650
_cell_angle_beta   84.32041738
_cell_angle_gamma   43.16819764
_symmetry_Int_Tables_number   1
_chemical_formula_structural   La3(NdIr)2
_chemical_formula_sum   'La6 Nd4 Ir4'
_cell_volume   422.91537537
_cell_formula_units_Z   2
loop_
 _symmetry_equiv_pos_site_id
 _symmetry_equiv_pos_as_xyz
  1  'x, y, z'
loop_
 _atom_site_type_symbol
 _atom_site_label
 _atom_site_symmetry_multiplicity
 _atom_site_fract_x
 _atom_site_fract_y
 _atom_site_fract_z
 _atom_site_occupancy
  La  La0  1  0.017210  0.799161  0.915615  1
  La  La1  1  0.200839  0.982790  0.584385  1
  La  La2  1  0.987059  0.198916  0.089663  1
  La  La3  1  0.801084  0.012941  0.410337  1
  La  La4  1  0.356165  0.215911  0.819499  1
  La  La5  1  0.784089  0.643835  0.680501  1
  Nd  Nd6  1  0.643706  0.786608  0.183303  1
  Nd  Nd7  1  0.213392  0.356294  0.316697  1
  Nd  Nd8  1  0.569314  0.430686  0.750000  1
  Nd  Nd9  1  0.428823  0.571177  0.250000  1
  Ir  Ir10  1  0.178924  0.597823  0.579659  1
  Ir  Ir11  1  0.402177  0.821076  0.920341  1
  Ir  Ir12  1  0.821181  0.403963  0.422297  1
  Ir  Ir13  1  0.596037  0.178819  0.077703  1
