# generated using pymatgen
data_Ho5MgFeCo17P12
_symmetry_space_group_name_H-M   'P 1'
_cell_length_a   12.03231975
_cell_length_b   12.02717783
_cell_length_c   3.70230300
_cell_angle_alpha   90.00000000
_cell_angle_beta   90.00000000
_cell_angle_gamma   119.93337774
_symmetry_Int_Tables_number   1
_chemical_formula_structural   Ho5MgFeCo17P12
_chemical_formula_sum   'Ho5 Mg1 Fe1 Co17 P12'
_cell_volume   464.30873177
_cell_formula_units_Z   1
loop_
 _symmetry_equiv_pos_site_id
 _symmetry_equiv_pos_as_xyz
  1  'x, y, z'
loop_
 _atom_site_type_symbol
 _atom_site_label
 _atom_site_symmetry_multiplicity
 _atom_site_fract_x
 _atom_site_fract_y
 _atom_site_fract_z
 _atom_site_occupancy
  Ho  Ho0  1  0.666068  0.335479  0.000000  1
  Ho  Ho1  1  0.331784  0.663958  0.000000  1
  Ho  Ho2  1  0.811598  0.810911  0.500000  1
  Ho  Ho3  1  0.183353  0.000241  0.500000  1
  Ho  Ho4  1  0.001004  0.189446  0.500000  1
  Mg  Mg5  1  0.560233  0.000420  0.000000  1
  Fe  Fe6  1  0.446505  0.444860  0.000000  1
  Co  Co7  1  0.878481  0.362380  0.500000  1
  Co  Co8  1  0.642221  0.515137  0.500000  1
  Co  Co9  1  0.481399  0.128203  0.500000  1
  Co  Co10  1  0.353904  0.873193  0.500000  1
  Co  Co11  1  0.516571  0.638714  0.500000  1
  Co  Co12  1  0.127383  0.485709  0.500000  1
  Co  Co13  1  0.002159  0.554199  0.000000  1
  Co  Co14  1  0.805154  0.182750  0.000000  1
  Co  Co15  1  0.822269  0.621135  0.000000  1
  Co  Co16  1  0.374639  0.199586  0.000000  1
  Co  Co17  1  0.175027  0.799314  0.000000  1
  Co  Co18  1  0.623071  0.818059  0.000000  1
  Co  Co19  1  0.200306  0.378721  0.000000  1
  Co  Co20  1  0.282565  0.284198  0.500000  1
  Co  Co21  1  0.719229  0.000234  0.500000  1
  Co  Co22  1  0.998577  0.713801  0.500000  1
  Co  Co23  1  0.999823  0.998961  0.000000  1
  P  P24  1  0.692739  0.174435  0.500000  1
  P  P25  1  0.833790  0.519842  0.500000  1
  P  P26  1  0.477957  0.314119  0.500000  1
  P  P27  1  0.166406  0.687540  0.500000  1
  P  P28  1  0.518936  0.826257  0.500000  1
  P  P29  1  0.315502  0.479811  0.500000  1
  P  P30  1  0.179370  0.181560  0.000000  1
  P  P31  1  0.820386  0.000226  0.000000  1
  P  P32  1  0.998156  0.817427  0.000000  1
  P  P33  1  0.631208  0.628164  0.000000  1
  P  P34  1  0.358931  0.000079  0.000000  1
  P  P35  1  0.003297  0.370928  0.000000  1
