# generated using pymatgen
data_PrGd2Er3Ta2O14
_symmetry_space_group_name_H-M   'P 1'
_cell_length_a   6.39939629
_cell_length_b   6.55324074
_cell_length_c   7.62461648
_cell_angle_alpha   106.59194131
_cell_angle_beta   89.77218833
_cell_angle_gamma   97.69214509
_symmetry_Int_Tables_number   1
_chemical_formula_structural   PrGd2Er3Ta2O14
_chemical_formula_sum   'Pr1 Gd2 Er3 Ta2 O14'
_cell_volume   303.48336022
_cell_formula_units_Z   1
loop_
 _symmetry_equiv_pos_site_id
 _symmetry_equiv_pos_as_xyz
  1  'x, y, z'
loop_
 _atom_site_type_symbol
 _atom_site_label
 _atom_site_symmetry_multiplicity
 _atom_site_fract_x
 _atom_site_fract_y
 _atom_site_fract_z
 _atom_site_occupancy
  Pr  Pr0  1  0.740399  0.464307  0.117569  1
  Gd  Gd1  1  0.263204  0.547725  0.397395  1
  Gd  Gd2  1  0.263338  0.537483  0.880210  1
  Er  Er3  1  0.731807  0.447886  0.606472  1
  Er  Er4  1  0.546552  0.992224  0.749631  1
  Er  Er5  1  0.452989  0.006427  0.250542  1
  Ta  Ta6  1  0.002645  0.999568  0.998339  1
  Ta  Ta7  1  0.999233  0.002267  0.501498  1
  O  O8  1  0.707319  0.063473  0.478251  1
  O  O9  1  0.924864  0.675216  0.923122  1
  O  O10  1  0.708726  0.061330  0.053647  1
  O  O11  1  0.921337  0.673065  0.416264  1
  O  O12  1  0.914806  0.988453  0.746553  1
  O  O13  1  0.554761  0.340476  0.825500  1
  O  O14  1  0.533097  0.354672  0.346778  1
  O  O15  1  0.471228  0.644332  0.661576  1
  O  O16  1  0.436190  0.657806  0.166068  1
  O  O17  1  0.082140  0.016933  0.254805  1
  O  O18  1  0.072220  0.331129  0.594214  1
  O  O19  1  0.296056  0.935859  0.948910  1
  O  O20  1  0.085047  0.320401  0.060093  1
  O  O21  1  0.292044  0.938971  0.522561  1
