# generated using pymatgen
data_Dy2YAl3ZnSiIr
_symmetry_space_group_name_H-M   'P 1'
_cell_length_a   6.92720300
_cell_length_b   6.92720289
_cell_length_c   4.21229200
_cell_angle_alpha   90.00000000
_cell_angle_beta   90.00000000
_cell_angle_gamma   119.92799064
_symmetry_Int_Tables_number   1
_chemical_formula_structural   Dy2YAl3ZnSiIr
_chemical_formula_sum   'Dy2 Y1 Al3 Zn1 Si1 Ir1'
_cell_volume   175.17801335
_cell_formula_units_Z   1
loop_
 _symmetry_equiv_pos_site_id
 _symmetry_equiv_pos_as_xyz
  1  'x, y, z'
loop_
 _atom_site_type_symbol
 _atom_site_label
 _atom_site_symmetry_multiplicity
 _atom_site_fract_x
 _atom_site_fract_y
 _atom_site_fract_z
 _atom_site_occupancy
  Dy  Dy0  1  0.416772  0.997634  0.000000  1
  Dy  Dy1  1  0.002567  0.419317  0.000000  1
  Y  Y2  1  0.580020  0.582295  0.000000  1
  Al  Al3  1  0.768292  0.001342  0.500001  1
  Al  Al4  1  0.233216  0.231718  0.500001  1
  Al  Al5  1  0.997861  0.766449  0.500001  1
  Zn  Zn6  1  0.666722  0.332592  0.500001  1
  Si  Si7  1  0.332671  0.666627  0.500001  1
  Ir  Ir8  1  0.001878  0.002027  0.000000  1
