# generated using pymatgen
data_Dy14Y6Cd3Ni2Au3
_symmetry_space_group_name_H-M   'P 1'
_cell_length_a   9.60094000
_cell_length_b   9.60096578
_cell_length_c   9.52386000
_cell_angle_alpha   89.99967553
_cell_angle_beta   90.00013779
_cell_angle_gamma   120.00037914
_symmetry_Int_Tables_number   1
_chemical_formula_structural   Dy14Y6Cd3Ni2Au3
_chemical_formula_sum   'Dy14 Y6 Cd3 Ni2 Au3'
_cell_volume   760.27489997
_cell_formula_units_Z   1
loop_
 _symmetry_equiv_pos_site_id
 _symmetry_equiv_pos_as_xyz
  1  'x, y, z'
loop_
 _atom_site_type_symbol
 _atom_site_label
 _atom_site_symmetry_multiplicity
 _atom_site_fract_x
 _atom_site_fract_y
 _atom_site_fract_z
 _atom_site_occupancy
  Dy  Dy0  1  0.000025  0.999986  0.458238  1
  Dy  Dy1  1  0.000025  0.999987  0.041501  1
  Dy  Dy2  1  0.541968  0.457970  0.250277  1
  Dy  Dy3  1  0.542021  0.083998  0.250277  1
  Dy  Dy4  1  0.915994  0.458039  0.250277  1
  Dy  Dy5  1  0.210025  0.790007  0.436899  1
  Dy  Dy6  1  0.209977  0.419999  0.436879  1
  Dy  Dy7  1  0.580003  0.789984  0.436878  1
  Dy  Dy8  1  0.790546  0.209457  0.560462  1
  Dy  Dy9  1  0.790530  0.581087  0.560471  1
  Dy  Dy10  1  0.418916  0.209466  0.560469  1
  Dy  Dy11  1  0.790439  0.209563  0.939384  1
  Dy  Dy12  1  0.790423  0.580876  0.939374  1
  Dy  Dy13  1  0.419128  0.209571  0.939377  1
  Y  Y14  1  0.456885  0.543090  0.749690  1
  Y  Y15  1  0.456939  0.913826  0.749689  1
  Y  Y16  1  0.086168  0.543086  0.749690  1
  Y  Y17  1  0.209503  0.790530  0.062723  1
  Y  Y18  1  0.209454  0.418952  0.062745  1
  Y  Y19  1  0.581052  0.790509  0.062745  1
  Cd  Cd20  1  0.109816  0.890194  0.750095  1
  Cd  Cd21  1  0.109808  0.219606  0.750095  1
  Cd  Cd22  1  0.780398  0.890183  0.750095  1
  Ni  Ni23  1  0.333323  0.666680  0.251572  1
  Ni  Ni24  1  0.666661  0.333325  0.749848  1
  Au  Au25  1  0.869030  0.131003  0.250084  1
  Au  Au26  1  0.868962  0.738018  0.250083  1
  Au  Au27  1  0.261984  0.131006  0.250084  1
