# generated using pymatgen
data_Sr5Bi2As
_symmetry_space_group_name_H-M   'P 1'
_cell_length_a   8.75856100
_cell_length_b   10.01836200
_cell_length_c   13.45075700
_cell_angle_alpha   90.00000000
_cell_angle_beta   90.00000000
_cell_angle_gamma   90.00000000
_symmetry_Int_Tables_number   1
_chemical_formula_structural   Sr5Bi2As
_chemical_formula_sum   'Sr20 Bi8 As4'
_cell_volume   1180.25597073
_cell_formula_units_Z   4
loop_
 _symmetry_equiv_pos_site_id
 _symmetry_equiv_pos_as_xyz
  1  'x, y, z'
loop_
 _atom_site_type_symbol
 _atom_site_label
 _atom_site_symmetry_multiplicity
 _atom_site_fract_x
 _atom_site_fract_y
 _atom_site_fract_z
 _atom_site_occupancy
  Sr  Sr0  1  0.044718  0.750000  0.502086  1
  Sr  Sr1  1  0.955282  0.250000  0.497914  1
  Sr  Sr2  1  0.544718  0.250000  0.997914  1
  Sr  Sr3  1  0.455282  0.750000  0.002086  1
  Sr  Sr4  1  0.861468  0.750000  0.799478  1
  Sr  Sr5  1  0.138532  0.250000  0.200522  1
  Sr  Sr6  1  0.361468  0.250000  0.700522  1
  Sr  Sr7  1  0.638532  0.750000  0.299478  1
  Sr  Sr8  1  0.683760  0.536041  0.574665  1
  Sr  Sr9  1  0.316240  0.463959  0.425335  1
  Sr  Sr10  1  0.183760  0.463959  0.925335  1
  Sr  Sr11  1  0.316240  0.036041  0.425335  1
  Sr  Sr12  1  0.816240  0.536041  0.074665  1
  Sr  Sr13  1  0.683760  0.963959  0.574665  1
  Sr  Sr14  1  0.816240  0.963959  0.074665  1
  Sr  Sr15  1  0.183760  0.036041  0.925335  1
  Sr  Sr16  1  0.335203  0.750000  0.713778  1
  Sr  Sr17  1  0.664797  0.250000  0.286222  1
  Sr  Sr18  1  0.835203  0.250000  0.786222  1
  Sr  Sr19  1  0.164797  0.750000  0.213778  1
  Bi  Bi20  1  0.566369  0.509944  0.828910  1
  Bi  Bi21  1  0.433631  0.490056  0.171090  1
  Bi  Bi22  1  0.066369  0.490056  0.671090  1
  Bi  Bi23  1  0.433631  0.009944  0.171090  1
  Bi  Bi24  1  0.933631  0.509944  0.328910  1
  Bi  Bi25  1  0.566369  0.990056  0.828910  1
  Bi  Bi26  1  0.933631  0.990056  0.328910  1
  Bi  Bi27  1  0.066369  0.009944  0.671090  1
  As  As28  1  0.073332  0.750000  0.986241  1
  As  As29  1  0.926668  0.250000  0.013759  1
  As  As30  1  0.573332  0.250000  0.513759  1
  As  As31  1  0.426668  0.750000  0.486241  1
