# generated using pymatgen
data_YTh2(SnRu)3
_symmetry_space_group_name_H-M   'P 1'
_cell_length_a   7.33623700
_cell_length_b   7.57375656
_cell_length_c   4.11165900
_cell_angle_alpha   90.00000000
_cell_angle_beta   90.00000000
_cell_angle_gamma   118.96789762
_symmetry_Int_Tables_number   1
_chemical_formula_structural   YTh2(SnRu)3
_chemical_formula_sum   'Y1 Th2 Sn3 Ru3'
_cell_volume   199.87378394
_cell_formula_units_Z   1
loop_
 _symmetry_equiv_pos_site_id
 _symmetry_equiv_pos_as_xyz
  1  'x, y, z'
loop_
 _atom_site_type_symbol
 _atom_site_label
 _atom_site_symmetry_multiplicity
 _atom_site_fract_x
 _atom_site_fract_y
 _atom_site_fract_z
 _atom_site_occupancy
  Y  Y0  1  0.410608  0.000000  0.500000  1
  Th  Th1  1  0.999385  0.413162  0.500000  1
  Th  Th2  1  0.586223  0.586838  0.500000  1
  Sn  Sn3  1  0.016123  0.763830  0.000000  1
  Sn  Sn4  1  0.252293  0.236170  0.000000  1
  Sn  Sn5  1  0.733713  0.000000  0.000000  1
  Ru  Ru6  1  0.328002  0.639354  0.000000  1
  Ru  Ru7  1  0.688649  0.360646  0.000000  1
  Ru  Ru8  1  0.985004  0.000000  0.500000  1
