# generated using pymatgen
data_Er7TmB24IrRu3
_symmetry_space_group_name_H-M   'P 1'
_cell_length_a   3.63286800
_cell_length_b   9.10068698
_cell_length_c   11.44800914
_cell_angle_alpha   90.04678319
_cell_angle_beta   90.00000000
_cell_angle_gamma   90.00000000
_symmetry_Int_Tables_number   1
_chemical_formula_structural   Er7TmB24IrRu3
_chemical_formula_sum   'Er7 Tm1 B24 Ir1 Ru3'
_cell_volume   378.48930981
_cell_formula_units_Z   1
loop_
 _symmetry_equiv_pos_site_id
 _symmetry_equiv_pos_as_xyz
  1  'x, y, z'
loop_
 _atom_site_type_symbol
 _atom_site_label
 _atom_site_symmetry_multiplicity
 _atom_site_fract_x
 _atom_site_fract_y
 _atom_site_fract_z
 _atom_site_occupancy
  Er  Er0  1  0.000000  0.318894  0.414584  1
  Er  Er1  1  0.000000  0.679107  0.589050  1
  Er  Er2  1  0.000000  0.823114  0.083992  1
  Er  Er3  1  0.000000  0.178903  0.913147  1
  Er  Er4  1  0.000000  0.945680  0.373075  1
  Er  Er5  1  0.000000  0.056084  0.627082  1
  Er  Er6  1  0.000000  0.441956  0.125518  1
  Tm  Tm7  1  0.000000  0.555989  0.873088  1
  B  B8  1  0.500000  0.553618  0.433987  1
  B  B9  1  0.500000  0.446102  0.566792  1
  B  B10  1  0.500000  0.054035  0.066632  1
  B  B11  1  0.500000  0.946182  0.933040  1
  B  B12  1  0.500000  0.749583  0.421339  1
  B  B13  1  0.500000  0.251394  0.579936  1
  B  B14  1  0.500000  0.248106  0.079656  1
  B  B15  1  0.500000  0.751549  0.920125  1
  B  B16  1  0.500000  0.792332  0.265269  1
  B  B17  1  0.500000  0.208760  0.734040  1
  B  B18  1  0.500000  0.291614  0.234409  1
  B  B19  1  0.500000  0.708145  0.766153  1
  B  B20  1  0.500000  0.631962  0.183495  1
  B  B21  1  0.500000  0.368735  0.815054  1
  B  B22  1  0.500000  0.131722  0.315222  1
  B  B23  1  0.500000  0.868077  0.685191  1
  B  B24  1  0.500000  0.982829  0.212824  1
  B  B25  1  0.500000  0.017122  0.786984  1
  B  B26  1  0.500000  0.481685  0.286909  1
  B  B27  1  0.500000  0.517273  0.713346  1
  B  B28  1  0.500000  0.608728  0.029905  1
  B  B29  1  0.500000  0.391521  0.969880  1
  B  B30  1  0.500000  0.108399  0.470222  1
  B  B31  1  0.500000  0.890934  0.529658  1
  Ir  Ir32  1  0.000000  0.637262  0.321607  1
  Ru  Ru33  1  0.000000  0.362915  0.678644  1
  Ru  Ru34  1  0.000000  0.137932  0.179109  1
  Ru  Ru35  1  0.000000  0.861757  0.821038  1
