# generated using pymatgen
data_SmPa2(ZnPt)3
_symmetry_space_group_name_H-M   'P 1'
_cell_length_a   7.33464468
_cell_length_b   7.33464352
_cell_length_c   3.91828000
_cell_angle_alpha   90.00000000
_cell_angle_beta   90.00000000
_cell_angle_gamma   120.20637894
_symmetry_Int_Tables_number   1
_chemical_formula_structural   SmPa2(ZnPt)3
_chemical_formula_sum   'Sm1 Pa2 Zn3 Pt3'
_cell_volume   182.17017040
_cell_formula_units_Z   1
loop_
 _symmetry_equiv_pos_site_id
 _symmetry_equiv_pos_as_xyz
  1  'x, y, z'
loop_
 _atom_site_type_symbol
 _atom_site_label
 _atom_site_symmetry_multiplicity
 _atom_site_fract_x
 _atom_site_fract_y
 _atom_site_fract_z
 _atom_site_occupancy
  Sm  Sm0  1  0.595205  0.595205  0.000000  1
  Pa  Pa1  1  0.408245  0.997786  0.000000  1
  Pa  Pa2  1  0.997786  0.408245  0.000000  1
  Zn  Zn3  1  0.753218  0.992721  0.500000  1
  Zn  Zn4  1  0.992721  0.753218  0.500000  1
  Zn  Zn5  1  0.255273  0.255273  0.500000  1
  Pt  Pt6  1  0.014780  0.014780  0.000000  1
  Pt  Pt7  1  0.314295  0.668476  0.500000  1
  Pt  Pt8  1  0.668476  0.314295  0.500000  1
