# generated using pymatgen
data_Er2Lu2Ti3GaIr4
_symmetry_space_group_name_H-M   'P 1'
_cell_length_a   4.28212400
_cell_length_b   6.88734018
_cell_length_c   7.95276512
_cell_angle_alpha   93.01715178
_cell_angle_beta   90.00000000
_cell_angle_gamma   90.00000000
_symmetry_Int_Tables_number   1
_chemical_formula_structural   Er2Lu2Ti3GaIr4
_chemical_formula_sum   'Er2 Lu2 Ti3 Ga1 Ir4'
_cell_volume   234.22136250
_cell_formula_units_Z   1
loop_
 _symmetry_equiv_pos_site_id
 _symmetry_equiv_pos_as_xyz
  1  'x, y, z'
loop_
 _atom_site_type_symbol
 _atom_site_label
 _atom_site_symmetry_multiplicity
 _atom_site_fract_x
 _atom_site_fract_y
 _atom_site_fract_z
 _atom_site_occupancy
  Er  Er0  1  0.250000  0.979755  0.316429  1
  Er  Er1  1  0.250000  0.469465  0.170454  1
  Lu  Lu2  1  0.750000  0.030681  0.687744  1
  Lu  Lu3  1  0.750000  0.513049  0.824632  1
  Ti  Ti4  1  0.250000  0.364293  0.571193  1
  Ti  Ti5  1  0.250000  0.863499  0.937697  1
  Ti  Ti6  1  0.750000  0.636429  0.433850  1
  Ga  Ga7  1  0.750000  0.146445  0.069207  1
  Ir  Ir8  1  0.250000  0.225658  0.871646  1
  Ir  Ir9  1  0.250000  0.728888  0.605883  1
  Ir  Ir10  1  0.750000  0.767330  0.111833  1
  Ir  Ir11  1  0.750000  0.274508  0.399431  1
