# generated using pymatgen
data_Tb3Ho2Tm11(InRh)4
_symmetry_space_group_name_H-M   'P 1'
_cell_length_a   9.58194151
_cell_length_b   9.58195587
_cell_length_c   9.58729019
_cell_angle_alpha   60.02597631
_cell_angle_beta   59.93508618
_cell_angle_gamma   59.95970579
_symmetry_Int_Tables_number   1
_chemical_formula_structural   Tb3Ho2Tm11(InRh)4
_chemical_formula_sum   'Tb3 Ho2 Tm11 In4 Rh4'
_cell_volume   622.05358569
_cell_formula_units_Z   1
loop_
 _symmetry_equiv_pos_site_id
 _symmetry_equiv_pos_as_xyz
  1  'x, y, z'
loop_
 _atom_site_type_symbol
 _atom_site_label
 _atom_site_symmetry_multiplicity
 _atom_site_fract_x
 _atom_site_fract_y
 _atom_site_fract_z
 _atom_site_occupancy
  Tb  Tb0  1  0.061549  0.061777  0.438315  1
  Tb  Tb1  1  0.437594  0.062509  0.437748  1
  Tb  Tb2  1  0.062691  0.437222  0.062597  1
  Ho  Ho3  1  0.049690  0.648874  0.650965  1
  Ho  Ho4  1  0.438009  0.437976  0.062016  1
  Tm  Tm5  1  0.649024  0.048981  0.650768  1
  Tm  Tm6  1  0.189551  0.811362  0.187810  1
  Tm  Tm7  1  0.188571  0.188324  0.811545  1
  Tm  Tm8  1  0.810848  0.811099  0.189014  1
  Tm  Tm9  1  0.439940  0.059828  0.059545  1
  Tm  Tm10  1  0.811362  0.189439  0.187806  1
  Tm  Tm11  1  0.060074  0.439520  0.440320  1
  Tm  Tm12  1  0.810894  0.189777  0.810987  1
  Tm  Tm13  1  0.189262  0.811851  0.811602  1
  Tm  Tm14  1  0.650699  0.649934  0.046894  1
  Tm  Tm15  1  0.650015  0.650614  0.652488  1
  In  In16  1  0.417048  0.417527  0.416885  1
  In  In17  1  0.747874  0.417894  0.417661  1
  In  In18  1  0.418484  0.747981  0.416192  1
  In  In19  1  0.418365  0.416189  0.748754  1
  Rh  Rh20  1  0.857891  0.857514  0.425787  1
  Rh  Rh21  1  0.855978  0.859439  0.858782  1
  Rh  Rh22  1  0.427112  0.858155  0.858342  1
  Rh  Rh23  1  0.857470  0.426214  0.857176  1
