# generated using pymatgen
data_Dy16Er4(Ir3Rh)3
_symmetry_space_group_name_H-M   'P 1'
_cell_length_a   10.85778800
_cell_length_b   10.85778800
_cell_length_c   6.36648600
_cell_angle_alpha   90.00000000
_cell_angle_beta   90.00000000
_cell_angle_gamma   90.00000000
_symmetry_Int_Tables_number   1
_chemical_formula_structural   Dy16Er4(Ir3Rh)3
_chemical_formula_sum   'Dy16 Er4 Ir9 Rh3'
_cell_volume   750.55496787
_cell_formula_units_Z   1
loop_
 _symmetry_equiv_pos_site_id
 _symmetry_equiv_pos_as_xyz
  1  'x, y, z'
loop_
 _atom_site_type_symbol
 _atom_site_label
 _atom_site_symmetry_multiplicity
 _atom_site_fract_x
 _atom_site_fract_y
 _atom_site_fract_z
 _atom_site_occupancy
  Dy  Dy0  1  0.290054  0.088135  0.378290  1
  Dy  Dy1  1  0.290018  0.911744  0.878294  1
  Dy  Dy2  1  0.709982  0.088256  0.878294  1
  Dy  Dy3  1  0.709946  0.911865  0.378290  1
  Dy  Dy4  1  0.588256  0.790018  0.878294  1
  Dy  Dy5  1  0.588135  0.209946  0.378290  1
  Dy  Dy6  1  0.411865  0.790054  0.378290  1
  Dy  Dy7  1  0.411744  0.209982  0.878294  1
  Dy  Dy8  1  0.209448  0.411971  0.621117  1
  Dy  Dy9  1  0.209593  0.588166  0.122662  1
  Dy  Dy10  1  0.790407  0.411834  0.122662  1
  Dy  Dy11  1  0.790552  0.588029  0.621117  1
  Dy  Dy12  1  0.911834  0.709593  0.122662  1
  Dy  Dy13  1  0.911971  0.290552  0.621117  1
  Dy  Dy14  1  0.088029  0.709448  0.621117  1
  Dy  Dy15  1  0.088166  0.290407  0.122662  1
  Er  Er16  1  0.000000  0.000000  0.500123  1
  Er  Er17  1  0.000000  0.000000  0.999998  1
  Er  Er18  1  0.500000  0.500000  0.999998  1
  Er  Er19  1  0.500000  0.500000  0.500123  1
  Ir  Ir20  1  0.846641  0.152761  0.249755  1
  Ir  Ir21  1  0.846712  0.847146  0.749875  1
  Ir  Ir22  1  0.153288  0.152854  0.749875  1
  Ir  Ir23  1  0.153359  0.847239  0.249755  1
  Ir  Ir24  1  0.652854  0.346712  0.749875  1
  Ir  Ir25  1  0.652761  0.653359  0.249755  1
  Ir  Ir26  1  0.347239  0.346641  0.249755  1
  Ir  Ir27  1  0.347146  0.653288  0.749875  1
  Ir  Ir28  1  0.000000  0.500000  0.378540  1
  Rh  Rh29  1  0.500000  0.000000  0.121105  1
  Rh  Rh30  1  0.500000  0.000000  0.621090  1
  Rh  Rh31  1  0.000000  0.500000  0.879051  1
