# generated using pymatgen
data_TbDy3(TcOs3)2
_symmetry_space_group_name_H-M   'P 1'
_cell_length_a   5.32230348
_cell_length_b   5.24242420
_cell_length_c   9.03831500
_cell_angle_alpha   90.00000061
_cell_angle_beta   90.00251116
_cell_angle_gamma   119.50474592
_symmetry_Int_Tables_number   1
_chemical_formula_structural   TbDy3(TcOs3)2
_chemical_formula_sum   'Tb1 Dy3 Tc2 Os6'
_cell_volume   219.48037228
_cell_formula_units_Z   1
loop_
 _symmetry_equiv_pos_site_id
 _symmetry_equiv_pos_as_xyz
  1  'x, y, z'
loop_
 _atom_site_type_symbol
 _atom_site_label
 _atom_site_symmetry_multiplicity
 _atom_site_fract_x
 _atom_site_fract_y
 _atom_site_fract_z
 _atom_site_occupancy
  Tb  Tb0  1  0.330460  0.665231  0.438897  1
  Dy  Dy1  1  0.663219  0.331609  0.566447  1
  Dy  Dy2  1  0.663176  0.331587  0.933739  1
  Dy  Dy3  1  0.330483  0.665242  0.061064  1
  Tc  Tc4  1  0.837117  0.171634  0.249683  1
  Tc  Tc5  1  0.837117  0.665482  0.249683  1
  Os  Os6  1  0.984438  0.992220  0.501441  1
  Os  Os7  1  0.984540  0.992270  0.998618  1
  Os  Os8  1  0.350985  0.175492  0.249589  1
  Os  Os9  1  0.174203  0.829229  0.750302  1
  Os  Os10  1  0.174203  0.344975  0.750302  1
  Os  Os11  1  0.670056  0.835029  0.750236  1
