# generated using pymatgen
data_ScPa2(AlIr)3
_symmetry_space_group_name_H-M   'P 1'
_cell_length_a   6.99676113
_cell_length_b   6.99676154
_cell_length_c   4.05178400
_cell_angle_alpha   90.00000000
_cell_angle_beta   90.00000000
_cell_angle_gamma   121.18036256
_symmetry_Int_Tables_number   1
_chemical_formula_structural   ScPa2(AlIr)3
_chemical_formula_sum   'Sc1 Pa2 Al3 Ir3'
_cell_volume   169.69991181
_cell_formula_units_Z   1
loop_
 _symmetry_equiv_pos_site_id
 _symmetry_equiv_pos_as_xyz
  1  'x, y, z'
loop_
 _atom_site_type_symbol
 _atom_site_label
 _atom_site_symmetry_multiplicity
 _atom_site_fract_x
 _atom_site_fract_y
 _atom_site_fract_z
 _atom_site_occupancy
  Sc  Sc0  1  0.411501  0.411501  0.500000  1
  Pa  Pa1  1  0.578774  0.998840  0.500000  1
  Pa  Pa2  1  0.998840  0.578774  0.500000  1
  Al  Al3  1  0.747030  0.747030  0.000000  1
  Al  Al4  1  0.238459  0.014841  0.000000  1
  Al  Al5  1  0.014841  0.238459  0.000000  1
  Ir  Ir6  1  0.686936  0.330340  0.000000  1
  Ir  Ir7  1  0.330340  0.686936  0.000000  1
  Ir  Ir8  1  0.993278  0.993278  0.500000  1
