# generated using pymatgen
data_GaMoCl8
_symmetry_space_group_name_H-M   'P 1'
_cell_length_a   9.72133200
_cell_length_b   9.72133203
_cell_length_c   8.58932200
_cell_angle_alpha   90.00000000
_cell_angle_beta   90.00000000
_cell_angle_gamma   128.58041211
_symmetry_Int_Tables_number   1
_chemical_formula_structural   GaMoCl8
_chemical_formula_sum   'Ga2 Mo2 Cl16'
_cell_volume   634.55501189
_cell_formula_units_Z   2
loop_
 _symmetry_equiv_pos_site_id
 _symmetry_equiv_pos_as_xyz
  1  'x, y, z'
loop_
 _atom_site_type_symbol
 _atom_site_label
 _atom_site_symmetry_multiplicity
 _atom_site_fract_x
 _atom_site_fract_y
 _atom_site_fract_z
 _atom_site_occupancy
  Ga  Ga0  1  0.316690  0.683310  0.750000  1
  Ga  Ga1  1  0.683310  0.316690  0.250000  1
  Mo  Mo2  1  0.884576  0.115424  0.250000  1
  Mo  Mo3  1  0.115424  0.884576  0.750000  1
  Cl  Cl4  1  0.379899  0.620101  0.535870  1
  Cl  Cl5  1  0.620101  0.379899  0.464130  1
  Cl  Cl6  1  0.430064  0.972955  0.750000  1
  Cl  Cl7  1  0.972955  0.430064  0.250000  1
  Cl  Cl8  1  0.569936  0.027045  0.250000  1
  Cl  Cl9  1  0.027045  0.569936  0.750000  1
  Cl  Cl10  1  0.228773  0.169739  0.750000  1
  Cl  Cl11  1  0.169739  0.228773  0.250000  1
  Cl  Cl12  1  0.771227  0.830261  0.250000  1
  Cl  Cl13  1  0.830261  0.771227  0.750000  1
  Cl  Cl14  1  0.135222  0.864778  0.488783  1
  Cl  Cl15  1  0.864778  0.135222  0.511217  1
  Cl  Cl16  1  0.864778  0.135222  0.988783  1
  Cl  Cl17  1  0.135222  0.864778  0.011217  1
  Cl  Cl18  1  0.379899  0.620101  0.964130  1
  Cl  Cl19  1  0.620101  0.379899  0.035870  1
