# generated using pymatgen
data_TbHoTh2(Al8Pt3)3
_symmetry_space_group_name_H-M   'P 1'
_cell_length_a   7.59163561
_cell_length_b   7.60534404
_cell_length_c   13.20112827
_cell_angle_alpha   84.49752983
_cell_angle_beta   78.92855945
_cell_angle_gamma   59.95673407
_symmetry_Int_Tables_number   1
_chemical_formula_structural   TbHoTh2(Al8Pt3)3
_chemical_formula_sum   'Tb1 Ho1 Th2 Al24 Pt9'
_cell_volume   647.51128624
_cell_formula_units_Z   1
loop_
 _symmetry_equiv_pos_site_id
 _symmetry_equiv_pos_as_xyz
  1  'x, y, z'
loop_
 _atom_site_type_symbol
 _atom_site_label
 _atom_site_symmetry_multiplicity
 _atom_site_fract_x
 _atom_site_fract_y
 _atom_site_fract_z
 _atom_site_occupancy
  Tb  Tb0  1  0.733531  0.498484  0.806868  1
  Ho  Ho1  1  0.266403  0.501505  0.193295  1
  Th  Th2  1  0.394800  0.168130  0.806793  1
  Th  Th3  1  0.605188  0.831877  0.193201  1
  Al  Al4  1  0.687933  0.830360  0.943828  1
  Al  Al5  1  0.312061  0.169749  0.056212  1
  Al  Al6  1  0.145687  0.832875  0.561484  1
  Al  Al7  1  0.854312  0.167119  0.438528  1
  Al  Al8  1  0.480785  0.167247  0.557627  1
  Al  Al9  1  0.519207  0.832754  0.442380  1
  Al  Al10  1  0.212840  0.168876  0.333112  1
  Al  Al11  1  0.787194  0.831217  0.666839  1
  Al  Al12  1  0.438221  0.510318  0.667309  1
  Al  Al13  1  0.561670  0.489702  0.332649  1
  Al  Al14  1  0.107698  0.159925  0.665593  1
  Al  Al15  1  0.892432  0.839954  0.334353  1
  Al  Al16  1  0.352121  0.502373  0.946029  1
  Al  Al17  1  0.647740  0.497629  0.054063  1
  Al  Al18  1  0.012470  0.167611  0.954351  1
  Al  Al19  1  0.987601  0.832301  0.045686  1
  Al  Al20  1  0.186192  0.500074  0.441009  1
  Al  Al21  1  0.813821  0.499930  0.558960  1
  Al  Al22  1  0.734631  0.167604  0.183544  1
  Al  Al23  1  0.265269  0.832474  0.816451  1
  Al  Al24  1  0.059258  0.634361  0.814949  1
  Al  Al25  1  0.940833  0.365659  0.185046  1
  Al  Al26  1  0.859994  0.040886  0.815875  1
  Al  Al27  1  0.140036  0.958983  0.184127  1
  Pt  Pt28  1  0.120622  0.491483  0.638667  1
  Pt  Pt29  1  0.879556  0.508505  0.361256  1
  Pt  Pt30  1  0.656443  0.171087  0.999847  1
  Pt  Pt31  1  0.343453  0.828945  0.000222  1
  Pt  Pt32  1  0.537642  0.166132  0.361197  1
  Pt  Pt33  1  0.462264  0.834011  0.638709  1
  Pt  Pt34  1  0.778269  0.175162  0.637616  1
  Pt  Pt35  1  0.221763  0.824697  0.362292  1
  Pt  Pt36  1  0.000056  0.499997  0.000038  1
