# generated using pymatgen
data_Y2Ga18CoNi5
_symmetry_space_group_name_H-M   'P 1'
_cell_length_a   10.11069624
_cell_length_b   10.12605168
_cell_length_c   10.11486599
_cell_angle_alpha   42.18676520
_cell_angle_beta   42.15669257
_cell_angle_gamma   42.19838501
_symmetry_Int_Tables_number   1
_chemical_formula_structural   Y2Ga18CoNi5
_chemical_formula_sum   'Y2 Ga18 Co1 Ni5'
_cell_volume   422.50704000
_cell_formula_units_Z   1
loop_
 _symmetry_equiv_pos_site_id
 _symmetry_equiv_pos_as_xyz
  1  'x, y, z'
loop_
 _atom_site_type_symbol
 _atom_site_label
 _atom_site_symmetry_multiplicity
 _atom_site_fract_x
 _atom_site_fract_y
 _atom_site_fract_z
 _atom_site_occupancy
  Y  Y0  1  0.167251  0.166926  0.167049  1
  Y  Y1  1  0.833277  0.833385  0.832898  1
  Ga  Ga2  1  0.050274  0.050862  0.051247  1
  Ga  Ga3  1  0.708608  0.499532  0.291925  1
  Ga  Ga4  1  0.666273  0.333291  0.999870  1
  Ga  Ga5  1  0.104721  0.433618  0.763088  1
  Ga  Ga6  1  0.433725  0.763171  0.104391  1
  Ga  Ga7  1  0.386012  0.386293  0.385465  1
  Ga  Ga8  1  0.333226  0.999029  0.666205  1
  Ga  Ga9  1  0.611388  0.615699  0.613996  1
  Ga  Ga10  1  0.237149  0.569107  0.894040  1
  Ga  Ga11  1  0.564826  0.896285  0.239258  1
  Ga  Ga12  1  0.500298  0.291540  0.707785  1
  Ga  Ga13  1  0.763221  0.104219  0.433477  1
  Ga  Ga14  1  0.950734  0.948861  0.946871  1
  Ga  Ga15  1  0.291627  0.709749  0.500581  1
  Ga  Ga16  1  0.000194  0.666566  0.332845  1
  Ga  Ga17  1  0.716602  0.716320  0.717141  1
  Ga  Ga18  1  0.282606  0.281029  0.285167  1
  Ga  Ga19  1  0.898756  0.235022  0.566657  1
  Co  Co20  1  0.241855  0.922458  0.582214  1
  Ni  Ni21  1  0.921964  0.581718  0.241812  1
  Ni  Ni22  1  0.758011  0.418108  0.078015  1
  Ni  Ni23  1  0.078105  0.757884  0.418450  1
  Ni  Ni24  1  0.417566  0.077739  0.757668  1
  Ni  Ni25  1  0.581730  0.241590  0.921885  1
