# generated using pymatgen
data_EuFe3NiP12
_symmetry_space_group_name_H-M   'P 1'
_cell_length_a   6.77580919
_cell_length_b   6.77894846
_cell_length_c   6.77580909
_cell_angle_alpha   109.48060921
_cell_angle_beta   109.46183496
_cell_angle_gamma   109.48060248
_symmetry_Int_Tables_number   1
_chemical_formula_structural   EuFe3NiP12
_chemical_formula_sum   'Eu1 Fe3 Ni1 P12'
_cell_volume   239.55897586
_cell_formula_units_Z   1
loop_
 _symmetry_equiv_pos_site_id
 _symmetry_equiv_pos_as_xyz
  1  'x, y, z'
loop_
 _atom_site_type_symbol
 _atom_site_label
 _atom_site_symmetry_multiplicity
 _atom_site_fract_x
 _atom_site_fract_y
 _atom_site_fract_z
 _atom_site_occupancy
  Eu  Eu0  1  0.000000  0.000000  0.000000  1
  Fe  Fe1  1  0.500000  0.000000  0.000000  1
  Fe  Fe2  1  0.000000  0.000000  0.500000  1
  Fe  Fe3  1  0.500000  0.500000  0.500000  1
  Ni  Ni4  1  0.000000  0.500000  0.000000  1
  P  P5  1  0.498864  0.848906  0.649075  1
  P  P6  1  0.205622  0.858286  0.359477  1
  P  P7  1  0.794378  0.141714  0.640523  1
  P  P8  1  0.150211  0.350042  0.501136  1
  P  P9  1  0.359477  0.501192  0.153856  1
  P  P10  1  0.501136  0.151094  0.350925  1
  P  P11  1  0.153856  0.652664  0.794378  1
  P  P12  1  0.350925  0.199832  0.849789  1
  P  P13  1  0.849789  0.649958  0.498864  1
  P  P14  1  0.649075  0.800168  0.150211  1
  P  P15  1  0.846144  0.347336  0.205622  1
  P  P16  1  0.640523  0.498808  0.846144  1
