# generated using pymatgen
data_Cs3YbInBr6
_symmetry_space_group_name_H-M   'P 1'
_cell_length_a   9.77682876
_cell_length_b   9.77682794
_cell_length_c   9.77682909
_cell_angle_alpha   91.51925645
_cell_angle_beta   91.51925200
_cell_angle_gamma   91.51925455
_symmetry_Int_Tables_number   1
_chemical_formula_structural   Cs3YbInBr6
_chemical_formula_sum   'Cs6 Yb2 In2 Br12'
_cell_volume   933.52830278
_cell_formula_units_Z   2
loop_
 _symmetry_equiv_pos_site_id
 _symmetry_equiv_pos_as_xyz
  1  'x, y, z'
loop_
 _atom_site_type_symbol
 _atom_site_label
 _atom_site_symmetry_multiplicity
 _atom_site_fract_x
 _atom_site_fract_y
 _atom_site_fract_z
 _atom_site_occupancy
  Cs  Cs0  1  0.250000  0.625928  0.874072  1
  Cs  Cs1  1  0.874072  0.250000  0.625928  1
  Cs  Cs2  1  0.625928  0.874072  0.250000  1
  Cs  Cs3  1  0.750000  0.374072  0.125928  1
  Cs  Cs4  1  0.125928  0.750000  0.374072  1
  Cs  Cs5  1  0.374072  0.125928  0.750000  1
  Yb  Yb6  1  0.000000  0.000000  0.000000  1
  Yb  Yb7  1  0.500000  0.500000  0.500000  1
  In  In8  1  0.250000  0.250000  0.250000  1
  In  In9  1  0.750000  0.750000  0.750000  1
  Br  Br10  1  0.548150  0.216231  0.421565  1
  Br  Br11  1  0.421565  0.548150  0.216231  1
  Br  Br12  1  0.216231  0.421565  0.548150  1
  Br  Br13  1  0.951850  0.078435  0.283769  1
  Br  Br14  1  0.283769  0.951850  0.078435  1
  Br  Br15  1  0.078435  0.283769  0.951850  1
  Br  Br16  1  0.451850  0.783769  0.578435  1
  Br  Br17  1  0.578435  0.451850  0.783769  1
  Br  Br18  1  0.783769  0.578435  0.451850  1
  Br  Br19  1  0.048150  0.921565  0.716231  1
  Br  Br20  1  0.921565  0.716231  0.048150  1
  Br  Br21  1  0.716231  0.048150  0.921565  1
