# generated using pymatgen
data_Dy2Fe3B8Os5
_symmetry_space_group_name_H-M   'P 1'
_cell_length_a   7.33687072
_cell_length_b   7.27517433
_cell_length_c   3.97834327
_cell_angle_alpha   90.18108262
_cell_angle_beta   89.72841553
_cell_angle_gamma   89.04797262
_symmetry_Int_Tables_number   1
_chemical_formula_structural   Dy2Fe3B8Os5
_chemical_formula_sum   'Dy2 Fe3 B8 Os5'
_cell_volume   212.31926964
_cell_formula_units_Z   1
loop_
 _symmetry_equiv_pos_site_id
 _symmetry_equiv_pos_as_xyz
  1  'x, y, z'
loop_
 _atom_site_type_symbol
 _atom_site_label
 _atom_site_symmetry_multiplicity
 _atom_site_fract_x
 _atom_site_fract_y
 _atom_site_fract_z
 _atom_site_occupancy
  Dy  Dy0  1  0.996779  0.997895  0.079844  1
  Dy  Dy1  1  0.508454  0.502253  0.606745  1
  Fe  Fe2  1  0.114879  0.376193  0.871755  1
  Fe  Fe3  1  0.873498  0.611489  0.873573  1
  Fe  Fe4  1  0.878415  0.374398  0.371175  1
  B  B5  1  0.675697  0.769613  0.096843  1
  B  B6  1  0.321514  0.226431  0.100976  1
  B  B7  1  0.276679  0.832367  0.603147  1
  B  B8  1  0.729482  0.175176  0.598590  1
  B  B9  1  0.835990  0.681060  0.376765  1
  B  B10  1  0.153871  0.312543  0.373637  1
  B  B11  1  0.195898  0.664014  0.876736  1
  B  B12  1  0.815308  0.338689  0.875700  1
  Os  Os13  1  0.118692  0.619411  0.374794  1
  Os  Os14  1  0.343041  0.114683  0.606335  1
  Os  Os15  1  0.657574  0.893893  0.603800  1
  Os  Os16  1  0.607960  0.160237  0.105218  1
  Os  Os17  1  0.396270  0.849656  0.104370  1
