# generated using pymatgen
data_Tm5TiCo5
_symmetry_space_group_name_H-M   'P 1'
_cell_length_a   5.56409933
_cell_length_b   5.56409868
_cell_length_c   20.52594400
_cell_angle_alpha   90.00000000
_cell_angle_beta   90.00000000
_cell_angle_gamma   139.50610548
_symmetry_Int_Tables_number   1
_chemical_formula_structural   Tm5TiCo5
_chemical_formula_sum   'Tm10 Ti2 Co10'
_cell_volume   412.65115230
_cell_formula_units_Z   2
loop_
 _symmetry_equiv_pos_site_id
 _symmetry_equiv_pos_as_xyz
  1  'x, y, z'
loop_
 _atom_site_type_symbol
 _atom_site_label
 _atom_site_symmetry_multiplicity
 _atom_site_fract_x
 _atom_site_fract_y
 _atom_site_fract_z
 _atom_site_occupancy
  Tm  Tm0  1  0.286523  0.713477  0.250000  1
  Tm  Tm1  1  0.290035  0.709965  0.068109  1
  Tm  Tm2  1  0.995904  0.004096  0.839978  1
  Tm  Tm3  1  0.713477  0.286523  0.750000  1
  Tm  Tm4  1  0.709965  0.290035  0.568109  1
  Tm  Tm5  1  0.004096  0.995904  0.339978  1
  Tm  Tm6  1  0.995904  0.004096  0.660022  1
  Tm  Tm7  1  0.709965  0.290035  0.931891  1
  Tm  Tm8  1  0.004096  0.995904  0.160022  1
  Tm  Tm9  1  0.290035  0.709965  0.431891  1
  Ti  Ti10  1  0.000000  0.000000  0.500000  1
  Ti  Ti11  1  0.000000  0.000000  0.000000  1
  Co  Co12  1  0.295617  0.704383  0.653855  1
  Co  Co13  1  0.578769  0.421231  0.441148  1
  Co  Co14  1  0.413819  0.586181  0.750000  1
  Co  Co15  1  0.421231  0.578769  0.941148  1
  Co  Co16  1  0.586181  0.413819  0.250000  1
  Co  Co17  1  0.421231  0.578769  0.558852  1
  Co  Co18  1  0.704383  0.295617  0.346145  1
  Co  Co19  1  0.704383  0.295617  0.153855  1
  Co  Co20  1  0.578769  0.421231  0.058852  1
  Co  Co21  1  0.295617  0.704383  0.846145  1
