# generated using pymatgen
data_Zr3Cu4SiP
_symmetry_space_group_name_H-M   'P 1'
_cell_length_a   6.36172700
_cell_length_b   6.36172708
_cell_length_c   3.94894200
_cell_angle_alpha   90.00000000
_cell_angle_beta   90.00000000
_cell_angle_gamma   120.00000477
_symmetry_Int_Tables_number   1
_chemical_formula_structural   Zr3Cu4SiP
_chemical_formula_sum   'Zr3 Cu4 Si1 P1'
_cell_volume   138.40807492
_cell_formula_units_Z   1
loop_
 _symmetry_equiv_pos_site_id
 _symmetry_equiv_pos_as_xyz
  1  'x, y, z'
loop_
 _atom_site_type_symbol
 _atom_site_label
 _atom_site_symmetry_multiplicity
 _atom_site_fract_x
 _atom_site_fract_y
 _atom_site_fract_z
 _atom_site_occupancy
  Zr  Zr0  1  0.998139  0.584143  0.500000  1
  Zr  Zr1  1  0.415857  0.413996  0.500000  1
  Zr  Zr2  1  0.586004  0.001861  0.500000  1
  Cu  Cu3  1  0.000000  0.000000  0.500000  1
  Cu  Cu4  1  0.247128  0.998707  0.000000  1
  Cu  Cu5  1  0.751579  0.752872  0.000000  1
  Cu  Cu6  1  0.001293  0.248421  0.000000  1
  Si  Si7  1  0.333333  0.666667  0.000000  1
  P  P8  1  0.666667  0.333333  0.000000  1
