# generated using pymatgen
data_Sm2Si2NiRh3
_symmetry_space_group_name_H-M   'P 1'
_cell_length_a   8.89989326
_cell_length_b   8.89989319
_cell_length_c   4.05743800
_cell_angle_alpha   90.00000000
_cell_angle_beta   90.00000000
_cell_angle_gamma   153.73309928
_symmetry_Int_Tables_number   1
_chemical_formula_structural   Sm2Si2NiRh3
_chemical_formula_sum   'Sm2 Si2 Ni1 Rh3'
_cell_volume   142.22861934
_cell_formula_units_Z   1
loop_
 _symmetry_equiv_pos_site_id
 _symmetry_equiv_pos_as_xyz
  1  'x, y, z'
loop_
 _atom_site_type_symbol
 _atom_site_label
 _atom_site_symmetry_multiplicity
 _atom_site_fract_x
 _atom_site_fract_y
 _atom_site_fract_z
 _atom_site_occupancy
  Sm  Sm0  1  0.098790  0.901210  0.750000  1
  Sm  Sm1  1  0.901962  0.098038  0.250000  1
  Si  Si2  1  0.323114  0.676886  0.750000  1
  Si  Si3  1  0.674703  0.325297  0.250000  1
  Ni  Ni4  1  0.543985  0.456015  0.250000  1
  Rh  Rh5  1  0.459510  0.540490  0.750000  1
  Rh  Rh6  1  0.248650  0.751350  0.250000  1
  Rh  Rh7  1  0.749288  0.250712  0.750000  1
