# generated using pymatgen
data_TbCoNi4As3
_symmetry_space_group_name_H-M   'P 1'
_cell_length_a   3.84987100
_cell_length_b   10.74910500
_cell_length_c   12.25492600
_cell_angle_alpha   90.00000000
_cell_angle_beta   90.00000000
_cell_angle_gamma   90.00000000
_symmetry_Int_Tables_number   1
_chemical_formula_structural   TbCoNi4As3
_chemical_formula_sum   'Tb4 Co4 Ni16 As12'
_cell_volume   507.14152931
_cell_formula_units_Z   4
loop_
 _symmetry_equiv_pos_site_id
 _symmetry_equiv_pos_as_xyz
  1  'x, y, z'
loop_
 _atom_site_type_symbol
 _atom_site_label
 _atom_site_symmetry_multiplicity
 _atom_site_fract_x
 _atom_site_fract_y
 _atom_site_fract_z
 _atom_site_occupancy
  Tb  Tb0  1  0.250000  0.581013  0.702959  1
  Tb  Tb1  1  0.250000  0.918987  0.202959  1
  Tb  Tb2  1  0.750000  0.418987  0.297041  1
  Tb  Tb3  1  0.750000  0.081013  0.797041  1
  Co  Co4  1  0.250000  0.471389  0.931700  1
  Co  Co5  1  0.250000  0.028611  0.431700  1
  Co  Co6  1  0.750000  0.528611  0.068300  1
  Co  Co7  1  0.750000  0.971389  0.568300  1
  Ni  Ni8  1  0.250000  0.708628  0.991431  1
  Ni  Ni9  1  0.250000  0.791372  0.491431  1
  Ni  Ni10  1  0.750000  0.291372  0.008569  1
  Ni  Ni11  1  0.750000  0.208628  0.508569  1
  Ni  Ni12  1  0.250000  0.406812  0.489584  1
  Ni  Ni13  1  0.250000  0.093188  0.989584  1
  Ni  Ni14  1  0.750000  0.593188  0.510416  1
  Ni  Ni15  1  0.750000  0.906812  0.010416  1
  Ni  Ni16  1  0.250000  0.216162  0.181068  1
  Ni  Ni17  1  0.250000  0.283838  0.681068  1
  Ni  Ni18  1  0.750000  0.783838  0.818932  1
  Ni  Ni19  1  0.750000  0.716162  0.318932  1
  Ni  Ni20  1  0.250000  0.882365  0.696203  1
  Ni  Ni21  1  0.250000  0.617635  0.196203  1
  Ni  Ni22  1  0.750000  0.117635  0.303797  1
  Ni  Ni23  1  0.750000  0.382365  0.803797  1
  As  As24  1  0.250000  0.415735  0.113241  1
  As  As25  1  0.250000  0.084265  0.613241  1
  As  As26  1  0.750000  0.584265  0.886759  1
  As  As27  1  0.750000  0.915735  0.386759  1
  As  As28  1  0.250000  0.269731  0.873145  1
  As  As29  1  0.250000  0.230269  0.373145  1
  As  As30  1  0.750000  0.730269  0.126855  1
  As  As31  1  0.750000  0.769731  0.626855  1
  As  As32  1  0.250000  0.602298  0.391724  1
  As  As33  1  0.250000  0.897702  0.891724  1
  As  As34  1  0.750000  0.397702  0.608276  1
  As  As35  1  0.750000  0.102298  0.108276  1
