# generated using pymatgen
data_TbEu3(WO6)2
_symmetry_space_group_name_H-M   'P 1'
_cell_length_a   5.48070700
_cell_length_b   7.80823553
_cell_length_c   11.66222111
_cell_angle_alpha   76.06898550
_cell_angle_beta   90.00000000
_cell_angle_gamma   90.00000000
_symmetry_Int_Tables_number   1
_chemical_formula_structural   TbEu3(WO6)2
_chemical_formula_sum   'Tb2 Eu6 W4 O24'
_cell_volume   484.40087551
_cell_formula_units_Z   2
loop_
 _symmetry_equiv_pos_site_id
 _symmetry_equiv_pos_as_xyz
  1  'x, y, z'
loop_
 _atom_site_type_symbol
 _atom_site_label
 _atom_site_symmetry_multiplicity
 _atom_site_fract_x
 _atom_site_fract_y
 _atom_site_fract_z
 _atom_site_occupancy
  Tb  Tb0  1  0.681167  0.500000  0.750000  1
  Tb  Tb1  1  0.318833  0.500000  0.250000  1
  Eu  Eu2  1  0.735639  0.000000  0.750000  1
  Eu  Eu3  1  0.264361  0.000000  0.250000  1
  Eu  Eu4  1  0.196556  0.801259  0.577050  1
  Eu  Eu5  1  0.803444  0.801259  0.077050  1
  Eu  Eu6  1  0.196556  0.198741  0.922950  1
  Eu  Eu7  1  0.803444  0.198741  0.422950  1
  W  W8  1  0.250196  0.718322  0.887800  1
  W  W9  1  0.749804  0.718322  0.387800  1
  W  W10  1  0.250196  0.281678  0.612200  1
  W  W11  1  0.749804  0.281678  0.112200  1
  O  O12  1  0.036460  0.934191  0.896540  1
  O  O13  1  0.510862  0.857129  0.928978  1
  O  O14  1  0.963540  0.934191  0.396540  1
  O  O15  1  0.459345  0.778225  0.733853  1
  O  O16  1  0.489138  0.857129  0.428978  1
  O  O17  1  0.983374  0.705278  0.776610  1
  O  O18  1  0.540655  0.778225  0.233853  1
  O  O19  1  0.845876  0.635463  0.547413  1
  O  O20  1  0.365338  0.490486  0.888070  1
  O  O21  1  0.016626  0.705278  0.276610  1
  O  O22  1  0.365338  0.509514  0.611930  1
  O  O23  1  0.845876  0.364537  0.952587  1
  O  O24  1  0.154124  0.635463  0.047413  1
  O  O25  1  0.634662  0.490486  0.388070  1
  O  O26  1  0.983374  0.294722  0.723390  1
  O  O27  1  0.634662  0.509514  0.111930  1
  O  O28  1  0.154124  0.364537  0.452587  1
  O  O29  1  0.459345  0.221775  0.766147  1
  O  O30  1  0.016626  0.294722  0.223390  1
  O  O31  1  0.510862  0.142871  0.571022  1
  O  O32  1  0.540655  0.221775  0.266147  1
  O  O33  1  0.036460  0.065809  0.603460  1
  O  O34  1  0.489138  0.142871  0.071022  1
  O  O35  1  0.963540  0.065809  0.103460  1
