# generated using pymatgen
data_MgTcCl6
_symmetry_space_group_name_H-M   'P 1'
_cell_length_a   6.29706495
_cell_length_b   6.29706353
_cell_length_c   6.76954602
_cell_angle_alpha   81.32840966
_cell_angle_beta   81.32841474
_cell_angle_gamma   119.98466291
_symmetry_Int_Tables_number   1
_chemical_formula_structural   MgTcCl6
_chemical_formula_sum   'Mg1 Tc1 Cl6'
_cell_volume   221.68838499
_cell_formula_units_Z   1
loop_
 _symmetry_equiv_pos_site_id
 _symmetry_equiv_pos_as_xyz
  1  'x, y, z'
loop_
 _atom_site_type_symbol
 _atom_site_label
 _atom_site_symmetry_multiplicity
 _atom_site_fract_x
 _atom_site_fract_y
 _atom_site_fract_z
 _atom_site_occupancy
  Mg  Mg0  1  0.166455  0.833545  0.000000  1
  Tc  Tc1  1  0.833370  0.166630  0.000000  1
  Cl  Cl2  1  0.447893  0.080316  0.214245  1
  Cl  Cl3  1  0.919684  0.552107  0.785755  1
  Cl  Cl4  1  0.201424  0.218482  0.785490  1
  Cl  Cl5  1  0.781518  0.798576  0.214510  1
  Cl  Cl6  1  0.063284  0.413628  0.213687  1
  Cl  Cl7  1  0.586372  0.936716  0.786313  1
