# generated using pymatgen
data_Cs4Li2TiAlP4
_symmetry_space_group_name_H-M   'P 1'
_cell_length_a   12.83708248
_cell_length_b   12.83708208
_cell_length_c   12.83708295
_cell_angle_alpha   152.24048950
_cell_angle_beta   39.16842247
_cell_angle_gamma   152.92133030
_symmetry_Int_Tables_number   1
_chemical_formula_structural   Cs4Li2TiAlP4
_chemical_formula_sum   'Cs4 Li2 Ti1 Al1 P4'
_cell_volume   447.72094289
_cell_formula_units_Z   1
loop_
 _symmetry_equiv_pos_site_id
 _symmetry_equiv_pos_as_xyz
  1  'x, y, z'
loop_
 _atom_site_type_symbol
 _atom_site_label
 _atom_site_symmetry_multiplicity
 _atom_site_fract_x
 _atom_site_fract_y
 _atom_site_fract_z
 _atom_site_occupancy
  Cs  Cs0  1  0.367669  0.764725  0.124922  1
  Cs  Cs1  1  0.132331  0.257253  0.397057  1
  Cs  Cs2  1  0.860195  0.735274  0.602943  1
  Cs  Cs3  1  0.639805  0.242747  0.875078  1
  Li  Li4  1  0.750001  0.250001  0.500000  1
  Li  Li5  1  0.250001  0.750000  0.500000  1
  Ti  Ti6  1  0.250001  0.250001  0.000000  1
  Al  Al7  1  0.750000  0.750000  0.000000  1
  P  P8  1  0.949881  0.227368  0.170043  1
  P  P9  1  0.550119  0.720161  0.277487  1
  P  P10  1  0.442675  0.272632  0.722513  1
  P  P11  1  0.057325  0.779837  0.829957  1
