# generated using pymatgen
data_PrY2Mn(Co4P3)2
_symmetry_space_group_name_H-M   'P 1'
_cell_length_a   3.72399900
_cell_length_b   10.59877800
_cell_length_c   12.26913800
_cell_angle_alpha   90.00000000
_cell_angle_beta   90.00000000
_cell_angle_gamma   90.00000000
_symmetry_Int_Tables_number   1
_chemical_formula_structural   PrY2Mn(Co4P3)2
_chemical_formula_sum   'Pr2 Y4 Mn2 Co16 P12'
_cell_volume   484.26089752
_cell_formula_units_Z   2
loop_
 _symmetry_equiv_pos_site_id
 _symmetry_equiv_pos_as_xyz
  1  'x, y, z'
loop_
 _atom_site_type_symbol
 _atom_site_label
 _atom_site_symmetry_multiplicity
 _atom_site_fract_x
 _atom_site_fract_y
 _atom_site_fract_z
 _atom_site_occupancy
  Pr  Pr0  1  0.000000  0.500000  0.522670  1
  Pr  Pr1  1  0.500000  0.000000  0.477330  1
  Y  Y2  1  0.500000  0.817839  0.204122  1
  Y  Y3  1  0.500000  0.182161  0.204122  1
  Y  Y4  1  0.000000  0.682161  0.795878  1
  Y  Y5  1  0.000000  0.317839  0.795878  1
  Mn  Mn6  1  0.500000  0.500000  0.155459  1
  Mn  Mn7  1  0.000000  0.000000  0.844541  1
  Co  Co8  1  0.500000  0.500000  0.706294  1
  Co  Co9  1  0.000000  0.000000  0.293706  1
  Co  Co10  1  0.000000  0.500000  0.986611  1
  Co  Co11  1  0.500000  0.000000  0.013389  1
  Co  Co12  1  0.500000  0.333113  0.994533  1
  Co  Co13  1  0.500000  0.666887  0.994533  1
  Co  Co14  1  0.000000  0.166887  0.005467  1
  Co  Co15  1  0.000000  0.833113  0.005467  1
  Co  Co16  1  0.500000  0.296186  0.428634  1
  Co  Co17  1  0.500000  0.703814  0.428634  1
  Co  Co18  1  0.000000  0.203814  0.571366  1
  Co  Co19  1  0.000000  0.796186  0.571366  1
  Co  Co20  1  0.500000  0.880083  0.713067  1
  Co  Co21  1  0.500000  0.119917  0.713067  1
  Co  Co22  1  0.000000  0.619917  0.286933  1
  Co  Co23  1  0.000000  0.380083  0.286933  1
  P  P24  1  0.500000  0.500000  0.884294  1
  P  P25  1  0.000000  0.000000  0.115706  1
  P  P26  1  0.500000  0.500000  0.339034  1
  P  P27  1  0.000000  0.000000  0.660966  1
  P  P28  1  0.500000  0.306940  0.617831  1
  P  P29  1  0.500000  0.693060  0.617831  1
  P  P30  1  0.000000  0.193060  0.382169  1
  P  P31  1  0.000000  0.806940  0.382169  1
  P  P32  1  0.500000  0.846750  0.894630  1
  P  P33  1  0.500000  0.153250  0.894630  1
  P  P34  1  0.000000  0.653250  0.105370  1
  P  P35  1  0.000000  0.346750  0.105370  1
