# generated using pymatgen
data_Np2P2O9
_symmetry_space_group_name_H-M   'P 1'
_cell_length_a   5.75715691
_cell_length_b   5.75715654
_cell_length_c   12.69070301
_cell_angle_alpha   90.00280786
_cell_angle_beta   89.99704860
_cell_angle_gamma   103.60027516
_symmetry_Int_Tables_number   1
_chemical_formula_structural   Np2P2O9
_chemical_formula_sum   'Np4 P4 O18'
_cell_volume   408.83693108
_cell_formula_units_Z   2
loop_
 _symmetry_equiv_pos_site_id
 _symmetry_equiv_pos_as_xyz
  1  'x, y, z'
loop_
 _atom_site_type_symbol
 _atom_site_label
 _atom_site_symmetry_multiplicity
 _atom_site_fract_x
 _atom_site_fract_y
 _atom_site_fract_z
 _atom_site_occupancy
  Np  Np0  1  0.708333  0.291668  0.068740  1
  Np  Np1  1  0.208335  0.791665  0.431278  1
  Np  Np2  1  0.791664  0.208334  0.568722  1
  Np  Np3  1  0.291666  0.708331  0.931260  1
  P  P4  1  0.108080  0.891919  0.143125  1
  P  P5  1  0.608086  0.391912  0.356871  1
  P  P6  1  0.391913  0.608087  0.643130  1
  P  P7  1  0.891920  0.108081  0.856874  1
  O  O8  1  0.500000  0.500000  0.000000  1
  O  O9  1  0.012963  0.648098  0.084790  1
  O  O10  1  0.351903  0.987037  0.084790  1
  O  O11  1  0.939549  0.060450  0.124450  1
  O  O12  1  0.639128  0.360871  0.238872  1
  O  O13  1  0.139130  0.860870  0.261127  1
  O  O14  1  0.439552  0.560446  0.375543  1
  O  O15  1  0.512955  0.148084  0.415206  1
  O  O16  1  0.851917  0.487046  0.415206  1
  O  O17  1  0.000000  0.000000  0.500000  1
  O  O18  1  0.148084  0.512955  0.584794  1
  O  O19  1  0.487046  0.851917  0.584794  1
  O  O20  1  0.560447  0.439553  0.624457  1
  O  O21  1  0.860870  0.139130  0.738873  1
  O  O22  1  0.360871  0.639128  0.761128  1
  O  O23  1  0.060451  0.939550  0.875550  1
  O  O24  1  0.648098  0.012964  0.915210  1
  O  O25  1  0.987038  0.351903  0.915210  1
