# generated using pymatgen
data_Dy3Tm4Th(CdNi)2
_symmetry_space_group_name_H-M   'P 1'
_cell_length_a   9.51159114
_cell_length_b   9.51159028
_cell_length_c   9.52693400
_cell_angle_alpha   59.94661576
_cell_angle_beta   59.94661874
_cell_angle_gamma   60.00933062
_symmetry_Int_Tables_number   1
_chemical_formula_structural   Dy3Tm4Th(CdNi)2
_chemical_formula_sum   'Dy6 Tm8 Th2 Cd4 Ni4'
_cell_volume   609.00959800
_cell_formula_units_Z   2
loop_
 _symmetry_equiv_pos_site_id
 _symmetry_equiv_pos_as_xyz
  1  'x, y, z'
loop_
 _atom_site_type_symbol
 _atom_site_label
 _atom_site_symmetry_multiplicity
 _atom_site_fract_x
 _atom_site_fract_y
 _atom_site_fract_z
 _atom_site_occupancy
  Dy  Dy0  1  0.187001  0.813767  0.815480  1
  Dy  Dy1  1  0.813767  0.187001  0.183752  1
  Dy  Dy2  1  0.813767  0.187001  0.815480  1
  Dy  Dy3  1  0.187001  0.813767  0.183752  1
  Dy  Dy4  1  0.814231  0.814231  0.185769  1
  Dy  Dy5  1  0.186106  0.186106  0.813894  1
  Tm  Tm6  1  0.598050  0.200840  0.600556  1
  Tm  Tm7  1  0.200840  0.598050  0.600556  1
  Tm  Tm8  1  0.063527  0.438424  0.436639  1
  Tm  Tm9  1  0.438424  0.063527  0.061412  1
  Tm  Tm10  1  0.438424  0.063527  0.436639  1
  Tm  Tm11  1  0.063527  0.438424  0.061412  1
  Tm  Tm12  1  0.437103  0.437103  0.062897  1
  Tm  Tm13  1  0.062499  0.062499  0.437501  1
  Th  Th14  1  0.593956  0.593956  0.601253  1
  Th  Th15  1  0.593956  0.593956  0.210834  1
  Cd  Cd16  1  0.832896  0.832896  0.829081  1
  Cd  Cd17  1  0.832896  0.832896  0.505126  1
  Cd  Cd18  1  0.834371  0.505463  0.830083  1
  Cd  Cd19  1  0.505463  0.834371  0.830083  1
  Ni  Ni20  1  0.392726  0.392726  0.391623  1
  Ni  Ni21  1  0.392726  0.392726  0.822927  1
  Ni  Ni22  1  0.395207  0.821542  0.391626  1
  Ni  Ni23  1  0.821542  0.395207  0.391626  1
