# generated using pymatgen
data_La6DyEr9(CdIr)4
_symmetry_space_group_name_H-M   'P 1'
_cell_length_a   9.78459396
_cell_length_b   9.78459370
_cell_length_c   9.78459395
_cell_angle_alpha   59.90585415
_cell_angle_beta   59.90585654
_cell_angle_gamma   59.90585667
_symmetry_Int_Tables_number   1
_chemical_formula_structural   La6DyEr9(CdIr)4
_chemical_formula_sum   'La6 Dy1 Er9 Cd4 Ir4'
_cell_volume   660.97476636
_cell_formula_units_Z   1
loop_
 _symmetry_equiv_pos_site_id
 _symmetry_equiv_pos_as_xyz
  1  'x, y, z'
loop_
 _atom_site_type_symbol
 _atom_site_label
 _atom_site_symmetry_multiplicity
 _atom_site_fract_x
 _atom_site_fract_y
 _atom_site_fract_z
 _atom_site_occupancy
  La  La0  1  0.191738  0.807590  0.807590  1
  La  La1  1  0.806387  0.193261  0.193261  1
  La  La2  1  0.807590  0.191738  0.807590  1
  La  La3  1  0.193261  0.806387  0.193261  1
  La  La4  1  0.807590  0.807590  0.191738  1
  La  La5  1  0.193261  0.193261  0.806387  1
  Dy  Dy6  1  0.596582  0.596582  0.596582  1
  Er  Er7  1  0.596798  0.596798  0.210521  1
  Er  Er8  1  0.596798  0.210521  0.596798  1
  Er  Er9  1  0.210521  0.596798  0.596798  1
  Er  Er10  1  0.062917  0.436314  0.436314  1
  Er  Er11  1  0.435494  0.063495  0.063495  1
  Er  Er12  1  0.436314  0.062917  0.436314  1
  Er  Er13  1  0.063495  0.435494  0.063495  1
  Er  Er14  1  0.436314  0.436314  0.062917  1
  Er  Er15  1  0.063495  0.063495  0.435494  1
  Cd  Cd16  1  0.828274  0.828274  0.828274  1
  Cd  Cd17  1  0.828937  0.828937  0.514091  1
  Cd  Cd18  1  0.828937  0.514091  0.828937  1
  Cd  Cd19  1  0.514091  0.828937  0.828937  1
  Ir  Ir20  1  0.391273  0.391273  0.391273  1
  Ir  Ir21  1  0.390930  0.390930  0.828070  1
  Ir  Ir22  1  0.390930  0.828070  0.390930  1
  Ir  Ir23  1  0.828070  0.390930  0.390930  1
