# generated using pymatgen
data_Y3ErAl4IrPd3
_symmetry_space_group_name_H-M   'P 1'
_cell_length_a   4.42443200
_cell_length_b   6.84402512
_cell_length_c   7.82061999
_cell_angle_alpha   90.03942730
_cell_angle_beta   89.99960922
_cell_angle_gamma   90.00085683
_symmetry_Int_Tables_number   1
_chemical_formula_structural   Y3ErAl4IrPd3
_chemical_formula_sum   'Y3 Er1 Al4 Ir1 Pd3'
_cell_volume   236.81554151
_cell_formula_units_Z   1
loop_
 _symmetry_equiv_pos_site_id
 _symmetry_equiv_pos_as_xyz
  1  'x, y, z'
loop_
 _atom_site_type_symbol
 _atom_site_label
 _atom_site_symmetry_multiplicity
 _atom_site_fract_x
 _atom_site_fract_y
 _atom_site_fract_z
 _atom_site_occupancy
  Y  Y0  1  0.250002  0.035977  0.322694  1
  Y  Y1  1  0.249995  0.532263  0.179341  1
  Y  Y2  1  0.749999  0.976114  0.679147  1
  Er  Er3  1  0.749990  0.462548  0.817629  1
  Al  Al4  1  0.250001  0.145014  0.936685  1
  Al  Al5  1  0.250000  0.637806  0.561584  1
  Al  Al6  1  0.750003  0.856636  0.059165  1
  Al  Al7  1  0.750002  0.355705  0.442242  1
  Ir  Ir8  1  0.250004  0.269506  0.622388  1
  Pd  Pd9  1  0.250007  0.770332  0.879801  1
  Pd  Pd10  1  0.750004  0.728917  0.378510  1
  Pd  Pd11  1  0.749995  0.229183  0.120813  1
