# generated using pymatgen
data_Mn4Fe8Mo3W9C2
_symmetry_space_group_name_H-M   'P 1'
_cell_length_a   7.74175179
_cell_length_b   7.74108525
_cell_length_c   7.74427630
_cell_angle_alpha   60.01362890
_cell_angle_beta   60.01429139
_cell_angle_gamma   60.00283413
_symmetry_Int_Tables_number   1
_chemical_formula_structural   Mn4Fe8Mo3W9C2
_chemical_formula_sum   'Mn4 Fe8 Mo3 W9 C2'
_cell_volume   328.25235268
_cell_formula_units_Z   1
loop_
 _symmetry_equiv_pos_site_id
 _symmetry_equiv_pos_as_xyz
  1  'x, y, z'
loop_
 _atom_site_type_symbol
 _atom_site_label
 _atom_site_symmetry_multiplicity
 _atom_site_fract_x
 _atom_site_fract_y
 _atom_site_fract_z
 _atom_site_occupancy
  Mn  Mn0  1  0.125430  0.124754  0.625063  1
  Mn  Mn1  1  0.124953  0.625086  0.124731  1
  Mn  Mn2  1  0.124953  0.125230  0.124731  1
  Mn  Mn3  1  0.625114  0.124804  0.125278  1
  Fe  Fe4  1  0.921820  0.234018  0.921876  1
  Fe  Fe5  1  0.327791  0.015845  0.328033  1
  Fe  Fe6  1  0.327791  0.328331  0.328033  1
  Fe  Fe7  1  0.016138  0.327811  0.328239  1
  Fe  Fe8  1  0.922001  0.921872  0.234255  1
  Fe  Fe9  1  0.234403  0.921744  0.922109  1
  Fe  Fe10  1  0.328222  0.328077  0.015624  1
  Fe  Fe11  1  0.921820  0.922285  0.921876  1
  Mo  Mo12  1  0.303135  0.696705  0.696437  1
  Mo  Mo13  1  0.303135  0.303723  0.696437  1
  Mo  Mo14  1  0.552614  0.946907  0.553571  1
  W  W15  1  0.946537  0.553091  0.553423  1
  W  W16  1  0.552661  0.946798  0.947177  1
  W  W17  1  0.697130  0.302731  0.302390  1
  W  W18  1  0.947418  0.552243  0.948097  1
  W  W19  1  0.303351  0.696634  0.303381  1
  W  W20  1  0.552661  0.553363  0.947177  1
  W  W21  1  0.696206  0.303614  0.696565  1
  W  W22  1  0.697130  0.697749  0.302390  1
  W  W23  1  0.946537  0.946949  0.553423  1
  C  C24  1  0.750296  0.749632  0.750440  1
  C  C25  1  0.500752  0.500003  0.499242  1
