# generated using pymatgen
data_Sc4Ga4Tc3Mo
_symmetry_space_group_name_H-M   'P 1'
_cell_length_a   5.34998856
_cell_length_b   5.31521315
_cell_length_c   8.50203700
_cell_angle_alpha   90.00000000
_cell_angle_beta   90.00000000
_cell_angle_gamma   120.28490170
_symmetry_Int_Tables_number   1
_chemical_formula_structural   Sc4Ga4Tc3Mo
_chemical_formula_sum   'Sc4 Ga4 Tc3 Mo1'
_cell_volume   208.77245148
_cell_formula_units_Z   1
loop_
 _symmetry_equiv_pos_site_id
 _symmetry_equiv_pos_as_xyz
  1  'x, y, z'
loop_
 _atom_site_type_symbol
 _atom_site_label
 _atom_site_symmetry_multiplicity
 _atom_site_fract_x
 _atom_site_fract_y
 _atom_site_fract_z
 _atom_site_occupancy
  Sc  Sc0  1  0.325654  0.664660  0.440807  1
  Sc  Sc1  1  0.659432  0.332642  0.560944  1
  Sc  Sc2  1  0.659432  0.332642  0.939056  1
  Sc  Sc3  1  0.325654  0.664660  0.059193  1
  Ga  Ga4  1  0.840392  0.647475  0.250000  1
  Ga  Ga5  1  0.341915  0.155202  0.250000  1
  Ga  Ga6  1  0.184364  0.841811  0.750000  1
  Ga  Ga7  1  0.195833  0.355693  0.750000  1
  Tc  Tc8  1  0.977859  0.002132  0.500415  1
  Tc  Tc9  1  0.977859  0.002132  0.999585  1
  Tc  Tc10  1  0.679470  0.851793  0.750000  1
  Mo  Mo11  1  0.832136  0.149160  0.250000  1
