# generated using pymatgen
data_LiNd9Cd3Co
_symmetry_space_group_name_H-M   'P 1'
_cell_length_a   9.82242400
_cell_length_b   9.82242325
_cell_length_c   9.75348300
_cell_angle_alpha   90.00000000
_cell_angle_beta   90.00000000
_cell_angle_gamma   119.99998905
_symmetry_Int_Tables_number   1
_chemical_formula_structural   LiNd9Cd3Co
_chemical_formula_sum   'Li2 Nd18 Cd6 Co2'
_cell_volume   814.94393538
_cell_formula_units_Z   2
loop_
 _symmetry_equiv_pos_site_id
 _symmetry_equiv_pos_as_xyz
  1  'x, y, z'
loop_
 _atom_site_type_symbol
 _atom_site_label
 _atom_site_symmetry_multiplicity
 _atom_site_fract_x
 _atom_site_fract_y
 _atom_site_fract_z
 _atom_site_occupancy
  Li  Li0  1  0.000000  0.000000  0.500000  1
  Li  Li1  1  0.000000  0.000000  0.000000  1
  Nd  Nd2  1  0.541862  0.458138  0.250000  1
  Nd  Nd3  1  0.541862  0.083724  0.250000  1
  Nd  Nd4  1  0.916276  0.458138  0.250000  1
  Nd  Nd5  1  0.458138  0.541862  0.750000  1
  Nd  Nd6  1  0.458138  0.916276  0.750000  1
  Nd  Nd7  1  0.083724  0.541862  0.750000  1
  Nd  Nd8  1  0.207653  0.792347  0.437523  1
  Nd  Nd9  1  0.207653  0.415306  0.437523  1
  Nd  Nd10  1  0.584694  0.792347  0.437523  1
  Nd  Nd11  1  0.792347  0.207653  0.562477  1
  Nd  Nd12  1  0.792347  0.584694  0.562477  1
  Nd  Nd13  1  0.415306  0.207653  0.562477  1
  Nd  Nd14  1  0.792347  0.207653  0.937523  1
  Nd  Nd15  1  0.792347  0.584694  0.937523  1
  Nd  Nd16  1  0.415306  0.207653  0.937523  1
  Nd  Nd17  1  0.207653  0.792347  0.062477  1
  Nd  Nd18  1  0.207653  0.415306  0.062477  1
  Nd  Nd19  1  0.584694  0.792347  0.062477  1
  Cd  Cd20  1  0.893579  0.106421  0.250000  1
  Cd  Cd21  1  0.893579  0.787158  0.250000  1
  Cd  Cd22  1  0.212842  0.106421  0.250000  1
  Cd  Cd23  1  0.106421  0.893579  0.750000  1
  Cd  Cd24  1  0.106421  0.212842  0.750000  1
  Cd  Cd25  1  0.787158  0.893579  0.750000  1
  Co  Co26  1  0.333333  0.666667  0.250000  1
  Co  Co27  1  0.666667  0.333333  0.750000  1
