# generated using pymatgen
data_Tm2Al3Ga5Fe9
_symmetry_space_group_name_H-M   'P 1'
_cell_length_a   6.52689539
_cell_length_b   6.52494739
_cell_length_c   6.56056642
_cell_angle_alpha   83.79439037
_cell_angle_beta   96.20323053
_cell_angle_gamma   96.24072902
_symmetry_Int_Tables_number   1
_chemical_formula_structural   Tm2Al3Ga5Fe9
_chemical_formula_sum   'Tm2 Al3 Ga5 Fe9'
_cell_volume   274.80170659
_cell_formula_units_Z   1
loop_
 _symmetry_equiv_pos_site_id
 _symmetry_equiv_pos_as_xyz
  1  'x, y, z'
loop_
 _atom_site_type_symbol
 _atom_site_label
 _atom_site_symmetry_multiplicity
 _atom_site_fract_x
 _atom_site_fract_y
 _atom_site_fract_z
 _atom_site_occupancy
  Tm  Tm0  1  0.636036  0.363997  0.368609  1
  Tm  Tm1  1  0.362332  0.637764  0.632847  1
  Al  Al2  1  0.318274  0.317123  0.999246  1
  Al  Al3  1  0.682902  0.681796  0.999193  1
  Al  Al4  1  0.124018  0.875877  0.877594  1
  Ga  Ga5  1  0.869297  0.130645  0.129008  1
  Ga  Ga6  1  0.998935  0.679522  0.316966  1
  Ga  Ga7  1  0.320350  0.001071  0.316826  1
  Ga  Ga8  1  0.680917  0.997499  0.681842  1
  Ga  Ga9  1  0.002471  0.319225  0.681706  1
  Fe  Fe10  1  0.499523  0.999085  0.999166  1
  Fe  Fe11  1  0.000856  0.500569  0.998992  1
  Fe  Fe12  1  0.338982  0.660998  0.163826  1
  Fe  Fe13  1  0.165918  0.336929  0.336387  1
  Fe  Fe14  1  0.663095  0.834036  0.336526  1
  Fe  Fe15  1  0.000891  0.998898  0.500382  1
  Fe  Fe16  1  0.836289  0.662716  0.663289  1
  Fe  Fe17  1  0.337289  0.163691  0.663274  1
  Fe  Fe18  1  0.661629  0.338561  0.834322  1
