# generated using pymatgen
data_CsAl11O17
_symmetry_space_group_name_H-M   'P 1'
_cell_length_a   12.12351545
_cell_length_b   12.12351544
_cell_length_c   12.12351437
_cell_angle_alpha   26.97341944
_cell_angle_beta   26.97342020
_cell_angle_gamma   26.97341566
_symmetry_Int_Tables_number   1
_chemical_formula_structural   CsAl11O17
_chemical_formula_sum   'Cs1 Al11 O17'
_cell_volume   323.33963533
_cell_formula_units_Z   1
loop_
 _symmetry_equiv_pos_site_id
 _symmetry_equiv_pos_as_xyz
  1  'x, y, z'
loop_
 _atom_site_type_symbol
 _atom_site_label
 _atom_site_symmetry_multiplicity
 _atom_site_fract_x
 _atom_site_fract_y
 _atom_site_fract_z
 _atom_site_occupancy
  Cs  Cs0  1  0.168576  0.168576  0.168576  1
  Al  Al1  1  0.900410  0.407719  0.900410  1
  Al  Al2  1  0.000303  0.000303  0.000303  1
  Al  Al3  1  0.900410  0.900410  0.407719  1
  Al  Al4  1  0.407719  0.900410  0.900410  1
  Al  Al5  1  0.550437  0.550437  0.550437  1
  Al  Al6  1  0.650258  0.650258  0.650258  1
  Al  Al7  1  0.450007  0.450007  0.450007  1
  Al  Al8  1  0.349687  0.349687  0.349687  1
  Al  Al9  1  0.596238  0.098061  0.098061  1
  Al  Al10  1  0.098061  0.098061  0.596238  1
  Al  Al11  1  0.098061  0.596238  0.098061  1
  O  O12  1  0.703004  0.703004  0.703004  1
  O  O13  1  0.907989  0.907989  0.907989  1
  O  O14  1  0.717212  0.189690  0.189690  1
  O  O15  1  0.810782  0.281658  0.810782  1
  O  O16  1  0.906334  0.404957  0.404957  1
  O  O17  1  0.595986  0.093658  0.595986  1
  O  O18  1  0.404957  0.404957  0.906334  1
  O  O19  1  0.810782  0.810782  0.281658  1
  O  O20  1  0.189690  0.189690  0.717212  1
  O  O21  1  0.500335  0.500335  0.500335  1
  O  O22  1  0.595986  0.595986  0.093658  1
  O  O23  1  0.093658  0.595986  0.595986  1
  O  O24  1  0.404957  0.906334  0.404957  1
  O  O25  1  0.189690  0.717212  0.189690  1
  O  O26  1  0.281658  0.810782  0.810782  1
  O  O27  1  0.297017  0.297017  0.297017  1
  O  O28  1  0.090475  0.090475  0.090475  1
