# generated using pymatgen
data_Np2UAs4
_symmetry_space_group_name_H-M   'P 1'
_cell_length_a   7.37202429
_cell_length_b   7.37202401
_cell_length_c   7.37202402
_cell_angle_alpha   109.35153059
_cell_angle_beta   109.53109938
_cell_angle_gamma   109.53109745
_symmetry_Int_Tables_number   1
_chemical_formula_structural   Np2UAs4
_chemical_formula_sum   'Np4 U2 As8'
_cell_volume   308.41602301
_cell_formula_units_Z   2
loop_
 _symmetry_equiv_pos_site_id
 _symmetry_equiv_pos_as_xyz
  1  'x, y, z'
loop_
 _atom_site_type_symbol
 _atom_site_label
 _atom_site_symmetry_multiplicity
 _atom_site_fract_x
 _atom_site_fract_y
 _atom_site_fract_z
 _atom_site_occupancy
  Np  Np0  1  0.374645  0.250000  0.624645  1
  Np  Np1  1  0.625353  0.375353  0.250000  1
  Np  Np2  1  0.125354  0.750000  0.875354  1
  Np  Np3  1  0.874646  0.124646  0.750000  1
  U  U4  1  0.250000  0.624999  0.374999  1
  U  U5  1  0.750000  0.875000  0.125000  1
  As  As6  1  0.158082  0.158633  0.158966  1
  As  As7  1  0.499666  0.999117  0.341033  1
  As  As8  1  0.341917  0.500882  0.000551  1
  As  As9  1  0.000333  0.341366  0.499448  1
  As  As10  1  0.658084  0.658968  0.658635  1
  As  As11  1  0.500332  0.999449  0.841365  1
  As  As12  1  0.999667  0.841032  0.499116  1
  As  As13  1  0.841916  0.500550  0.000883  1
