# generated using pymatgen
data_Hf4NiW
_symmetry_space_group_name_H-M   'P 1'
_cell_length_a   8.71628095
_cell_length_b   8.71628117
_cell_length_c   8.71628200
_cell_angle_alpha   60.00000443
_cell_angle_beta   60.00000359
_cell_angle_gamma   60.00000104
_symmetry_Int_Tables_number   1
_chemical_formula_structural   Hf4NiW
_chemical_formula_sum   'Hf16 Ni4 W4'
_cell_volume   468.25104557
_cell_formula_units_Z   4
loop_
 _symmetry_equiv_pos_site_id
 _symmetry_equiv_pos_as_xyz
  1  'x, y, z'
loop_
 _atom_site_type_symbol
 _atom_site_label
 _atom_site_symmetry_multiplicity
 _atom_site_fract_x
 _atom_site_fract_y
 _atom_site_fract_z
 _atom_site_occupancy
  Hf  Hf0  1  0.692777  0.102407  0.102407  1
  Hf  Hf1  1  0.102407  0.692777  0.102407  1
  Hf  Hf2  1  0.102407  0.102407  0.692777  1
  Hf  Hf3  1  0.102407  0.102407  0.102407  1
  Hf  Hf4  1  0.314728  0.314728  0.685272  1
  Hf  Hf5  1  0.685272  0.685272  0.314728  1
  Hf  Hf6  1  0.314728  0.685272  0.314728  1
  Hf  Hf7  1  0.685272  0.314728  0.685272  1
  Hf  Hf8  1  0.685272  0.314728  0.314728  1
  Hf  Hf9  1  0.314728  0.685272  0.685272  1
  Hf  Hf10  1  0.953504  0.953504  0.546496  1
  Hf  Hf11  1  0.546496  0.546496  0.953504  1
  Hf  Hf12  1  0.953504  0.546496  0.953504  1
  Hf  Hf13  1  0.546496  0.953504  0.546496  1
  Hf  Hf14  1  0.546496  0.953504  0.953504  1
  Hf  Hf15  1  0.953504  0.546496  0.546496  1
  Ni  Ni16  1  0.325068  0.891644  0.891644  1
  Ni  Ni17  1  0.891644  0.325068  0.891644  1
  Ni  Ni18  1  0.891644  0.891644  0.325068  1
  Ni  Ni19  1  0.891644  0.891644  0.891644  1
  W  W20  1  0.001861  0.332712  0.332712  1
  W  W21  1  0.332712  0.001861  0.332712  1
  W  W22  1  0.332712  0.332712  0.001861  1
  W  W23  1  0.332712  0.332712  0.332712  1
