# generated using pymatgen
data_CaTbPa2(Al3Rh)6
_symmetry_space_group_name_H-M   'P 1'
_cell_length_a   7.60859915
_cell_length_b   7.60329608
_cell_length_c   9.40460500
_cell_angle_alpha   90.00000000
_cell_angle_beta   90.00000000
_cell_angle_gamma   119.52997817
_symmetry_Int_Tables_number   1
_chemical_formula_structural   CaTbPa2(Al3Rh)6
_chemical_formula_sum   'Ca1 Tb1 Pa2 Al18 Rh6'
_cell_volume   473.38588371
_cell_formula_units_Z   1
loop_
 _symmetry_equiv_pos_site_id
 _symmetry_equiv_pos_as_xyz
  1  'x, y, z'
loop_
 _atom_site_type_symbol
 _atom_site_label
 _atom_site_symmetry_multiplicity
 _atom_site_fract_x
 _atom_site_fract_y
 _atom_site_fract_z
 _atom_site_occupancy
  Ca  Ca0  1  0.671374  0.993773  0.250000  1
  Tb  Tb1  1  0.330015  0.006515  0.750000  1
  Pa  Pa2  1  0.997213  0.672265  0.250000  1
  Pa  Pa3  1  0.002385  0.327278  0.750000  1
  Al  Al4  1  0.131233  0.126391  0.250000  1
  Al  Al5  1  0.869254  0.872779  0.750000  1
  Al  Al6  1  0.000109  0.332632  0.078087  1
  Al  Al7  1  0.999139  0.666915  0.922364  1
  Al  Al8  1  0.999139  0.666915  0.577636  1
  Al  Al9  1  0.338435  0.002662  0.424059  1
  Al  Al10  1  0.000109  0.332632  0.421913  1
  Al  Al11  1  0.662085  0.997082  0.574429  1
  Al  Al12  1  0.662085  0.997082  0.925571  1
  Al  Al13  1  0.338435  0.002662  0.075941  1
  Al  Al14  1  0.334607  0.333396  0.551555  1
  Al  Al15  1  0.665104  0.666736  0.448210  1
  Al  Al16  1  0.665104  0.666736  0.051790  1
  Al  Al17  1  0.334607  0.333396  0.948445  1
  Al  Al18  1  0.338673  0.548528  0.250000  1
  Al  Al19  1  0.660227  0.451580  0.750000  1
  Al  Al20  1  0.551090  0.344837  0.250000  1
  Al  Al21  1  0.450160  0.657705  0.750000  1
  Rh  Rh22  1  0.674940  0.330429  0.998232  1
  Rh  Rh23  1  0.323550  0.669401  0.999249  1
  Rh  Rh24  1  0.323550  0.669401  0.500751  1
  Rh  Rh25  1  0.674940  0.330429  0.501768  1
  Rh  Rh26  1  0.001220  0.999921  0.998880  1
  Rh  Rh27  1  0.001220  0.999921  0.501120  1
