# generated using pymatgen
data_Pa5P12Os19
_symmetry_space_group_name_H-M   'P 1'
_cell_length_a   12.64377400
_cell_length_b   12.64377495
_cell_length_c   3.99514700
_cell_angle_alpha   90.00000000
_cell_angle_beta   90.00000000
_cell_angle_gamma   120.00000275
_symmetry_Int_Tables_number   1
_chemical_formula_structural   Pa5P12Os19
_chemical_formula_sum   'Pa5 P12 Os19'
_cell_volume   553.11681929
_cell_formula_units_Z   1
loop_
 _symmetry_equiv_pos_site_id
 _symmetry_equiv_pos_as_xyz
  1  'x, y, z'
loop_
 _atom_site_type_symbol
 _atom_site_label
 _atom_site_symmetry_multiplicity
 _atom_site_fract_x
 _atom_site_fract_y
 _atom_site_fract_z
 _atom_site_occupancy
  Pa  Pa0  1  0.187077  0.187077  0.500000  1
  Pa  Pa1  1  0.812923  0.000000  0.500000  1
  Pa  Pa2  1  0.000000  0.812923  0.500000  1
  Pa  Pa3  1  0.333333  0.666667  0.000000  1
  Pa  Pa4  1  0.666667  0.333333  0.000000  1
  P  P5  1  0.817979  0.817979  0.000000  1
  P  P6  1  0.182021  0.000000  0.000000  1
  P  P7  1  0.000000  0.182021  0.000000  1
  P  P8  1  0.173780  0.478408  0.500000  1
  P  P9  1  0.521592  0.695373  0.500000  1
  P  P10  1  0.304627  0.826220  0.500000  1
  P  P11  1  0.695373  0.521592  0.500000  1
  P  P12  1  0.826220  0.304627  0.500000  1
  P  P13  1  0.478408  0.173780  0.500000  1
  P  P14  1  0.370407  0.370407  0.000000  1
  P  P15  1  0.629593  0.000000  0.000000  1
  P  P16  1  0.000000  0.629593  0.000000  1
  Os  Os17  1  0.552384  0.552384  0.000000  1
  Os  Os18  1  0.447616  0.000000  0.000000  1
  Os  Os19  1  0.000000  0.447616  0.000000  1
  Os  Os20  1  0.713165  0.713165  0.500000  1
  Os  Os21  1  0.286835  0.000000  0.500000  1
  Os  Os22  1  0.000000  0.286835  0.500000  1
  Os  Os23  1  0.183469  0.374428  0.000000  1
  Os  Os24  1  0.625572  0.809040  0.000000  1
  Os  Os25  1  0.190960  0.816531  0.000000  1
  Os  Os26  1  0.809040  0.625572  0.000000  1
  Os  Os27  1  0.816531  0.190960  0.000000  1
  Os  Os28  1  0.374428  0.183469  0.000000  1
  Os  Os29  1  0.367405  0.496700  0.500000  1
  Os  Os30  1  0.503300  0.870705  0.500000  1
  Os  Os31  1  0.129295  0.632595  0.500000  1
  Os  Os32  1  0.870705  0.503300  0.500000  1
  Os  Os33  1  0.632595  0.129295  0.500000  1
  Os  Os34  1  0.496700  0.367405  0.500000  1
  Os  Os35  1  0.000000  0.000000  0.000000  1
