# generated using pymatgen
data_Pr6OsPtBr6
_symmetry_space_group_name_H-M   'P 1'
_cell_length_a   10.64210368
_cell_length_b   10.64338704
_cell_length_c   10.56500523
_cell_angle_alpha   109.45003843
_cell_angle_beta   109.44521310
_cell_angle_gamma   109.81451528
_symmetry_Int_Tables_number   1
_chemical_formula_structural   Pr6OsPtBr6
_chemical_formula_sum   'Pr12 Os2 Pt2 Br12'
_cell_volume   917.81140403
_cell_formula_units_Z   2
loop_
 _symmetry_equiv_pos_site_id
 _symmetry_equiv_pos_as_xyz
  1  'x, y, z'
loop_
 _atom_site_type_symbol
 _atom_site_label
 _atom_site_symmetry_multiplicity
 _atom_site_fract_x
 _atom_site_fract_y
 _atom_site_fract_z
 _atom_site_occupancy
  Pr  Pr0  1  0.469834  0.490066  0.231685  1
  Pr  Pr1  1  0.758390  0.238144  0.268328  1
  Pr  Pr2  1  0.758250  0.020185  0.488420  1
  Pr  Pr3  1  0.230170  0.468235  0.488420  1
  Pr  Pr4  1  0.261851  0.741619  0.231686  1
  Pr  Pr5  1  0.031735  0.269807  0.011576  1
  Pr  Pr6  1  0.009938  0.030184  0.268328  1
  Pr  Pr7  1  0.479841  0.741770  0.011576  1
  Pr  Pr8  1  0.485592  0.235593  0.471184  1
  Pr  Pr9  1  0.015748  0.484235  0.749986  1
  Pr  Pr10  1  0.264411  0.014411  0.028822  1
  Pr  Pr11  1  0.234239  0.265751  0.749987  1
  Os  Os12  1  0.999334  0.249334  0.498668  1
  Os  Os13  1  0.250667  0.500667  0.001334  1
  Pt  Pt14  1  0.250773  0.249222  0.250001  1
  Pt  Pt15  1  0.499229  0.000779  0.250002  1
  Br  Br16  1  0.250400  0.755117  0.746358  1
  Br  Br17  1  0.508768  0.504050  0.753645  1
  Br  Br18  1  0.993450  0.746994  0.996629  1
  Br  Br19  1  0.744878  0.249596  0.753646  1
  Br  Br20  1  0.995957  0.991240  0.746357  1
  Br  Br21  1  0.250366  0.996820  0.503371  1
  Br  Br22  1  0.753004  0.506552  0.503371  1
  Br  Br23  1  0.503178  0.249634  0.996628  1
  Br  Br24  1  0.754402  0.745601  0.250000  1
  Br  Br25  1  0.746363  0.996362  0.992724  1
  Br  Br26  1  0.995598  0.504400  0.250002  1
  Br  Br27  1  0.503633  0.753633  0.507267  1
