# generated using pymatgen
data_CsBaAsO3
_symmetry_space_group_name_H-M   'P 1'
_cell_length_a   8.16538560
_cell_length_b   8.07166400
_cell_length_c   8.33484100
_cell_angle_alpha   89.99975865
_cell_angle_beta   99.66720759
_cell_angle_gamma   90.00036941
_symmetry_Int_Tables_number   1
_chemical_formula_structural   CsBaAsO3
_chemical_formula_sum   'Cs4 Ba4 As4 O12'
_cell_volume   541.53407921
_cell_formula_units_Z   4
loop_
 _symmetry_equiv_pos_site_id
 _symmetry_equiv_pos_as_xyz
  1  'x, y, z'
loop_
 _atom_site_type_symbol
 _atom_site_label
 _atom_site_symmetry_multiplicity
 _atom_site_fract_x
 _atom_site_fract_y
 _atom_site_fract_z
 _atom_site_occupancy
  Cs  Cs0  1  0.129574  0.443000  0.220685  1
  Cs  Cs1  1  0.870424  0.942999  0.279313  1
  Cs  Cs2  1  0.129571  0.057000  0.720685  1
  Cs  Cs3  1  0.870428  0.557004  0.779311  1
  Ba  Ba4  1  0.560746  0.269517  0.000600  1
  Ba  Ba5  1  0.439255  0.769517  0.499400  1
  Ba  Ba6  1  0.560756  0.230481  0.500597  1
  Ba  Ba7  1  0.439247  0.730484  0.999404  1
  As  As8  1  0.261744  0.024380  0.202998  1
  As  As9  1  0.738270  0.524380  0.296997  1
  As  As10  1  0.261723  0.475625  0.702995  1
  As  As11  1  0.738276  0.975625  0.797005  1
  O  O12  1  0.222740  0.805847  0.204126  1
  O  O13  1  0.732552  0.574489  0.086325  1
  O  O14  1  0.482810  0.019391  0.199860  1
  O  O15  1  0.517184  0.519390  0.300143  1
  O  O16  1  0.267449  0.074490  0.413679  1
  O  O17  1  0.777258  0.305847  0.295875  1
  O  O18  1  0.222747  0.694144  0.704118  1
  O  O19  1  0.732556  0.925510  0.586336  1
  O  O20  1  0.482829  0.480610  0.699853  1
  O  O21  1  0.517167  0.980611  0.800145  1
  O  O22  1  0.267447  0.425512  0.913667  1
  O  O23  1  0.777251  0.194147  0.795881  1
