# generated using pymatgen
data_Ho13Er6LuPb16
_symmetry_space_group_name_H-M   'P 1'
_cell_length_a   8.17121000
_cell_length_b   8.24153867
_cell_length_c   15.57479600
_cell_angle_alpha   90.00272521
_cell_angle_beta   90.00099569
_cell_angle_gamma   90.02291399
_symmetry_Int_Tables_number   1
_chemical_formula_structural   Ho13Er6LuPb16
_chemical_formula_sum   'Ho13 Er6 Lu1 Pb16'
_cell_volume   1048.85874696
_cell_formula_units_Z   1
loop_
 _symmetry_equiv_pos_site_id
 _symmetry_equiv_pos_as_xyz
  1  'x, y, z'
loop_
 _atom_site_type_symbol
 _atom_site_label
 _atom_site_symmetry_multiplicity
 _atom_site_fract_x
 _atom_site_fract_y
 _atom_site_fract_z
 _atom_site_occupancy
  Ho  Ho0  1  0.122839  0.341248  0.121007  1
  Ho  Ho1  1  0.622291  0.158559  0.121085  1
  Ho  Ho2  1  0.122705  0.341197  0.378927  1
  Ho  Ho3  1  0.377337  0.841379  0.621057  1
  Ho  Ho4  1  0.877435  0.658696  0.878840  1
  Ho  Ho5  1  0.536953  0.323789  0.899952  1
  Ho  Ho6  1  0.037076  0.176343  0.599936  1
  Ho  Ho7  1  0.462775  0.676586  0.400112  1
  Ho  Ho8  1  0.962995  0.823906  0.099944  1
  Ho  Ho9  1  0.462848  0.676495  0.099808  1
  Ho  Ho10  1  0.963000  0.823959  0.400144  1
  Ho  Ho11  1  0.536996  0.323835  0.599966  1
  Ho  Ho12  1  0.036986  0.176115  0.899982  1
  Er  Er13  1  0.377190  0.841482  0.878890  1
  Er  Er14  1  0.877246  0.658587  0.621179  1
  Er  Er15  1  0.622489  0.158414  0.378949  1
  Er  Er16  1  0.208873  0.504309  0.750008  1
  Er  Er17  1  0.708865  0.995807  0.749940  1
  Er  Er18  1  0.791026  0.495869  0.250109  1
  Lu  Lu19  1  0.291092  0.004362  0.250063  1
  Pb  Pb20  1  0.280911  0.032849  0.043009  1
  Pb  Pb21  1  0.780757  0.466506  0.457448  1
  Pb  Pb22  1  0.719343  0.966683  0.543115  1
  Pb  Pb23  1  0.219316  0.533479  0.956616  1
  Pb  Pb24  1  0.718634  0.966752  0.956590  1
  Pb  Pb25  1  0.218486  0.533095  0.543312  1
  Pb  Pb26  1  0.281432  0.033209  0.456715  1
  Pb  Pb27  1  0.781010  0.466688  0.042881  1
  Pb  Pb28  1  0.572145  0.626077  0.750097  1
  Pb  Pb29  1  0.072258  0.874024  0.749784  1
  Pb  Pb30  1  0.427915  0.373511  0.250331  1
  Pb  Pb31  1  0.928436  0.125397  0.250105  1
  Pb  Pb32  1  0.349190  0.154346  0.750106  1
  Pb  Pb33  1  0.849066  0.345299  0.749891  1
  Pb  Pb34  1  0.650790  0.845653  0.250083  1
  Pb  Pb35  1  0.151290  0.655500  0.250018  1
