# generated using pymatgen
data_CsTb6Y4(C2I9)2
_symmetry_space_group_name_H-M   'P 1'
_cell_length_a   11.47786030
_cell_length_b   11.49926507
_cell_length_c   11.52542140
_cell_angle_alpha   113.19831414
_cell_angle_beta   86.84297172
_cell_angle_gamma   119.88755367
_symmetry_Int_Tables_number   1
_chemical_formula_structural   CsTb6Y4(C2I9)2
_chemical_formula_sum   'Cs1 Tb6 Y4 C4 I18'
_cell_volume   1193.07108598
_cell_formula_units_Z   1
loop_
 _symmetry_equiv_pos_site_id
 _symmetry_equiv_pos_as_xyz
  1  'x, y, z'
loop_
 _atom_site_type_symbol
 _atom_site_label
 _atom_site_symmetry_multiplicity
 _atom_site_fract_x
 _atom_site_fract_y
 _atom_site_fract_z
 _atom_site_occupancy
  Cs  Cs0  1  0.499981  0.999965  0.499965  1
  Tb  Tb1  1  0.906702  0.609321  0.708236  1
  Tb  Tb2  1  0.104920  0.944543  0.000564  1
  Tb  Tb3  1  0.035841  0.962647  0.676293  1
  Tb  Tb4  1  0.322243  0.275394  0.288737  1
  Tb  Tb5  1  0.723297  0.647616  0.984970  1
  Tb  Tb6  1  0.894994  0.055267  0.999329  1
  Y  Y7  1  0.678219  0.724977  0.711733  1
  Y  Y8  1  0.276242  0.352050  0.015486  1
  Y  Y9  1  0.093157  0.390164  0.291297  1
  Y  Y10  1  0.964546  0.037759  0.323239  1
  C  C11  1  0.151650  0.219481  0.120833  1
  C  C12  1  0.848467  0.780353  0.879172  1
  C  C13  1  0.924041  0.856248  0.803409  1
  C  C14  1  0.076201  0.143754  0.196545  1
  I  I15  1  0.449093  0.529789  0.831698  1
  I  I16  1  0.383317  0.039549  0.157598  1
  I  I17  1  0.777371  0.855594  0.500884  1
  I  I18  1  0.838151  0.310202  0.153476  1
  I  I19  1  0.549991  0.469751  0.168213  1
  I  I20  1  0.222310  0.144547  0.498518  1
  I  I21  1  0.317530  0.096397  0.830558  1
  I  I22  1  0.682839  0.904237  0.169993  1
  I  I23  1  0.975580  0.756787  0.169830  1
  I  I24  1  0.933621  0.298507  0.501270  1
  I  I25  1  0.024803  0.243780  0.830729  1
  I  I26  1  0.066549  0.701444  0.498449  1
  I  I27  1  0.260710  0.621558  0.182871  1
  I  I28  1  0.739085  0.377992  0.817112  1
  I  I29  1  0.641869  0.434642  0.500191  1
  I  I30  1  0.162246  0.690001  0.846802  1
  I  I31  1  0.616758  0.959871  0.842063  1
  I  I32  1  0.357675  0.565813  0.499939  1
