# generated using pymatgen
data_La5Yb7OsRu3
_symmetry_space_group_name_H-M   'P 1'
_cell_length_a   6.52416071
_cell_length_b   7.53696800
_cell_length_c   9.61972866
_cell_angle_alpha   89.60230117
_cell_angle_beta   90.19503660
_cell_angle_gamma   90.69301529
_symmetry_Int_Tables_number   1
_chemical_formula_structural   La5Yb7OsRu3
_chemical_formula_sum   'La5 Yb7 Os1 Ru3'
_cell_volume   472.97645198
_cell_formula_units_Z   1
loop_
 _symmetry_equiv_pos_site_id
 _symmetry_equiv_pos_as_xyz
  1  'x, y, z'
loop_
 _atom_site_type_symbol
 _atom_site_label
 _atom_site_symmetry_multiplicity
 _atom_site_fract_x
 _atom_site_fract_y
 _atom_site_fract_z
 _atom_site_occupancy
  La  La0  1  0.161324  0.164475  0.073091  1
  La  La1  1  0.854457  0.551116  0.252026  1
  La  La2  1  0.636894  0.053538  0.252688  1
  La  La3  1  0.134173  0.441942  0.748464  1
  La  La4  1  0.372515  0.938597  0.748315  1
  Yb  Yb5  1  0.332591  0.667905  0.067921  1
  Yb  Yb6  1  0.160175  0.170895  0.434556  1
  Yb  Yb7  1  0.659479  0.331232  0.569822  1
  Yb  Yb8  1  0.837731  0.827892  0.933502  1
  Yb  Yb9  1  0.660770  0.329351  0.931012  1
  Yb  Yb10  1  0.843620  0.830061  0.567806  1
  Yb  Yb11  1  0.335711  0.670401  0.426783  1
  Os  Os12  1  0.023281  0.882652  0.245120  1
  Ru  Ru13  1  0.488199  0.364703  0.248029  1
  Ru  Ru14  1  0.987934  0.137993  0.753567  1
  Ru  Ru15  1  0.511146  0.637250  0.747298  1
