# generated using pymatgen
data_YbHf2Be2Ir5
_symmetry_space_group_name_H-M   'P 1'
_cell_length_a   9.70573300
_cell_length_b   9.71921600
_cell_length_c   3.21890400
_cell_angle_alpha   90.00000000
_cell_angle_beta   90.00000000
_cell_angle_gamma   90.00000000
_symmetry_Int_Tables_number   1
_chemical_formula_structural   YbHf2Be2Ir5
_chemical_formula_sum   'Yb2 Hf4 Be4 Ir10'
_cell_volume   303.64602380
_cell_formula_units_Z   2
loop_
 _symmetry_equiv_pos_site_id
 _symmetry_equiv_pos_as_xyz
  1  'x, y, z'
loop_
 _atom_site_type_symbol
 _atom_site_label
 _atom_site_symmetry_multiplicity
 _atom_site_fract_x
 _atom_site_fract_y
 _atom_site_fract_z
 _atom_site_occupancy
  Yb  Yb0  1  0.175555  0.676525  0.000000  1
  Yb  Yb1  1  0.324445  0.176525  0.000000  1
  Hf  Hf2  1  0.826824  0.324012  0.000000  1
  Hf  Hf3  1  0.494278  0.496460  0.000000  1
  Hf  Hf4  1  0.673176  0.824012  0.000000  1
  Hf  Hf5  1  0.005722  0.996460  0.000000  1
  Be  Be6  1  0.381261  0.879271  0.000000  1
  Be  Be7  1  0.118739  0.379271  0.000000  1
  Be  Be8  1  0.875417  0.620027  0.000000  1
  Be  Be9  1  0.624583  0.120027  0.000000  1
  Ir  Ir10  1  0.222317  0.932151  0.500000  1
  Ir  Ir11  1  0.913492  0.785528  0.500000  1
  Ir  Ir12  1  0.444272  0.719423  0.500000  1
  Ir  Ir13  1  0.586508  0.285528  0.500000  1
  Ir  Ir14  1  0.711194  0.570013  0.500000  1
  Ir  Ir15  1  0.277683  0.432151  0.500000  1
  Ir  Ir16  1  0.055728  0.219423  0.500000  1
  Ir  Ir17  1  0.988980  0.496590  0.500000  1
  Ir  Ir18  1  0.511020  0.996590  0.500000  1
  Ir  Ir19  1  0.788806  0.070013  0.500000  1
