# generated using pymatgen
data_Dy5Er11(In3Fe)2
_symmetry_space_group_name_H-M   'P 1'
_cell_length_a   10.27873852
_cell_length_b   10.27873759
_cell_length_c   6.98958931
_cell_angle_alpha   90.02961015
_cell_angle_beta   89.97039341
_cell_angle_gamma   120.05468586
_symmetry_Int_Tables_number   1
_chemical_formula_structural   Dy5Er11(In3Fe)2
_chemical_formula_sum   'Dy5 Er11 In6 Fe2'
_cell_volume   639.17860228
_cell_formula_units_Z   1
loop_
 _symmetry_equiv_pos_site_id
 _symmetry_equiv_pos_as_xyz
  1  'x, y, z'
loop_
 _atom_site_type_symbol
 _atom_site_label
 _atom_site_symmetry_multiplicity
 _atom_site_fract_x
 _atom_site_fract_y
 _atom_site_fract_z
 _atom_site_occupancy
  Dy  Dy0  1  0.534589  0.069152  0.792107  1
  Dy  Dy1  1  0.930848  0.465411  0.792107  1
  Dy  Dy2  1  0.534365  0.465635  0.792452  1
  Dy  Dy3  1  0.465328  0.930497  0.292076  1
  Dy  Dy4  1  0.069503  0.534672  0.292076  1
  Er  Er5  1  0.465362  0.534638  0.292738  1
  Er  Er6  1  0.820773  0.642018  0.497777  1
  Er  Er7  1  0.357982  0.179227  0.497777  1
  Er  Er8  1  0.821245  0.178755  0.497866  1
  Er  Er9  1  0.179391  0.358255  0.998342  1
  Er  Er10  1  0.641745  0.820609  0.998342  1
  Er  Er11  1  0.178797  0.821203  0.998134  1
  Er  Er12  1  0.666425  0.333575  0.179506  1
  Er  Er13  1  0.333602  0.666398  0.679331  1
  Er  Er14  1  0.999868  0.000132  0.779182  1
  Er  Er15  1  0.999999  0.000001  0.279117  1
  In  In16  1  0.837351  0.675321  0.040021  1
  In  In17  1  0.324679  0.162649  0.040021  1
  In  In18  1  0.837608  0.162392  0.040389  1
  In  In19  1  0.162812  0.325036  0.539870  1
  In  In20  1  0.674964  0.837188  0.539870  1
  In  In21  1  0.162538  0.837462  0.540242  1
  Fe  Fe22  1  0.666707  0.333293  0.568181  1
  Fe  Fe23  1  0.333517  0.666483  0.068384  1
