# generated using pymatgen
data_Er3Al3Zn2Au
_symmetry_space_group_name_H-M   'P 1'
_cell_length_a   7.00060900
_cell_length_b   7.00060855
_cell_length_c   4.27064700
_cell_angle_alpha   90.00000000
_cell_angle_beta   90.00000000
_cell_angle_gamma   119.99999742
_symmetry_Int_Tables_number   1
_chemical_formula_structural   Er3Al3Zn2Au
_chemical_formula_sum   'Er3 Al3 Zn2 Au1'
_cell_volume   181.25747847
_cell_formula_units_Z   1
loop_
 _symmetry_equiv_pos_site_id
 _symmetry_equiv_pos_as_xyz
  1  'x, y, z'
loop_
 _atom_site_type_symbol
 _atom_site_label
 _atom_site_symmetry_multiplicity
 _atom_site_fract_x
 _atom_site_fract_y
 _atom_site_fract_z
 _atom_site_occupancy
  Er  Er0  1  0.422934  0.422934  0.500000  1
  Er  Er1  1  0.577066  0.000000  0.500000  1
  Er  Er2  1  0.000000  0.577066  0.500000  1
  Al  Al3  1  0.758520  0.758520  0.000000  1
  Al  Al4  1  0.241480  0.000000  0.000000  1
  Al  Al5  1  0.000000  0.241480  0.000000  1
  Zn  Zn6  1  0.666667  0.333333  0.000000  1
  Zn  Zn7  1  0.333333  0.666667  0.000000  1
  Au  Au8  1  0.000000  0.000000  0.500000  1
