# generated using pymatgen
data_Hf6Al16CuNi5Ru
_symmetry_space_group_name_H-M   'P 1'
_cell_length_a   8.54863463
_cell_length_b   8.54651963
_cell_length_c   8.54652118
_cell_angle_alpha   59.86591545
_cell_angle_beta   59.99182962
_cell_angle_gamma   59.99182079
_symmetry_Int_Tables_number   1
_chemical_formula_structural   Hf6Al16CuNi5Ru
_chemical_formula_sum   'Hf6 Al16 Cu1 Ni5 Ru1'
_cell_volume   441.02665422
_cell_formula_units_Z   1
loop_
 _symmetry_equiv_pos_site_id
 _symmetry_equiv_pos_as_xyz
  1  'x, y, z'
loop_
 _atom_site_type_symbol
 _atom_site_label
 _atom_site_symmetry_multiplicity
 _atom_site_fract_x
 _atom_site_fract_y
 _atom_site_fract_z
 _atom_site_occupancy
  Hf  Hf0  1  0.688814  0.688897  0.311103  1
  Hf  Hf1  1  0.311186  0.688897  0.311103  1
  Hf  Hf2  1  0.687708  0.312292  0.312292  1
  Hf  Hf3  1  0.311186  0.311103  0.688897  1
  Hf  Hf4  1  0.688814  0.311103  0.688897  1
  Hf  Hf5  1  0.312292  0.687708  0.687708  1
  Al  Al6  1  0.881049  0.878682  0.359219  1
  Al  Al7  1  0.881049  0.359219  0.878682  1
  Al  Al8  1  0.358509  0.877300  0.877300  1
  Al  Al9  1  0.886891  0.877300  0.877300  1
  Al  Al10  1  0.118951  0.121318  0.640781  1
  Al  Al11  1  0.118951  0.640781  0.121318  1
  Al  Al12  1  0.641491  0.122700  0.122700  1
  Al  Al13  1  0.113109  0.122700  0.122700  1
  Al  Al14  1  0.668041  0.662293  0.001624  1
  Al  Al15  1  0.668041  0.001624  0.662293  1
  Al  Al16  1  0.003624  0.665113  0.665113  1
  Al  Al17  1  0.666150  0.665113  0.665113  1
  Al  Al18  1  0.331959  0.337707  0.998376  1
  Al  Al19  1  0.331959  0.998376  0.337707  1
  Al  Al20  1  0.996376  0.334887  0.334887  1
  Al  Al21  1  0.333850  0.334887  0.334887  1
  Cu  Cu22  1  0.500000  0.000000  0.000000  1
  Ni  Ni23  1  0.000000  0.000000  0.500000  1
  Ni  Ni24  1  0.500000  0.000000  0.500000  1
  Ni  Ni25  1  0.000000  0.500000  0.500000  1
  Ni  Ni26  1  0.500000  0.500000  0.000000  1
  Ni  Ni27  1  0.000000  0.500000  0.000000  1
  Ru  Ru28  1  0.000000  0.000000  0.000000  1
