# generated using pymatgen
data_Ho2Tm2Al3ZnPt4
_symmetry_space_group_name_H-M   'P 1'
_cell_length_a   4.40994800
_cell_length_b   6.77766229
_cell_length_c   7.78233410
_cell_angle_alpha   89.80835492
_cell_angle_beta   90.00000000
_cell_angle_gamma   90.00000000
_symmetry_Int_Tables_number   1
_chemical_formula_structural   Ho2Tm2Al3ZnPt4
_chemical_formula_sum   'Ho2 Tm2 Al3 Zn1 Pt4'
_cell_volume   232.60595869
_cell_formula_units_Z   1
loop_
 _symmetry_equiv_pos_site_id
 _symmetry_equiv_pos_as_xyz
  1  'x, y, z'
loop_
 _atom_site_type_symbol
 _atom_site_label
 _atom_site_symmetry_multiplicity
 _atom_site_fract_x
 _atom_site_fract_y
 _atom_site_fract_z
 _atom_site_occupancy
  Ho  Ho0  1  0.750000  0.972335  0.317340  1
  Ho  Ho1  1  0.750000  0.468404  0.178657  1
  Tm  Tm2  1  0.250000  0.027965  0.686585  1
  Tm  Tm3  1  0.250000  0.527036  0.817537  1
  Al  Al4  1  0.250000  0.648776  0.438330  1
  Al  Al5  1  0.750000  0.853847  0.936276  1
  Al  Al6  1  0.750000  0.355793  0.560984  1
  Zn  Zn7  1  0.250000  0.151156  0.065435  1
  Pt  Pt8  1  0.250000  0.271179  0.392125  1
  Pt  Pt9  1  0.250000  0.762294  0.115174  1
  Pt  Pt10  1  0.750000  0.730346  0.616922  1
  Pt  Pt11  1  0.750000  0.230868  0.874636  1
