# generated using pymatgen
data_TiCd3P7N12
_symmetry_space_group_name_H-M   'P 1'
_cell_length_a   7.33737337
_cell_length_b   7.37523618
_cell_length_c   7.37523714
_cell_angle_alpha   109.57497779
_cell_angle_beta   109.36725922
_cell_angle_gamma   109.36726722
_symmetry_Int_Tables_number   1
_chemical_formula_structural   TiCd3P7N12
_chemical_formula_sum   'Ti1 Cd3 P7 N12'
_cell_volume   307.62826100
_cell_formula_units_Z   1
loop_
 _symmetry_equiv_pos_site_id
 _symmetry_equiv_pos_as_xyz
  1  'x, y, z'
loop_
 _atom_site_type_symbol
 _atom_site_label
 _atom_site_symmetry_multiplicity
 _atom_site_fract_x
 _atom_site_fract_y
 _atom_site_fract_z
 _atom_site_occupancy
  Ti  Ti0  1  0.627038  0.000000  0.000000  1
  Cd  Cd1  1  0.000011  0.000000  0.683474  1
  Cd  Cd2  1  0.000011  0.683474  0.000000  1
  Cd  Cd3  1  0.316538  0.316526  0.316526  1
  P  P4  1  0.254342  0.748710  0.499798  1
  P  P5  1  0.754544  0.248912  0.500202  1
  P  P6  1  0.754544  0.500202  0.248912  1
  P  P7  1  0.254342  0.499798  0.748710  1
  P  P8  1  0.505632  0.751088  0.251290  1
  P  P9  1  0.505632  0.251290  0.751088  1
  P  P10  1  0.958739  0.000000  0.000000  1
  N  N11  1  0.709935  0.278242  0.278242  1
  N  N12  1  0.290840  0.716991  0.286976  1
  N  N13  1  0.308947  0.584319  0.584319  1
  N  N14  1  0.573848  0.569985  0.283009  1
  N  N15  1  0.431693  0.721758  0.000000  1
  N  N16  1  0.003864  0.713024  0.430015  1
  N  N17  1  0.573848  0.283009  0.569985  1
  N  N18  1  0.724628  0.000000  0.415681  1
  N  N19  1  0.431693  0.000000  0.721758  1
  N  N20  1  0.724628  0.415681  0.000000  1
  N  N21  1  0.290840  0.286976  0.716991  1
  N  N22  1  0.003864  0.430015  0.713024  1
