# generated using pymatgen
data_Er3V(Ga4Tc)2
_symmetry_space_group_name_H-M   'P 1'
_cell_length_a   4.23799128
_cell_length_b   8.13925233
_cell_length_c   8.13925327
_cell_angle_alpha   69.66316939
_cell_angle_beta   74.90959661
_cell_angle_gamma   74.90959789
_symmetry_Int_Tables_number   1
_chemical_formula_structural   Er3V(Ga4Tc)2
_chemical_formula_sum   'Er3 V1 Ga8 Tc2'
_cell_volume   249.66325424
_cell_formula_units_Z   1
loop_
 _symmetry_equiv_pos_site_id
 _symmetry_equiv_pos_as_xyz
  1  'x, y, z'
loop_
 _atom_site_type_symbol
 _atom_site_label
 _atom_site_symmetry_multiplicity
 _atom_site_fract_x
 _atom_site_fract_y
 _atom_site_fract_z
 _atom_site_occupancy
  Er  Er0  1  0.500000  0.500000  0.500000  1
  Er  Er1  1  0.203173  0.796827  0.796827  1
  Er  Er2  1  0.796827  0.203173  0.203173  1
  V  V3  1  0.500000  0.000000  0.000000  1
  Ga  Ga4  1  0.366078  0.344082  0.923761  1
  Ga  Ga5  1  0.633922  0.655918  0.076239  1
  Ga  Ga6  1  0.366078  0.923761  0.344082  1
  Ga  Ga7  1  0.633922  0.076239  0.655918  1
  Ga  Ga8  1  0.150596  0.486832  0.211975  1
  Ga  Ga9  1  0.849404  0.513168  0.788025  1
  Ga  Ga10  1  0.150596  0.211975  0.486832  1
  Ga  Ga11  1  0.849404  0.788025  0.513168  1
  Tc  Tc12  1  0.000000  0.831790  0.168210  1
  Tc  Tc13  1  0.000000  0.168210  0.831790  1
