# generated using pymatgen
data_Na(Si2Rh3)2
_symmetry_space_group_name_H-M   'P 1'
_cell_length_a   7.09920900
_cell_length_b   7.09920932
_cell_length_c   3.68792100
_cell_angle_alpha   90.00000000
_cell_angle_beta   90.00000000
_cell_angle_gamma   119.99999385
_symmetry_Int_Tables_number   1
_chemical_formula_structural   Na(Si2Rh3)2
_chemical_formula_sum   'Na1 Si4 Rh6'
_cell_volume   160.96528078
_cell_formula_units_Z   1
loop_
 _symmetry_equiv_pos_site_id
 _symmetry_equiv_pos_as_xyz
  1  'x, y, z'
loop_
 _atom_site_type_symbol
 _atom_site_label
 _atom_site_symmetry_multiplicity
 _atom_site_fract_x
 _atom_site_fract_y
 _atom_site_fract_z
 _atom_site_occupancy
  Na  Na0  1  0.000000  0.000000  0.000000  1
  Si  Si1  1  0.800182  0.199818  0.500000  1
  Si  Si2  1  0.399637  0.199818  0.500000  1
  Si  Si3  1  0.333333  0.666667  0.000000  1
  Si  Si4  1  0.800182  0.600363  0.500000  1
  Rh  Rh5  1  0.196202  0.803798  0.500000  1
  Rh  Rh6  1  0.196202  0.392406  0.500000  1
  Rh  Rh7  1  0.533804  0.067610  0.000000  1
  Rh  Rh8  1  0.932390  0.466196  0.000000  1
  Rh  Rh9  1  0.533804  0.466196  0.000000  1
  Rh  Rh10  1  0.607594  0.803798  0.500000  1
