# generated using pymatgen
data_Tb2Nb3As2P5Rh9
_symmetry_space_group_name_H-M   'P 1'
_cell_length_a   3.96573800
_cell_length_b   9.71890772
_cell_length_c   9.77504449
_cell_angle_alpha   120.07976165
_cell_angle_beta   89.99924770
_cell_angle_gamma   90.00076297
_symmetry_Int_Tables_number   1
_chemical_formula_structural   Tb2Nb3As2P5Rh9
_chemical_formula_sum   'Tb2 Nb3 As2 P5 Rh9'
_cell_volume   326.01774145
_cell_formula_units_Z   1
loop_
 _symmetry_equiv_pos_site_id
 _symmetry_equiv_pos_as_xyz
  1  'x, y, z'
loop_
 _atom_site_type_symbol
 _atom_site_label
 _atom_site_symmetry_multiplicity
 _atom_site_fract_x
 _atom_site_fract_y
 _atom_site_fract_z
 _atom_site_occupancy
  Tb  Tb0  1  0.261765  0.668721  0.326376  1
  Tb  Tb1  1  0.761955  0.333785  0.668034  1
  Nb  Nb2  1  0.761935  0.097745  0.877422  1
  Nb  Nb3  1  0.761965  0.120903  0.217454  1
  Nb  Nb4  1  0.761951  0.779894  0.908760  1
  As  As5  1  0.761796  0.875316  0.587501  1
  As  As6  1  0.761833  0.414233  0.290014  1
  P  P7  1  0.262018  0.999270  0.000997  1
  P  P8  1  0.761863  0.712818  0.120028  1
  P  P9  1  0.261905  0.114894  0.415387  1
  P  P10  1  0.261931  0.582681  0.701380  1
  P  P11  1  0.261892  0.301336  0.882883  1
  Rh  Rh12  1  0.261907  0.883250  0.161493  1
  Rh  Rh13  1  0.261916  0.838718  0.729084  1
  Rh  Rh14  1  0.261850  0.274143  0.109275  1
  Rh  Rh15  1  0.761934  0.608347  0.571593  1
  Rh  Rh16  1  0.761907  0.442036  0.047046  1
  Rh  Rh17  1  0.761901  0.950748  0.384202  1
  Rh  Rh18  1  0.261877  0.364228  0.440796  1
  Rh  Rh19  1  0.261943  0.562236  0.927311  1
  Rh  Rh20  1  0.261956  0.074697  0.632962  1
