# generated using pymatgen
data_HoTmTh2(AlRh)4
_symmetry_space_group_name_H-M   'P 1'
_cell_length_a   4.28657400
_cell_length_b   6.90654238
_cell_length_c   8.03138108
_cell_angle_alpha   90.19871728
_cell_angle_beta   90.00000000
_cell_angle_gamma   90.00000000
_symmetry_Int_Tables_number   1
_chemical_formula_structural   HoTmTh2(AlRh)4
_chemical_formula_sum   'Ho1 Tm1 Th2 Al4 Rh4'
_cell_volume   237.77085953
_cell_formula_units_Z   1
loop_
 _symmetry_equiv_pos_site_id
 _symmetry_equiv_pos_as_xyz
  1  'x, y, z'
loop_
 _atom_site_type_symbol
 _atom_site_label
 _atom_site_symmetry_multiplicity
 _atom_site_fract_x
 _atom_site_fract_y
 _atom_site_fract_z
 _atom_site_occupancy
  Ho  Ho0  1  0.250000  0.457030  0.182530  1
  Tm  Tm1  1  0.750000  0.043162  0.682592  1
  Th  Th2  1  0.250000  0.962282  0.324773  1
  Th  Th3  1  0.750000  0.538180  0.824000  1
  Al  Al4  1  0.750000  0.625347  0.438710  1
  Al  Al5  1  0.750000  0.133118  0.057623  1
  Al  Al6  1  0.250000  0.365897  0.558471  1
  Al  Al7  1  0.250000  0.875269  0.937928  1
  Rh  Rh8  1  0.750000  0.758878  0.121113  1
  Rh  Rh9  1  0.750000  0.255722  0.376381  1
  Rh  Rh10  1  0.250000  0.242805  0.874745  1
  Rh  Rh11  1  0.250000  0.742309  0.621134  1
