# generated using pymatgen
data_Sm5P12Ru5Rh14
_symmetry_space_group_name_H-M   'P 1'
_cell_length_a   12.72416902
_cell_length_b   12.68825333
_cell_length_c   3.97115100
_cell_angle_alpha   90.00000000
_cell_angle_beta   90.00000000
_cell_angle_gamma   120.06198725
_symmetry_Int_Tables_number   1
_chemical_formula_structural   Sm5P12Ru5Rh14
_chemical_formula_sum   'Sm5 P12 Ru5 Rh14'
_cell_volume   554.88973815
_cell_formula_units_Z   1
loop_
 _symmetry_equiv_pos_site_id
 _symmetry_equiv_pos_as_xyz
  1  'x, y, z'
loop_
 _atom_site_type_symbol
 _atom_site_label
 _atom_site_symmetry_multiplicity
 _atom_site_fract_x
 _atom_site_fract_y
 _atom_site_fract_z
 _atom_site_occupancy
  Sm  Sm0  1  0.666133  0.330905  0.000000  1
  Sm  Sm1  1  0.334554  0.668177  0.000000  1
  Sm  Sm2  1  0.814066  0.000873  0.500000  1
  Sm  Sm3  1  0.184870  0.186459  0.500000  1
  Sm  Sm4  1  0.999819  0.812814  0.500000  1
  P  P5  1  0.634016  0.999430  0.000000  1
  P  P6  1  0.365934  0.366236  0.000000  1
  P  P7  1  0.000270  0.633586  0.000000  1
  P  P8  1  0.688900  0.520063  0.500000  1
  P  P9  1  0.829668  0.307005  0.500000  1
  P  P10  1  0.316462  0.835356  0.500000  1
  P  P11  1  0.520369  0.691287  0.500000  1
  P  P12  1  0.182144  0.000143  0.000000  1
  P  P13  1  0.817488  0.816751  0.000000  1
  P  P14  1  0.997255  0.183170  0.000000  1
  P  P15  1  0.477566  0.166946  0.500000  1
  P  P16  1  0.168567  0.480157  0.500000  1
  Ru  Ru17  1  0.513786  0.873894  0.500000  1
  Ru  Ru18  1  0.714745  0.714956  0.500000  1
  Ru  Ru19  1  0.000407  0.285822  0.500000  1
  Ru  Ru20  1  0.817917  0.196730  0.000000  1
  Ru  Ru21  1  0.282054  0.999589  0.500000  1
  Rh  Rh22  1  0.623787  0.803958  0.000000  1
  Rh  Rh23  1  0.182494  0.378102  0.000000  1
  Rh  Rh24  1  0.376270  0.181726  0.000000  1
  Rh  Rh25  1  0.194846  0.818627  0.000000  1
  Rh  Rh26  1  0.803368  0.621432  0.000000  1
  Rh  Rh27  1  0.870513  0.508338  0.500000  1
  Rh  Rh28  1  0.490912  0.360656  0.500000  1
  Rh  Rh29  1  0.635427  0.126299  0.500000  1
  Rh  Rh30  1  0.131519  0.641076  0.500000  1
  Rh  Rh31  1  0.361575  0.490211  0.500000  1
  Rh  Rh32  1  0.999616  0.000163  0.000000  1
  Rh  Rh33  1  0.452328  0.998842  0.000000  1
  Rh  Rh34  1  0.548337  0.547619  0.000000  1
  Rh  Rh35  1  0.002018  0.452600  0.000000  1
