# generated using pymatgen
data_DyY3Si6IrRh
_symmetry_space_group_name_H-M   'P 1'
_cell_length_a   8.17632130
_cell_length_b   8.17636254
_cell_length_c   7.95030301
_cell_angle_alpha   90.00400548
_cell_angle_beta   89.99606313
_cell_angle_gamma   120.03039747
_symmetry_Int_Tables_number   1
_chemical_formula_structural   DyY3Si6IrRh
_chemical_formula_sum   'Dy2 Y6 Si12 Ir2 Rh2'
_cell_volume   460.14985779
_cell_formula_units_Z   2
loop_
 _symmetry_equiv_pos_site_id
 _symmetry_equiv_pos_as_xyz
  1  'x, y, z'
loop_
 _atom_site_type_symbol
 _atom_site_label
 _atom_site_symmetry_multiplicity
 _atom_site_fract_x
 _atom_site_fract_y
 _atom_site_fract_z
 _atom_site_occupancy
  Dy  Dy0  1  0.491007  0.982008  0.749651  1
  Dy  Dy1  1  0.017995  0.508993  0.749650  1
  Y  Y2  1  0.000074  0.999932  0.248452  1
  Y  Y3  1  0.999974  0.000026  0.751538  1
  Y  Y4  1  0.509175  0.490824  0.250285  1
  Y  Y5  1  0.509152  0.018356  0.250310  1
  Y  Y6  1  0.981644  0.490844  0.250312  1
  Y  Y7  1  0.490750  0.509245  0.749752  1
  Si  Si8  1  0.166809  0.833193  0.499304  1
  Si  Si9  1  0.166847  0.333741  0.499136  1
  Si  Si10  1  0.666265  0.833157  0.499133  1
  Si  Si11  1  0.833173  0.166826  0.501389  1
  Si  Si12  1  0.833119  0.666162  0.501162  1
  Si  Si13  1  0.333834  0.166877  0.501165  1
  Si  Si14  1  0.832912  0.167086  0.999953  1
  Si  Si15  1  0.832854  0.665601  0.000122  1
  Si  Si16  1  0.334386  0.167139  0.000122  1
  Si  Si17  1  0.167101  0.832899  0.999410  1
  Si  Si18  1  0.167124  0.334315  0.999613  1
  Si  Si19  1  0.665695  0.832881  0.999614  1
  Ir  Ir20  1  0.333191  0.666814  0.470438  1
  Ir  Ir21  1  0.666853  0.333147  0.531118  1
  Rh  Rh22  1  0.666887  0.333106  0.962500  1
  Rh  Rh23  1  0.333181  0.666828  0.035871  1
