# generated using pymatgen
data_V2TcS6
_symmetry_space_group_name_H-M   'P 1'
_cell_length_a   5.45133574
_cell_length_b   5.45133570
_cell_length_c   6.72523400
_cell_angle_alpha   82.26989971
_cell_angle_beta   82.26989440
_cell_angle_gamma   120.01108540
_symmetry_Int_Tables_number   1
_chemical_formula_structural   V2TcS6
_chemical_formula_sum   'V2 Tc1 S6'
_cell_volume   166.67768816
_cell_formula_units_Z   1
loop_
 _symmetry_equiv_pos_site_id
 _symmetry_equiv_pos_as_xyz
  1  'x, y, z'
loop_
 _atom_site_type_symbol
 _atom_site_label
 _atom_site_symmetry_multiplicity
 _atom_site_fract_x
 _atom_site_fract_y
 _atom_site_fract_z
 _atom_site_occupancy
  V  V0  1  0.833091  0.500419  0.500002  1
  V  V1  1  0.500419  0.833091  0.500002  1
  Tc  Tc2  1  0.166671  0.166671  0.500051  1
  S  S3  1  0.581110  0.243376  0.268112  1
  S  S4  1  0.243376  0.581110  0.268112  1
  S  S5  1  0.906358  0.906358  0.267742  1
  S  S6  1  0.752153  0.752153  0.732291  1
  S  S7  1  0.427202  0.089524  0.731994  1
  S  S8  1  0.089524  0.427202  0.731994  1
