# generated using pymatgen
data_Ba(HfSe2)3
_symmetry_space_group_name_H-M   'P 1'
_cell_length_a   6.52694065
_cell_length_b   6.52694142
_cell_length_c   8.24112653
_cell_angle_alpha   97.58673876
_cell_angle_beta   97.58674197
_cell_angle_gamma   120.00956229
_symmetry_Int_Tables_number   1
_chemical_formula_structural   Ba(HfSe2)3
_chemical_formula_sum   'Ba1 Hf3 Se6'
_cell_volume   293.22150658
_cell_formula_units_Z   1
loop_
 _symmetry_equiv_pos_site_id
 _symmetry_equiv_pos_as_xyz
  1  'x, y, z'
loop_
 _atom_site_type_symbol
 _atom_site_label
 _atom_site_symmetry_multiplicity
 _atom_site_fract_x
 _atom_site_fract_y
 _atom_site_fract_z
 _atom_site_occupancy
  Ba  Ba0  1  0.000000  0.000000  0.500000  1
  Hf  Hf1  1  0.834399  0.165601  0.000000  1
  Hf  Hf2  1  0.500000  0.500000  0.000000  1
  Hf  Hf3  1  0.165601  0.834399  0.000000  1
  Se  Se4  1  0.239486  0.239486  0.202082  1
  Se  Se5  1  0.900854  0.562009  0.202081  1
  Se  Se6  1  0.562009  0.900854  0.202081  1
  Se  Se7  1  0.437991  0.099146  0.797920  1
  Se  Se8  1  0.099146  0.437991  0.797920  1
  Se  Se9  1  0.760516  0.760516  0.797919  1
