# generated using pymatgen
data_LiHf2As2PRu3
_symmetry_space_group_name_H-M   'P 1'
_cell_length_a   7.60152926
_cell_length_b   7.60153037
_cell_length_c   7.60152972
_cell_angle_alpha   128.05555809
_cell_angle_beta   122.73767471
_cell_angle_gamma   80.95449788
_symmetry_Int_Tables_number   1
_chemical_formula_structural   LiHf2As2PRu3
_chemical_formula_sum   'Li2 Hf4 As4 P2 Ru6'
_cell_volume   280.44953006
_cell_formula_units_Z   2
loop_
 _symmetry_equiv_pos_site_id
 _symmetry_equiv_pos_as_xyz
  1  'x, y, z'
loop_
 _atom_site_type_symbol
 _atom_site_label
 _atom_site_symmetry_multiplicity
 _atom_site_fract_x
 _atom_site_fract_y
 _atom_site_fract_z
 _atom_site_occupancy
  Li  Li0  1  0.456461  0.666964  0.710504  1
  Li  Li1  1  0.543539  0.254043  0.210504  1
  Hf  Hf2  1  0.752660  0.848333  0.595674  1
  Hf  Hf3  1  0.247340  0.843015  0.095674  1
  Hf  Hf4  1  0.051955  0.257742  0.705786  1
  Hf  Hf5  1  0.948045  0.653832  0.205786  1
  As  As6  1  0.337781  0.581522  0.260780  1
  As  As7  1  0.662219  0.922999  0.243740  1
  As  As8  1  0.179259  0.922999  0.760780  1
  As  As9  1  0.820741  0.581522  0.743740  1
  P  P10  1  0.272030  0.276395  0.504367  1
  P  P11  1  0.727970  0.232337  0.004367  1
  Ru  Ru12  1  0.500000  0.494023  0.994023  1
  Ru  Ru13  1  0.000000  0.494023  0.494023  1
  Ru  Ru14  1  0.091146  0.249455  0.106616  1
  Ru  Ru15  1  0.908854  0.015469  0.158310  1
  Ru  Ru16  1  0.357159  0.015469  0.606616  1
  Ru  Ru17  1  0.642841  0.249455  0.658310  1
