# generated using pymatgen
data_Nd2YCd3(IrO7)2
_symmetry_space_group_name_H-M   'P 1'
_cell_length_a   6.47227252
_cell_length_b   6.61825533
_cell_length_c   7.62387300
_cell_angle_alpha   90.00000000
_cell_angle_beta   90.00000000
_cell_angle_gamma   112.42726370
_symmetry_Int_Tables_number   1
_chemical_formula_structural   Nd2YCd3(IrO7)2
_chemical_formula_sum   'Nd2 Y1 Cd3 Ir2 O14'
_cell_volume   301.86952537
_cell_formula_units_Z   1
loop_
 _symmetry_equiv_pos_site_id
 _symmetry_equiv_pos_as_xyz
  1  'x, y, z'
loop_
 _atom_site_type_symbol
 _atom_site_label
 _atom_site_symmetry_multiplicity
 _atom_site_fract_x
 _atom_site_fract_y
 _atom_site_fract_z
 _atom_site_occupancy
  Nd  Nd0  1  0.999015  0.999691  0.999454  1
  Nd  Nd1  1  0.999015  0.999691  0.500546  1
  Y  Y2  1  0.050071  0.509341  0.250000  1
  Cd  Cd3  1  0.488628  0.991395  0.750000  1
  Cd  Cd4  1  0.513800  0.017797  0.250000  1
  Cd  Cd5  1  0.971045  0.493255  0.750000  1
  Ir  Ir6  1  0.501107  0.500359  0.998455  1
  Ir  Ir7  1  0.501107  0.500359  0.501545  1
  O  O8  1  0.587184  0.507770  0.750000  1
  O  O9  1  0.409913  0.493133  0.250000  1
  O  O10  1  0.851274  0.132379  0.750000  1
  O  O11  1  0.153899  0.873047  0.250000  1
  O  O12  1  0.120856  0.852080  0.750000  1
  O  O13  1  0.874160  0.143642  0.250000  1
  O  O14  1  0.426347  0.190594  0.000557  1
  O  O15  1  0.570498  0.808823  0.503508  1
  O  O16  1  0.180982  0.427243  0.974864  1
  O  O17  1  0.811634  0.566372  0.453487  1
  O  O18  1  0.426347  0.190594  0.499443  1
  O  O19  1  0.570498  0.808823  0.996492  1
  O  O20  1  0.811634  0.566372  0.046513  1
  O  O21  1  0.180982  0.427243  0.525136  1
