# generated using pymatgen
data_Mg4Sc2Co16Si7
_symmetry_space_group_name_H-M   'P 1'
_cell_length_a   8.01236583
_cell_length_b   7.99945608
_cell_length_c   8.01214648
_cell_angle_alpha   60.07990860
_cell_angle_beta   59.90038286
_cell_angle_gamma   60.08066317
_symmetry_Int_Tables_number   1
_chemical_formula_structural   Mg4Sc2Co16Si7
_chemical_formula_sum   'Mg4 Sc2 Co16 Si7'
_cell_volume   363.28900486
_cell_formula_units_Z   1
loop_
 _symmetry_equiv_pos_site_id
 _symmetry_equiv_pos_as_xyz
  1  'x, y, z'
loop_
 _atom_site_type_symbol
 _atom_site_label
 _atom_site_symmetry_multiplicity
 _atom_site_fract_x
 _atom_site_fract_y
 _atom_site_fract_z
 _atom_site_occupancy
  Mg  Mg0  1  0.794632  0.206113  0.205268  1
  Mg  Mg1  1  0.205299  0.206078  0.794655  1
  Mg  Mg2  1  0.794419  0.206133  0.794443  1
  Mg  Mg3  1  0.205558  0.794888  0.205547  1
  Sc  Sc4  1  0.215652  0.785062  0.784418  1
  Sc  Sc5  1  0.784444  0.785039  0.215669  1
  Co  Co6  1  0.617592  0.618929  0.143494  1
  Co  Co7  1  0.171903  0.483768  0.171923  1
  Co  Co8  1  0.856684  0.380009  0.382339  1
  Co  Co9  1  0.520010  0.826113  0.826583  1
  Co  Co10  1  0.479795  0.172811  0.173507  1
  Co  Co11  1  0.826591  0.826105  0.520017  1
  Co  Co12  1  0.173476  0.172804  0.479841  1
  Co  Co13  1  0.143530  0.618912  0.617565  1
  Co  Co14  1  0.175113  0.174438  0.175140  1
  Co  Co15  1  0.382330  0.380011  0.856697  1
  Co  Co16  1  0.620638  0.617897  0.620627  1
  Co  Co17  1  0.379404  0.859144  0.379403  1
  Co  Co18  1  0.381503  0.382781  0.381512  1
  Co  Co19  1  0.828101  0.827524  0.828094  1
  Co  Co20  1  0.618427  0.145967  0.618397  1
  Co  Co21  1  0.824915  0.524495  0.824908  1
  Si  Si22  1  0.500043  0.004432  0.500037  1
  Si  Si23  1  0.500381  0.498423  0.002453  1
  Si  Si24  1  0.499969  0.503747  0.499977  1
  Si  Si25  1  0.997513  0.001178  0.499614  1
  Si  Si26  1  0.999980  0.497632  0.999958  1
  Si  Si27  1  0.002471  0.498401  0.500395  1
  Si  Si28  1  0.499625  0.001164  0.997519  1
