# generated using pymatgen
data_La5Nd7Er4(CdIr)4
_symmetry_space_group_name_H-M   'P 1'
_cell_length_a   9.90264042
_cell_length_b   9.89681893
_cell_length_c   9.86126222
_cell_angle_alpha   59.80286495
_cell_angle_beta   60.15399997
_cell_angle_gamma   60.28091928
_symmetry_Int_Tables_number   1
_chemical_formula_structural   La5Nd7Er4(CdIr)4
_chemical_formula_sum   'La5 Nd7 Er4 Cd4 Ir4'
_cell_volume   684.58495367
_cell_formula_units_Z   1
loop_
 _symmetry_equiv_pos_site_id
 _symmetry_equiv_pos_as_xyz
  1  'x, y, z'
loop_
 _atom_site_type_symbol
 _atom_site_label
 _atom_site_symmetry_multiplicity
 _atom_site_fract_x
 _atom_site_fract_y
 _atom_site_fract_z
 _atom_site_occupancy
  La  La0  1  0.345831  0.350336  0.350666  1
  La  La1  1  0.349125  0.349045  0.952339  1
  La  La2  1  0.347455  0.952720  0.349921  1
  La  La3  1  0.953274  0.348560  0.351714  1
  La  La4  1  0.814841  0.186703  0.184790  1
  Nd  Nd5  1  0.813462  0.810538  0.185238  1
  Nd  Nd6  1  0.938279  0.561781  0.563717  1
  Nd  Nd7  1  0.560663  0.938828  0.936805  1
  Nd  Nd8  1  0.558977  0.937784  0.564916  1
  Nd  Nd9  1  0.940749  0.562271  0.935691  1
  Nd  Nd10  1  0.560150  0.563650  0.936868  1
  Nd  Nd11  1  0.939678  0.936365  0.563581  1
  Er  Er12  1  0.187433  0.814586  0.812743  1
  Er  Er13  1  0.191618  0.810984  0.184428  1
  Er  Er14  1  0.814445  0.186916  0.809228  1
  Er  Er15  1  0.189737  0.184994  0.811020  1
  Cd  Cd16  1  0.579619  0.579412  0.580617  1
  Cd  Cd17  1  0.578102  0.581975  0.260156  1
  Cd  Cd18  1  0.578834  0.259884  0.582518  1
  Cd  Cd19  1  0.259510  0.580154  0.579924  1
  Ir  Ir20  1  0.138549  0.139207  0.140591  1
  Ir  Ir21  1  0.138329  0.139566  0.583181  1
  Ir  Ir22  1  0.143076  0.579717  0.139814  1
  Ir  Ir23  1  0.578261  0.144020  0.139530  1
