# generated using pymatgen
data_Ti4Be2B4Ru7Rh3
_symmetry_space_group_name_H-M   'P 1'
_cell_length_a   2.94781500
_cell_length_b   9.07212747
_cell_length_c   9.06023547
_cell_angle_alpha   89.88619434
_cell_angle_beta   90.00000000
_cell_angle_gamma   90.00000000
_symmetry_Int_Tables_number   1
_chemical_formula_structural   Ti4Be2B4Ru7Rh3
_chemical_formula_sum   'Ti4 Be2 B4 Ru7 Rh3'
_cell_volume   242.29697740
_cell_formula_units_Z   1
loop_
 _symmetry_equiv_pos_site_id
 _symmetry_equiv_pos_as_xyz
  1  'x, y, z'
loop_
 _atom_site_type_symbol
 _atom_site_label
 _atom_site_symmetry_multiplicity
 _atom_site_fract_x
 _atom_site_fract_y
 _atom_site_fract_z
 _atom_site_occupancy
  Ti  Ti0  1  0.000000  0.828658  0.180932  1
  Ti  Ti1  1  0.000000  0.326179  0.323792  1
  Ti  Ti2  1  0.000000  0.674594  0.665869  1
  Ti  Ti3  1  0.000000  0.175664  0.829406  1
  Be  Be4  1  0.000000  0.497580  0.000752  1
  Be  Be5  1  0.000000  0.998808  0.498342  1
  B  B6  1  0.000000  0.129233  0.129788  1
  B  B7  1  0.000000  0.629315  0.369838  1
  B  B8  1  0.000000  0.368694  0.624922  1
  B  B9  1  0.000000  0.872790  0.873245  1
  Ru  Ru10  1  0.499999  0.998172  0.999734  1
  Ru  Ru11  1  0.499999  0.293024  0.070009  1
  Ru  Ru12  1  0.499999  0.570116  0.206008  1
  Ru  Ru13  1  0.499999  0.071260  0.294295  1
  Ru  Ru14  1  0.499999  0.793911  0.431435  1
  Ru  Ru15  1  0.499999  0.499508  0.500477  1
  Ru  Ru16  1  0.499999  0.205698  0.571325  1
  Rh  Rh17  1  0.499999  0.929821  0.706658  1
  Rh  Rh18  1  0.499999  0.431134  0.794266  1
  Rh  Rh19  1  0.499999  0.705847  0.928917  1
