# generated using pymatgen
data_Pr3Lu17(Bi3Sb)3
_symmetry_space_group_name_H-M   'P 1'
_cell_length_a   8.08331526
_cell_length_b   9.34538700
_cell_length_c   11.75987000
_cell_angle_alpha   90.00000000
_cell_angle_beta   90.06538823
_cell_angle_gamma   90.00000000
_symmetry_Int_Tables_number   1
_chemical_formula_structural   Pr3Lu17(Bi3Sb)3
_chemical_formula_sum   'Pr3 Lu17 Bi9 Sb3'
_cell_volume   888.36010343
_cell_formula_units_Z   1
loop_
 _symmetry_equiv_pos_site_id
 _symmetry_equiv_pos_as_xyz
  1  'x, y, z'
loop_
 _atom_site_type_symbol
 _atom_site_label
 _atom_site_symmetry_multiplicity
 _atom_site_fract_x
 _atom_site_fract_y
 _atom_site_fract_z
 _atom_site_occupancy
  Pr  Pr0  1  0.813654  0.250000  0.279457  1
  Pr  Pr1  1  0.682091  0.750000  0.781208  1
  Pr  Pr2  1  0.181770  0.750000  0.718764  1
  Lu  Lu3  1  0.351146  0.750000  0.216485  1
  Lu  Lu4  1  0.852399  0.750000  0.282334  1
  Lu  Lu5  1  0.647943  0.250000  0.784439  1
  Lu  Lu6  1  0.149861  0.250000  0.719463  1
  Lu  Lu7  1  0.688276  0.565604  0.059235  1
  Lu  Lu8  1  0.187979  0.930738  0.440204  1
  Lu  Lu9  1  0.312208  0.065153  0.941797  1
  Lu  Lu10  1  0.810848  0.436388  0.560316  1
  Lu  Lu11  1  0.312208  0.434847  0.941797  1
  Lu  Lu12  1  0.810848  0.063612  0.560316  1
  Lu  Lu13  1  0.688276  0.934396  0.059235  1
  Lu  Lu14  1  0.187979  0.569262  0.440204  1
  Lu  Lu15  1  0.479380  0.250000  0.488413  1
  Lu  Lu16  1  0.976117  0.250000  0.012060  1
  Lu  Lu17  1  0.524643  0.750000  0.510519  1
  Lu  Lu18  1  0.025261  0.750000  0.990204  1
  Lu  Lu19  1  0.317602  0.250000  0.213860  1
  Bi  Bi20  1  0.102911  0.250000  0.461164  1
  Bi  Bi21  1  0.559555  0.992488  0.325760  1
  Bi  Bi22  1  0.070488  0.506404  0.173064  1
  Bi  Bi23  1  0.435203  0.489353  0.672182  1
  Bi  Bi24  1  0.934885  0.010449  0.829013  1
  Bi  Bi25  1  0.435203  0.010647  0.672182  1
  Bi  Bi26  1  0.934885  0.489551  0.829013  1
  Bi  Bi27  1  0.559555  0.507512  0.325760  1
  Bi  Bi28  1  0.070488  0.993596  0.173064  1
  Sb  Sb29  1  0.401363  0.750000  0.965049  1
  Sb  Sb30  1  0.899897  0.750000  0.534730  1
  Sb  Sb31  1  0.595079  0.250000  0.038714  1
