# generated using pymatgen
data_NaSr4As10(Ru3Rh2)2
_symmetry_space_group_name_H-M   'P 1'
_cell_length_a   9.25958800
_cell_length_b   8.82743054
_cell_length_c   9.25958800
_cell_angle_alpha   58.36689940
_cell_angle_beta   90.00000000
_cell_angle_gamma   58.36688415
_symmetry_Int_Tables_number   1
_chemical_formula_structural   NaSr4As10(Ru3Rh2)2
_chemical_formula_sum   'Na1 Sr4 As10 Ru6 Rh4'
_cell_volume   507.63249467
_cell_formula_units_Z   1
loop_
 _symmetry_equiv_pos_site_id
 _symmetry_equiv_pos_as_xyz
  1  'x, y, z'
loop_
 _atom_site_type_symbol
 _atom_site_label
 _atom_site_symmetry_multiplicity
 _atom_site_fract_x
 _atom_site_fract_y
 _atom_site_fract_z
 _atom_site_occupancy
  Na  Na0  1  0.000000  0.000000  0.000000  1
  Sr  Sr1  1  0.198717  0.998962  0.604571  1
  Sr  Sr2  1  0.395429  0.001038  0.197680  1
  Sr  Sr3  1  0.603534  0.001038  0.801283  1
  Sr  Sr4  1  0.802320  0.998962  0.396466  1
  As  As5  1  0.159049  0.279519  0.761083  1
  As  As6  1  0.361072  0.277856  0.361072  1
  As  As7  1  0.561432  0.279519  0.959396  1
  As  As8  1  0.760383  0.280457  0.557139  1
  As  As9  1  0.959159  0.280457  0.162403  1
  As  As10  1  0.638928  0.722144  0.638928  1
  As  As11  1  0.837597  0.719543  0.239617  1
  As  As12  1  0.040603  0.720481  0.840951  1
  As  As13  1  0.238917  0.720481  0.438568  1
  As  As14  1  0.442861  0.719543  0.040840  1
  Ru  Ru15  1  0.750000  0.500000  0.250000  1
  Ru  Ru16  1  0.849177  0.500294  0.551333  1
  Ru  Ru17  1  0.051626  0.499706  0.150823  1
  Ru  Ru18  1  0.250000  0.500000  0.750000  1
  Ru  Ru19  1  0.448667  0.499706  0.349471  1
  Ru  Ru20  1  0.650529  0.500294  0.948374  1
  Rh  Rh21  1  0.949075  0.502208  0.849751  1
  Rh  Rh22  1  0.150249  0.497792  0.451283  1
  Rh  Rh23  1  0.351958  0.497792  0.050925  1
  Rh  Rh24  1  0.548717  0.502208  0.648042  1
