# generated using pymatgen
data_BaSeF6
_symmetry_space_group_name_H-M   'P 1'
_cell_length_a   5.01188962
_cell_length_b   5.01188932
_cell_length_c   5.01188925
_cell_angle_alpha   97.78825651
_cell_angle_beta   97.78825256
_cell_angle_gamma   97.78826653
_symmetry_Int_Tables_number   1
_chemical_formula_structural   BaSeF6
_chemical_formula_sum   'Ba1 Se1 F6'
_cell_volume   122.05418165
_cell_formula_units_Z   1
loop_
 _symmetry_equiv_pos_site_id
 _symmetry_equiv_pos_as_xyz
  1  'x, y, z'
loop_
 _atom_site_type_symbol
 _atom_site_label
 _atom_site_symmetry_multiplicity
 _atom_site_fract_x
 _atom_site_fract_y
 _atom_site_fract_z
 _atom_site_occupancy
  Ba  Ba0  1  0.000000  0.000000  0.000000  1
  Se  Se1  1  0.500000  0.500000  0.500000  1
  F  F2  1  0.815229  0.430517  0.744893  1
  F  F3  1  0.744893  0.815229  0.430517  1
  F  F4  1  0.569483  0.255107  0.184771  1
  F  F5  1  0.255107  0.184771  0.569483  1
  F  F6  1  0.184771  0.569483  0.255107  1
  F  F7  1  0.430517  0.744893  0.815229  1
