# generated using pymatgen
data_Pr2Nd2Al15(SiIr2)3
_symmetry_space_group_name_H-M   'P 1'
_cell_length_a   7.58502446
_cell_length_b   7.56223809
_cell_length_c   9.55956201
_cell_angle_alpha   89.97597633
_cell_angle_beta   89.94747855
_cell_angle_gamma   119.71268806
_symmetry_Int_Tables_number   1
_chemical_formula_structural   Pr2Nd2Al15(SiIr2)3
_chemical_formula_sum   'Pr2 Nd2 Al15 Si3 Ir6'
_cell_volume   476.23974346
_cell_formula_units_Z   1
loop_
 _symmetry_equiv_pos_site_id
 _symmetry_equiv_pos_as_xyz
  1  'x, y, z'
loop_
 _atom_site_type_symbol
 _atom_site_label
 _atom_site_symmetry_multiplicity
 _atom_site_fract_x
 _atom_site_fract_y
 _atom_site_fract_z
 _atom_site_occupancy
  Pr  Pr0  1  0.994999  0.665423  0.247924  1
  Pr  Pr1  1  0.005076  0.338600  0.752668  1
  Nd  Nd2  1  0.672873  0.999146  0.248132  1
  Nd  Nd3  1  0.323143  0.995691  0.750077  1
  Al  Al4  1  0.131143  0.128951  0.250154  1
  Al  Al5  1  0.868820  0.869064  0.749572  1
  Al  Al6  1  0.339368  0.005588  0.426218  1
  Al  Al7  1  0.002547  0.329276  0.431149  1
  Al  Al8  1  0.665510  0.999614  0.572945  1
  Al  Al9  1  0.661582  0.995356  0.924719  1
  Al  Al10  1  0.339192  0.005717  0.074528  1
  Al  Al11  1  0.334591  0.333259  0.552353  1
  Al  Al12  1  0.662329  0.666386  0.448288  1
  Al  Al13  1  0.661843  0.665810  0.053123  1
  Al  Al14  1  0.337449  0.333728  0.947363  1
  Al  Al15  1  0.339038  0.546820  0.250385  1
  Al  Al16  1  0.659978  0.453469  0.750563  1
  Al  Al17  1  0.546485  0.342328  0.250258  1
  Al  Al18  1  0.456077  0.658928  0.749802  1
  Si  Si19  1  0.003573  0.327963  0.072270  1
  Si  Si20  1  0.996131  0.671807  0.932416  1
  Si  Si21  1  0.997342  0.666444  0.563565  1
  Ir  Ir22  1  0.687921  0.337991  0.001151  1
  Ir  Ir23  1  0.312261  0.662452  0.998309  1
  Ir  Ir24  1  0.320408  0.669942  0.501988  1
  Ir  Ir25  1  0.679548  0.337590  0.500336  1
  Ir  Ir26  1  0.000224  0.999916  0.999481  1
  Ir  Ir27  1  0.000544  0.992744  0.500261  1
