# generated using pymatgen
data_La7Ho10Er3Si16
_symmetry_space_group_name_H-M   'P 1'
_cell_length_a   7.76581715
_cell_length_b   7.77001675
_cell_length_c   14.40438400
_cell_angle_alpha   89.99004516
_cell_angle_beta   89.94077722
_cell_angle_gamma   90.07483537
_symmetry_Int_Tables_number   1
_chemical_formula_structural   La7Ho10Er3Si16
_chemical_formula_sum   'La7 Ho10 Er3 Si16'
_cell_volume   869.16693573
_cell_formula_units_Z   1
loop_
 _symmetry_equiv_pos_site_id
 _symmetry_equiv_pos_as_xyz
  1  'x, y, z'
loop_
 _atom_site_type_symbol
 _atom_site_label
 _atom_site_symmetry_multiplicity
 _atom_site_fract_x
 _atom_site_fract_y
 _atom_site_fract_z
 _atom_site_occupancy
  La  La0  1  0.358237  0.007586  0.956997  1
  La  La1  1  0.992578  0.642353  0.541528  1
  La  La2  1  0.490963  0.858561  0.208344  1
  La  La3  1  0.509771  0.139772  0.706736  1
  La  La4  1  0.859219  0.490795  0.792238  1
  La  La5  1  0.140011  0.508895  0.293445  1
  La  La6  1  0.007964  0.358333  0.043481  1
  Ho  Ho7  1  0.491464  0.360990  0.125371  1
  Ho  Ho8  1  0.992042  0.136245  0.623601  1
  Ho  Ho9  1  0.861769  0.008466  0.874856  1
  Ho  Ho10  1  0.136524  0.993036  0.375716  1
  Ho  Ho11  1  0.511466  0.639368  0.623224  1
  Ho  Ho12  1  0.361509  0.491529  0.875020  1
  Ho  Ho13  1  0.639555  0.510720  0.375969  1
  Ho  Ho14  1  0.006369  0.861396  0.126400  1
  Ho  Ho15  1  0.635988  0.996296  0.455632  1
  Ho  Ho16  1  0.318702  0.315594  0.499878  1
  Er  Er17  1  0.184639  0.815910  0.749123  1
  Er  Er18  1  0.814237  0.182457  0.250787  1
  Er  Er19  1  0.683023  0.682133  0.000299  1
  Si  Si20  1  0.293808  0.937368  0.560408  1
  Si  Si21  1  0.710768  0.064826  0.062214  1
  Si  Si22  1  0.930594  0.285288  0.437618  1
  Si  Si23  1  0.437941  0.209936  0.313415  1
  Si  Si24  1  0.565681  0.787234  0.812244  1
  Si  Si25  1  0.212562  0.435341  0.687597  1
  Si  Si26  1  0.786767  0.566457  0.188504  1
  Si  Si27  1  0.065458  0.711927  0.938176  1
  Si  Si28  1  0.799256  0.845014  0.691991  1
  Si  Si29  1  0.202817  0.152835  0.192102  1
  Si  Si30  1  0.842499  0.802674  0.312773  1
  Si  Si31  1  0.351705  0.708036  0.440075  1
  Si  Si32  1  0.653187  0.296366  0.941951  1
  Si  Si33  1  0.700944  0.340606  0.556371  1
  Si  Si34  1  0.296104  0.653391  0.058562  1
  Si  Si35  1  0.153874  0.202267  0.807352  1
