# generated using pymatgen
data_Dy2Al9Ir2Pt
_symmetry_space_group_name_H-M   'P 1'
_cell_length_a   7.57465540
_cell_length_b   7.57465524
_cell_length_c   9.46115170
_cell_angle_alpha   89.95650692
_cell_angle_beta   89.95650572
_cell_angle_gamma   119.62169406
_symmetry_Int_Tables_number   1
_chemical_formula_structural   Dy2Al9Ir2Pt
_chemical_formula_sum   'Dy4 Al18 Ir4 Pt2'
_cell_volume   471.89226716
_cell_formula_units_Z   2
loop_
 _symmetry_equiv_pos_site_id
 _symmetry_equiv_pos_as_xyz
  1  'x, y, z'
loop_
 _atom_site_type_symbol
 _atom_site_label
 _atom_site_symmetry_multiplicity
 _atom_site_fract_x
 _atom_site_fract_y
 _atom_site_fract_z
 _atom_site_occupancy
  Dy  Dy0  1  0.995173  0.670126  0.751035  1
  Dy  Dy1  1  0.004827  0.329874  0.248965  1
  Dy  Dy2  1  0.670126  0.995173  0.751035  1
  Dy  Dy3  1  0.329874  0.004827  0.248965  1
  Al  Al4  1  0.127376  0.127376  0.750753  1
  Al  Al5  1  0.872624  0.872624  0.249247  1
  Al  Al6  1  0.000666  0.331369  0.577236  1
  Al  Al7  1  0.999334  0.668631  0.422764  1
  Al  Al8  1  0.999910  0.665242  0.074273  1
  Al  Al9  1  0.334758  0.000090  0.925727  1
  Al  Al10  1  0.000090  0.334758  0.925727  1
  Al  Al11  1  0.665242  0.999910  0.074273  1
  Al  Al12  1  0.668631  0.999334  0.422764  1
  Al  Al13  1  0.331369  0.000666  0.577236  1
  Al  Al14  1  0.332615  0.332615  0.052164  1
  Al  Al15  1  0.667385  0.667385  0.947836  1
  Al  Al16  1  0.668978  0.668978  0.557607  1
  Al  Al17  1  0.331022  0.331022  0.442393  1
  Al  Al18  1  0.340010  0.546787  0.752973  1
  Al  Al19  1  0.659990  0.453213  0.247027  1
  Al  Al20  1  0.546787  0.340010  0.752973  1
  Al  Al21  1  0.453213  0.659990  0.247027  1
  Ir  Ir22  1  0.328117  0.671883  0.000000  1
  Ir  Ir23  1  0.671883  0.328117  0.000000  1
  Ir  Ir24  1  0.000000  0.000000  0.500000  1
  Ir  Ir25  1  0.000000  0.000000  0.000000  1
  Pt  Pt26  1  0.672179  0.327821  0.500000  1
  Pt  Pt27  1  0.327821  0.672179  0.500000  1
