# generated using pymatgen
data_GdTm5C2Cl7
_symmetry_space_group_name_H-M   'P 1'
_cell_length_a   10.10747446
_cell_length_b   10.10747505
_cell_length_c   11.49733500
_cell_angle_alpha   57.57853315
_cell_angle_beta   57.57853103
_cell_angle_gamma   20.91475084
_symmetry_Int_Tables_number   1
_chemical_formula_structural   GdTm5C2Cl7
_chemical_formula_sum   'Gd1 Tm5 C2 Cl7'
_cell_volume   351.50181615
_cell_formula_units_Z   1
loop_
 _symmetry_equiv_pos_site_id
 _symmetry_equiv_pos_as_xyz
  1  'x, y, z'
loop_
 _atom_site_type_symbol
 _atom_site_label
 _atom_site_symmetry_multiplicity
 _atom_site_fract_x
 _atom_site_fract_y
 _atom_site_fract_z
 _atom_site_occupancy
  Gd  Gd0  1  0.772177  0.772177  0.151910  1
  Tm  Tm1  1  0.229052  0.229053  0.841210  1
  Tm  Tm2  1  0.314272  0.314272  0.363144  1
  Tm  Tm3  1  0.130037  0.130038  0.440576  1
  Tm  Tm4  1  0.871061  0.871061  0.558140  1
  Tm  Tm5  1  0.685008  0.685009  0.636440  1
  C  C6  1  0.280187  0.280187  0.608366  1
  C  C7  1  0.719092  0.719093  0.395475  1
  Cl  Cl8  1  0.162071  0.162069  0.165995  1
  Cl  Cl9  1  0.831530  0.831530  0.834972  1
  Cl  Cl10  1  0.063411  0.063410  0.710541  1
  Cl  Cl11  1  0.936085  0.936086  0.291090  1
  Cl  Cl12  1  0.498887  0.498886  0.502194  1
  Cl  Cl13  1  0.390557  0.390555  0.074722  1
  Cl  Cl14  1  0.616575  0.616575  0.925227  1
