# generated using pymatgen
data_Ho7(LuPd6)3
_symmetry_space_group_name_H-M   'P 1'
_cell_length_a   9.70813900
_cell_length_b   9.72205305
_cell_length_c   5.74849100
_cell_angle_alpha   90.00000000
_cell_angle_beta   90.00000000
_cell_angle_gamma   90.05229789
_symmetry_Int_Tables_number   1
_chemical_formula_structural   Ho7(LuPd6)3
_chemical_formula_sum   'Ho7 Lu3 Pd18'
_cell_volume   542.55984363
_cell_formula_units_Z   1
loop_
 _symmetry_equiv_pos_site_id
 _symmetry_equiv_pos_as_xyz
  1  'x, y, z'
loop_
 _atom_site_type_symbol
 _atom_site_label
 _atom_site_symmetry_multiplicity
 _atom_site_fract_x
 _atom_site_fract_y
 _atom_site_fract_z
 _atom_site_occupancy
  Ho  Ho0  1  0.452630  0.808470  0.000000  1
  Ho  Ho1  1  0.547514  0.192314  0.000000  1
  Ho  Ho2  1  0.191527  0.546907  0.000000  1
  Ho  Ho3  1  0.808940  0.452529  0.000000  1
  Ho  Ho4  1  0.307566  0.047875  0.500000  1
  Ho  Ho5  1  0.691742  0.952824  0.500000  1
  Ho  Ho6  1  0.952524  0.691424  0.500000  1
  Lu  Lu7  1  0.499954  0.499778  0.500000  1
  Lu  Lu8  1  0.047298  0.308318  0.500000  1
  Lu  Lu9  1  0.000441  0.000070  0.000000  1
  Pd  Pd10  1  0.189890  0.809739  0.250061  1
  Pd  Pd11  1  0.811484  0.190441  0.749610  1
  Pd  Pd12  1  0.811484  0.190441  0.250390  1
  Pd  Pd13  1  0.189890  0.809739  0.749939  1
  Pd  Pd14  1  0.439314  0.778977  0.500000  1
  Pd  Pd15  1  0.560191  0.220888  0.500000  1
  Pd  Pd16  1  0.219212  0.559010  0.500000  1
  Pd  Pd17  1  0.781307  0.439713  0.500000  1
  Pd  Pd18  1  0.308357  0.309885  0.250915  1
  Pd  Pd19  1  0.689790  0.689697  0.749678  1
  Pd  Pd20  1  0.689790  0.689697  0.250322  1
  Pd  Pd21  1  0.308357  0.309885  0.749085  1
  Pd  Pd22  1  0.280002  0.060116  0.000000  1
  Pd  Pd23  1  0.720848  0.940070  0.000000  1
  Pd  Pd24  1  0.939901  0.720537  0.000000  1
  Pd  Pd25  1  0.059617  0.279372  0.000000  1
  Pd  Pd26  1  0.000628  0.001496  0.500000  1
  Pd  Pd27  1  0.499799  0.499791  0.000000  1
