# generated using pymatgen
data_ErBi3Rh4F28
_symmetry_space_group_name_H-M   'P 1'
_cell_length_a   5.59115668
_cell_length_b   9.07052184
_cell_length_c   12.06035812
_cell_angle_alpha   62.23275546
_cell_angle_beta   89.98673672
_cell_angle_gamma   89.91721813
_symmetry_Int_Tables_number   1
_chemical_formula_structural   ErBi3Rh4F28
_chemical_formula_sum   'Er1 Bi3 Rh4 F28'
_cell_volume   541.20530013
_cell_formula_units_Z   1
loop_
 _symmetry_equiv_pos_site_id
 _symmetry_equiv_pos_as_xyz
  1  'x, y, z'
loop_
 _atom_site_type_symbol
 _atom_site_label
 _atom_site_symmetry_multiplicity
 _atom_site_fract_x
 _atom_site_fract_y
 _atom_site_fract_z
 _atom_site_occupancy
  Er  Er0  1  0.739251  0.805164  0.266543  1
  Bi  Bi1  1  0.764024  0.812024  0.763965  1
  Bi  Bi2  1  0.263137  0.187503  0.735522  1
  Bi  Bi3  1  0.236219  0.176727  0.237198  1
  Rh  Rh4  1  0.756775  0.268599  0.959173  1
  Rh  Rh5  1  0.257583  0.728167  0.539276  1
  Rh  Rh6  1  0.241147  0.729474  0.046174  1
  Rh  Rh7  1  0.742345  0.276435  0.455307  1
  F  F8  1  0.432538  0.706696  0.919573  1
  F  F9  1  0.930323  0.297459  0.583385  1
  F  F10  1  0.569810  0.293240  0.085283  1
  F  F11  1  0.061422  0.708144  0.412835  1
  F  F12  1  0.440835  0.279903  0.538448  1
  F  F13  1  0.943792  0.724076  0.960417  1
  F  F14  1  0.556028  0.725771  0.451492  1
  F  F15  1  0.058892  0.275176  0.040939  1
  F  F16  1  0.775684  0.508079  0.863353  1
  F  F17  1  0.277794  0.489079  0.635509  1
  F  F18  1  0.225187  0.491420  0.140040  1
  F  F19  1  0.727406  0.519035  0.360509  1
  F  F20  1  0.753449  0.028048  0.052626  1
  F  F21  1  0.253272  0.970676  0.450357  1
  F  F22  1  0.245069  0.971425  0.952556  1
  F  F23  1  0.745858  0.034169  0.547412  1
  F  F24  1  0.966627  0.725367  0.630740  1
  F  F25  1  0.463227  0.273122  0.869148  1
  F  F26  1  0.033349  0.275938  0.367014  1
  F  F27  1  0.530018  0.731279  0.138799  1
  F  F28  1  0.046613  0.749833  0.174603  1
  F  F29  1  0.560490  0.257536  0.324687  1
  F  F30  1  0.937452  0.252942  0.826102  1
  F  F31  1  0.442117  0.745247  0.670839  1
  F  F32  1  0.418131  0.964440  0.230475  1
  F  F33  1  0.909588  0.018853  0.269664  1
  F  F34  1  0.597698  0.030931  0.771706  1
  F  F35  1  0.096853  0.968025  0.728329  1
