# generated using pymatgen
data_ErLu2Co8TcP6
_symmetry_space_group_name_H-M   'P 1'
_cell_length_a   3.67832400
_cell_length_b   10.45530500
_cell_length_c   12.12576600
_cell_angle_alpha   90.00000000
_cell_angle_beta   90.00000000
_cell_angle_gamma   90.00000000
_symmetry_Int_Tables_number   1
_chemical_formula_structural   ErLu2Co8TcP6
_chemical_formula_sum   'Er2 Lu4 Co16 Tc2 P12'
_cell_volume   466.33270045
_cell_formula_units_Z   2
loop_
 _symmetry_equiv_pos_site_id
 _symmetry_equiv_pos_as_xyz
  1  'x, y, z'
loop_
 _atom_site_type_symbol
 _atom_site_label
 _atom_site_symmetry_multiplicity
 _atom_site_fract_x
 _atom_site_fract_y
 _atom_site_fract_z
 _atom_site_occupancy
  Er  Er0  1  0.000000  0.500000  0.525789  1
  Er  Er1  1  0.500000  0.000000  0.474211  1
  Lu  Lu2  1  0.500000  0.818514  0.205749  1
  Lu  Lu3  1  0.500000  0.181486  0.205749  1
  Lu  Lu4  1  0.000000  0.681486  0.794251  1
  Lu  Lu5  1  0.000000  0.318514  0.794251  1
  Co  Co6  1  0.500000  0.500000  0.703083  1
  Co  Co7  1  0.000000  0.000000  0.296917  1
  Co  Co8  1  0.000000  0.500000  0.987186  1
  Co  Co9  1  0.500000  0.000000  0.012814  1
  Co  Co10  1  0.500000  0.332215  0.989378  1
  Co  Co11  1  0.500000  0.667785  0.989378  1
  Co  Co12  1  0.000000  0.167785  0.010622  1
  Co  Co13  1  0.000000  0.832215  0.010622  1
  Co  Co14  1  0.500000  0.296695  0.431284  1
  Co  Co15  1  0.500000  0.703305  0.431284  1
  Co  Co16  1  0.000000  0.203305  0.568716  1
  Co  Co17  1  0.000000  0.796695  0.568716  1
  Co  Co18  1  0.500000  0.877792  0.707478  1
  Co  Co19  1  0.500000  0.122208  0.707478  1
  Co  Co20  1  0.000000  0.622208  0.292522  1
  Co  Co21  1  0.000000  0.377792  0.292522  1
  Tc  Tc22  1  0.500000  0.500000  0.157221  1
  Tc  Tc23  1  0.000000  0.000000  0.842779  1
  P  P24  1  0.500000  0.500000  0.880126  1
  P  P25  1  0.000000  0.000000  0.119874  1
  P  P26  1  0.500000  0.500000  0.350308  1
  P  P27  1  0.000000  0.000000  0.649692  1
  P  P28  1  0.500000  0.312559  0.617243  1
  P  P29  1  0.500000  0.687441  0.617243  1
  P  P30  1  0.000000  0.187441  0.382757  1
  P  P31  1  0.000000  0.812559  0.382757  1
  P  P32  1  0.500000  0.845280  0.891365  1
  P  P33  1  0.500000  0.154720  0.891365  1
  P  P34  1  0.000000  0.654720  0.108635  1
  P  P35  1  0.000000  0.345280  0.108635  1
