# generated using pymatgen
data_Dy2Mn(Si3Pd10)2
_symmetry_space_group_name_H-M   'P 1'
_cell_length_a   8.68157432
_cell_length_b   8.68157373
_cell_length_c   8.68157400
_cell_angle_alpha   59.99999898
_cell_angle_beta   60.00000122
_cell_angle_gamma   59.99999638
_symmetry_Int_Tables_number   1
_chemical_formula_structural   Dy2Mn(Si3Pd10)2
_chemical_formula_sum   'Dy2 Mn1 Si6 Pd20'
_cell_volume   462.67966026
_cell_formula_units_Z   1
loop_
 _symmetry_equiv_pos_site_id
 _symmetry_equiv_pos_as_xyz
  1  'x, y, z'
loop_
 _atom_site_type_symbol
 _atom_site_label
 _atom_site_symmetry_multiplicity
 _atom_site_fract_x
 _atom_site_fract_y
 _atom_site_fract_z
 _atom_site_occupancy
  Dy  Dy0  1  0.250000  0.250000  0.250000  1
  Dy  Dy1  1  0.750000  0.750000  0.750000  1
  Mn  Mn2  1  0.000000  0.000000  0.000000  1
  Si  Si3  1  0.733210  0.266790  0.266790  1
  Si  Si4  1  0.266790  0.733210  0.733210  1
  Si  Si5  1  0.266790  0.733210  0.266790  1
  Si  Si6  1  0.733210  0.266790  0.733210  1
  Si  Si7  1  0.266790  0.266790  0.733210  1
  Si  Si8  1  0.733210  0.733210  0.266790  1
  Pd  Pd9  1  0.383417  0.383417  0.383417  1
  Pd  Pd10  1  0.616583  0.616583  0.616583  1
  Pd  Pd11  1  0.383417  0.383417  0.849750  1
  Pd  Pd12  1  0.383417  0.849750  0.383417  1
  Pd  Pd13  1  0.616583  0.616583  0.150250  1
  Pd  Pd14  1  0.616583  0.150250  0.616583  1
  Pd  Pd15  1  0.849750  0.383417  0.383417  1
  Pd  Pd16  1  0.150250  0.616583  0.616583  1
  Pd  Pd17  1  0.343410  0.000000  0.000000  1
  Pd  Pd18  1  0.656590  0.000000  0.000000  1
  Pd  Pd19  1  0.000000  0.343410  0.656590  1
  Pd  Pd20  1  0.000000  0.656590  0.343410  1
  Pd  Pd21  1  0.000000  0.343410  0.000000  1
  Pd  Pd22  1  0.656590  0.000000  0.343410  1
  Pd  Pd23  1  0.000000  0.656590  0.000000  1
  Pd  Pd24  1  0.343410  0.000000  0.656590  1
  Pd  Pd25  1  0.000000  0.000000  0.343410  1
  Pd  Pd26  1  0.000000  0.000000  0.656590  1
  Pd  Pd27  1  0.656590  0.343410  0.000000  1
  Pd  Pd28  1  0.343410  0.656590  0.000000  1
