# generated using pymatgen
data_LiGd3GeS7
_symmetry_space_group_name_H-M   'P 1'
_cell_length_a   9.96392880
_cell_length_b   9.95822243
_cell_length_c   5.81334700
_cell_angle_alpha   90.00000000
_cell_angle_beta   90.00000000
_cell_angle_gamma   119.97281096
_symmetry_Int_Tables_number   1
_chemical_formula_structural   LiGd3GeS7
_chemical_formula_sum   'Li2 Gd6 Ge2 S14'
_cell_volume   499.67570884
_cell_formula_units_Z   2
loop_
 _symmetry_equiv_pos_site_id
 _symmetry_equiv_pos_as_xyz
  1  'x, y, z'
loop_
 _atom_site_type_symbol
 _atom_site_label
 _atom_site_symmetry_multiplicity
 _atom_site_fract_x
 _atom_site_fract_y
 _atom_site_fract_z
 _atom_site_occupancy
  Li  Li0  1  0.999845  0.000023  0.992820  1
  Li  Li1  1  0.000155  0.999977  0.492819  1
  Gd  Gd2  1  0.357491  0.131745  0.271368  1
  Gd  Gd3  1  0.868303  0.225763  0.272263  1
  Gd  Gd4  1  0.774304  0.642253  0.272361  1
  Gd  Gd5  1  0.225696  0.357746  0.772360  1
  Gd  Gd6  1  0.642509  0.868256  0.771369  1
  Gd  Gd7  1  0.131697  0.774236  0.772264  1
  Ge  Ge8  1  0.333433  0.666655  0.353329  1
  Ge  Ge9  1  0.666567  0.333346  0.853330  1
  S  S10  1  0.153751  0.247308  0.231821  1
  S  S11  1  0.752597  0.906273  0.231872  1
  S  S12  1  0.093482  0.846186  0.232199  1
  S  S13  1  0.666251  0.332876  0.474533  1
  S  S14  1  0.099621  0.518388  0.512829  1
  S  S15  1  0.481528  0.580947  0.512785  1
  S  S16  1  0.418382  0.900269  0.513017  1
  S  S17  1  0.846250  0.752692  0.731822  1
  S  S18  1  0.247402  0.093726  0.731873  1
  S  S19  1  0.906517  0.153813  0.732200  1
  S  S20  1  0.333749  0.667124  0.974533  1
  S  S21  1  0.900377  0.481612  0.012828  1
  S  S22  1  0.581618  0.099732  0.013016  1
  S  S23  1  0.518473  0.419053  0.012786  1
