# generated using pymatgen
data_Yb6Zn23N
_symmetry_space_group_name_H-M   'P 1'
_cell_length_a   8.96101693
_cell_length_b   8.96101589
_cell_length_c   8.96101500
_cell_angle_alpha   59.99999221
_cell_angle_beta   59.99999606
_cell_angle_gamma   59.99999139
_symmetry_Int_Tables_number   1
_chemical_formula_structural   Yb6Zn23N
_chemical_formula_sum   'Yb6 Zn23 N1'
_cell_volume   508.81122644
_cell_formula_units_Z   1
loop_
 _symmetry_equiv_pos_site_id
 _symmetry_equiv_pos_as_xyz
  1  'x, y, z'
loop_
 _atom_site_type_symbol
 _atom_site_label
 _atom_site_symmetry_multiplicity
 _atom_site_fract_x
 _atom_site_fract_y
 _atom_site_fract_z
 _atom_site_occupancy
  Yb  Yb0  1  0.690626  0.309374  0.309374  1
  Yb  Yb1  1  0.309374  0.690626  0.690626  1
  Yb  Yb2  1  0.309374  0.690626  0.309374  1
  Yb  Yb3  1  0.690626  0.309374  0.690626  1
  Yb  Yb4  1  0.309374  0.309374  0.690626  1
  Yb  Yb5  1  0.690626  0.690626  0.309374  1
  Zn  Zn6  1  0.121044  0.121044  0.121044  1
  Zn  Zn7  1  0.878956  0.878956  0.878956  1
  Zn  Zn8  1  0.121044  0.121044  0.636871  1
  Zn  Zn9  1  0.121044  0.636871  0.121044  1
  Zn  Zn10  1  0.878956  0.878956  0.363129  1
  Zn  Zn11  1  0.878956  0.363129  0.878956  1
  Zn  Zn12  1  0.636871  0.121044  0.121044  1
  Zn  Zn13  1  0.363129  0.878956  0.878956  1
  Zn  Zn14  1  0.500000  0.000000  0.000000  1
  Zn  Zn15  1  0.000000  0.500000  0.500000  1
  Zn  Zn16  1  0.000000  0.500000  0.000000  1
  Zn  Zn17  1  0.500000  0.000000  0.500000  1
  Zn  Zn18  1  0.000000  0.000000  0.500000  1
  Zn  Zn19  1  0.500000  0.500000  0.000000  1
  Zn  Zn20  1  0.326566  0.326566  0.326566  1
  Zn  Zn21  1  0.673434  0.673434  0.673434  1
  Zn  Zn22  1  0.326566  0.326566  0.020303  1
  Zn  Zn23  1  0.326566  0.020303  0.326566  1
  Zn  Zn24  1  0.673434  0.673434  0.979697  1
  Zn  Zn25  1  0.673434  0.979697  0.673434  1
  Zn  Zn26  1  0.020303  0.326566  0.326566  1
  Zn  Zn27  1  0.979697  0.673434  0.673434  1
  Zn  Zn28  1  0.000000  0.000000  0.000000  1
  N  N29  1  0.500000  0.500000  0.500000  1
