# generated using pymatgen
data_Lu2Sc4Pb5
_symmetry_space_group_name_H-M   'P 1'
_cell_length_a   6.31557339
_cell_length_b   9.12546169
_cell_length_c   11.25452989
_cell_angle_alpha   113.91700210
_cell_angle_beta   106.29477488
_cell_angle_gamma   90.00000097
_symmetry_Int_Tables_number   1
_chemical_formula_structural   Lu2Sc4Pb5
_chemical_formula_sum   'Lu4 Sc8 Pb10'
_cell_volume   564.31131212
_cell_formula_units_Z   2
loop_
 _symmetry_equiv_pos_site_id
 _symmetry_equiv_pos_as_xyz
  1  'x, y, z'
loop_
 _atom_site_type_symbol
 _atom_site_label
 _atom_site_symmetry_multiplicity
 _atom_site_fract_x
 _atom_site_fract_y
 _atom_site_fract_z
 _atom_site_occupancy
  Lu  Lu0  1  0.141853  0.256026  0.283705  1
  Lu  Lu1  1  0.858147  0.743974  0.716295  1
  Lu  Lu2  1  0.641853  0.027679  0.283705  1
  Lu  Lu3  1  0.358147  0.972321  0.716295  1
  Sc  Sc4  1  0.559424  0.309424  0.618847  1
  Sc  Sc5  1  0.440576  0.690576  0.381153  1
  Sc  Sc6  1  0.940576  0.690576  0.381153  1
  Sc  Sc7  1  0.059424  0.309424  0.618847  1
  Sc  Sc8  1  0.436139  0.677410  0.872278  1
  Sc  Sc9  1  0.563861  0.322590  0.127722  1
  Sc  Sc10  1  0.936139  0.194868  0.872278  1
  Sc  Sc11  1  0.063861  0.805132  0.127722  1
  Pb  Pb12  1  0.289653  0.592279  0.579307  1
  Pb  Pb13  1  0.710347  0.407721  0.420693  1
  Pb  Pb14  1  0.789653  0.987028  0.579307  1
  Pb  Pb15  1  0.210347  0.012972  0.420693  1
  Pb  Pb16  1  0.250000  0.000000  0.000000  1
  Pb  Pb17  1  0.750000  0.000000  0.000000  1
  Pb  Pb18  1  0.069746  0.473596  0.139492  1
  Pb  Pb19  1  0.930254  0.526404  0.860508  1
  Pb  Pb20  1  0.569746  0.665896  0.139492  1
  Pb  Pb21  1  0.430254  0.334104  0.860508  1
