# generated using pymatgen
data_Li2Tb8Lu9Si16Tc
_symmetry_space_group_name_H-M   'P 1'
_cell_length_a   7.07966049
_cell_length_b   7.54246987
_cell_length_c   14.29579300
_cell_angle_alpha   90.00000000
_cell_angle_beta   90.00000000
_cell_angle_gamma   90.14240618
_symmetry_Int_Tables_number   1
_chemical_formula_structural   Li2Tb8Lu9Si16Tc
_chemical_formula_sum   'Li2 Tb8 Lu9 Si16 Tc1'
_cell_volume   763.36619656
_cell_formula_units_Z   1
loop_
 _symmetry_equiv_pos_site_id
 _symmetry_equiv_pos_as_xyz
  1  'x, y, z'
loop_
 _atom_site_type_symbol
 _atom_site_label
 _atom_site_symmetry_multiplicity
 _atom_site_fract_x
 _atom_site_fract_y
 _atom_site_fract_z
 _atom_site_occupancy
  Li  Li0  1  0.847815  0.484201  0.250000  1
  Li  Li1  1  0.344165  0.017706  0.250000  1
  Tb  Tb2  1  0.022490  0.187969  0.097521  1
  Tb  Tb3  1  0.987516  0.814640  0.900413  1
  Tb  Tb4  1  0.481220  0.674166  0.903134  1
  Tb  Tb5  1  0.987516  0.814640  0.599587  1
  Tb  Tb6  1  0.523531  0.313429  0.100520  1
  Tb  Tb7  1  0.022490  0.187969  0.402479  1
  Tb  Tb8  1  0.523531  0.313429  0.399480  1
  Tb  Tb9  1  0.481220  0.674166  0.596866  1
  Lu  Lu10  1  0.651029  0.987598  0.750000  1
  Lu  Lu11  1  0.319377  0.182110  0.626331  1
  Lu  Lu12  1  0.674131  0.823086  0.372775  1
  Lu  Lu13  1  0.175448  0.677779  0.374378  1
  Lu  Lu14  1  0.674131  0.823086  0.127225  1
  Lu  Lu15  1  0.822164  0.329346  0.628301  1
  Lu  Lu16  1  0.319377  0.182110  0.873669  1
  Lu  Lu17  1  0.822164  0.329346  0.871699  1
  Lu  Lu18  1  0.175448  0.677779  0.125622  1
  Si  Si19  1  0.023650  0.108243  0.750000  1
  Si  Si20  1  0.980143  0.907493  0.250000  1
  Si  Si21  1  0.479244  0.590245  0.250000  1
  Si  Si22  1  0.508110  0.408569  0.750000  1
  Si  Si23  1  0.275147  0.853332  0.750000  1
  Si  Si24  1  0.732859  0.126037  0.250000  1
  Si  Si25  1  0.227195  0.376402  0.250000  1
  Si  Si26  1  0.790275  0.629325  0.750000  1
  Si  Si27  1  0.148516  0.470701  0.545512  1
  Si  Si28  1  0.842299  0.535998  0.465129  1
  Si  Si29  1  0.346070  0.964852  0.465376  1
  Si  Si30  1  0.842299  0.535998  0.034871  1
  Si  Si31  1  0.654230  0.030263  0.539125  1
  Si  Si32  1  0.148516  0.470701  0.954488  1
  Si  Si33  1  0.654230  0.030263  0.960875  1
  Si  Si34  1  0.346070  0.964852  0.034624  1
  Tc  Tc35  1  0.146388  0.502168  0.750000  1
