# generated using pymatgen
data_Sr4VAs(ClO4)2
_symmetry_space_group_name_H-M   'P 1'
_cell_length_a   6.64766500
_cell_length_b   7.58659761
_cell_length_c   11.61864372
_cell_angle_alpha   89.73256205
_cell_angle_beta   90.00000000
_cell_angle_gamma   90.00000000
_symmetry_Int_Tables_number   1
_chemical_formula_structural   Sr4VAs(ClO4)2
_chemical_formula_sum   'Sr8 V2 As2 Cl4 O16'
_cell_volume   585.95852755
_cell_formula_units_Z   2
loop_
 _symmetry_equiv_pos_site_id
 _symmetry_equiv_pos_as_xyz
  1  'x, y, z'
loop_
 _atom_site_type_symbol
 _atom_site_label
 _atom_site_symmetry_multiplicity
 _atom_site_fract_x
 _atom_site_fract_y
 _atom_site_fract_z
 _atom_site_occupancy
  Sr  Sr0  1  0.624091  0.250000  0.000000  1
  Sr  Sr1  1  0.375909  0.750000  0.000000  1
  Sr  Sr2  1  0.374228  0.750000  0.500000  1
  Sr  Sr3  1  0.625772  0.250000  0.500000  1
  Sr  Sr4  1  0.136726  0.030647  0.250094  1
  Sr  Sr5  1  0.863274  0.969353  0.749906  1
  Sr  Sr6  1  0.863274  0.530647  0.250094  1
  Sr  Sr7  1  0.136726  0.469353  0.749906  1
  V  V8  1  0.127614  0.250000  0.000000  1
  V  V9  1  0.872386  0.750000  0.000000  1
  As  As10  1  0.871476  0.750000  0.500000  1
  As  As11  1  0.128524  0.250000  0.500000  1
  Cl  Cl12  1  0.489805  0.314513  0.249740  1
  Cl  Cl13  1  0.510195  0.685487  0.750260  1
  Cl  Cl14  1  0.510195  0.814513  0.249740  1
  Cl  Cl15  1  0.489805  0.185487  0.750260  1
  O  O16  1  0.028835  0.771413  0.120075  1
  O  O17  1  0.971165  0.228587  0.879925  1
  O  O18  1  0.973173  0.230373  0.618868  1
  O  O19  1  0.973173  0.269627  0.381132  1
  O  O20  1  0.026827  0.769627  0.381132  1
  O  O21  1  0.026827  0.730373  0.618868  1
  O  O22  1  0.028835  0.728587  0.879925  1
  O  O23  1  0.971165  0.271413  0.120075  1
  O  O24  1  0.285055  0.072125  0.028805  1
  O  O25  1  0.714945  0.927875  0.971195  1
  O  O26  1  0.715525  0.925759  0.528905  1
  O  O27  1  0.715525  0.574241  0.471095  1
  O  O28  1  0.284475  0.074241  0.471095  1
  O  O29  1  0.284475  0.425759  0.528905  1
  O  O30  1  0.285055  0.427875  0.971195  1
  O  O31  1  0.714945  0.572125  0.028805  1
