# generated using pymatgen
data_Zr2Sc2BBr6
_symmetry_space_group_name_H-M   'P 1'
_cell_length_a   3.67398900
_cell_length_b   12.59767800
_cell_length_c   13.04140100
_cell_angle_alpha   90.00000000
_cell_angle_beta   90.00000000
_cell_angle_gamma   90.00000000
_symmetry_Int_Tables_number   1
_chemical_formula_structural   Zr2Sc2BBr6
_chemical_formula_sum   'Zr4 Sc4 B2 Br12'
_cell_volume   603.60468789
_cell_formula_units_Z   2
loop_
 _symmetry_equiv_pos_site_id
 _symmetry_equiv_pos_as_xyz
  1  'x, y, z'
loop_
 _atom_site_type_symbol
 _atom_site_label
 _atom_site_symmetry_multiplicity
 _atom_site_fract_x
 _atom_site_fract_y
 _atom_site_fract_z
 _atom_site_occupancy
  Zr  Zr0  1  0.000000  0.096328  0.077065  1
  Zr  Zr1  1  0.000000  0.903672  0.922935  1
  Zr  Zr2  1  0.000000  0.596328  0.422935  1
  Zr  Zr3  1  0.000000  0.403672  0.577065  1
  Sc  Sc4  1  0.500000  0.118888  0.861034  1
  Sc  Sc5  1  0.500000  0.881112  0.138966  1
  Sc  Sc6  1  0.500000  0.618888  0.638966  1
  Sc  Sc7  1  0.500000  0.381112  0.361034  1
  B  B8  1  0.500000  0.000000  0.000000  1
  B  B9  1  0.500000  0.500000  0.500000  1
  Br  Br10  1  0.500000  0.266844  0.681534  1
  Br  Br11  1  0.500000  0.733156  0.318466  1
  Br  Br12  1  0.500000  0.766844  0.818466  1
  Br  Br13  1  0.500000  0.233156  0.181534  1
  Br  Br14  1  0.000000  0.258959  0.933113  1
  Br  Br15  1  0.000000  0.741041  0.066887  1
  Br  Br16  1  0.000000  0.481529  0.241305  1
  Br  Br17  1  0.000000  0.518471  0.758695  1
  Br  Br18  1  0.000000  0.981529  0.258695  1
  Br  Br19  1  0.000000  0.018471  0.741305  1
  Br  Br20  1  0.000000  0.241041  0.433113  1
  Br  Br21  1  0.000000  0.758959  0.566887  1
