# generated using pymatgen
data_Ta6Nb6B12Os5Ru7
_symmetry_space_group_name_H-M   'P 1'
_cell_length_a   3.12131600
_cell_length_b   9.05655368
_cell_length_c   15.78652487
_cell_angle_alpha   89.92436366
_cell_angle_beta   90.00000000
_cell_angle_gamma   90.00000000
_symmetry_Int_Tables_number   1
_chemical_formula_structural   Ta6Nb6B12Os5Ru7
_chemical_formula_sum   'Ta6 Nb6 B12 Os5 Ru7'
_cell_volume   446.25887258
_cell_formula_units_Z   1
loop_
 _symmetry_equiv_pos_site_id
 _symmetry_equiv_pos_as_xyz
  1  'x, y, z'
loop_
 _atom_site_type_symbol
 _atom_site_label
 _atom_site_symmetry_multiplicity
 _atom_site_fract_x
 _atom_site_fract_y
 _atom_site_fract_z
 _atom_site_occupancy
  Ta  Ta0  1  0.000000  0.799887  0.494945  1
  Ta  Ta1  1  0.000000  0.199245  0.504252  1
  Ta  Ta2  1  0.000000  0.301197  0.004704  1
  Ta  Ta3  1  0.000000  0.699064  0.995542  1
  Ta  Ta4  1  0.000000  0.514559  0.594410  1
  Ta  Ta5  1  0.000000  0.485729  0.405283  1
  Nb  Nb6  1  0.000000  0.014523  0.905896  1
  Nb  Nb7  1  0.000000  0.985488  0.094299  1
  Nb  Nb8  1  0.000000  0.687146  0.201961  1
  Nb  Nb9  1  0.000000  0.312955  0.798100  1
  Nb  Nb10  1  0.000000  0.186530  0.297577  1
  Nb  Nb11  1  0.000000  0.812721  0.702772  1
  B  B12  1  0.500000  0.604334  0.497123  1
  B  B13  1  0.500000  0.395414  0.502394  1
  B  B14  1  0.500000  0.105517  0.002198  1
  B  B15  1  0.500000  0.894586  0.998042  1
  B  B16  1  0.000000  0.608327  0.832936  1
  B  B17  1  0.000000  0.391256  0.167377  1
  B  B18  1  0.000000  0.108715  0.667632  1
  B  B19  1  0.000000  0.891615  0.332013  1
  B  B20  1  0.500000  0.715132  0.598091  1
  B  B21  1  0.500000  0.285988  0.401556  1
  B  B22  1  0.500000  0.214793  0.902110  1
  B  B23  1  0.500000  0.785029  0.098164  1
  Os  Os24  1  0.500000  0.984577  0.593198  1
  Os  Os25  1  0.500000  0.561065  0.734958  1
  Os  Os26  1  0.500000  0.439038  0.265116  1
  Os  Os27  1  0.500000  0.061022  0.764650  1
  Os  Os28  1  0.500000  0.939455  0.235840  1
  Ru  Ru29  1  0.500000  0.720264  0.356589  1
  Ru  Ru30  1  0.500000  0.280385  0.643259  1
  Ru  Ru31  1  0.500000  0.221529  0.143977  1
  Ru  Ru32  1  0.500001  0.778471  0.856388  1
  Ru  Ru33  1  0.500000  0.514748  0.093571  1
  Ru  Ru34  1  0.500000  0.485168  0.906447  1
  Ru  Ru35  1  0.499999  0.014528  0.406627  1
