# generated using pymatgen
data_Na20NbV(GaAs6)2
_symmetry_space_group_name_H-M   'P 1'
_cell_length_a   7.52777631
_cell_length_b   8.36065008
_cell_length_c   15.85985804
_cell_angle_alpha   59.11616312
_cell_angle_beta   89.99701876
_cell_angle_gamma   89.97026069
_symmetry_Int_Tables_number   1
_chemical_formula_structural   Na20NbV(GaAs6)2
_chemical_formula_sum   'Na20 Nb1 V1 Ga2 As12'
_cell_volume   856.64210386
_cell_formula_units_Z   1
loop_
 _symmetry_equiv_pos_site_id
 _symmetry_equiv_pos_as_xyz
  1  'x, y, z'
loop_
 _atom_site_type_symbol
 _atom_site_label
 _atom_site_symmetry_multiplicity
 _atom_site_fract_x
 _atom_site_fract_y
 _atom_site_fract_z
 _atom_site_occupancy
  Na  Na0  1  0.737762  0.941877  0.245712  1
  Na  Na1  1  0.261475  0.941651  0.746416  1
  Na  Na2  1  0.770544  0.054584  0.758952  1
  Na  Na3  1  0.230489  0.054167  0.257679  1
  Na  Na4  1  0.266293  0.245198  0.419554  1
  Na  Na5  1  0.732711  0.244219  0.920183  1
  Na  Na6  1  0.219042  0.754316  0.579020  1
  Na  Na7  1  0.780616  0.756102  0.078899  1
  Na  Na8  1  0.089689  0.345505  0.583008  1
  Na  Na9  1  0.910256  0.344464  0.082953  1
  Na  Na10  1  0.406907  0.654797  0.418541  1
  Na  Na11  1  0.592322  0.654212  0.919581  1
  Na  Na12  1  0.594655  0.336003  0.242312  1
  Na  Na13  1  0.404613  0.334465  0.743412  1
  Na  Na14  1  0.907845  0.664614  0.759833  1
  Na  Na15  1  0.092760  0.665737  0.259215  1
  Na  Na16  1  0.770294  0.418629  0.409085  1
  Na  Na17  1  0.230698  0.416025  0.910012  1
  Na  Na18  1  0.739298  0.583353  0.588338  1
  Na  Na19  1  0.261100  0.585216  0.088177  1
  Nb  Nb20  1  0.615259  0.989208  0.578204  1
  V  V21  1  0.383939  0.989023  0.078118  1
  Ga  Ga22  1  0.890277  0.013079  0.416011  1
  Ga  Ga23  1  0.111008  0.013077  0.916891  1
  As  As24  1  0.982539  0.319590  0.270951  1
  As  As25  1  0.017011  0.319484  0.770897  1
  As  As26  1  0.519035  0.690813  0.725980  1
  As  As27  1  0.477156  0.702514  0.219951  1
  As  As28  1  0.948740  0.021380  0.574756  1
  As  As29  1  0.063096  0.020537  0.074935  1
  As  As30  1  0.540689  0.978252  0.427032  1
  As  As31  1  0.456344  0.978182  0.932876  1
  As  As32  1  0.004338  0.723541  0.422041  1
  As  As33  1  0.995553  0.723647  0.921978  1
  As  As34  1  0.490067  0.266992  0.579181  1
  As  As35  1  0.505581  0.255549  0.079322  1
