# generated using pymatgen
data_Pr5Nd5Bi5PbBr2
_symmetry_space_group_name_H-M   'P 1'
_cell_length_a   9.71006300
_cell_length_b   9.68297725
_cell_length_c   6.75552300
_cell_angle_alpha   90.00000000
_cell_angle_beta   90.00000000
_cell_angle_gamma   120.09257221
_symmetry_Int_Tables_number   1
_chemical_formula_structural   Pr5Nd5Bi5PbBr2
_chemical_formula_sum   'Pr5 Nd5 Bi5 Pb1 Br2'
_cell_volume   549.55946685
_cell_formula_units_Z   1
loop_
 _symmetry_equiv_pos_site_id
 _symmetry_equiv_pos_as_xyz
  1  'x, y, z'
loop_
 _atom_site_type_symbol
 _atom_site_label
 _atom_site_symmetry_multiplicity
 _atom_site_fract_x
 _atom_site_fract_y
 _atom_site_fract_z
 _atom_site_occupancy
  Pr  Pr0  1  0.727210  0.000000  0.250000  1
  Pr  Pr1  1  0.999635  0.272206  0.750000  1
  Pr  Pr2  1  0.001851  0.728694  0.250000  1
  Pr  Pr3  1  0.727429  0.727794  0.750000  1
  Pr  Pr4  1  0.273158  0.271306  0.250000  1
  Nd  Nd5  1  0.273015  0.000000  0.750000  1
  Nd  Nd6  1  0.333087  0.667004  0.500293  1
  Nd  Nd7  1  0.666084  0.332996  0.500293  1
  Nd  Nd8  1  0.666084  0.332996  0.999707  1
  Nd  Nd9  1  0.333087  0.667004  0.999707  1
  Bi  Bi10  1  0.612999  0.000000  0.750000  1
  Bi  Bi11  1  0.000997  0.616130  0.750000  1
  Bi  Bi12  1  0.000334  0.385182  0.250000  1
  Bi  Bi13  1  0.384867  0.383870  0.750000  1
  Bi  Bi14  1  0.615152  0.614818  0.250000  1
  Pb  Pb15  1  0.384907  0.000000  0.250000  1
  Br  Br16  1  0.000053  0.000000  0.500815  1
  Br  Br17  1  0.000053  0.000000  0.999185  1
