# generated using pymatgen
data_Lu3Mg3Hg2Pb
_symmetry_space_group_name_H-M   'P 1'
_cell_length_a   7.56709800
_cell_length_b   7.56709655
_cell_length_c   4.38709400
_cell_angle_alpha   90.00000000
_cell_angle_beta   90.00000000
_cell_angle_gamma   119.99999761
_symmetry_Int_Tables_number   1
_chemical_formula_structural   Lu3Mg3Hg2Pb
_chemical_formula_sum   'Lu3 Mg3 Hg2 Pb1'
_cell_volume   217.55357061
_cell_formula_units_Z   1
loop_
 _symmetry_equiv_pos_site_id
 _symmetry_equiv_pos_as_xyz
  1  'x, y, z'
loop_
 _atom_site_type_symbol
 _atom_site_label
 _atom_site_symmetry_multiplicity
 _atom_site_fract_x
 _atom_site_fract_y
 _atom_site_fract_z
 _atom_site_occupancy
  Lu  Lu0  1  0.571617  0.986119  0.000000  1
  Lu  Lu1  1  0.013881  0.585496  0.000000  1
  Lu  Lu2  1  0.414504  0.428383  0.000000  1
  Mg  Mg3  1  0.238936  0.990557  0.500000  1
  Mg  Mg4  1  0.009443  0.248379  0.500000  1
  Mg  Mg5  1  0.751621  0.761064  0.500000  1
  Hg  Hg6  1  0.333333  0.666667  0.500000  1
  Hg  Hg7  1  0.000000  0.000000  0.000000  1
  Pb  Pb8  1  0.666667  0.333333  0.500000  1
