# generated using pymatgen
data_Rb3Sm(IO3)6
_symmetry_space_group_name_H-M   'P 1'
_cell_length_a   7.29638308
_cell_length_b   7.29819157
_cell_length_c   11.12407627
_cell_angle_alpha   87.42697749
_cell_angle_beta   107.24721633
_cell_angle_gamma   107.88042208
_symmetry_Int_Tables_number   1
_chemical_formula_structural   Rb3Sm(IO3)6
_chemical_formula_sum   'Rb3 Sm1 I6 O18'
_cell_volume   537.70650063
_cell_formula_units_Z   1
loop_
 _symmetry_equiv_pos_site_id
 _symmetry_equiv_pos_as_xyz
  1  'x, y, z'
loop_
 _atom_site_type_symbol
 _atom_site_label
 _atom_site_symmetry_multiplicity
 _atom_site_fract_x
 _atom_site_fract_y
 _atom_site_fract_z
 _atom_site_occupancy
  Rb  Rb0  1  0.000000  0.000000  0.000000  1
  Rb  Rb1  1  0.831901  0.031738  0.601738  1
  Rb  Rb2  1  0.168099  0.968262  0.398262  1
  Sm  Sm3  1  0.500000  0.500000  0.000000  1
  I  I4  1  0.036166  0.476885  0.193312  1
  I  I5  1  0.963834  0.523115  0.806688  1
  I  I6  1  0.563858  0.965639  0.195837  1
  I  I7  1  0.436142  0.034361  0.804163  1
  I  I8  1  0.415431  0.554333  0.631411  1
  I  I9  1  0.584569  0.445667  0.368589  1
  O  O10  1  0.847148  0.543009  0.057878  1
  O  O11  1  0.152852  0.456991  0.942122  1
  O  O12  1  0.958717  0.548923  0.320299  1
  O  O13  1  0.041283  0.451077  0.679701  1
  O  O14  1  0.928385  0.213906  0.184571  1
  O  O15  1  0.071615  0.786094  0.815429  1
  O  O16  1  0.576829  0.825879  0.063564  1
  O  O17  1  0.423171  0.174121  0.936436  1
  O  O18  1  0.298847  0.856821  0.189199  1
  O  O19  1  0.701153  0.143179  0.810801  1
  O  O20  1  0.691731  0.847755  0.327734  1
  O  O21  1  0.308269  0.152245  0.672266  1
  O  O22  1  0.520618  0.597540  0.805109  1
  O  O23  1  0.479382  0.402460  0.194891  1
  O  O24  1  0.662005  0.573001  0.608742  1
  O  O25  1  0.337995  0.426999  0.391258  1
  O  O26  1  0.408264  0.798747  0.596431  1
  O  O27  1  0.591736  0.201253  0.403569  1
