# generated using pymatgen
data_ErTm15(In3Ir)2
_symmetry_space_group_name_H-M   'P 1'
_cell_length_a   10.29130000
_cell_length_b   10.29248974
_cell_length_c   6.97078400
_cell_angle_alpha   90.00368629
_cell_angle_beta   90.00000000
_cell_angle_gamma   119.99617628
_symmetry_Int_Tables_number   1
_chemical_formula_structural   ErTm15(In3Ir)2
_chemical_formula_sum   'Er1 Tm15 In6 Ir2'
_cell_volume   639.46925650
_cell_formula_units_Z   1
loop_
 _symmetry_equiv_pos_site_id
 _symmetry_equiv_pos_as_xyz
  1  'x, y, z'
loop_
 _atom_site_type_symbol
 _atom_site_label
 _atom_site_symmetry_multiplicity
 _atom_site_fract_x
 _atom_site_fract_y
 _atom_site_fract_z
 _atom_site_occupancy
  Er  Er0  1  0.532811  0.065623  0.514861  1
  Tm  Tm1  1  0.934153  0.467086  0.514856  1
  Tm  Tm2  1  0.532933  0.467086  0.514856  1
  Tm  Tm3  1  0.467025  0.934049  0.014828  1
  Tm  Tm4  1  0.065884  0.532950  0.014823  1
  Tm  Tm5  1  0.467067  0.532950  0.014823  1
  Tm  Tm6  1  0.176721  0.353443  0.721425  1
  Tm  Tm7  1  0.646590  0.823201  0.721507  1
  Tm  Tm8  1  0.176610  0.823201  0.721507  1
  Tm  Tm9  1  0.823249  0.646496  0.221430  1
  Tm  Tm10  1  0.353363  0.176754  0.221325  1
  Tm  Tm11  1  0.823392  0.176754  0.221325  1
  Tm  Tm12  1  0.666727  0.333453  0.895563  1
  Tm  Tm13  1  0.333291  0.666583  0.395495  1
  Tm  Tm14  1  0.000003  0.000005  0.500352  1
  Tm  Tm15  1  0.000014  0.000027  0.000388  1
  In  In16  1  0.837192  0.674384  0.761025  1
  In  In17  1  0.325527  0.162831  0.761103  1
  In  In18  1  0.837303  0.162831  0.761103  1
  In  In19  1  0.162796  0.325591  0.261051  1
  In  In20  1  0.674403  0.837193  0.261003  1
  In  In21  1  0.162791  0.837193  0.261003  1
  Ir  Ir22  1  0.666817  0.333633  0.291082  1
  Ir  Ir23  1  0.333340  0.666681  0.791266  1
