# generated using pymatgen
data_KEuH9W
_symmetry_space_group_name_H-M   'P 1'
_cell_length_a   9.10617800
_cell_length_b   9.10617622
_cell_length_c   5.43177100
_cell_angle_alpha   90.00000000
_cell_angle_beta   90.00000000
_cell_angle_gamma   119.99999921
_symmetry_Int_Tables_number   1
_chemical_formula_structural   KEuH9W
_chemical_formula_sum   'K3 Eu3 H27 W3'
_cell_volume   390.07154714
_cell_formula_units_Z   3
loop_
 _symmetry_equiv_pos_site_id
 _symmetry_equiv_pos_as_xyz
  1  'x, y, z'
loop_
 _atom_site_type_symbol
 _atom_site_label
 _atom_site_symmetry_multiplicity
 _atom_site_fract_x
 _atom_site_fract_y
 _atom_site_fract_z
 _atom_site_occupancy
  K  K0  1  0.000000  0.587817  0.000000  1
  K  K1  1  0.412183  0.412183  0.000000  1
  K  K2  1  0.587817  0.000000  0.000000  1
  Eu  Eu3  1  0.000000  0.270331  0.500000  1
  Eu  Eu4  1  0.729669  0.729669  0.500000  1
  Eu  Eu5  1  0.270331  0.000000  0.500000  1
  H  H6  1  0.788607  0.305143  0.733813  1
  H  H7  1  0.694857  0.483463  0.733813  1
  H  H8  1  0.516537  0.211393  0.733813  1
  H  H9  1  0.211393  0.516537  0.266187  1
  H  H10  1  0.516537  0.211393  0.266187  1
  H  H11  1  0.788607  0.305143  0.266187  1
  H  H12  1  0.694857  0.483463  0.266187  1
  H  H13  1  0.305143  0.788607  0.733813  1
  H  H14  1  0.483463  0.694857  0.733813  1
  H  H15  1  0.193615  0.000000  0.000000  1
  H  H16  1  0.806385  0.806385  0.000000  1
  H  H17  1  0.000000  0.193615  0.000000  1
  H  H18  1  0.861705  0.000000  0.235723  1
  H  H19  1  0.138295  0.138295  0.764277  1
  H  H20  1  0.000000  0.861705  0.764277  1
  H  H21  1  0.000000  0.861705  0.235723  1
  H  H22  1  0.138295  0.138295  0.235723  1
  H  H23  1  0.861705  0.000000  0.764277  1
  H  H24  1  0.125899  0.630340  0.500000  1
  H  H25  1  0.504441  0.874101  0.500000  1
  H  H26  1  0.369660  0.495559  0.500000  1
  H  H27  1  0.495559  0.369660  0.500000  1
  H  H28  1  0.874101  0.504441  0.500000  1
  H  H29  1  0.630340  0.125899  0.500000  1
  H  H30  1  0.211393  0.516537  0.733813  1
  H  H31  1  0.305143  0.788607  0.266187  1
  H  H32  1  0.483463  0.694857  0.266187  1
  W  W33  1  0.666667  0.333333  0.500000  1
  W  W34  1  0.333333  0.666667  0.500000  1
  W  W35  1  0.000000  0.000000  0.000000  1
