# generated using pymatgen
data_Dy19Tm(Ir2Os)4
_symmetry_space_group_name_H-M   'P 1'
_cell_length_a   10.85734400
_cell_length_b   10.85734400
_cell_length_c   6.41186100
_cell_angle_alpha   90.00000000
_cell_angle_beta   90.00000000
_cell_angle_gamma   90.00000000
_symmetry_Int_Tables_number   1
_chemical_formula_structural   Dy19Tm(Ir2Os)4
_chemical_formula_sum   'Dy19 Tm1 Ir8 Os4'
_cell_volume   755.84247734
_cell_formula_units_Z   1
loop_
 _symmetry_equiv_pos_site_id
 _symmetry_equiv_pos_as_xyz
  1  'x, y, z'
loop_
 _atom_site_type_symbol
 _atom_site_label
 _atom_site_symmetry_multiplicity
 _atom_site_fract_x
 _atom_site_fract_y
 _atom_site_fract_z
 _atom_site_occupancy
  Dy  Dy0  1  0.293336  0.086307  0.378009  1
  Dy  Dy1  1  0.293714  0.913556  0.877679  1
  Dy  Dy2  1  0.706286  0.086444  0.877679  1
  Dy  Dy3  1  0.706664  0.913693  0.378009  1
  Dy  Dy4  1  0.586430  0.793925  0.877944  1
  Dy  Dy5  1  0.586422  0.206050  0.378056  1
  Dy  Dy6  1  0.413578  0.793950  0.378056  1
  Dy  Dy7  1  0.413570  0.206075  0.877944  1
  Dy  Dy8  1  0.206050  0.413578  0.621944  1
  Dy  Dy9  1  0.206075  0.586430  0.122056  1
  Dy  Dy10  1  0.793925  0.413570  0.122056  1
  Dy  Dy11  1  0.793950  0.586422  0.621944  1
  Dy  Dy12  1  0.913556  0.706286  0.122321  1
  Dy  Dy13  1  0.913693  0.293336  0.621991  1
  Dy  Dy14  1  0.086307  0.706664  0.621991  1
  Dy  Dy15  1  0.086444  0.293714  0.122321  1
  Dy  Dy16  1  0.000000  0.000000  0.000000  1
  Dy  Dy17  1  0.500000  0.500000  0.000000  1
  Dy  Dy18  1  0.500000  0.500000  0.500000  1
  Tm  Tm19  1  0.000000  0.000000  0.500000  1
  Ir  Ir20  1  0.848712  0.151246  0.251404  1
  Ir  Ir21  1  0.848754  0.848712  0.748596  1
  Ir  Ir22  1  0.151246  0.151288  0.748596  1
  Ir  Ir23  1  0.151288  0.848754  0.251404  1
  Ir  Ir24  1  0.651963  0.348033  0.749859  1
  Ir  Ir25  1  0.651967  0.651963  0.250141  1
  Ir  Ir26  1  0.348033  0.348037  0.250141  1
  Ir  Ir27  1  0.348037  0.651967  0.749859  1
  Os  Os28  1  0.500000  0.000000  0.123897  1
  Os  Os29  1  0.500000  0.000000  0.623781  1
  Os  Os30  1  0.000000  0.500000  0.876103  1
  Os  Os31  1  0.000000  0.500000  0.376219  1
