# generated using pymatgen
data_Tb3Ti(Co4P3)2
_symmetry_space_group_name_H-M   'P 1'
_cell_length_a   3.70035400
_cell_length_b   10.61385900
_cell_length_c   12.29419700
_cell_angle_alpha   90.00000000
_cell_angle_beta   90.00000000
_cell_angle_gamma   90.00000000
_symmetry_Int_Tables_number   1
_chemical_formula_structural   Tb3Ti(Co4P3)2
_chemical_formula_sum   'Tb6 Ti2 Co16 P12'
_cell_volume   482.85502492
_cell_formula_units_Z   2
loop_
 _symmetry_equiv_pos_site_id
 _symmetry_equiv_pos_as_xyz
  1  'x, y, z'
loop_
 _atom_site_type_symbol
 _atom_site_label
 _atom_site_symmetry_multiplicity
 _atom_site_fract_x
 _atom_site_fract_y
 _atom_site_fract_z
 _atom_site_occupancy
  Tb  Tb0  1  0.000000  0.500000  0.524881  1
  Tb  Tb1  1  0.500000  0.000000  0.475119  1
  Tb  Tb2  1  0.500000  0.819789  0.204330  1
  Tb  Tb3  1  0.500000  0.180211  0.204330  1
  Tb  Tb4  1  0.000000  0.680211  0.795670  1
  Tb  Tb5  1  0.000000  0.319789  0.795670  1
  Ti  Ti6  1  0.500000  0.500000  0.153176  1
  Ti  Ti7  1  0.000000  0.000000  0.846824  1
  Co  Co8  1  0.500000  0.500000  0.702366  1
  Co  Co9  1  0.000000  0.000000  0.297634  1
  Co  Co10  1  0.000000  0.500000  0.987189  1
  Co  Co11  1  0.500000  0.000000  0.012811  1
  Co  Co12  1  0.500000  0.332230  0.993905  1
  Co  Co13  1  0.500000  0.667770  0.993905  1
  Co  Co14  1  0.000000  0.167770  0.006095  1
  Co  Co15  1  0.000000  0.832230  0.006095  1
  Co  Co16  1  0.500000  0.295839  0.431729  1
  Co  Co17  1  0.500000  0.704161  0.431729  1
  Co  Co18  1  0.000000  0.204161  0.568271  1
  Co  Co19  1  0.000000  0.795839  0.568271  1
  Co  Co20  1  0.500000  0.878845  0.706199  1
  Co  Co21  1  0.500000  0.121155  0.706199  1
  Co  Co22  1  0.000000  0.621155  0.293801  1
  Co  Co23  1  0.000000  0.378845  0.293801  1
  P  P24  1  0.500000  0.500000  0.883262  1
  P  P25  1  0.000000  0.000000  0.116738  1
  P  P26  1  0.500000  0.500000  0.352112  1
  P  P27  1  0.000000  0.000000  0.647888  1
  P  P28  1  0.500000  0.309887  0.615498  1
  P  P29  1  0.500000  0.690113  0.615498  1
  P  P30  1  0.000000  0.190113  0.384502  1
  P  P31  1  0.000000  0.809887  0.384502  1
  P  P32  1  0.500000  0.843038  0.892625  1
  P  P33  1  0.500000  0.156962  0.892625  1
  P  P34  1  0.000000  0.656962  0.107375  1
  P  P35  1  0.000000  0.343038  0.107375  1
