# generated using pymatgen
data_Tb2Y2FeRuC8
_symmetry_space_group_name_H-M   'P 1'
_cell_length_a   5.18162005
_cell_length_b   6.65219778
_cell_length_c   6.63518691
_cell_angle_alpha   70.03565662
_cell_angle_beta   67.01653917
_cell_angle_gamma   67.07867354
_symmetry_Int_Tables_number   1
_chemical_formula_structural   Tb2Y2FeRuC8
_chemical_formula_sum   'Tb2 Y2 Fe1 Ru1 C8'
_cell_volume   189.03081523
_cell_formula_units_Z   1
loop_
 _symmetry_equiv_pos_site_id
 _symmetry_equiv_pos_as_xyz
  1  'x, y, z'
loop_
 _atom_site_type_symbol
 _atom_site_label
 _atom_site_symmetry_multiplicity
 _atom_site_fract_x
 _atom_site_fract_y
 _atom_site_fract_z
 _atom_site_occupancy
  Tb  Tb0  1  0.149044  0.200869  0.504028  1
  Tb  Tb1  1  0.853940  0.799131  0.495972  1
  Y  Y2  1  0.645841  0.504511  0.200986  1
  Y  Y3  1  0.351337  0.495489  0.799014  1
  Fe  Fe4  1  0.249986  0.000000  0.000000  1
  Ru  Ru5  1  0.750048  0.000000  0.000000  1
  C  C6  1  0.369391  0.788721  0.465933  1
  C  C7  1  0.624045  0.211279  0.534067  1
  C  C8  1  0.875444  0.465091  0.790831  1
  C  C9  1  0.131366  0.534909  0.209169  1
  C  C10  1  0.402584  0.905647  0.247762  1
  C  C11  1  0.555993  0.094353  0.752238  1
  C  C12  1  0.943095  0.247167  0.907623  1
  C  C13  1  0.097885  0.752833  0.092377  1
