# generated using pymatgen
data_Dy7Sn22Ru6Au
_symmetry_space_group_name_H-M   'P 1'
_cell_length_a   9.80398100
_cell_length_b   9.80398196
_cell_length_c   10.14099700
_cell_angle_alpha   90.00000000
_cell_angle_beta   90.00000000
_cell_angle_gamma   119.99999339
_symmetry_Int_Tables_number   1
_chemical_formula_structural   Dy7Sn22Ru6Au
_chemical_formula_sum   'Dy7 Sn22 Ru6 Au1'
_cell_volume   844.14349703
_cell_formula_units_Z   1
loop_
 _symmetry_equiv_pos_site_id
 _symmetry_equiv_pos_as_xyz
  1  'x, y, z'
loop_
 _atom_site_type_symbol
 _atom_site_label
 _atom_site_symmetry_multiplicity
 _atom_site_fract_x
 _atom_site_fract_y
 _atom_site_fract_z
 _atom_site_occupancy
  Dy  Dy0  1  0.000000  0.000000  0.000000  1
  Dy  Dy1  1  0.482934  0.517066  0.304113  1
  Dy  Dy2  1  0.517066  0.482934  0.695887  1
  Dy  Dy3  1  0.482934  0.965868  0.304113  1
  Dy  Dy4  1  0.517066  0.034132  0.695887  1
  Dy  Dy5  1  0.034132  0.517066  0.304113  1
  Dy  Dy6  1  0.965868  0.482934  0.695887  1
  Sn  Sn7  1  0.348603  0.000000  0.000000  1
  Sn  Sn8  1  0.651397  0.000000  0.000000  1
  Sn  Sn9  1  0.000000  0.348603  0.000000  1
  Sn  Sn10  1  0.000000  0.651397  0.000000  1
  Sn  Sn11  1  0.651397  0.651397  0.000000  1
  Sn  Sn12  1  0.348603  0.348603  0.000000  1
  Sn  Sn13  1  0.333333  0.666667  0.822878  1
  Sn  Sn14  1  0.666667  0.333333  0.177122  1
  Sn  Sn15  1  0.779838  0.220162  0.461607  1
  Sn  Sn16  1  0.220162  0.779838  0.538393  1
  Sn  Sn17  1  0.779838  0.559676  0.461607  1
  Sn  Sn18  1  0.220162  0.440324  0.538393  1
  Sn  Sn19  1  0.440324  0.220162  0.461607  1
  Sn  Sn20  1  0.559676  0.779838  0.538393  1
  Sn  Sn21  1  0.333333  0.666667  0.124903  1
  Sn  Sn22  1  0.666667  0.333333  0.875097  1
  Sn  Sn23  1  0.118110  0.881890  0.277598  1
  Sn  Sn24  1  0.881890  0.118110  0.722402  1
  Sn  Sn25  1  0.118110  0.236218  0.277598  1
  Sn  Sn26  1  0.881890  0.763782  0.722402  1
  Sn  Sn27  1  0.763782  0.881890  0.277598  1
  Sn  Sn28  1  0.236218  0.118110  0.722402  1
  Ru  Ru29  1  0.831193  0.168807  0.204219  1
  Ru  Ru30  1  0.168807  0.831193  0.795781  1
  Ru  Ru31  1  0.831193  0.662386  0.204219  1
  Ru  Ru32  1  0.168807  0.337614  0.795781  1
  Ru  Ru33  1  0.337614  0.168807  0.204219  1
  Ru  Ru34  1  0.662386  0.831193  0.795781  1
  Au  Au35  1  0.000000  0.000000  0.500000  1
