# generated using pymatgen
data_Ho2ScAuO7
_symmetry_space_group_name_H-M   'P 1'
_cell_length_a   7.33855724
_cell_length_b   7.40752695
_cell_length_c   7.33856665
_cell_angle_alpha   59.68889817
_cell_angle_beta   59.70660567
_cell_angle_gamma   59.68879534
_symmetry_Int_Tables_number   1
_chemical_formula_structural   Ho2ScAuO7
_chemical_formula_sum   'Ho4 Sc2 Au2 O14'
_cell_volume   280.12923974
_cell_formula_units_Z   2
loop_
 _symmetry_equiv_pos_site_id
 _symmetry_equiv_pos_as_xyz
  1  'x, y, z'
loop_
 _atom_site_type_symbol
 _atom_site_label
 _atom_site_symmetry_multiplicity
 _atom_site_fract_x
 _atom_site_fract_y
 _atom_site_fract_z
 _atom_site_occupancy
  Ho  Ho0  1  0.499989  0.000000  0.500003  1
  Ho  Ho1  1  0.000000  0.499994  0.499997  1
  Ho  Ho2  1  0.499992  0.500004  0.000002  1
  Ho  Ho3  1  0.500002  0.499997  0.499997  1
  Sc  Sc4  1  0.000037  0.500010  0.999961  1
  Sc  Sc5  1  0.999987  0.000020  0.000045  1
  Au  Au6  1  0.500007  0.999995  0.999995  1
  Au  Au7  1  0.000001  0.999999  0.500006  1
  O  O8  1  0.620177  0.629820  0.620187  1
  O  O9  1  0.379816  0.370174  0.379820  1
  O  O10  1  0.351186  0.913787  0.899111  1
  O  O11  1  0.100905  0.664091  0.648793  1
  O  O12  1  0.904156  0.345849  0.904161  1
  O  O13  1  0.899104  0.913784  0.351197  1
  O  O14  1  0.351204  0.335911  0.899085  1
  O  O15  1  0.337692  0.912323  0.337694  1
  O  O16  1  0.899095  0.335919  0.351186  1
  O  O17  1  0.648808  0.664081  0.100902  1
  O  O18  1  0.100886  0.086210  0.648819  1
  O  O19  1  0.648808  0.086216  0.100887  1
  O  O20  1  0.662303  0.087672  0.662305  1
  O  O21  1  0.095847  0.654150  0.095848  1
