# generated using pymatgen
data_Ta9Al3GaNi
_symmetry_space_group_name_H-M   'P 1'
_cell_length_a   9.88223659
_cell_length_b   9.91275624
_cell_length_c   9.88223600
_cell_angle_alpha   93.79475747
_cell_angle_beta   93.64635508
_cell_angle_gamma   150.15057216
_symmetry_Int_Tables_number   1
_chemical_formula_structural   Ta9Al3GaNi
_chemical_formula_sum   'Ta18 Al6 Ga2 Ni2'
_cell_volume   466.28361817
_cell_formula_units_Z   2
loop_
 _symmetry_equiv_pos_site_id
 _symmetry_equiv_pos_as_xyz
  1  'x, y, z'
loop_
 _atom_site_type_symbol
 _atom_site_label
 _atom_site_symmetry_multiplicity
 _atom_site_fract_x
 _atom_site_fract_y
 _atom_site_fract_z
 _atom_site_occupancy
  Ta  Ta0  1  0.566875  0.793807  0.357309  1
  Ta  Ta1  1  0.082366  0.156605  0.243705  1
  Ta  Ta2  1  0.587101  0.343395  0.925761  1
  Ta  Ta3  1  0.654420  0.580175  0.243774  1
  Ta  Ta4  1  0.345580  0.419825  0.756226  1
  Ta  Ta5  1  0.790203  0.433206  0.227210  1
  Ta  Ta6  1  0.412899  0.656605  0.074239  1
  Ta  Ta7  1  0.163597  0.919825  0.074246  1
  Ta  Ta8  1  0.705996  0.933206  0.643003  1
  Ta  Ta9  1  0.433125  0.206193  0.642691  1
  Ta  Ta10  1  0.917634  0.843395  0.756295  1
  Ta  Ta11  1  0.063501  0.706193  0.773068  1
  Ta  Ta12  1  0.209797  0.566794  0.772790  1
  Ta  Ta13  1  0.251055  0.750000  0.501055  1
  Ta  Ta14  1  0.294004  0.066794  0.356997  1
  Ta  Ta15  1  0.748945  0.250000  0.498945  1
  Ta  Ta16  1  0.836403  0.080175  0.925754  1
  Ta  Ta17  1  0.936499  0.293807  0.226932  1
  Al  Al18  1  0.376382  0.876327  0.238214  1
  Al  Al19  1  0.861886  0.623673  0.500054  1
  Al  Al20  1  0.138114  0.376327  0.499946  1
  Al  Al21  1  0.623618  0.123673  0.761786  1
  Al  Al22  1  0.000000  0.500000  0.000000  1
  Al  Al23  1  0.000000  0.000000  0.500000  1
  Ga  Ga24  1  0.750694  0.750000  0.000694  1
  Ga  Ga25  1  0.249306  0.250000  0.999306  1
  Ni  Ni26  1  0.500000  0.000000  0.000000  1
  Ni  Ni27  1  0.500000  0.500000  0.500000  1
