# generated using pymatgen
data_La16ErTm3Sn16
_symmetry_space_group_name_H-M   'P 1'
_cell_length_a   8.39552303
_cell_length_b   8.48944203
_cell_length_c   16.23107300
_cell_angle_alpha   90.00000000
_cell_angle_beta   90.00000000
_cell_angle_gamma   89.99056663
_symmetry_Int_Tables_number   1
_chemical_formula_structural   La16ErTm3Sn16
_chemical_formula_sum   'La16 Er1 Tm3 Sn16'
_cell_volume   1156.84221779
_cell_formula_units_Z   1
loop_
 _symmetry_equiv_pos_site_id
 _symmetry_equiv_pos_as_xyz
  1  'x, y, z'
loop_
 _atom_site_type_symbol
 _atom_site_label
 _atom_site_symmetry_multiplicity
 _atom_site_fract_x
 _atom_site_fract_y
 _atom_site_fract_z
 _atom_site_occupancy
  La  La0  1  0.972936  0.818975  0.899430  1
  La  La1  1  0.473009  0.680941  0.600578  1
  La  La2  1  0.527016  0.318998  0.100590  1
  La  La3  1  0.027023  0.181024  0.399409  1
  La  La4  1  0.972936  0.818975  0.600570  1
  La  La5  1  0.473009  0.680941  0.899422  1
  La  La6  1  0.527016  0.318998  0.399410  1
  La  La7  1  0.027023  0.181024  0.100591  1
  La  La8  1  0.879925  0.660595  0.382328  1
  La  La9  1  0.379972  0.839400  0.117669  1
  La  La10  1  0.620109  0.160698  0.617630  1
  La  La11  1  0.120003  0.339415  0.882368  1
  La  La12  1  0.120003  0.339415  0.617632  1
  La  La13  1  0.620109  0.160698  0.882370  1
  La  La14  1  0.379972  0.839400  0.382331  1
  La  La15  1  0.879925  0.660595  0.117672  1
  Er  Er16  1  0.288097  0.002906  0.750000  1
  Tm  Tm17  1  0.787925  0.497012  0.750000  1
  Tm  Tm18  1  0.212053  0.502952  0.250000  1
  Tm  Tm19  1  0.712085  0.997060  0.250000  1
  Sn  Sn20  1  0.781131  0.470244  0.546212  1
  Sn  Sn21  1  0.281166  0.029769  0.953834  1
  Sn  Sn22  1  0.718818  0.970254  0.453760  1
  Sn  Sn23  1  0.218864  0.529741  0.046232  1
  Sn  Sn24  1  0.218864  0.529741  0.453768  1
  Sn  Sn25  1  0.718818  0.970254  0.046240  1
  Sn  Sn26  1  0.281166  0.029769  0.546166  1
  Sn  Sn27  1  0.781131  0.470244  0.953788  1
  Sn  Sn28  1  0.168713  0.644538  0.750000  1
  Sn  Sn29  1  0.668619  0.855315  0.750000  1
  Sn  Sn30  1  0.331369  0.144698  0.250000  1
  Sn  Sn31  1  0.831307  0.355330  0.250000  1
  Sn  Sn32  1  0.923502  0.117517  0.750000  1
  Sn  Sn33  1  0.423466  0.382616  0.750000  1
  Sn  Sn34  1  0.576511  0.617427  0.250000  1
  Sn  Sn35  1  0.076414  0.882520  0.250000  1
