# generated using pymatgen
data_Sm2Lu2B12OsRu
_symmetry_space_group_name_H-M   'P 1'
_cell_length_a   3.65445200
_cell_length_b   9.12636818
_cell_length_c   11.54512512
_cell_angle_alpha   89.94712228
_cell_angle_beta   90.00000000
_cell_angle_gamma   90.00000000
_symmetry_Int_Tables_number   1
_chemical_formula_structural   Sm2Lu2B12OsRu
_chemical_formula_sum   'Sm4 Lu4 B24 Os2 Ru2'
_cell_volume   385.05139939
_cell_formula_units_Z   2
loop_
 _symmetry_equiv_pos_site_id
 _symmetry_equiv_pos_as_xyz
  1  'x, y, z'
loop_
 _atom_site_type_symbol
 _atom_site_label
 _atom_site_symmetry_multiplicity
 _atom_site_fract_x
 _atom_site_fract_y
 _atom_site_fract_z
 _atom_site_occupancy
  Sm  Sm0  1  0.000000  0.321746  0.414332  1
  Sm  Sm1  1  0.000000  0.678254  0.585668  1
  Sm  Sm2  1  0.000000  0.821888  0.085874  1
  Sm  Sm3  1  0.000000  0.178112  0.914126  1
  Lu  Lu4  1  0.000000  0.944458  0.372577  1
  Lu  Lu5  1  0.000000  0.055542  0.627423  1
  Lu  Lu6  1  0.000000  0.443898  0.127143  1
  Lu  Lu7  1  0.000000  0.556102  0.872857  1
  B  B8  1  0.500000  0.555368  0.431339  1
  B  B9  1  0.500000  0.444632  0.568661  1
  B  B10  1  0.500000  0.055573  0.068627  1
  B  B11  1  0.500000  0.944427  0.931373  1
  B  B12  1  0.500000  0.750612  0.417995  1
  B  B13  1  0.500000  0.249388  0.582005  1
  B  B14  1  0.500000  0.250400  0.081779  1
  B  B15  1  0.500000  0.749600  0.918221  1
  B  B16  1  0.500000  0.791598  0.266296  1
  B  B17  1  0.500000  0.208402  0.733704  1
  B  B18  1  0.500000  0.291311  0.233465  1
  B  B19  1  0.500000  0.708689  0.766535  1
  B  B20  1  0.500000  0.630051  0.184560  1
  B  B21  1  0.500000  0.369949  0.815440  1
  B  B22  1  0.500000  0.130130  0.315463  1
  B  B23  1  0.500000  0.869870  0.684537  1
  B  B24  1  0.500000  0.984107  0.214282  1
  B  B25  1  0.500000  0.015893  0.785718  1
  B  B26  1  0.500000  0.483713  0.285596  1
  B  B27  1  0.500000  0.516287  0.714404  1
  B  B28  1  0.500000  0.601712  0.027861  1
  B  B29  1  0.500000  0.398288  0.972139  1
  B  B30  1  0.500000  0.101560  0.472165  1
  B  B31  1  0.500000  0.898440  0.527835  1
  Os  Os32  1  0.000000  0.639083  0.319479  1
  Os  Os33  1  0.000000  0.360917  0.680521  1
  Ru  Ru34  1  0.000000  0.139168  0.180717  1
  Ru  Ru35  1  0.000000  0.860832  0.819283  1
