# generated using pymatgen
data_K8Rb4Li4Si15Sn
_symmetry_space_group_name_H-M   'P 1'
_cell_length_a   7.83730638
_cell_length_b   9.84042000
_cell_length_c   12.55664192
_cell_angle_alpha   90.00000000
_cell_angle_beta   89.47254363
_cell_angle_gamma   90.00000000
_symmetry_Int_Tables_number   1
_chemical_formula_structural   K8Rb4Li4Si15Sn
_chemical_formula_sum   'K8 Rb4 Li4 Si15 Sn1'
_cell_volume   968.35715623
_cell_formula_units_Z   1
loop_
 _symmetry_equiv_pos_site_id
 _symmetry_equiv_pos_as_xyz
  1  'x, y, z'
loop_
 _atom_site_type_symbol
 _atom_site_label
 _atom_site_symmetry_multiplicity
 _atom_site_fract_x
 _atom_site_fract_y
 _atom_site_fract_z
 _atom_site_occupancy
  K  K0  1  0.654196  0.448135  0.693710  1
  K  K1  1  0.154118  0.063414  0.807351  1
  K  K2  1  0.342160  0.947047  0.309769  1
  K  K3  1  0.840154  0.555475  0.192477  1
  K  K4  1  0.342160  0.552953  0.309769  1
  K  K5  1  0.840154  0.944525  0.192477  1
  K  K6  1  0.654196  0.051865  0.693710  1
  K  K7  1  0.154118  0.436586  0.807351  1
  Rb  Rb8  1  0.652478  0.250000  0.399012  1
  Rb  Rb9  1  0.150026  0.250000  0.103212  1
  Rb  Rb10  1  0.345811  0.750000  0.590112  1
  Rb  Rb11  1  0.859763  0.750000  0.898971  1
  Li  Li12  1  0.501116  0.495565  0.004908  1
  Li  Li13  1  0.998337  0.999639  0.500471  1
  Li  Li14  1  0.501116  0.004435  0.004908  1
  Li  Li15  1  0.998337  0.500361  0.500471  1
  Si  Si16  1  0.860715  0.750000  0.591971  1
  Si  Si17  1  0.637357  0.250000  0.094337  1
  Si  Si18  1  0.138414  0.250000  0.406168  1
  Si  Si19  1  0.719300  0.628767  0.446891  1
  Si  Si20  1  0.219931  0.871251  0.057729  1
  Si  Si21  1  0.279205  0.128860  0.551513  1
  Si  Si22  1  0.782253  0.371252  0.948971  1
  Si  Si23  1  0.010656  0.250000  0.585188  1
  Si  Si24  1  0.516106  0.250000  0.914230  1
  Si  Si25  1  0.986503  0.750000  0.411787  1
  Si  Si26  1  0.487390  0.750000  0.090727  1
  Si  Si27  1  0.219931  0.628749  0.057729  1
  Si  Si28  1  0.719300  0.871233  0.446891  1
  Si  Si29  1  0.782253  0.128748  0.948971  1
  Si  Si30  1  0.279205  0.371140  0.551513  1
  Sn  Sn31  1  0.373239  0.750000  0.886705  1
