# generated using pymatgen
data_Zr6Ta4Mn2Al12Ir5
_symmetry_space_group_name_H-M   'P 1'
_cell_length_a   8.78817410
_cell_length_b   8.78817363
_cell_length_c   8.78913200
_cell_angle_alpha   59.99639251
_cell_angle_beta   59.99639429
_cell_angle_gamma   59.93872773
_symmetry_Int_Tables_number   1
_chemical_formula_structural   Zr6Ta4Mn2Al12Ir5
_chemical_formula_sum   'Zr6 Ta4 Mn2 Al12 Ir5'
_cell_volume   479.73687791
_cell_formula_units_Z   1
loop_
 _symmetry_equiv_pos_site_id
 _symmetry_equiv_pos_as_xyz
  1  'x, y, z'
loop_
 _atom_site_type_symbol
 _atom_site_label
 _atom_site_symmetry_multiplicity
 _atom_site_fract_x
 _atom_site_fract_y
 _atom_site_fract_z
 _atom_site_occupancy
  Zr  Zr0  1  0.697330  0.697330  0.302670  1
  Zr  Zr1  1  0.306320  0.692602  0.309529  1
  Zr  Zr2  1  0.692602  0.306320  0.309529  1
  Zr  Zr3  1  0.306906  0.306906  0.693094  1
  Zr  Zr4  1  0.692602  0.306320  0.691549  1
  Zr  Zr5  1  0.306320  0.692602  0.691549  1
  Ta  Ta6  1  0.885144  0.885144  0.355318  1
  Ta  Ta7  1  0.883530  0.353036  0.881718  1
  Ta  Ta8  1  0.353036  0.883530  0.881718  1
  Ta  Ta9  1  0.885144  0.885144  0.874395  1
  Mn  Mn10  1  0.001068  0.001068  0.998932  1
  Mn  Mn11  1  0.995563  0.995563  0.504437  1
  Al  Al12  1  0.116901  0.116901  0.642280  1
  Al  Al13  1  0.117179  0.644041  0.119389  1
  Al  Al14  1  0.644041  0.117179  0.119389  1
  Al  Al15  1  0.116901  0.116901  0.123915  1
  Al  Al16  1  0.661386  0.661386  0.016768  1
  Al  Al17  1  0.668130  0.011233  0.660319  1
  Al  Al18  1  0.011233  0.668130  0.660319  1
  Al  Al19  1  0.661386  0.661386  0.660458  1
  Al  Al20  1  0.336330  0.336330  0.990689  1
  Al  Al21  1  0.329598  0.994878  0.337762  1
  Al  Al22  1  0.994878  0.329598  0.337762  1
  Al  Al23  1  0.336330  0.336330  0.336651  1
  Ir  Ir24  1  0.500692  0.998401  0.502662  1
  Ir  Ir25  1  0.998401  0.500692  0.502662  1
  Ir  Ir26  1  0.501953  0.501953  0.998047  1
  Ir  Ir27  1  0.998401  0.500692  0.998243  1
  Ir  Ir28  1  0.500692  0.998401  0.998243  1
