# generated using pymatgen
data_Pa3Tc(NiSb2)2
_symmetry_space_group_name_H-M   'P 1'
_cell_length_a   8.25499044
_cell_length_b   8.25068897
_cell_length_c   8.25068800
_cell_angle_alpha   109.84408943
_cell_angle_beta   109.31150101
_cell_angle_gamma   109.31150871
_symmetry_Int_Tables_number   1
_chemical_formula_structural   Pa3Tc(NiSb2)2
_chemical_formula_sum   'Pa6 Tc2 Ni4 Sb8'
_cell_volume   432.29372180
_cell_formula_units_Z   2
loop_
 _symmetry_equiv_pos_site_id
 _symmetry_equiv_pos_as_xyz
  1  'x, y, z'
loop_
 _atom_site_type_symbol
 _atom_site_label
 _atom_site_symmetry_multiplicity
 _atom_site_fract_x
 _atom_site_fract_y
 _atom_site_fract_z
 _atom_site_occupancy
  Pa  Pa0  1  0.627037  0.373914  0.249520  1
  Pa  Pa1  1  0.375630  0.254203  0.626115  1
  Pa  Pa2  1  0.127037  0.749520  0.873914  1
  Pa  Pa3  1  0.746545  0.875465  0.120708  1
  Pa  Pa4  1  0.246545  0.620708  0.375465  1
  Pa  Pa5  1  0.875630  0.126115  0.754203  1
  Tc  Tc6  1  0.876988  0.252418  0.124853  1
  Tc  Tc7  1  0.376988  0.624853  0.752418  1
  Ni  Ni8  1  0.626522  0.750775  0.374917  1
  Ni  Ni9  1  0.747503  0.374202  0.623345  1
  Ni  Ni10  1  0.247503  0.123345  0.874202  1
  Ni  Ni11  1  0.126522  0.874917  0.250775  1
  Sb  Sb12  1  0.494877  0.004065  0.827294  1
  Sb  Sb13  1  0.172074  0.163341  0.167439  1
  Sb  Sb14  1  0.832736  0.504570  0.996297  1
  Sb  Sb15  1  0.000089  0.836653  0.499906  1
  Sb  Sb16  1  0.332736  0.496297  0.004570  1
  Sb  Sb17  1  0.994877  0.327294  0.504065  1
  Sb  Sb18  1  0.500089  0.999906  0.336653  1
  Sb  Sb19  1  0.672074  0.667439  0.663341  1
