# generated using pymatgen
data_La2PrNd3(PBr3)2
_symmetry_space_group_name_H-M   'P 1'
_cell_length_a   10.38173822
_cell_length_b   10.37148290
_cell_length_c   10.37148198
_cell_angle_alpha   109.18615907
_cell_angle_beta   109.37576292
_cell_angle_gamma   109.81208593
_symmetry_Int_Tables_number   1
_chemical_formula_structural   La2PrNd3(PBr3)2
_chemical_formula_sum   'La4 Pr2 Nd6 P4 Br12'
_cell_volume   860.06639186
_cell_formula_units_Z   2
loop_
 _symmetry_equiv_pos_site_id
 _symmetry_equiv_pos_as_xyz
  1  'x, y, z'
loop_
 _atom_site_type_symbol
 _atom_site_label
 _atom_site_symmetry_multiplicity
 _atom_site_fract_x
 _atom_site_fract_y
 _atom_site_fract_z
 _atom_site_occupancy
  La  La0  1  0.488126  0.237783  0.476049  1
  La  La1  1  0.011874  0.487924  0.749656  1
  La  La2  1  0.261993  0.012398  0.023812  1
  La  La3  1  0.238007  0.261819  0.750405  1
  Pr  Pr4  1  0.011226  0.026973  0.263264  1
  Pr  Pr5  1  0.488774  0.752038  0.015747  1
  Nd  Nd6  1  0.470442  0.487525  0.236249  1
  Nd  Nd7  1  0.751391  0.235025  0.264115  1
  Nd  Nd8  1  0.748609  0.012724  0.483634  1
  Nd  Nd9  1  0.234128  0.470310  0.482837  1
  Nd  Nd10  1  0.265872  0.748709  0.236184  1
  Nd  Nd11  1  0.029558  0.265806  0.017082  1
  P  P12  1  0.250182  0.250032  0.250150  1
  P  P13  1  0.500048  0.000520  0.250267  1
  P  P14  1  0.999952  0.250219  0.500472  1
  P  P15  1  0.249818  0.499968  0.999850  1
  Br  Br16  1  0.252707  0.755087  0.741338  1
  Br  Br17  1  0.511077  0.510133  0.753592  1
  Br  Br18  1  0.988923  0.742515  0.999056  1
  Br  Br19  1  0.744797  0.243978  0.755936  1
  Br  Br20  1  0.987560  0.989196  0.745089  1
  Br  Br21  1  0.247293  0.988631  0.502379  1
  Br  Br22  1  0.755203  0.511139  0.499181  1
  Br  Br23  1  0.512440  0.257529  0.001636  1
  Br  Br24  1  0.754677  0.744264  0.254182  1
  Br  Br25  1  0.745323  0.999505  0.989587  1
  Br  Br26  1  0.995697  0.504356  0.249594  1
  Br  Br27  1  0.504303  0.753897  0.508658  1
