# generated using pymatgen
data_Dy16Tm4Ir7Ru5
_symmetry_space_group_name_H-M   'P 1'
_cell_length_a   10.82093495
_cell_length_b   10.82093495
_cell_length_c   6.39681120
_cell_angle_alpha   89.97963320
_cell_angle_beta   89.97963320
_cell_angle_gamma   90.04329987
_symmetry_Int_Tables_number   1
_chemical_formula_structural   Dy16Tm4Ir7Ru5
_chemical_formula_sum   'Dy16 Tm4 Ir7 Ru5'
_cell_volume   749.01915819
_cell_formula_units_Z   1
loop_
 _symmetry_equiv_pos_site_id
 _symmetry_equiv_pos_as_xyz
  1  'x, y, z'
loop_
 _atom_site_type_symbol
 _atom_site_label
 _atom_site_symmetry_multiplicity
 _atom_site_fract_x
 _atom_site_fract_y
 _atom_site_fract_z
 _atom_site_occupancy
  Dy  Dy0  1  0.292751  0.086168  0.377662  1
  Dy  Dy1  1  0.292312  0.913606  0.877558  1
  Dy  Dy2  1  0.707959  0.086477  0.878012  1
  Dy  Dy3  1  0.707703  0.914007  0.376771  1
  Dy  Dy4  1  0.586235  0.792865  0.877513  1
  Dy  Dy5  1  0.587008  0.207301  0.377582  1
  Dy  Dy6  1  0.413572  0.792751  0.377599  1
  Dy  Dy7  1  0.413460  0.207021  0.876866  1
  Dy  Dy8  1  0.207135  0.413765  0.622487  1
  Dy  Dy9  1  0.207249  0.586428  0.122401  1
  Dy  Dy10  1  0.792699  0.412992  0.122418  1
  Dy  Dy11  1  0.792979  0.586540  0.623134  1
  Dy  Dy12  1  0.913832  0.707249  0.122338  1
  Dy  Dy13  1  0.913523  0.292041  0.621988  1
  Dy  Dy14  1  0.086394  0.707688  0.622442  1
  Dy  Dy15  1  0.085993  0.292297  0.123229  1
  Tm  Tm16  1  0.999659  0.000817  0.499474  1
  Tm  Tm17  1  0.999183  0.000341  0.000526  1
  Tm  Tm18  1  0.500153  0.500099  0.000199  1
  Tm  Tm19  1  0.499901  0.499847  0.499801  1
  Ir  Ir20  1  0.848343  0.848034  0.749910  1
  Ir  Ir21  1  0.151966  0.151657  0.750090  1
  Ir  Ir22  1  0.151733  0.848267  0.250000  1
  Ir  Ir23  1  0.650673  0.349327  0.750000  1
  Ir  Ir24  1  0.651524  0.651262  0.249854  1
  Ir  Ir25  1  0.348738  0.348476  0.250146  1
  Ir  Ir26  1  0.348863  0.651137  0.750000  1
  Ru  Ru27  1  0.848682  0.151318  0.250000  1
  Ru  Ru28  1  0.500144  0.000081  0.122025  1
  Ru  Ru29  1  0.499739  0.000026  0.621925  1
  Ru  Ru30  1  0.999974  0.500261  0.878075  1
  Ru  Ru31  1  0.999919  0.499856  0.377975  1
