# generated using pymatgen
data_Pr12Zn(GeI4)3
_symmetry_space_group_name_H-M   'P 1'
_cell_length_a   10.93072581
_cell_length_b   10.93072589
_cell_length_c   10.93072648
_cell_angle_alpha   109.45752004
_cell_angle_beta   109.45752381
_cell_angle_gamma   109.45750708
_symmetry_Int_Tables_number   1
_chemical_formula_structural   Pr12Zn(GeI4)3
_chemical_formula_sum   'Pr12 Zn1 Ge3 I12'
_cell_volume   1005.87795581
_cell_formula_units_Z   1
loop_
 _symmetry_equiv_pos_site_id
 _symmetry_equiv_pos_as_xyz
  1  'x, y, z'
loop_
 _atom_site_type_symbol
 _atom_site_label
 _atom_site_symmetry_multiplicity
 _atom_site_fract_x
 _atom_site_fract_y
 _atom_site_fract_z
 _atom_site_occupancy
  Pr  Pr0  1  0.470549  0.484640  0.235004  1
  Pr  Pr1  1  0.750000  0.234293  0.265707  1
  Pr  Pr2  1  0.750000  0.015955  0.484045  1
  Pr  Pr3  1  0.235004  0.470549  0.484640  1
  Pr  Pr4  1  0.265707  0.750000  0.234293  1
  Pr  Pr5  1  0.029451  0.264996  0.015360  1
  Pr  Pr6  1  0.015360  0.029451  0.264996  1
  Pr  Pr7  1  0.484045  0.750000  0.015955  1
  Pr  Pr8  1  0.484640  0.235004  0.470549  1
  Pr  Pr9  1  0.015955  0.484045  0.750000  1
  Pr  Pr10  1  0.264996  0.015360  0.029451  1
  Pr  Pr11  1  0.234293  0.265707  0.750000  1
  Zn  Zn12  1  0.250000  0.250000  0.250000  1
  Ge  Ge13  1  0.499506  0.000494  0.250000  1
  Ge  Ge14  1  0.000494  0.250000  0.499506  1
  Ge  Ge15  1  0.250000  0.499506  0.000494  1
  I  I16  1  0.250000  0.756597  0.743403  1
  I  I17  1  0.514438  0.507857  0.758286  1
  I  I18  1  0.985562  0.741714  0.992143  1
  I  I19  1  0.743403  0.250000  0.756597  1
  I  I20  1  0.992143  0.985562  0.741714  1
  I  I21  1  0.250000  0.991650  0.508350  1
  I  I22  1  0.758286  0.514438  0.507857  1
  I  I23  1  0.508350  0.250000  0.991650  1
  I  I24  1  0.756597  0.743403  0.250000  1
  I  I25  1  0.741714  0.992143  0.985562  1
  I  I26  1  0.991650  0.508350  0.250000  1
  I  I27  1  0.507857  0.758286  0.514438  1
