# generated using pymatgen
data_Na4DyP12Ir19
_symmetry_space_group_name_H-M   'P 1'
_cell_length_a   12.63027600
_cell_length_b   12.63027711
_cell_length_c   3.98144500
_cell_angle_alpha   90.00000000
_cell_angle_beta   90.00000000
_cell_angle_gamma   120.00000757
_symmetry_Int_Tables_number   1
_chemical_formula_structural   Na4DyP12Ir19
_chemical_formula_sum   'Na4 Dy1 P12 Ir19'
_cell_volume   550.04350321
_cell_formula_units_Z   1
loop_
 _symmetry_equiv_pos_site_id
 _symmetry_equiv_pos_as_xyz
  1  'x, y, z'
loop_
 _atom_site_type_symbol
 _atom_site_label
 _atom_site_symmetry_multiplicity
 _atom_site_fract_x
 _atom_site_fract_y
 _atom_site_fract_z
 _atom_site_occupancy
  Na  Na0  1  0.000459  0.822323  0.500000  1
  Na  Na1  1  0.177677  0.178136  0.500000  1
  Na  Na2  1  0.821864  0.999541  0.500000  1
  Na  Na3  1  0.666667  0.333333  0.000000  1
  Dy  Dy4  1  0.333333  0.666667  0.000000  1
  P  P5  1  0.998356  0.177747  0.000000  1
  P  P6  1  0.822253  0.820609  0.000000  1
  P  P7  1  0.179391  0.001644  0.000000  1
  P  P8  1  0.519510  0.691606  0.500000  1
  P  P9  1  0.308394  0.827903  0.500000  1
  P  P10  1  0.172097  0.480490  0.500000  1
  P  P11  1  0.486455  0.174541  0.500000  1
  P  P12  1  0.688087  0.513545  0.500000  1
  P  P13  1  0.825459  0.311913  0.500000  1
  P  P14  1  0.997242  0.640463  0.000000  1
  P  P15  1  0.359537  0.356779  0.000000  1
  P  P16  1  0.643221  0.002758  0.000000  1
  Ir  Ir17  1  0.999010  0.288516  0.500000  1
  Ir  Ir18  1  0.711484  0.710494  0.500000  1
  Ir  Ir19  1  0.289506  0.000990  0.500000  1
  Ir  Ir20  1  0.622181  0.804975  0.000000  1
  Ir  Ir21  1  0.195025  0.817206  0.000000  1
  Ir  Ir22  1  0.182794  0.377819  0.000000  1
  Ir  Ir23  1  0.379892  0.181146  0.000000  1
  Ir  Ir24  1  0.801254  0.620108  0.000000  1
  Ir  Ir25  1  0.818854  0.198746  0.000000  1
  Ir  Ir26  1  0.504297  0.867411  0.500000  1
  Ir  Ir27  1  0.132589  0.636886  0.500000  1
  Ir  Ir28  1  0.363114  0.495703  0.500000  1
  Ir  Ir29  1  0.488974  0.360710  0.500000  1
  Ir  Ir30  1  0.871737  0.511026  0.500000  1
  Ir  Ir31  1  0.639290  0.128263  0.500000  1
  Ir  Ir32  1  0.000000  0.000000  0.000000  1
  Ir  Ir33  1  0.001416  0.460533  0.000000  1
  Ir  Ir34  1  0.539467  0.540883  0.000000  1
  Ir  Ir35  1  0.459117  0.998584  0.000000  1
