# generated using pymatgen
data_Sc12Tc2HgBr16
_symmetry_space_group_name_H-M   'P 1'
_cell_length_a   9.05828002
_cell_length_b   11.25932788
_cell_length_c   11.92253621
_cell_angle_alpha   117.11383927
_cell_angle_beta   101.79773468
_cell_angle_gamma   101.28780841
_symmetry_Int_Tables_number   1
_chemical_formula_structural   Sc12Tc2HgBr16
_chemical_formula_sum   'Sc12 Tc2 Hg1 Br16'
_cell_volume   999.53945344
_cell_formula_units_Z   1
loop_
 _symmetry_equiv_pos_site_id
 _symmetry_equiv_pos_as_xyz
  1  'x, y, z'
loop_
 _atom_site_type_symbol
 _atom_site_label
 _atom_site_symmetry_multiplicity
 _atom_site_fract_x
 _atom_site_fract_y
 _atom_site_fract_z
 _atom_site_occupancy
  Sc  Sc0  1  0.093929  0.248343  0.345660  1
  Sc  Sc1  1  0.906071  0.751657  0.654340  1
  Sc  Sc2  1  0.759068  0.538828  0.312777  1
  Sc  Sc3  1  0.240932  0.461172  0.687223  1
  Sc  Sc4  1  0.303205  0.754071  0.656194  1
  Sc  Sc5  1  0.696795  0.245929  0.343806  1
  Sc  Sc6  1  0.155439  0.538817  0.315391  1
  Sc  Sc7  1  0.844561  0.461183  0.684609  1
  Sc  Sc8  1  0.403888  0.356096  0.270754  1
  Sc  Sc9  1  0.596112  0.643904  0.729246  1
  Sc  Sc10  1  0.457595  0.305238  0.520416  1
  Sc  Sc11  1  0.542405  0.694762  0.479584  1
  Tc  Tc12  1  0.334203  0.500159  0.499594  1
  Tc  Tc13  1  0.665798  0.499841  0.500406  1
  Hg  Hg14  1  0.000000  0.500000  0.500000  1
  Br  Br15  1  0.400949  0.743840  0.887214  1
  Br  Br16  1  0.599051  0.256160  0.112786  1
  Br  Br17  1  0.188733  0.963284  0.782404  1
  Br  Br18  1  0.811267  0.036716  0.217596  1
  Br  Br19  1  0.340359  0.091042  0.249731  1
  Br  Br20  1  0.659641  0.908958  0.750269  1
  Br  Br21  1  0.551015  0.436347  0.800058  1
  Br  Br22  1  0.448985  0.563653  0.199942  1
  Br  Br23  1  0.310582  0.828237  0.462117  1
  Br  Br24  1  0.689418  0.171763  0.537883  1
  Br  Br25  1  0.167009  0.169007  0.531913  1
  Br  Br26  1  0.832991  0.830993  0.468087  1
  Br  Br27  1  0.926112  0.574820  0.162335  1
  Br  Br28  1  0.073888  0.425180  0.837665  1
  Br  Br29  1  0.922710  0.741353  0.886669  1
  Br  Br30  1  0.077290  0.258647  0.113331  1
