# generated using pymatgen
data_Lu8TaTiNb9Si16Mo
_symmetry_space_group_name_H-M   'P 1'
_cell_length_a   6.78607600
_cell_length_b   6.97466733
_cell_length_c   13.22149800
_cell_angle_alpha   90.04753107
_cell_angle_beta   89.99855622
_cell_angle_gamma   89.94745086
_symmetry_Int_Tables_number   1
_chemical_formula_structural   Lu8TaTiNb9Si16Mo
_chemical_formula_sum   'Lu8 Ta1 Ti1 Nb9 Si16 Mo1'
_cell_volume   625.78125351
_cell_formula_units_Z   1
loop_
 _symmetry_equiv_pos_site_id
 _symmetry_equiv_pos_as_xyz
  1  'x, y, z'
loop_
 _atom_site_type_symbol
 _atom_site_label
 _atom_site_symmetry_multiplicity
 _atom_site_fract_x
 _atom_site_fract_y
 _atom_site_fract_z
 _atom_site_occupancy
  Lu  Lu0  1  0.503004  0.328778  0.095528  1
  Lu  Lu1  1  0.001544  0.171721  0.404534  1
  Lu  Lu2  1  0.496525  0.674149  0.594786  1
  Lu  Lu3  1  0.998337  0.827853  0.904308  1
  Lu  Lu4  1  0.497564  0.670947  0.903636  1
  Lu  Lu5  1  0.997906  0.829046  0.595341  1
  Lu  Lu6  1  0.501792  0.327482  0.406373  1
  Lu  Lu7  1  0.001493  0.173231  0.095171  1
  Ta  Ta8  1  0.837126  0.507702  0.250763  1
  Ti  Ti9  1  0.839369  0.325158  0.624651  1
  Nb  Nb10  1  0.337301  0.175451  0.873751  1
  Nb  Nb11  1  0.163828  0.675772  0.124926  1
  Nb  Nb12  1  0.662514  0.825721  0.376346  1
  Nb  Nb13  1  0.164775  0.675619  0.376388  1
  Nb  Nb14  1  0.662830  0.824635  0.125443  1
  Nb  Nb15  1  0.836511  0.323380  0.873342  1
  Nb  Nb16  1  0.664062  0.007958  0.749498  1
  Nb  Nb17  1  0.163869  0.493451  0.748874  1
  Nb  Nb18  1  0.336702  0.993737  0.250783  1
  Si  Si19  1  0.661881  0.038628  0.542886  1
  Si  Si20  1  0.164809  0.464921  0.959143  1
  Si  Si21  1  0.334580  0.965460  0.039564  1
  Si  Si22  1  0.836181  0.532750  0.460492  1
  Si  Si23  1  0.334159  0.966159  0.462113  1
  Si  Si24  1  0.835225  0.534753  0.040223  1
  Si  Si25  1  0.665267  0.034651  0.959818  1
  Si  Si26  1  0.165170  0.460656  0.542326  1
  Si  Si27  1  0.540582  0.377330  0.745541  1
  Si  Si28  1  0.042336  0.121539  0.747753  1
  Si  Si29  1  0.459762  0.618967  0.250902  1
  Si  Si30  1  0.958971  0.879786  0.250451  1
  Si  Si31  1  0.794675  0.628901  0.748937  1
  Si  Si32  1  0.296591  0.870214  0.749411  1
  Si  Si33  1  0.204950  0.368721  0.250611  1
  Si  Si34  1  0.704032  0.132026  0.250083  1
  Mo  Mo35  1  0.333775  0.172744  0.625298  1
