# generated using pymatgen
data_Sc8Ti5Si16Mo2W5
_symmetry_space_group_name_H-M   'P 1'
_cell_length_a   6.58679405
_cell_length_b   6.77640467
_cell_length_c   12.85194696
_cell_angle_alpha   89.97695650
_cell_angle_beta   90.01647959
_cell_angle_gamma   89.95250596
_symmetry_Int_Tables_number   1
_chemical_formula_structural   Sc8Ti5Si16Mo2W5
_chemical_formula_sum   'Sc8 Ti5 Si16 Mo2 W5'
_cell_volume   573.64358240
_cell_formula_units_Z   1
loop_
 _symmetry_equiv_pos_site_id
 _symmetry_equiv_pos_as_xyz
  1  'x, y, z'
loop_
 _atom_site_type_symbol
 _atom_site_label
 _atom_site_symmetry_multiplicity
 _atom_site_fract_x
 _atom_site_fract_y
 _atom_site_fract_z
 _atom_site_occupancy
  Sc  Sc0  1  0.497201  0.671142  0.594564  1
  Sc  Sc1  1  0.997888  0.828180  0.906731  1
  Sc  Sc2  1  0.501329  0.327743  0.094123  1
  Sc  Sc3  1  0.000558  0.173455  0.405983  1
  Sc  Sc4  1  0.501813  0.328365  0.405768  1
  Sc  Sc5  1  0.000771  0.175359  0.094580  1
  Sc  Sc6  1  0.498640  0.675100  0.905854  1
  Sc  Sc7  1  0.999102  0.826392  0.593862  1
  Ti  Ti8  1  0.663827  0.170535  0.625770  1
  Ti  Ti9  1  0.163265  0.330902  0.874506  1
  Ti  Ti10  1  0.337560  0.829921  0.125215  1
  Ti  Ti11  1  0.834575  0.668982  0.373507  1
  Ti  Ti12  1  0.334513  0.829123  0.373503  1
  Si  Si13  1  0.668865  0.964275  0.458511  1
  Si  Si14  1  0.166521  0.536144  0.041850  1
  Si  Si15  1  0.333696  0.036843  0.958541  1
  Si  Si16  1  0.832647  0.463527  0.541154  1
  Si  Si17  1  0.330988  0.036067  0.540613  1
  Si  Si18  1  0.830902  0.461650  0.958576  1
  Si  Si19  1  0.669762  0.962940  0.041758  1
  Si  Si20  1  0.168710  0.537514  0.459795  1
  Si  Si21  1  0.465423  0.383628  0.751916  1
  Si  Si22  1  0.963696  0.115282  0.749726  1
  Si  Si23  1  0.536944  0.615533  0.249947  1
  Si  Si24  1  0.035121  0.882346  0.248661  1
  Si  Si25  1  0.701996  0.860386  0.748480  1
  Si  Si26  1  0.202527  0.640861  0.751335  1
  Si  Si27  1  0.296006  0.139392  0.250214  1
  Si  Si28  1  0.797876  0.360096  0.250470  1
  Mo  Mo29  1  0.830653  0.667397  0.123422  1
  Mo  Mo30  1  0.669183  0.167139  0.875237  1
  W  W31  1  0.167671  0.331166  0.626793  1
  W  W32  1  0.839031  0.494038  0.749211  1
  W  W33  1  0.337511  0.007568  0.750473  1
  W  W34  1  0.162734  0.506624  0.249498  1
  W  W35  1  0.660495  0.994387  0.249859  1
