# generated using pymatgen
data_Ac2Tb3Si4
_symmetry_space_group_name_H-M   'P 1'
_cell_length_a   7.97806800
_cell_length_b   7.97806800
_cell_length_c   14.88645000
_cell_angle_alpha   90.00000000
_cell_angle_beta   90.00000000
_cell_angle_gamma   90.00000000
_symmetry_Int_Tables_number   1
_chemical_formula_structural   Ac2Tb3Si4
_chemical_formula_sum   'Ac8 Tb12 Si16'
_cell_volume   947.51612663
_cell_formula_units_Z   4
loop_
 _symmetry_equiv_pos_site_id
 _symmetry_equiv_pos_as_xyz
  1  'x, y, z'
loop_
 _atom_site_type_symbol
 _atom_site_label
 _atom_site_symmetry_multiplicity
 _atom_site_fract_x
 _atom_site_fract_y
 _atom_site_fract_z
 _atom_site_occupancy
  Ac  Ac0  1  0.638790  0.987953  0.456905  1
  Ac  Ac1  1  0.361210  0.012047  0.956905  1
  Ac  Ac2  1  0.987953  0.638790  0.543095  1
  Ac  Ac3  1  0.487953  0.861210  0.206905  1
  Ac  Ac4  1  0.512047  0.138790  0.706905  1
  Ac  Ac5  1  0.861210  0.487953  0.793095  1
  Ac  Ac6  1  0.138790  0.512047  0.293095  1
  Ac  Ac7  1  0.012047  0.361210  0.043095  1
  Tb  Tb8  1  0.491659  0.363813  0.125627  1
  Tb  Tb9  1  0.991659  0.136187  0.624373  1
  Tb  Tb10  1  0.863813  0.008341  0.875627  1
  Tb  Tb11  1  0.136187  0.991659  0.375627  1
  Tb  Tb12  1  0.508341  0.636187  0.625627  1
  Tb  Tb13  1  0.363813  0.491659  0.874373  1
  Tb  Tb14  1  0.636187  0.508341  0.374373  1
  Tb  Tb15  1  0.008341  0.863813  0.124373  1
  Tb  Tb16  1  0.315087  0.315087  0.500000  1
  Tb  Tb17  1  0.184913  0.815087  0.750000  1
  Tb  Tb18  1  0.815087  0.184913  0.250000  1
  Tb  Tb19  1  0.684913  0.684913  0.000000  1
  Si  Si20  1  0.283829  0.930219  0.562114  1
  Si  Si21  1  0.716171  0.069781  0.062114  1
  Si  Si22  1  0.930219  0.283829  0.437886  1
  Si  Si23  1  0.430219  0.216171  0.312114  1
  Si  Si24  1  0.569781  0.783829  0.812114  1
  Si  Si25  1  0.216171  0.430219  0.687886  1
  Si  Si26  1  0.783829  0.569781  0.187886  1
  Si  Si27  1  0.069781  0.716171  0.937886  1
  Si  Si28  1  0.798563  0.845131  0.695877  1
  Si  Si29  1  0.201437  0.154869  0.195877  1
  Si  Si30  1  0.845131  0.798563  0.304123  1
  Si  Si31  1  0.345131  0.701437  0.445877  1
  Si  Si32  1  0.654869  0.298563  0.945877  1
  Si  Si33  1  0.701437  0.345131  0.554123  1
  Si  Si34  1  0.298563  0.654869  0.054123  1
  Si  Si35  1  0.154869  0.201437  0.804123  1
