# generated using pymatgen
data_Sc8AlB24IrRh2
_symmetry_space_group_name_H-M   'P 1'
_cell_length_a   3.45501800
_cell_length_b   8.92918900
_cell_length_c   11.23026617
_cell_angle_alpha   89.98828522
_cell_angle_beta   90.00000000
_cell_angle_gamma   90.00000000
_symmetry_Int_Tables_number   1
_chemical_formula_structural   Sc8AlB24IrRh2
_chemical_formula_sum   'Sc8 Al1 B24 Ir1 Rh2'
_cell_volume   346.45941728
_cell_formula_units_Z   1
loop_
 _symmetry_equiv_pos_site_id
 _symmetry_equiv_pos_as_xyz
  1  'x, y, z'
loop_
 _atom_site_type_symbol
 _atom_site_label
 _atom_site_symmetry_multiplicity
 _atom_site_fract_x
 _atom_site_fract_y
 _atom_site_fract_z
 _atom_site_occupancy
  Sc  Sc0  1  0.000000  0.945939  0.373689  1
  Sc  Sc1  1  0.000000  0.054919  0.627607  1
  Sc  Sc2  1  0.000000  0.556677  0.873363  1
  Sc  Sc3  1  0.000000  0.180816  0.917061  1
  Sc  Sc4  1  0.000000  0.822401  0.087671  1
  Sc  Sc5  1  0.000000  0.680758  0.584666  1
  Sc  Sc6  1  0.000000  0.316239  0.410237  1
  Sc  Sc7  1  0.000000  0.444206  0.126576  1
  Al  Al8  1  0.000000  0.139609  0.179779  1
  B  B9  1  0.500000  0.368175  0.819635  1
  B  B10  1  0.500000  0.978540  0.212147  1
  B  B11  1  0.500000  0.552442  0.435067  1
  B  B12  1  0.500000  0.297923  0.237803  1
  B  B13  1  0.500000  0.203984  0.737584  1
  B  B14  1  0.500000  0.101924  0.472632  1
  B  B15  1  0.500000  0.796751  0.262790  1
  B  B16  1  0.500000  0.446608  0.563946  1
  B  B17  1  0.500000  0.246637  0.577679  1
  B  B18  1  0.500000  0.478809  0.287639  1
  B  B19  1  0.500000  0.704294  0.761723  1
  B  B20  1  0.500000  0.754393  0.421032  1
  B  B21  1  0.500000  0.520187  0.713040  1
  B  B22  1  0.500000  0.898241  0.527724  1
  B  B23  1  0.500000  0.052420  0.063316  1
  B  B24  1  0.500000  0.601872  0.027665  1
  B  B25  1  0.500000  0.748324  0.922655  1
  B  B26  1  0.500000  0.019528  0.787787  1
  B  B27  1  0.500000  0.398237  0.972252  1
  B  B28  1  0.500000  0.946897  0.936350  1
  B  B29  1  0.500000  0.631301  0.181880  1
  B  B30  1  0.500000  0.252978  0.077454  1
  B  B31  1  0.500000  0.868004  0.680336  1
  B  B32  1  0.500000  0.131448  0.319261  1
  Ir  Ir33  1  0.000000  0.359737  0.680018  1
  Rh  Rh34  1  0.000000  0.857798  0.818566  1
  Rh  Rh35  1  0.000000  0.640983  0.321373  1
