# generated using pymatgen
data_Y3HoLuPb3
_symmetry_space_group_name_H-M   'P 1'
_cell_length_a   9.04056300
_cell_length_b   9.04056256
_cell_length_c   6.57880200
_cell_angle_alpha   90.00000000
_cell_angle_beta   90.00000000
_cell_angle_gamma   119.99999796
_symmetry_Int_Tables_number   1
_chemical_formula_structural   Y3HoLuPb3
_chemical_formula_sum   'Y6 Ho2 Lu2 Pb6'
_cell_volume   465.65941588
_cell_formula_units_Z   2
loop_
 _symmetry_equiv_pos_site_id
 _symmetry_equiv_pos_as_xyz
  1  'x, y, z'
loop_
 _atom_site_type_symbol
 _atom_site_label
 _atom_site_symmetry_multiplicity
 _atom_site_fract_x
 _atom_site_fract_y
 _atom_site_fract_z
 _atom_site_occupancy
  Y  Y0  1  0.761596  0.761596  0.749674  1
  Y  Y1  1  0.238404  0.000000  0.749674  1
  Y  Y2  1  0.000000  0.238404  0.749674  1
  Y  Y3  1  0.238404  0.238404  0.250326  1
  Y  Y4  1  0.761596  0.000000  0.250326  1
  Y  Y5  1  0.000000  0.761596  0.250326  1
  Ho  Ho6  1  0.666667  0.333333  0.000000  1
  Ho  Ho7  1  0.333333  0.666667  0.000000  1
  Lu  Lu8  1  0.333333  0.666667  0.500000  1
  Lu  Lu9  1  0.666667  0.333333  0.500000  1
  Pb  Pb10  1  0.395865  0.395865  0.749130  1
  Pb  Pb11  1  0.604135  0.000000  0.749130  1
  Pb  Pb12  1  0.000000  0.604135  0.749130  1
  Pb  Pb13  1  0.604135  0.604135  0.250870  1
  Pb  Pb14  1  0.395865  0.000000  0.250870  1
  Pb  Pb15  1  0.000000  0.395865  0.250870  1
