# generated using pymatgen
data_TiAg4Te3O14
_symmetry_space_group_name_H-M   'P 1'
_cell_length_a   7.34172210
_cell_length_b   7.34172180
_cell_length_c   7.35353097
_cell_angle_alpha   120.68196688
_cell_angle_beta   118.09360807
_cell_angle_gamma   90.98760035
_symmetry_Int_Tables_number   1
_chemical_formula_structural   TiAg4Te3O14
_chemical_formula_sum   'Ti1 Ag4 Te3 O14'
_cell_volume   282.85967938
_cell_formula_units_Z   1
loop_
 _symmetry_equiv_pos_site_id
 _symmetry_equiv_pos_as_xyz
  1  'x, y, z'
loop_
 _atom_site_type_symbol
 _atom_site_label
 _atom_site_symmetry_multiplicity
 _atom_site_fract_x
 _atom_site_fract_y
 _atom_site_fract_z
 _atom_site_occupancy
  Ti  Ti0  1  0.500000  0.000000  0.000000  1
  Ag  Ag1  1  0.000000  0.500000  0.500000  1
  Ag  Ag2  1  0.500000  0.000000  0.500000  1
  Ag  Ag3  1  0.000000  0.500000  0.000000  1
  Ag  Ag4  1  0.000000  0.000000  0.500000  1
  Te  Te5  1  0.500000  0.500000  0.000000  1
  Te  Te6  1  0.000000  0.000000  0.000000  1
  Te  Te7  1  0.500000  0.500000  0.500000  1
  O  O8  1  0.547366  0.408693  0.722647  1
  O  O9  1  0.458297  0.190374  0.879336  1
  O  O10  1  0.811039  0.078961  0.120664  1
  O  O11  1  0.186046  0.324719  0.277353  1
  O  O12  1  0.452634  0.591307  0.277353  1
  O  O13  1  0.541703  0.809626  0.120664  1
  O  O14  1  0.188961  0.921039  0.879336  1
  O  O15  1  0.813954  0.675281  0.722647  1
  O  O16  1  0.583546  0.252786  0.336333  1
  O  O17  1  0.416454  0.747214  0.663667  1
  O  O18  1  0.177211  0.404931  0.770215  1
  O  O19  1  0.822789  0.595069  0.229785  1
  O  O20  1  0.865284  0.093004  0.770215  1
  O  O21  1  0.134716  0.906996  0.229785  1
