# generated using pymatgen
data_Ta3Co4B7
_symmetry_space_group_name_H-M   'P 1'
_cell_length_a   9.29710501
_cell_length_b   9.29710528
_cell_length_c   8.87035500
_cell_angle_alpha   90.00000000
_cell_angle_beta   90.00000000
_cell_angle_gamma   160.14033692
_symmetry_Int_Tables_number   1
_chemical_formula_structural   Ta3Co4B7
_chemical_formula_sum   'Ta6 Co8 B14'
_cell_volume   260.46801186
_cell_formula_units_Z   2
loop_
 _symmetry_equiv_pos_site_id
 _symmetry_equiv_pos_as_xyz
  1  'x, y, z'
loop_
 _atom_site_type_symbol
 _atom_site_label
 _atom_site_symmetry_multiplicity
 _atom_site_fract_x
 _atom_site_fract_y
 _atom_site_fract_z
 _atom_site_occupancy
  Ta  Ta0  1  0.699267  0.300733  0.250000  1
  Ta  Ta1  1  0.300733  0.699267  0.750000  1
  Ta  Ta2  1  0.580745  0.419255  0.555799  1
  Ta  Ta3  1  0.419255  0.580745  0.444201  1
  Ta  Ta4  1  0.419255  0.580745  0.055799  1
  Ta  Ta5  1  0.580745  0.419255  0.944201  1
  Co  Co6  1  0.542752  0.457248  0.250000  1
  Co  Co7  1  0.457248  0.542752  0.750000  1
  Co  Co8  1  0.843687  0.156313  0.250000  1
  Co  Co9  1  0.156313  0.843687  0.750000  1
  Co  Co10  1  0.801307  0.198693  0.507375  1
  Co  Co11  1  0.198693  0.801307  0.492625  1
  Co  Co12  1  0.198693  0.801307  0.007375  1
  Co  Co13  1  0.801307  0.198693  0.992625  1
  B  B14  1  0.955501  0.044499  0.250000  1
  B  B15  1  0.044499  0.955501  0.750000  1
  B  B16  1  0.890372  0.109628  0.648012  1
  B  B17  1  0.109628  0.890372  0.351988  1
  B  B18  1  0.109628  0.890372  0.148012  1
  B  B19  1  0.890372  0.109628  0.851988  1
  B  B20  1  0.709864  0.290136  0.644114  1
  B  B21  1  0.290136  0.709864  0.355886  1
  B  B22  1  0.290136  0.709864  0.144114  1
  B  B23  1  0.709864  0.290136  0.855886  1
  B  B24  1  0.984583  0.015417  0.592528  1
  B  B25  1  0.015417  0.984583  0.407472  1
  B  B26  1  0.015417  0.984583  0.092528  1
  B  B27  1  0.984583  0.015417  0.907472  1
