# generated using pymatgen
data_Er12GaCo4Os
_symmetry_space_group_name_H-M   'P 1'
_cell_length_a   8.15182458
_cell_length_b   8.15196528
_cell_length_c   8.15182459
_cell_angle_alpha   111.72593018
_cell_angle_beta   109.89044378
_cell_angle_gamma   106.83391689
_symmetry_Int_Tables_number   1
_chemical_formula_structural   Er12GaCo4Os
_chemical_formula_sum   'Er12 Ga1 Co4 Os1'
_cell_volume   416.24615384
_cell_formula_units_Z   1
loop_
 _symmetry_equiv_pos_site_id
 _symmetry_equiv_pos_as_xyz
  1  'x, y, z'
loop_
 _atom_site_type_symbol
 _atom_site_label
 _atom_site_symmetry_multiplicity
 _atom_site_fract_x
 _atom_site_fract_y
 _atom_site_fract_z
 _atom_site_occupancy
  Er  Er0  1  0.956796  0.267467  0.689349  1
  Er  Er1  1  0.043204  0.732533  0.310651  1
  Er  Er2  1  0.674136  0.863672  0.189535  1
  Er  Er3  1  0.325864  0.515410  0.189545  1
  Er  Er4  1  0.325864  0.136328  0.810465  1
  Er  Er5  1  0.674136  0.484590  0.810455  1
  Er  Er6  1  0.578116  0.267467  0.310670  1
  Er  Er7  1  0.421884  0.732533  0.689330  1
  Er  Er8  1  0.177236  0.774162  0.951405  1
  Er  Er9  1  0.822758  0.774162  0.596926  1
  Er  Er10  1  0.177242  0.225838  0.403074  1
  Er  Er11  1  0.822764  0.225838  0.048595  1
  Ga  Ga12  1  0.500000  0.000000  0.500000  1
  Co  Co13  1  0.114015  0.114016  0.000001  1
  Co  Co14  1  0.885985  0.885984  0.999999  1
  Co  Co15  1  0.657054  0.500000  0.157054  1
  Co  Co16  1  0.342946  0.500000  0.842946  1
  Os  Os17  1  0.000000  0.500000  0.500000  1
