# generated using pymatgen
data_Eu20Pt7Rh5
_symmetry_space_group_name_H-M   'P 1'
_cell_length_a   11.54376674
_cell_length_b   11.54376660
_cell_length_c   6.63923000
_cell_angle_alpha   90.02048376
_cell_angle_beta   90.02047879
_cell_angle_gamma   90.07097359
_symmetry_Int_Tables_number   1
_chemical_formula_structural   Eu20Pt7Rh5
_chemical_formula_sum   'Eu20 Pt7 Rh5'
_cell_volume   884.73336335
_cell_formula_units_Z   1
loop_
 _symmetry_equiv_pos_site_id
 _symmetry_equiv_pos_as_xyz
  1  'x, y, z'
loop_
 _atom_site_type_symbol
 _atom_site_label
 _atom_site_symmetry_multiplicity
 _atom_site_fract_x
 _atom_site_fract_y
 _atom_site_fract_z
 _atom_site_occupancy
  Eu  Eu0  1  0.294174  0.086630  0.376245  1
  Eu  Eu1  1  0.293697  0.912701  0.876314  1
  Eu  Eu2  1  0.707153  0.087634  0.878388  1
  Eu  Eu3  1  0.706165  0.912912  0.375483  1
  Eu  Eu4  1  0.586816  0.794568  0.876034  1
  Eu  Eu5  1  0.588901  0.204568  0.376482  1
  Eu  Eu6  1  0.412827  0.794870  0.375849  1
  Eu  Eu7  1  0.412740  0.205369  0.876094  1
  Eu  Eu8  1  0.205432  0.413184  0.623966  1
  Eu  Eu9  1  0.205130  0.587173  0.124151  1
  Eu  Eu10  1  0.795432  0.411099  0.123518  1
  Eu  Eu11  1  0.794631  0.587260  0.623906  1
  Eu  Eu12  1  0.913370  0.705826  0.123755  1
  Eu  Eu13  1  0.912366  0.292847  0.621612  1
  Eu  Eu14  1  0.087299  0.706303  0.623686  1
  Eu  Eu15  1  0.087088  0.293835  0.124517  1
  Eu  Eu16  1  0.998123  0.001616  0.498601  1
  Eu  Eu17  1  0.998384  0.001877  0.001399  1
  Eu  Eu18  1  0.499721  0.500062  0.000172  1
  Eu  Eu19  1  0.499938  0.500279  0.499828  1
  Pt  Pt20  1  0.846018  0.845661  0.750180  1
  Pt  Pt21  1  0.154339  0.153982  0.749820  1
  Pt  Pt22  1  0.153450  0.846550  0.250000  1
  Pt  Pt23  1  0.653266  0.346734  0.750000  1
  Pt  Pt24  1  0.653758  0.654028  0.249680  1
  Pt  Pt25  1  0.345972  0.346242  0.250320  1
  Pt  Pt26  1  0.345633  0.654367  0.750000  1
  Rh  Rh27  1  0.848025  0.151975  0.250000  1
  Rh  Rh28  1  0.499668  0.999446  0.120024  1
  Rh  Rh29  1  0.499372  0.999443  0.621982  1
  Rh  Rh30  1  0.000557  0.500628  0.878018  1
  Rh  Rh31  1  0.000554  0.500332  0.379976  1
