# generated using pymatgen
data_Tm5Ta3(TcB6)4
_symmetry_space_group_name_H-M   'P 1'
_cell_length_a   3.56676700
_cell_length_b   8.94491333
_cell_length_c   11.30830200
_cell_angle_alpha   89.91726137
_cell_angle_beta   90.00000000
_cell_angle_gamma   90.00000000
_symmetry_Int_Tables_number   1
_chemical_formula_structural   Tm5Ta3(TcB6)4
_chemical_formula_sum   'Tm5 Ta3 Tc4 B24'
_cell_volume   360.78445921
_cell_formula_units_Z   1
loop_
 _symmetry_equiv_pos_site_id
 _symmetry_equiv_pos_as_xyz
  1  'x, y, z'
loop_
 _atom_site_type_symbol
 _atom_site_label
 _atom_site_symmetry_multiplicity
 _atom_site_fract_x
 _atom_site_fract_y
 _atom_site_fract_z
 _atom_site_occupancy
  Tm  Tm0  1  0.000000  0.322016  0.413962  1
  Tm  Tm1  1  0.000000  0.677240  0.587620  1
  Tm  Tm2  1  0.000000  0.822153  0.086137  1
  Tm  Tm3  1  0.000000  0.177636  0.912428  1
  Tm  Tm4  1  0.000000  0.944943  0.373458  1
  Ta  Ta5  1  0.000000  0.055901  0.628356  1
  Ta  Ta6  1  0.000000  0.445203  0.123986  1
  Ta  Ta7  1  0.000000  0.555777  0.875514  1
  Tc  Tc8  1  0.000000  0.635023  0.314648  1
  Tc  Tc9  1  0.000000  0.358380  0.684105  1
  Tc  Tc10  1  0.000000  0.147577  0.177775  1
  Tc  Tc11  1  0.000000  0.856954  0.820170  1
  B  B12  1  0.500000  0.551286  0.433710  1
  B  B13  1  0.500000  0.445182  0.566801  1
  B  B14  1  0.500000  0.054798  0.065167  1
  B  B15  1  0.500000  0.946377  0.933936  1
  B  B16  1  0.500000  0.748718  0.417985  1
  B  B17  1  0.500000  0.245824  0.583304  1
  B  B18  1  0.500000  0.255502  0.079718  1
  B  B19  1  0.500000  0.745539  0.918761  1
  B  B20  1  0.500000  0.793159  0.262597  1
  B  B21  1  0.500000  0.204180  0.738190  1
  B  B22  1  0.500000  0.296831  0.234595  1
  B  B23  1  0.500000  0.703657  0.763365  1
  B  B24  1  0.500000  0.628100  0.181429  1
  B  B25  1  0.500000  0.371462  0.818655  1
  B  B26  1  0.500000  0.132897  0.315698  1
  B  B27  1  0.500000  0.871279  0.682763  1
  B  B28  1  0.500000  0.983607  0.211070  1
  B  B29  1  0.500000  0.019162  0.787694  1
  B  B30  1  0.500000  0.479264  0.286032  1
  B  B31  1  0.500000  0.520049  0.713203  1
  B  B32  1  0.500000  0.599621  0.025877  1
  B  B33  1  0.500000  0.401471  0.972551  1
  B  B34  1  0.500000  0.102267  0.477507  1
  B  B35  1  0.500000  0.900968  0.531235  1
