# generated using pymatgen
data_Zr10Hg5AuC2
_symmetry_space_group_name_H-M   'P 1'
_cell_length_a   8.66951399
_cell_length_b   8.66951468
_cell_length_c   5.52922500
_cell_angle_alpha   90.00000000
_cell_angle_beta   90.00000000
_cell_angle_gamma   120.18751599
_symmetry_Int_Tables_number   1
_chemical_formula_structural   Zr10Hg5AuC2
_chemical_formula_sum   'Zr10 Hg5 Au1 C2'
_cell_volume   359.22016887
_cell_formula_units_Z   1
loop_
 _symmetry_equiv_pos_site_id
 _symmetry_equiv_pos_as_xyz
  1  'x, y, z'
loop_
 _atom_site_type_symbol
 _atom_site_label
 _atom_site_symmetry_multiplicity
 _atom_site_fract_x
 _atom_site_fract_y
 _atom_site_fract_z
 _atom_site_occupancy
  Zr  Zr0  1  0.662494  0.334963  0.497684  1
  Zr  Zr1  1  0.334963  0.662494  0.497684  1
  Zr  Zr2  1  0.334963  0.662494  0.002316  1
  Zr  Zr3  1  0.662494  0.334963  0.002316  1
  Zr  Zr4  1  0.784100  0.784100  0.250000  1
  Zr  Zr5  1  0.215418  0.003228  0.250000  1
  Zr  Zr6  1  0.003228  0.215418  0.250000  1
  Zr  Zr7  1  0.217921  0.217921  0.750000  1
  Zr  Zr8  1  0.786291  0.000259  0.750000  1
  Zr  Zr9  1  0.000259  0.786291  0.750000  1
  Hg  Hg10  1  0.600303  0.001165  0.250000  1
  Hg  Hg11  1  0.001165  0.600303  0.250000  1
  Hg  Hg12  1  0.598818  0.598818  0.750000  1
  Hg  Hg13  1  0.399857  0.997575  0.750000  1
  Hg  Hg14  1  0.997575  0.399857  0.750000  1
  Au  Au15  1  0.399313  0.399313  0.250000  1
  C  C16  1  0.000420  0.000420  0.500077  1
  C  C17  1  0.000420  0.000420  0.999923  1
