# generated using pymatgen
data_Tb3Hg5Pd
_symmetry_space_group_name_H-M   'P 1'
_cell_length_a   8.08902000
_cell_length_b   8.08901930
_cell_length_c   3.81303600
_cell_angle_alpha   90.00000000
_cell_angle_beta   90.00000000
_cell_angle_gamma   120.00000287
_symmetry_Int_Tables_number   1
_chemical_formula_structural   Tb3Hg5Pd
_chemical_formula_sum   'Tb3 Hg5 Pd1'
_cell_volume   216.06941962
_cell_formula_units_Z   1
loop_
 _symmetry_equiv_pos_site_id
 _symmetry_equiv_pos_as_xyz
  1  'x, y, z'
loop_
 _atom_site_type_symbol
 _atom_site_label
 _atom_site_symmetry_multiplicity
 _atom_site_fract_x
 _atom_site_fract_y
 _atom_site_fract_z
 _atom_site_occupancy
  Tb  Tb0  1  0.612400  0.024953  0.000000  1
  Tb  Tb1  1  0.975047  0.587448  0.000000  1
  Tb  Tb2  1  0.412552  0.387600  0.000000  1
  Hg  Hg3  1  0.286474  0.005426  0.500000  1
  Hg  Hg4  1  0.994574  0.281048  0.500000  1
  Hg  Hg5  1  0.718952  0.713526  0.500000  1
  Hg  Hg6  1  0.333333  0.666667  0.500000  1
  Hg  Hg7  1  0.000000  0.000000  0.000000  1
  Pd  Pd8  1  0.666667  0.333333  0.500000  1
