# generated using pymatgen
data_Lu12Si12Rh3W
_symmetry_space_group_name_H-M   'P 1'
_cell_length_a   4.13021700
_cell_length_b   10.62497015
_cell_length_c   12.14448519
_cell_angle_alpha   90.24062082
_cell_angle_beta   90.00000000
_cell_angle_gamma   90.00000000
_symmetry_Int_Tables_number   1
_chemical_formula_structural   Lu12Si12Rh3W
_chemical_formula_sum   'Lu12 Si12 Rh3 W1'
_cell_volume   532.93699433
_cell_formula_units_Z   1
loop_
 _symmetry_equiv_pos_site_id
 _symmetry_equiv_pos_as_xyz
  1  'x, y, z'
loop_
 _atom_site_type_symbol
 _atom_site_label
 _atom_site_symmetry_multiplicity
 _atom_site_fract_x
 _atom_site_fract_y
 _atom_site_fract_z
 _atom_site_occupancy
  Lu  Lu0  1  0.250000  0.877042  0.020176  1
  Lu  Lu1  1  0.250000  0.622594  0.519545  1
  Lu  Lu2  1  0.750000  0.119014  0.981713  1
  Lu  Lu3  1  0.750000  0.378039  0.480573  1
  Lu  Lu4  1  0.250000  0.922349  0.601705  1
  Lu  Lu5  1  0.250000  0.578824  0.104270  1
  Lu  Lu6  1  0.750000  0.077372  0.394753  1
  Lu  Lu7  1  0.750000  0.421933  0.894252  1
  Lu  Lu8  1  0.250000  0.666981  0.799417  1
  Lu  Lu9  1  0.250000  0.840195  0.299103  1
  Lu  Lu10  1  0.750000  0.340327  0.200210  1
  Lu  Lu11  1  0.750000  0.155276  0.701260  1
  Si  Si12  1  0.250000  0.012312  0.823144  1
  Si  Si13  1  0.250000  0.484398  0.322277  1
  Si  Si14  1  0.750000  0.983965  0.177642  1
  Si  Si15  1  0.750000  0.525718  0.678255  1
  Si  Si16  1  0.250000  0.245838  0.845341  1
  Si  Si17  1  0.250000  0.249749  0.341631  1
  Si  Si18  1  0.750000  0.750661  0.158298  1
  Si  Si19  1  0.750000  0.755388  0.657158  1
  Si  Si20  1  0.250000  0.194374  0.541612  1
  Si  Si21  1  0.250000  0.301492  0.043039  1
  Si  Si22  1  0.750000  0.803389  0.455980  1
  Si  Si23  1  0.750000  0.695317  0.957906  1
  Rh  Rh24  1  0.250000  0.109363  0.178488  1
  Rh  Rh25  1  0.750000  0.609965  0.320813  1
  Rh  Rh26  1  0.750000  0.889272  0.822399  1
  W  W27  1  0.250000  0.388855  0.679035  1
