# generated using pymatgen
data_TiMn(NbRu2)2
_symmetry_space_group_name_H-M   'P 1'
_cell_length_a   6.26142600
_cell_length_b   4.42514600
_cell_length_c   8.83488700
_cell_angle_alpha   90.00000000
_cell_angle_beta   89.99983982
_cell_angle_gamma   90.00000000
_symmetry_Int_Tables_number   1
_chemical_formula_structural   TiMn(NbRu2)2
_chemical_formula_sum   'Ti2 Mn2 Nb4 Ru8'
_cell_volume   244.79461249
_cell_formula_units_Z   2
loop_
 _symmetry_equiv_pos_site_id
 _symmetry_equiv_pos_as_xyz
  1  'x, y, z'
loop_
 _atom_site_type_symbol
 _atom_site_label
 _atom_site_symmetry_multiplicity
 _atom_site_fract_x
 _atom_site_fract_y
 _atom_site_fract_z
 _atom_site_occupancy
  Ti  Ti0  1  0.750007  0.250001  0.124384  1
  Ti  Ti1  1  0.249994  0.750001  0.375601  1
  Mn  Mn2  1  0.750008  0.250001  0.623470  1
  Mn  Mn3  1  0.250004  0.750001  0.876518  1
  Nb  Nb4  1  0.250006  0.250001  0.117012  1
  Nb  Nb5  1  0.749998  0.750001  0.382983  1
  Nb  Nb6  1  0.250009  0.250001  0.634969  1
  Nb  Nb7  1  0.749996  0.750001  0.865051  1
  Ru  Ru8  1  0.505165  0.750001  0.127880  1
  Ru  Ru9  1  0.994828  0.750001  0.127879  1
  Ru  Ru10  1  0.494846  0.250001  0.372109  1
  Ru  Ru11  1  0.005148  0.250001  0.372104  1
  Ru  Ru12  1  0.005811  0.750001  0.620670  1
  Ru  Ru13  1  0.494181  0.750001  0.620667  1
  Ru  Ru14  1  0.994175  0.250001  0.879350  1
  Ru  Ru15  1  0.505825  0.250001  0.879352  1
