# generated using pymatgen
data_Ho6Lu4Si5Pb
_symmetry_space_group_name_H-M   'P 1'
_cell_length_a   8.43645000
_cell_length_b   8.45828891
_cell_length_c   6.28045500
_cell_angle_alpha   90.00000000
_cell_angle_beta   90.00000000
_cell_angle_gamma   119.91463417
_symmetry_Int_Tables_number   1
_chemical_formula_structural   Ho6Lu4Si5Pb
_chemical_formula_sum   'Ho6 Lu4 Si5 Pb1'
_cell_volume   388.45161466
_cell_formula_units_Z   1
loop_
 _symmetry_equiv_pos_site_id
 _symmetry_equiv_pos_as_xyz
  1  'x, y, z'
loop_
 _atom_site_type_symbol
 _atom_site_label
 _atom_site_symmetry_multiplicity
 _atom_site_fract_x
 _atom_site_fract_y
 _atom_site_fract_z
 _atom_site_occupancy
  Ho  Ho0  1  0.987614  0.747453  0.750000  1
  Ho  Ho1  1  0.998653  0.242831  0.250000  1
  Ho  Ho2  1  0.755822  0.757169  0.250000  1
  Ho  Ho3  1  0.766794  0.000000  0.750000  1
  Ho  Ho4  1  0.240162  0.252547  0.750000  1
  Ho  Ho5  1  0.240243  0.000000  0.250000  1
  Lu  Lu6  1  0.331313  0.656556  0.496063  1
  Lu  Lu7  1  0.674757  0.343444  0.003937  1
  Lu  Lu8  1  0.674757  0.343444  0.496063  1
  Lu  Lu9  1  0.331313  0.656556  0.003937  1
  Si  Si10  1  0.394631  0.393210  0.250000  1
  Si  Si11  1  0.001420  0.606790  0.250000  1
  Si  Si12  1  0.998448  0.395363  0.750000  1
  Si  Si13  1  0.603085  0.604637  0.750000  1
  Si  Si14  1  0.605114  0.000000  0.250000  1
  Pb  Pb15  1  0.395875  0.000000  0.750000  1
