# generated using pymatgen
data_TbHoAl9Os2Pd
_symmetry_space_group_name_H-M   'P 1'
_cell_length_a   7.59370210
_cell_length_b   7.59358589
_cell_length_c   9.55124600
_cell_angle_alpha   90.00000000
_cell_angle_beta   90.00000000
_cell_angle_gamma   119.60247300
_symmetry_Int_Tables_number   1
_chemical_formula_structural   TbHoAl9Os2Pd
_chemical_formula_sum   'Tb2 Ho2 Al18 Os4 Pd2'
_cell_volume   478.86919510
_cell_formula_units_Z   2
loop_
 _symmetry_equiv_pos_site_id
 _symmetry_equiv_pos_as_xyz
  1  'x, y, z'
loop_
 _atom_site_type_symbol
 _atom_site_label
 _atom_site_symmetry_multiplicity
 _atom_site_fract_x
 _atom_site_fract_y
 _atom_site_fract_z
 _atom_site_occupancy
  Tb  Tb0  1  0.997659  0.669512  0.250000  1
  Tb  Tb1  1  0.002341  0.330488  0.750000  1
  Ho  Ho2  1  0.669257  0.997892  0.250000  1
  Ho  Ho3  1  0.330743  0.002108  0.750000  1
  Al  Al4  1  0.131655  0.131815  0.250000  1
  Al  Al5  1  0.868345  0.868185  0.750000  1
  Al  Al6  1  0.002414  0.339557  0.072789  1
  Al  Al7  1  0.997586  0.660443  0.927211  1
  Al  Al8  1  0.997586  0.660443  0.572789  1
  Al  Al9  1  0.340048  0.002562  0.427393  1
  Al  Al10  1  0.002414  0.339557  0.427211  1
  Al  Al11  1  0.659952  0.997438  0.572607  1
  Al  Al12  1  0.659952  0.997438  0.927393  1
  Al  Al13  1  0.340048  0.002562  0.072607  1
  Al  Al14  1  0.339213  0.339055  0.549369  1
  Al  Al15  1  0.660787  0.660946  0.450631  1
  Al  Al16  1  0.660787  0.660946  0.049369  1
  Al  Al17  1  0.339213  0.339055  0.950631  1
  Al  Al18  1  0.336856  0.549133  0.250000  1
  Al  Al19  1  0.663144  0.450867  0.750000  1
  Al  Al20  1  0.548903  0.336454  0.250000  1
  Al  Al21  1  0.451097  0.663546  0.750000  1
  Os  Os22  1  0.672318  0.327207  0.000045  1
  Os  Os23  1  0.327682  0.672793  0.999955  1
  Os  Os24  1  0.327682  0.672793  0.500045  1
  Os  Os25  1  0.672318  0.327207  0.499955  1
  Pd  Pd26  1  0.000000  0.000000  0.000000  1
  Pd  Pd27  1  0.000000  0.000000  0.500000  1
