# generated using pymatgen
data_Zr2Co12Si6Ge
_symmetry_space_group_name_H-M   'P 1'
_cell_length_a   9.10933500
_cell_length_b   9.10933307
_cell_length_c   3.60157100
_cell_angle_alpha   90.00000000
_cell_angle_beta   90.00000000
_cell_angle_gamma   120.00001065
_symmetry_Int_Tables_number   1
_chemical_formula_structural   Zr2Co12Si6Ge
_chemical_formula_sum   'Zr2 Co12 Si6 Ge1'
_cell_volume   258.81880107
_cell_formula_units_Z   1
loop_
 _symmetry_equiv_pos_site_id
 _symmetry_equiv_pos_as_xyz
  1  'x, y, z'
loop_
 _atom_site_type_symbol
 _atom_site_label
 _atom_site_symmetry_multiplicity
 _atom_site_fract_x
 _atom_site_fract_y
 _atom_site_fract_z
 _atom_site_occupancy
  Zr  Zr0  1  0.333333  0.666667  0.000000  1
  Zr  Zr1  1  0.666667  0.333333  0.500000  1
  Co  Co2  1  0.438351  0.059538  0.000000  1
  Co  Co3  1  0.940462  0.378814  0.000000  1
  Co  Co4  1  0.621186  0.561649  0.000000  1
  Co  Co5  1  0.382351  0.436294  0.500000  1
  Co  Co6  1  0.563706  0.946056  0.500000  1
  Co  Co7  1  0.053944  0.617649  0.500000  1
  Co  Co8  1  0.155753  0.284997  0.000000  1
  Co  Co9  1  0.715003  0.870756  0.000000  1
  Co  Co10  1  0.129244  0.844247  0.000000  1
  Co  Co11  1  0.246122  0.112462  0.500000  1
  Co  Co12  1  0.887538  0.133659  0.500000  1
  Co  Co13  1  0.866341  0.753878  0.500000  1
  Si  Si14  1  0.113489  0.406352  0.500000  1
  Si  Si15  1  0.593648  0.707136  0.500000  1
  Si  Si16  1  0.292864  0.886511  0.500000  1
  Si  Si17  1  0.404915  0.289265  0.000000  1
  Si  Si18  1  0.710735  0.115652  0.000000  1
  Si  Si19  1  0.884348  0.595085  0.000000  1
  Ge  Ge20  1  0.000000  0.000000  0.000000  1
