# generated using pymatgen
data_Tb3CoSn3PtRh
_symmetry_space_group_name_H-M   'P 1'
_cell_length_a   7.56639300
_cell_length_b   7.56639227
_cell_length_c   3.82552600
_cell_angle_alpha   90.00000000
_cell_angle_beta   90.00000000
_cell_angle_gamma   119.99999881
_symmetry_Int_Tables_number   1
_chemical_formula_structural   Tb3CoSn3PtRh
_chemical_formula_sum   'Tb3 Co1 Sn3 Pt1 Rh1'
_cell_volume   189.67039244
_cell_formula_units_Z   1
loop_
 _symmetry_equiv_pos_site_id
 _symmetry_equiv_pos_as_xyz
  1  'x, y, z'
loop_
 _atom_site_type_symbol
 _atom_site_label
 _atom_site_symmetry_multiplicity
 _atom_site_fract_x
 _atom_site_fract_y
 _atom_site_fract_z
 _atom_site_occupancy
  Tb  Tb0  1  0.408211  0.004635  0.500000  1
  Tb  Tb1  1  0.995365  0.403576  0.500000  1
  Tb  Tb2  1  0.596424  0.591789  0.500000  1
  Co  Co3  1  0.000000  0.000000  0.500000  1
  Sn  Sn4  1  0.751103  0.003339  0.000000  1
  Sn  Sn5  1  0.996661  0.747763  0.000000  1
  Sn  Sn6  1  0.252237  0.248897  0.000000  1
  Pt  Pt7  1  0.333333  0.666667  0.000000  1
  Rh  Rh8  1  0.666667  0.333333  0.000000  1
