# generated using pymatgen
data_NdErTmGa8Ag3
_symmetry_space_group_name_H-M   'P 1'
_cell_length_a   4.34694922
_cell_length_b   8.38539608
_cell_length_c   8.38539712
_cell_angle_alpha   69.27333133
_cell_angle_beta   74.97754174
_cell_angle_gamma   74.97754426
_symmetry_Int_Tables_number   1
_chemical_formula_structural   NdErTmGa8Ag3
_chemical_formula_sum   'Nd1 Er1 Tm1 Ga8 Ag3'
_cell_volume   271.31690341
_cell_formula_units_Z   1
loop_
 _symmetry_equiv_pos_site_id
 _symmetry_equiv_pos_as_xyz
  1  'x, y, z'
loop_
 _atom_site_type_symbol
 _atom_site_label
 _atom_site_symmetry_multiplicity
 _atom_site_fract_x
 _atom_site_fract_y
 _atom_site_fract_z
 _atom_site_occupancy
  Nd  Nd0  1  0.500027  0.499973  0.499973  1
  Er  Er1  1  0.199795  0.800205  0.800205  1
  Tm  Tm2  1  0.800303  0.199697  0.199697  1
  Ga  Ga3  1  0.355163  0.361014  0.928661  1
  Ga  Ga4  1  0.644793  0.638849  0.071565  1
  Ga  Ga5  1  0.355163  0.928661  0.361014  1
  Ga  Ga6  1  0.644793  0.071565  0.638849  1
  Ga  Ga7  1  0.160694  0.471424  0.207187  1
  Ga  Ga8  1  0.839436  0.528381  0.792747  1
  Ga  Ga9  1  0.160694  0.207187  0.471424  1
  Ga  Ga10  1  0.839436  0.792747  0.528381  1
  Ag  Ag11  1  0.499910  0.000090  0.000090  1
  Ag  Ag12  1  0.999896  0.806166  0.194041  1
  Ag  Ag13  1  0.999896  0.194041  0.806166  1
