# generated using pymatgen
data_Ho17Tm3(IrPt2)4
_symmetry_space_group_name_H-M   'P 1'
_cell_length_a   10.99108900
_cell_length_b   10.99108900
_cell_length_c   6.34555000
_cell_angle_alpha   90.00000000
_cell_angle_beta   90.00000000
_cell_angle_gamma   90.00000000
_symmetry_Int_Tables_number   1
_chemical_formula_structural   Ho17Tm3(IrPt2)4
_chemical_formula_sum   'Ho17 Tm3 Ir4 Pt8'
_cell_volume   766.56805956
_cell_formula_units_Z   1
loop_
 _symmetry_equiv_pos_site_id
 _symmetry_equiv_pos_as_xyz
  1  'x, y, z'
loop_
 _atom_site_type_symbol
 _atom_site_label
 _atom_site_symmetry_multiplicity
 _atom_site_fract_x
 _atom_site_fract_y
 _atom_site_fract_z
 _atom_site_occupancy
  Ho  Ho0  1  0.295471  0.087176  0.374067  1
  Ho  Ho1  1  0.295206  0.912970  0.874172  1
  Ho  Ho2  1  0.704794  0.087030  0.874172  1
  Ho  Ho3  1  0.704529  0.912824  0.374067  1
  Ho  Ho4  1  0.586997  0.794967  0.874299  1
  Ho  Ho5  1  0.587053  0.205037  0.374374  1
  Ho  Ho6  1  0.412947  0.794963  0.374374  1
  Ho  Ho7  1  0.413003  0.205033  0.874299  1
  Ho  Ho8  1  0.205037  0.412947  0.625626  1
  Ho  Ho9  1  0.205033  0.586997  0.125701  1
  Ho  Ho10  1  0.794967  0.413003  0.125701  1
  Ho  Ho11  1  0.794963  0.587053  0.625626  1
  Ho  Ho12  1  0.912970  0.704794  0.125828  1
  Ho  Ho13  1  0.912824  0.295471  0.625933  1
  Ho  Ho14  1  0.087176  0.704529  0.625933  1
  Ho  Ho15  1  0.087030  0.295206  0.125828  1
  Ho  Ho16  1  0.000000  0.000000  0.500000  1
  Tm  Tm17  1  0.000000  0.000000  0.000000  1
  Tm  Tm18  1  0.500000  0.500000  0.000000  1
  Tm  Tm19  1  0.500000  0.500000  0.500000  1
  Ir  Ir20  1  0.500000  0.000000  0.119901  1
  Ir  Ir21  1  0.500000  0.000000  0.619976  1
  Ir  Ir22  1  0.000000  0.500000  0.880099  1
  Ir  Ir23  1  0.000000  0.500000  0.380024  1
  Pt  Pt24  1  0.846689  0.153329  0.249030  1
  Pt  Pt25  1  0.846671  0.846689  0.750970  1
  Pt  Pt26  1  0.153329  0.153311  0.750970  1
  Pt  Pt27  1  0.153311  0.846671  0.249030  1
  Pt  Pt28  1  0.652671  0.347375  0.750039  1
  Pt  Pt29  1  0.652625  0.652671  0.249961  1
  Pt  Pt30  1  0.347375  0.347329  0.249961  1
  Pt  Pt31  1  0.347329  0.652625  0.750039  1
