# generated using pymatgen
data_DyHo11Co5Bi
_symmetry_space_group_name_H-M   'P 1'
_cell_length_a   8.28193109
_cell_length_b   8.28192960
_cell_length_c   8.28087900
_cell_angle_alpha   106.85046232
_cell_angle_beta   110.75079266
_cell_angle_gamma   110.84879565
_symmetry_Int_Tables_number   1
_chemical_formula_structural   DyHo11Co5Bi
_chemical_formula_sum   'Dy1 Ho11 Co5 Bi1'
_cell_volume   436.52763116
_cell_formula_units_Z   1
loop_
 _symmetry_equiv_pos_site_id
 _symmetry_equiv_pos_as_xyz
  1  'x, y, z'
loop_
 _atom_site_type_symbol
 _atom_site_label
 _atom_site_symmetry_multiplicity
 _atom_site_fract_x
 _atom_site_fract_y
 _atom_site_fract_z
 _atom_site_occupancy
  Dy  Dy0  1  0.805366  0.206253  0.011620  1
  Ho  Ho1  1  0.473036  0.289562  0.183697  1
  Ho  Ho2  1  0.106251  0.289984  0.816032  1
  Ho  Ho3  1  0.894135  0.710661  0.183697  1
  Ho  Ho4  1  0.526048  0.709782  0.816032  1
  Ho  Ho5  1  0.309461  0.621072  0.312062  1
  Ho  Ho6  1  0.308740  0.997241  0.688093  1
  Ho  Ho7  1  0.690854  0.379353  0.688093  1
  Ho  Ho8  1  0.690990  0.002601  0.312062  1
  Ho  Ho9  1  0.195149  0.206538  0.401687  1
  Ho  Ho10  1  0.805316  0.793531  0.598848  1
  Ho  Ho11  1  0.194964  0.793555  0.988519  1
  Co  Co12  1  0.500154  0.611358  0.111512  1
  Co  Co13  1  0.499459  0.388800  0.888260  1
  Co  Co14  1  0.375522  0.000195  0.375716  1
  Co  Co15  1  0.623786  0.999798  0.623584  1
  Co  Co16  1  0.000736  0.999559  0.000295  1
  Bi  Bi17  1  0.000035  0.500155  0.500189  1
