# generated using pymatgen
data_Y6Ho3Lu7(CdIr)4
_symmetry_space_group_name_H-M   'P 1'
_cell_length_a   9.55874686
_cell_length_b   9.55317364
_cell_length_c   9.55317400
_cell_angle_alpha   60.00000566
_cell_angle_beta   60.01929093
_cell_angle_gamma   60.01928850
_symmetry_Int_Tables_number   1
_chemical_formula_structural   Y6Ho3Lu7(CdIr)4
_chemical_formula_sum   'Y6 Ho3 Lu7 Cd4 Ir4'
_cell_volume   617.03230744
_cell_formula_units_Z   1
loop_
 _symmetry_equiv_pos_site_id
 _symmetry_equiv_pos_as_xyz
  1  'x, y, z'
loop_
 _atom_site_type_symbol
 _atom_site_label
 _atom_site_symmetry_multiplicity
 _atom_site_fract_x
 _atom_site_fract_y
 _atom_site_fract_z
 _atom_site_occupancy
  Y  Y0  1  0.939481  0.560584  0.560584  1
  Y  Y1  1  0.562534  0.938269  0.938269  1
  Y  Y2  1  0.562534  0.938269  0.560929  1
  Y  Y3  1  0.939481  0.560584  0.939350  1
  Y  Y4  1  0.562534  0.560929  0.938269  1
  Y  Y5  1  0.939481  0.939350  0.560584  1
  Ho  Ho6  1  0.349519  0.349706  0.349706  1
  Ho  Ho7  1  0.349519  0.349706  0.951069  1
  Ho  Ho8  1  0.349519  0.951069  0.349706  1
  Lu  Lu9  1  0.954103  0.348633  0.348633  1
  Lu  Lu10  1  0.812500  0.187369  0.187369  1
  Lu  Lu11  1  0.185844  0.813478  0.813478  1
  Lu  Lu12  1  0.185844  0.813478  0.187201  1
  Lu  Lu13  1  0.812500  0.187369  0.812763  1
  Lu  Lu14  1  0.185844  0.187201  0.813478  1
  Lu  Lu15  1  0.812500  0.812763  0.187369  1
  Cd  Cd16  1  0.580742  0.579848  0.579848  1
  Cd  Cd17  1  0.580742  0.579848  0.259564  1
  Cd  Cd18  1  0.580742  0.259564  0.579848  1
  Cd  Cd19  1  0.259251  0.580250  0.580250  1
  Ir  Ir20  1  0.139390  0.142250  0.142250  1
  Ir  Ir21  1  0.139390  0.142250  0.576110  1
  Ir  Ir22  1  0.139390  0.576110  0.142250  1
  Ir  Ir23  1  0.576616  0.141128  0.141128  1
