# generated using pymatgen
data_TcPtRh2F24
_symmetry_space_group_name_H-M   'P 1'
_cell_length_a   5.11967010
_cell_length_b   8.85776000
_cell_length_c   9.61896086
_cell_angle_alpha   90.00000000
_cell_angle_beta   90.19211952
_cell_angle_gamma   90.00000000
_symmetry_Int_Tables_number   1
_chemical_formula_structural   TcPtRh2F24
_chemical_formula_sum   'Tc1 Pt1 Rh2 F24'
_cell_volume   436.20596662
_cell_formula_units_Z   1
loop_
 _symmetry_equiv_pos_site_id
 _symmetry_equiv_pos_as_xyz
  1  'x, y, z'
loop_
 _atom_site_type_symbol
 _atom_site_label
 _atom_site_symmetry_multiplicity
 _atom_site_fract_x
 _atom_site_fract_y
 _atom_site_fract_z
 _atom_site_occupancy
  Tc  Tc0  1  0.917713  0.750000  0.629353  1
  Pt  Pt1  1  0.582027  0.750000  0.129088  1
  Rh  Rh2  1  0.082267  0.250000  0.369844  1
  Rh  Rh3  1  0.418331  0.250000  0.871211  1
  F  F4  1  0.211051  0.750000  0.517642  1
  F  F5  1  0.787283  0.250000  0.484848  1
  F  F6  1  0.714874  0.250000  0.985549  1
  F  F7  1  0.280149  0.750000  0.012526  1
  F  F8  1  0.624891  0.750000  0.741662  1
  F  F9  1  0.379138  0.250000  0.256582  1
  F  F10  1  0.121735  0.250000  0.755926  1
  F  F11  1  0.883398  0.750000  0.246326  1
  F  F12  1  0.768592  0.602295  0.520240  1
  F  F13  1  0.234179  0.400295  0.481867  1
  F  F14  1  0.265583  0.399812  0.981649  1
  F  F15  1  0.234179  0.099705  0.481867  1
  F  F16  1  0.737470  0.598974  0.015473  1
  F  F17  1  0.768592  0.897705  0.520240  1
  F  F18  1  0.737470  0.901026  0.015473  1
  F  F19  1  0.265583  0.100188  0.981649  1
  F  F20  1  0.065348  0.602423  0.739159  1
  F  F21  1  0.929871  0.399719  0.258806  1
  F  F22  1  0.569553  0.400171  0.759425  1
  F  F23  1  0.929871  0.100281  0.258806  1
  F  F24  1  0.427976  0.599105  0.243103  1
  F  F25  1  0.065348  0.897577  0.739159  1
  F  F26  1  0.427976  0.900895  0.243103  1
  F  F27  1  0.569553  0.099829  0.759425  1
