# generated using pymatgen
data_NpSn3(AsO4)6
_symmetry_space_group_name_H-M   'P 1'
_cell_length_a   9.49724346
_cell_length_b   9.49724368
_cell_length_c   9.49724300
_cell_angle_alpha   55.20672817
_cell_angle_beta   55.20673460
_cell_angle_gamma   55.20672756
_symmetry_Int_Tables_number   1
_chemical_formula_structural   NpSn3(AsO4)6
_chemical_formula_sum   'Np1 Sn3 As6 O24'
_cell_volume   538.23201340
_cell_formula_units_Z   1
loop_
 _symmetry_equiv_pos_site_id
 _symmetry_equiv_pos_as_xyz
  1  'x, y, z'
loop_
 _atom_site_type_symbol
 _atom_site_label
 _atom_site_symmetry_multiplicity
 _atom_site_fract_x
 _atom_site_fract_y
 _atom_site_fract_z
 _atom_site_occupancy
  Np  Np0  1  0.858722  0.858722  0.858722  1
  Sn  Sn1  1  0.142872  0.142872  0.142872  1
  Sn  Sn2  1  0.353331  0.353331  0.353331  1
  Sn  Sn3  1  0.651159  0.651159  0.651159  1
  As  As4  1  0.752011  0.036155  0.449794  1
  As  As5  1  0.036155  0.449794  0.752011  1
  As  As6  1  0.449794  0.752011  0.036155  1
  As  As7  1  0.522176  0.264087  0.972032  1
  As  As8  1  0.972032  0.522176  0.264087  1
  As  As9  1  0.264087  0.972032  0.522176  1
  O  O10  1  0.203185  0.181252  0.519551  1
  O  O11  1  0.519551  0.203185  0.181252  1
  O  O12  1  0.887385  0.136858  0.239006  1
  O  O13  1  0.181252  0.519551  0.203185  1
  O  O14  1  0.525864  0.176983  0.500918  1
  O  O15  1  0.812108  0.998469  0.617079  1
  O  O16  1  0.136858  0.239006  0.887385  1
  O  O17  1  0.176983  0.500918  0.525864  1
  O  O18  1  0.500918  0.525864  0.176983  1
  O  O19  1  0.370334  0.216861  0.978645  1
  O  O20  1  0.738348  0.112483  0.879823  1
  O  O21  1  0.978645  0.370334  0.216861  1
  O  O22  1  0.998469  0.617079  0.812108  1
  O  O23  1  0.239006  0.887385  0.136858  1
  O  O24  1  0.617079  0.812108  0.998469  1
  O  O25  1  0.498048  0.484713  0.822762  1
  O  O26  1  0.822762  0.498048  0.484713  1
  O  O27  1  0.879823  0.738348  0.112483  1
  O  O28  1  0.216861  0.978645  0.370334  1
  O  O29  1  0.484713  0.822762  0.498048  1
  O  O30  1  0.821848  0.473339  0.801790  1
  O  O31  1  0.112483  0.879823  0.738348  1
  O  O32  1  0.473339  0.801790  0.821848  1
  O  O33  1  0.801790  0.821848  0.473339  1
