# generated using pymatgen
data_PrHo4(CoO6)2
_symmetry_space_group_name_H-M   'P 1'
_cell_length_a   6.79974956
_cell_length_b   6.79974981
_cell_length_c   7.24529635
_cell_angle_alpha   74.66132095
_cell_angle_beta   74.66131977
_cell_angle_gamma   50.06339202
_symmetry_Int_Tables_number   1
_chemical_formula_structural   PrHo4(CoO6)2
_chemical_formula_sum   'Pr1 Ho4 Co2 O12'
_cell_volume   245.67114771
_cell_formula_units_Z   1
loop_
 _symmetry_equiv_pos_site_id
 _symmetry_equiv_pos_as_xyz
  1  'x, y, z'
loop_
 _atom_site_type_symbol
 _atom_site_label
 _atom_site_symmetry_multiplicity
 _atom_site_fract_x
 _atom_site_fract_y
 _atom_site_fract_z
 _atom_site_occupancy
  Pr  Pr0  1  0.000000  0.000000  0.500000  1
  Ho  Ho1  1  0.306992  0.306992  0.355372  1
  Ho  Ho2  1  0.693008  0.693008  0.644628  1
  Ho  Ho3  1  0.305178  0.305178  0.838282  1
  Ho  Ho4  1  0.694822  0.694822  0.161718  1
  Co  Co5  1  0.754349  0.245651  0.000000  1
  Co  Co6  1  0.245651  0.754349  0.000000  1
  O  O7  1  0.898794  0.416877  0.923751  1
  O  O8  1  0.416877  0.898794  0.923751  1
  O  O9  1  0.101206  0.583123  0.076249  1
  O  O10  1  0.583123  0.101206  0.076249  1
  O  O11  1  0.095021  0.585451  0.582806  1
  O  O12  1  0.585451  0.095021  0.582806  1
  O  O13  1  0.904979  0.414549  0.417194  1
  O  O14  1  0.414549  0.904979  0.417194  1
  O  O15  1  0.001456  0.001456  0.833133  1
  O  O16  1  0.998544  0.998544  0.166867  1
  O  O17  1  0.499760  0.499760  0.823874  1
  O  O18  1  0.500240  0.500240  0.176126  1
