# generated using pymatgen
data_Lu2Nb3Ge4
_symmetry_space_group_name_H-M   'P 1'
_cell_length_a   6.95398900
_cell_length_b   7.13365600
_cell_length_c   13.51768600
_cell_angle_alpha   90.00000000
_cell_angle_beta   90.00000000
_cell_angle_gamma   90.00000000
_symmetry_Int_Tables_number   1
_chemical_formula_structural   Lu2Nb3Ge4
_chemical_formula_sum   'Lu8 Nb12 Ge16'
_cell_volume   670.57678814
_cell_formula_units_Z   4
loop_
 _symmetry_equiv_pos_site_id
 _symmetry_equiv_pos_as_xyz
  1  'x, y, z'
loop_
 _atom_site_type_symbol
 _atom_site_label
 _atom_site_symmetry_multiplicity
 _atom_site_fract_x
 _atom_site_fract_y
 _atom_site_fract_z
 _atom_site_occupancy
  Lu  Lu0  1  0.494122  0.676388  0.593764  1
  Lu  Lu1  1  0.994122  0.823612  0.906236  1
  Lu  Lu2  1  0.505878  0.323612  0.093764  1
  Lu  Lu3  1  0.005878  0.176388  0.406236  1
  Lu  Lu4  1  0.505878  0.323612  0.406236  1
  Lu  Lu5  1  0.005878  0.176388  0.093764  1
  Lu  Lu6  1  0.494122  0.676388  0.906236  1
  Lu  Lu7  1  0.994122  0.823612  0.593764  1
  Nb  Nb8  1  0.659035  0.169885  0.626387  1
  Nb  Nb9  1  0.159035  0.330115  0.873613  1
  Nb  Nb10  1  0.340965  0.830115  0.126387  1
  Nb  Nb11  1  0.840965  0.669885  0.373613  1
  Nb  Nb12  1  0.340965  0.830115  0.373613  1
  Nb  Nb13  1  0.840965  0.669885  0.126387  1
  Nb  Nb14  1  0.659035  0.169885  0.873613  1
  Nb  Nb15  1  0.159035  0.330115  0.626387  1
  Nb  Nb16  1  0.836022  0.487312  0.750000  1
  Nb  Nb17  1  0.336022  0.012688  0.750000  1
  Nb  Nb18  1  0.163978  0.512688  0.250000  1
  Nb  Nb19  1  0.663978  0.987312  0.250000  1
  Ge  Ge20  1  0.679036  0.963602  0.458924  1
  Ge  Ge21  1  0.179036  0.536398  0.041076  1
  Ge  Ge22  1  0.320964  0.036398  0.958924  1
  Ge  Ge23  1  0.820964  0.463602  0.541076  1
  Ge  Ge24  1  0.320964  0.036398  0.541076  1
  Ge  Ge25  1  0.820964  0.463602  0.958924  1
  Ge  Ge26  1  0.679036  0.963602  0.041076  1
  Ge  Ge27  1  0.179036  0.536398  0.458924  1
  Ge  Ge28  1  0.459574  0.382151  0.750000  1
  Ge  Ge29  1  0.959574  0.117849  0.750000  1
  Ge  Ge30  1  0.540426  0.617849  0.250000  1
  Ge  Ge31  1  0.040426  0.882151  0.250000  1
  Ge  Ge32  1  0.695130  0.855055  0.750000  1
  Ge  Ge33  1  0.195130  0.644945  0.750000  1
  Ge  Ge34  1  0.304870  0.144945  0.250000  1
  Ge  Ge35  1  0.804870  0.355055  0.250000  1
