# generated using pymatgen
data_Tm(Zr3Pb2)3
_symmetry_space_group_name_H-M   'P 1'
_cell_length_a   8.73774104
_cell_length_b   8.73774114
_cell_length_c   5.91429400
_cell_angle_alpha   90.00000000
_cell_angle_beta   90.00000000
_cell_angle_gamma   120.70371729
_symmetry_Int_Tables_number   1
_chemical_formula_structural   Tm(Zr3Pb2)3
_chemical_formula_sum   'Tm1 Zr9 Pb6'
_cell_volume   388.24722942
_cell_formula_units_Z   1
loop_
 _symmetry_equiv_pos_site_id
 _symmetry_equiv_pos_as_xyz
  1  'x, y, z'
loop_
 _atom_site_type_symbol
 _atom_site_label
 _atom_site_symmetry_multiplicity
 _atom_site_fract_x
 _atom_site_fract_y
 _atom_site_fract_z
 _atom_site_occupancy
  Tm  Tm0  1  0.766634  0.766634  0.250000  1
  Zr  Zr1  1  0.002122  0.251626  0.250000  1
  Zr  Zr2  1  0.751622  0.999078  0.750000  1
  Zr  Zr3  1  0.331998  0.665254  0.500539  1
  Zr  Zr4  1  0.251626  0.002122  0.250000  1
  Zr  Zr5  1  0.665254  0.331998  0.500539  1
  Zr  Zr6  1  0.999078  0.751622  0.750000  1
  Zr  Zr7  1  0.331998  0.665254  0.999461  1
  Zr  Zr8  1  0.237940  0.237940  0.750000  1
  Zr  Zr9  1  0.665254  0.331998  0.999461  1
  Pb  Pb10  1  0.606744  0.606744  0.750000  1
  Pb  Pb11  1  0.389383  0.998968  0.750000  1
  Pb  Pb12  1  0.608540  0.001206  0.250000  1
  Pb  Pb13  1  0.998968  0.389383  0.750000  1
  Pb  Pb14  1  0.391630  0.391630  0.250000  1
  Pb  Pb15  1  0.001206  0.608540  0.250000  1
