# generated using pymatgen
data_LiCeErAgAs4
_symmetry_space_group_name_H-M   'P 1'
_cell_length_a   3.97624384
_cell_length_b   3.97624247
_cell_length_c   20.60967946
_cell_angle_alpha   90.04020994
_cell_angle_beta   90.04021135
_cell_angle_gamma   89.94970349
_symmetry_Int_Tables_number   1
_chemical_formula_structural   LiCeErAgAs4
_chemical_formula_sum   'Li2 Ce2 Er2 Ag2 As8'
_cell_volume   325.84925003
_cell_formula_units_Z   2
loop_
 _symmetry_equiv_pos_site_id
 _symmetry_equiv_pos_as_xyz
  1  'x, y, z'
loop_
 _atom_site_type_symbol
 _atom_site_label
 _atom_site_symmetry_multiplicity
 _atom_site_fract_x
 _atom_site_fract_y
 _atom_site_fract_z
 _atom_site_occupancy
  Li  Li0  1  0.243875  0.744076  0.747703  1
  Li  Li1  1  0.255924  0.756125  0.252297  1
  Ce  Ce2  1  0.753760  0.753301  0.112288  1
  Ce  Ce3  1  0.246699  0.246240  0.887712  1
  Er  Er4  1  0.253912  0.254551  0.387979  1
  Er  Er5  1  0.745449  0.746088  0.612021  1
  Ag  Ag6  1  0.756028  0.256031  0.250966  1
  Ag  Ag7  1  0.743969  0.243972  0.749034  1
  As  As8  1  0.745936  0.745337  0.838422  1
  As  As9  1  0.254663  0.254064  0.161578  1
  As  As10  1  0.244728  0.245377  0.660616  1
  As  As11  1  0.754623  0.755272  0.339384  1
  As  As12  1  0.251403  0.748597  0.000000  1
  As  As13  1  0.247587  0.752413  0.500000  1
  As  As14  1  0.749044  0.250956  0.000000  1
  As  As15  1  0.752399  0.247601  0.500000  1
