# generated using pymatgen
data_Tb2Dy4IrBr10
_symmetry_space_group_name_H-M   'P 1'
_cell_length_a   7.40489689
_cell_length_b   9.27342933
_cell_length_c   9.29409684
_cell_angle_alpha   107.79606200
_cell_angle_beta   96.59964923
_cell_angle_gamma   105.32404435
_symmetry_Int_Tables_number   1
_chemical_formula_structural   Tb2Dy4IrBr10
_chemical_formula_sum   'Tb2 Dy4 Ir1 Br10'
_cell_volume   572.60749344
_cell_formula_units_Z   1
loop_
 _symmetry_equiv_pos_site_id
 _symmetry_equiv_pos_as_xyz
  1  'x, y, z'
loop_
 _atom_site_type_symbol
 _atom_site_label
 _atom_site_symmetry_multiplicity
 _atom_site_fract_x
 _atom_site_fract_y
 _atom_site_fract_z
 _atom_site_occupancy
  Tb  Tb0  1  0.125265  0.047283  0.756484  1
  Tb  Tb1  1  0.874735  0.952717  0.243516  1
  Dy  Dy2  1  0.974010  0.300981  0.096247  1
  Dy  Dy3  1  0.025990  0.699019  0.903753  1
  Dy  Dy4  1  0.639847  0.865715  0.820384  1
  Dy  Dy5  1  0.360153  0.134285  0.179616  1
  Ir  Ir6  1  0.000000  0.000000  0.000000  1
  Br  Br7  1  0.545841  0.174909  0.916208  1
  Br  Br8  1  0.454159  0.825091  0.083792  1
  Br  Br9  1  0.752357  0.916343  0.543782  1
  Br  Br10  1  0.247643  0.083657  0.456218  1
  Br  Br11  1  0.086409  0.372478  0.830675  1
  Br  Br12  1  0.913591  0.627522  0.169325  1
  Br  Br13  1  0.217794  0.744794  0.656158  1
  Br  Br14  1  0.782206  0.255206  0.343842  1
  Br  Br15  1  0.646360  0.548042  0.726982  1
  Br  Br16  1  0.353640  0.451958  0.273018  1
