# generated using pymatgen
data_HfZrTa3Re
_symmetry_space_group_name_H-M   'P 1'
_cell_length_a   5.59556897
_cell_length_b   5.59556856
_cell_length_c   5.38769616
_cell_angle_alpha   58.71524522
_cell_angle_beta   58.71526295
_cell_angle_gamma   59.99997941
_symmetry_Int_Tables_number   1
_chemical_formula_structural   HfZrTa3Re
_chemical_formula_sum   'Hf1 Zr1 Ta3 Re1'
_cell_volume   116.91336908
_cell_formula_units_Z   1
loop_
 _symmetry_equiv_pos_site_id
 _symmetry_equiv_pos_as_xyz
  1  'x, y, z'
loop_
 _atom_site_type_symbol
 _atom_site_label
 _atom_site_symmetry_multiplicity
 _atom_site_fract_x
 _atom_site_fract_y
 _atom_site_fract_z
 _atom_site_occupancy
  Hf  Hf0  1  0.249909  0.249909  0.250273  1
  Zr  Zr1  1  0.999867  0.999867  0.000401  1
  Ta  Ta2  1  0.625082  0.125130  0.624706  1
  Ta  Ta3  1  0.125130  0.625082  0.624706  1
  Ta  Ta4  1  0.625082  0.625082  0.624706  1
  Re  Re5  1  0.624931  0.624931  0.125207  1
