# generated using pymatgen
data_YHf2(InRh2)3
_symmetry_space_group_name_H-M   'P 1'
_cell_length_a   4.71469480
_cell_length_b   6.34395008
_cell_length_c   14.15392863
_cell_angle_alpha   89.99814219
_cell_angle_beta   95.10637067
_cell_angle_gamma   89.98266860
_symmetry_Int_Tables_number   1
_chemical_formula_structural   YHf2(InRh2)3
_chemical_formula_sum   'Y2 Hf4 In6 Rh12'
_cell_volume   421.66082453
_cell_formula_units_Z   2
loop_
 _symmetry_equiv_pos_site_id
 _symmetry_equiv_pos_as_xyz
  1  'x, y, z'
loop_
 _atom_site_type_symbol
 _atom_site_label
 _atom_site_symmetry_multiplicity
 _atom_site_fract_x
 _atom_site_fract_y
 _atom_site_fract_z
 _atom_site_occupancy
  Y  Y0  1  0.000079  0.000108  0.998830  1
  Y  Y1  1  0.500144  0.499811  0.167761  1
  Hf  Hf2  1  0.000228  0.000110  0.335713  1
  Hf  Hf3  1  0.501358  0.499983  0.499869  1
  Hf  Hf4  1  0.998596  0.000038  0.666792  1
  Hf  Hf5  1  0.499448  0.499980  0.830986  1
  In  In6  1  0.997297  0.500192  0.000249  1
  In  In7  1  0.502714  0.999688  0.166340  1
  In  In8  1  0.002493  0.500200  0.336294  1
  In  In9  1  0.500354  0.999845  0.503500  1
  In  In10  1  0.999338  0.500084  0.663201  1
  In  In11  1  0.497482  0.999933  0.830278  1
  Rh  Rh12  1  0.497430  0.258934  0.991305  1
  Rh  Rh13  1  0.497455  0.740895  0.991320  1
  Rh  Rh14  1  0.002995  0.240845  0.175231  1
  Rh  Rh15  1  0.003018  0.759096  0.175255  1
  Rh  Rh16  1  0.501916  0.242465  0.340933  1
  Rh  Rh17  1  0.502109  0.757638  0.340853  1
  Rh  Rh18  1  0.001094  0.250549  0.501104  1
  Rh  Rh19  1  0.001141  0.749496  0.501136  1
  Rh  Rh20  1  0.498721  0.249601  0.665631  1
  Rh  Rh21  1  0.498708  0.750480  0.665678  1
  Rh  Rh22  1  0.998012  0.257429  0.825840  1
  Rh  Rh23  1  0.997874  0.742607  0.825903  1
