# generated using pymatgen
data_Tb2Dy3(ThS4)3
_symmetry_space_group_name_H-M   'P 1'
_cell_length_a   3.92632500
_cell_length_b   10.50627697
_cell_length_c   10.73112226
_cell_angle_alpha   89.82386195
_cell_angle_beta   90.00000000
_cell_angle_gamma   90.00000000
_symmetry_Int_Tables_number   1
_chemical_formula_structural   Tb2Dy3(ThS4)3
_chemical_formula_sum   'Tb2 Dy3 Th3 S12'
_cell_volume   442.66805394
_cell_formula_units_Z   1
loop_
 _symmetry_equiv_pos_site_id
 _symmetry_equiv_pos_as_xyz
  1  'x, y, z'
loop_
 _atom_site_type_symbol
 _atom_site_label
 _atom_site_symmetry_multiplicity
 _atom_site_fract_x
 _atom_site_fract_y
 _atom_site_fract_z
 _atom_site_occupancy
  Tb  Tb0  1  0.250000  0.505941  0.305436  1
  Tb  Tb1  1  0.250000  0.187869  0.484303  1
  Dy  Dy2  1  0.750000  0.813096  0.512042  1
  Dy  Dy3  1  0.750000  0.683566  0.015244  1
  Dy  Dy4  1  0.250000  0.316000  0.990592  1
  Th  Th5  1  0.250000  0.999469  0.803774  1
  Th  Th6  1  0.750000  0.998521  0.196450  1
  Th  Th7  1  0.750000  0.497634  0.691932  1
  S  S8  1  0.250000  0.295420  0.728999  1
  S  S9  1  0.750000  0.702760  0.272983  1
  S  S10  1  0.750000  0.796942  0.772874  1
  S  S11  1  0.250000  0.199254  0.225239  1
  S  S12  1  0.250000  0.944106  0.383381  1
  S  S13  1  0.750000  0.055779  0.616359  1
  S  S14  1  0.750000  0.445832  0.122173  1
  S  S15  1  0.250000  0.554657  0.882409  1
  S  S16  1  0.250000  0.869367  0.045315  1
  S  S17  1  0.750000  0.130284  0.953965  1
  S  S18  1  0.750000  0.374015  0.451099  1
  S  S19  1  0.250000  0.629490  0.545433  1
