# generated using pymatgen
data_DyHoLu3(ReO6)2
_symmetry_space_group_name_H-M   'P 1'
_cell_length_a   6.74795749
_cell_length_b   6.74795703
_cell_length_c   7.44031313
_cell_angle_alpha   74.00014447
_cell_angle_beta   74.00014748
_cell_angle_gamma   49.38022015
_symmetry_Int_Tables_number   1
_chemical_formula_structural   DyHoLu3(ReO6)2
_chemical_formula_sum   'Dy1 Ho1 Lu3 Re2 O12'
_cell_volume   245.04137513
_cell_formula_units_Z   1
loop_
 _symmetry_equiv_pos_site_id
 _symmetry_equiv_pos_as_xyz
  1  'x, y, z'
loop_
 _atom_site_type_symbol
 _atom_site_label
 _atom_site_symmetry_multiplicity
 _atom_site_fract_x
 _atom_site_fract_y
 _atom_site_fract_z
 _atom_site_occupancy
  Dy  Dy0  1  0.697120  0.697120  0.641527  1
  Ho  Ho1  1  0.302737  0.302737  0.358458  1
  Lu  Lu2  1  0.314417  0.314417  0.823358  1
  Lu  Lu3  1  0.685583  0.685583  0.176668  1
  Lu  Lu4  1  0.000059  0.000059  0.499919  1
  Re  Re5  1  0.214374  0.785602  0.000099  1
  Re  Re6  1  0.785602  0.214374  0.000099  1
  O  O7  1  0.500774  0.500774  0.179828  1
  O  O8  1  0.498875  0.498875  0.820552  1
  O  O9  1  0.000693  0.000693  0.209932  1
  O  O10  1  0.999289  0.999289  0.790021  1
  O  O11  1  0.915262  0.419623  0.915692  1
  O  O12  1  0.579952  0.085035  0.084778  1
  O  O13  1  0.085035  0.579952  0.084778  1
  O  O14  1  0.595448  0.101342  0.575590  1
  O  O15  1  0.900072  0.403741  0.423710  1
  O  O16  1  0.403741  0.900072  0.423710  1
  O  O17  1  0.101342  0.595448  0.575590  1
  O  O18  1  0.419623  0.915262  0.915692  1
