# generated using pymatgen
data_Ce3CuPd2Au3
_symmetry_space_group_name_H-M   'P 1'
_cell_length_a   7.58592500
_cell_length_b   7.58592546
_cell_length_c   3.82494400
_cell_angle_alpha   90.00000000
_cell_angle_beta   90.00000000
_cell_angle_gamma   120.00000237
_symmetry_Int_Tables_number   1
_chemical_formula_structural   Ce3CuPd2Au3
_chemical_formula_sum   'Ce3 Cu1 Pd2 Au3'
_cell_volume   190.62191049
_cell_formula_units_Z   1
loop_
 _symmetry_equiv_pos_site_id
 _symmetry_equiv_pos_as_xyz
  1  'x, y, z'
loop_
 _atom_site_type_symbol
 _atom_site_label
 _atom_site_symmetry_multiplicity
 _atom_site_fract_x
 _atom_site_fract_y
 _atom_site_fract_z
 _atom_site_occupancy
  Ce  Ce0  1  0.000000  0.400496  0.000000  1
  Ce  Ce1  1  0.599504  0.599504  0.000000  1
  Ce  Ce2  1  0.400496  0.000000  0.000000  1
  Cu  Cu3  1  0.000000  0.000000  0.000000  1
  Pd  Pd4  1  0.666667  0.333333  0.500000  1
  Pd  Pd5  1  0.333333  0.666667  0.500000  1
  Au  Au6  1  0.000000  0.749554  0.500000  1
  Au  Au7  1  0.250446  0.250446  0.500000  1
  Au  Au8  1  0.749554  0.000000  0.500000  1
