# generated using pymatgen
data_Zr5U(NbTc2)6
_symmetry_space_group_name_H-M   'P 1'
_cell_length_a   4.57051700
_cell_length_b   6.51833900
_cell_length_c   13.82829900
_cell_angle_alpha   90.00000000
_cell_angle_beta   89.99974620
_cell_angle_gamma   90.00000000
_symmetry_Int_Tables_number   1
_chemical_formula_structural   Zr5U(NbTc2)6
_chemical_formula_sum   'Zr5 U1 Nb6 Tc12'
_cell_volume   411.97516199
_cell_formula_units_Z   1
loop_
 _symmetry_equiv_pos_site_id
 _symmetry_equiv_pos_as_xyz
  1  'x, y, z'
loop_
 _atom_site_type_symbol
 _atom_site_label
 _atom_site_symmetry_multiplicity
 _atom_site_fract_x
 _atom_site_fract_y
 _atom_site_fract_z
 _atom_site_occupancy
  Zr  Zr0  1  0.499993  0.000000  0.168423  1
  Zr  Zr1  1  0.999992  0.500001  0.335980  1
  Zr  Zr2  1  0.500000  0.000000  0.500000  1
  Zr  Zr3  1  0.000008  0.500001  0.664021  1
  Zr  Zr4  1  0.500007  0.000000  0.831577  1
  U  U5  1  0.000000  0.500001  0.000000  1
  Nb  Nb6  1  0.000000  0.000000  0.000000  1
  Nb  Nb7  1  0.499995  0.500001  0.174384  1
  Nb  Nb8  1  0.999995  0.000000  0.334518  1
  Nb  Nb9  1  0.500000  0.500001  0.500000  1
  Nb  Nb10  1  0.000005  0.000000  0.665482  1
  Nb  Nb11  1  0.500005  0.500001  0.825616  1
  Tc  Tc12  1  0.500000  0.262378  0.000000  1
  Tc  Tc13  1  0.500000  0.737622  0.000000  1
  Tc  Tc14  1  0.999991  0.255599  0.162665  1
  Tc  Tc15  1  0.999991  0.744401  0.162665  1
  Tc  Tc16  1  0.499993  0.250343  0.332393  1
  Tc  Tc17  1  0.499993  0.749657  0.332393  1
  Tc  Tc18  1  0.000000  0.247610  0.500000  1
  Tc  Tc19  1  0.000000  0.752390  0.500000  1
  Tc  Tc20  1  0.500007  0.250343  0.667608  1
  Tc  Tc21  1  0.500007  0.749657  0.667608  1
  Tc  Tc22  1  0.000009  0.255599  0.837335  1
  Tc  Tc23  1  0.000009  0.744401  0.837335  1
