# generated using pymatgen
data_Er20Ir9Pd2Au
_symmetry_space_group_name_H-M   'P 1'
_cell_length_a   10.97835205
_cell_length_b   10.97835378
_cell_length_c   6.31022300
_cell_angle_alpha   89.95081113
_cell_angle_beta   89.95081112
_cell_angle_gamma   89.01421169
_symmetry_Int_Tables_number   1
_chemical_formula_structural   Er20Ir9Pd2Au
_chemical_formula_sum   'Er20 Ir9 Pd2 Au1'
_cell_volume   760.42166976
_cell_formula_units_Z   1
loop_
 _symmetry_equiv_pos_site_id
 _symmetry_equiv_pos_as_xyz
  1  'x, y, z'
loop_
 _atom_site_type_symbol
 _atom_site_label
 _atom_site_symmetry_multiplicity
 _atom_site_fract_x
 _atom_site_fract_y
 _atom_site_fract_z
 _atom_site_occupancy
  Er  Er0  1  0.289144  0.088337  0.375591  1
  Er  Er1  1  0.291816  0.916976  0.874451  1
  Er  Er2  1  0.704379  0.077636  0.863246  1
  Er  Er3  1  0.705127  0.903359  0.379893  1
  Er  Er4  1  0.593062  0.791825  0.879688  1
  Er  Er5  1  0.575243  0.205292  0.367367  1
  Er  Er6  1  0.413227  0.795238  0.367699  1
  Er  Er7  1  0.404470  0.206338  0.878133  1
  Er  Er8  1  0.208175  0.406938  0.620312  1
  Er  Er9  1  0.204762  0.586773  0.132301  1
  Er  Er10  1  0.794708  0.424757  0.132633  1
  Er  Er11  1  0.793662  0.595530  0.621867  1
  Er  Er12  1  0.911663  0.710856  0.124409  1
  Er  Er13  1  0.922364  0.295621  0.636754  1
  Er  Er14  1  0.083024  0.708184  0.625549  1
  Er  Er15  1  0.096641  0.294873  0.120107  1
  Er  Er16  1  0.003027  0.995602  0.499714  1
  Er  Er17  1  0.004398  0.996973  0.000286  1
  Er  Er18  1  0.499062  0.498963  0.999728  1
  Er  Er19  1  0.501037  0.500938  0.500272  1
  Ir  Ir20  1  0.848464  0.848824  0.749582  1
  Ir  Ir21  1  0.151176  0.151536  0.750418  1
  Ir  Ir22  1  0.156888  0.843112  0.250000  1
  Ir  Ir23  1  0.650935  0.649756  0.249004  1
  Ir  Ir24  1  0.350244  0.349065  0.250996  1
  Ir  Ir25  1  0.500007  0.999371  0.120986  1
  Ir  Ir26  1  0.499199  0.999643  0.622114  1
  Ir  Ir27  1  0.000357  0.500801  0.877886  1
  Ir  Ir28  1  0.000629  0.499993  0.379014  1
  Pd  Pd29  1  0.658253  0.341747  0.750000  1
  Pd  Pd30  1  0.343384  0.656616  0.750000  1
  Au  Au31  1  0.841475  0.158525  0.250000  1
