# generated using pymatgen
data_Er3Th(B2Ir5)2
_symmetry_space_group_name_H-M   'P 1'
_cell_length_a   11.02786283
_cell_length_b   11.02786216
_cell_length_c   11.02786228
_cell_angle_alpha   28.78879286
_cell_angle_beta   28.78879802
_cell_angle_gamma   28.78879351
_symmetry_Int_Tables_number   1
_chemical_formula_structural   Er3Th(B2Ir5)2
_chemical_formula_sum   'Er3 Th1 B4 Ir10'
_cell_volume   275.02797397
_cell_formula_units_Z   1
loop_
 _symmetry_equiv_pos_site_id
 _symmetry_equiv_pos_as_xyz
  1  'x, y, z'
loop_
 _atom_site_type_symbol
 _atom_site_label
 _atom_site_symmetry_multiplicity
 _atom_site_fract_x
 _atom_site_fract_y
 _atom_site_fract_z
 _atom_site_occupancy
  Er  Er0  1  0.950238  0.950238  0.950238  1
  Er  Er1  1  0.849241  0.849241  0.849241  1
  Er  Er2  1  0.048431  0.048431  0.048431  1
  Th  Th3  1  0.151670  0.151670  0.151670  1
  B  B4  1  0.618083  0.618083  0.618083  1
  B  B5  1  0.716000  0.716000  0.716000  1
  B  B6  1  0.382332  0.382332  0.382332  1
  B  B7  1  0.283795  0.283795  0.283795  1
  Ir  Ir8  1  0.407062  0.899037  0.407062  1
  Ir  Ir9  1  0.899037  0.407062  0.407062  1
  Ir  Ir10  1  0.499754  0.499754  0.000359  1
  Ir  Ir11  1  0.499754  0.000359  0.499754  1
  Ir  Ir12  1  0.000359  0.499754  0.499754  1
  Ir  Ir13  1  0.500363  0.500363  0.500363  1
  Ir  Ir14  1  0.593865  0.099091  0.593865  1
  Ir  Ir15  1  0.593865  0.593865  0.099091  1
  Ir  Ir16  1  0.099091  0.593865  0.593865  1
  Ir  Ir17  1  0.407062  0.407062  0.899037  1
