# generated using pymatgen
data_Rb4SmUTe6
_symmetry_space_group_name_H-M   'P 1'
_cell_length_a   8.24955951
_cell_length_b   8.24955917
_cell_length_c   8.98148698
_cell_angle_alpha   81.06364323
_cell_angle_beta   81.06364550
_cell_angle_gamma   120.03301105
_symmetry_Int_Tables_number   1
_chemical_formula_structural   Rb4SmUTe6
_chemical_formula_sum   'Rb4 Sm1 U1 Te6'
_cell_volume   502.95860968
_cell_formula_units_Z   1
loop_
 _symmetry_equiv_pos_site_id
 _symmetry_equiv_pos_as_xyz
  1  'x, y, z'
loop_
 _atom_site_type_symbol
 _atom_site_label
 _atom_site_symmetry_multiplicity
 _atom_site_fract_x
 _atom_site_fract_y
 _atom_site_fract_z
 _atom_site_occupancy
  Rb  Rb0  1  0.500006  0.499994  0.000000  1
  Rb  Rb1  1  0.655385  0.344615  0.500000  1
  Rb  Rb2  1  0.344473  0.655527  0.500000  1
  Rb  Rb3  1  0.000111  0.999889  0.500000  1
  Sm  Sm4  1  0.832354  0.167646  0.000000  1
  U  U5  1  0.167668  0.832332  0.000000  1
  Te  Te6  1  0.815599  0.801670  0.201619  1
  Te  Te7  1  0.198330  0.184401  0.798381  1
  Te  Te8  1  0.416689  0.046014  0.204401  1
  Te  Te9  1  0.555032  0.939633  0.795343  1
  Te  Te10  1  0.953986  0.583311  0.795599  1
  Te  Te11  1  0.060367  0.444968  0.204657  1
