# generated using pymatgen
data_AgP6(Pd10Pb)2
_symmetry_space_group_name_H-M   'P 1'
_cell_length_a   8.64953298
_cell_length_b   8.64953312
_cell_length_c   8.64953200
_cell_angle_alpha   59.99999664
_cell_angle_beta   59.99999611
_cell_angle_gamma   59.99999794
_symmetry_Int_Tables_number   1
_chemical_formula_structural   AgP6(Pd10Pb)2
_chemical_formula_sum   'Ag1 P6 Pd20 Pb2'
_cell_volume   457.57565120
_cell_formula_units_Z   1
loop_
 _symmetry_equiv_pos_site_id
 _symmetry_equiv_pos_as_xyz
  1  'x, y, z'
loop_
 _atom_site_type_symbol
 _atom_site_label
 _atom_site_symmetry_multiplicity
 _atom_site_fract_x
 _atom_site_fract_y
 _atom_site_fract_z
 _atom_site_occupancy
  Ag  Ag0  1  0.000000  0.000000  0.000000  1
  P  P1  1  0.736455  0.263545  0.263545  1
  P  P2  1  0.263545  0.736455  0.736455  1
  P  P3  1  0.263545  0.736455  0.263545  1
  P  P4  1  0.736455  0.263545  0.736455  1
  P  P5  1  0.263545  0.263545  0.736455  1
  P  P6  1  0.736455  0.736455  0.263545  1
  Pd  Pd7  1  0.384494  0.384494  0.384494  1
  Pd  Pd8  1  0.615506  0.615506  0.615506  1
  Pd  Pd9  1  0.384494  0.384494  0.846519  1
  Pd  Pd10  1  0.384494  0.846519  0.384494  1
  Pd  Pd11  1  0.615506  0.615506  0.153481  1
  Pd  Pd12  1  0.615506  0.153481  0.615506  1
  Pd  Pd13  1  0.846519  0.384494  0.384494  1
  Pd  Pd14  1  0.153481  0.615506  0.615506  1
  Pd  Pd15  1  0.342951  0.000000  0.000000  1
  Pd  Pd16  1  0.657049  0.000000  0.000000  1
  Pd  Pd17  1  0.000000  0.342951  0.657049  1
  Pd  Pd18  1  0.000000  0.657049  0.342951  1
  Pd  Pd19  1  0.000000  0.342951  0.000000  1
  Pd  Pd20  1  0.657049  0.000000  0.342951  1
  Pd  Pd21  1  0.000000  0.657049  0.000000  1
  Pd  Pd22  1  0.342951  0.000000  0.657049  1
  Pd  Pd23  1  0.000000  0.000000  0.342951  1
  Pd  Pd24  1  0.000000  0.000000  0.657049  1
  Pd  Pd25  1  0.657049  0.342951  0.000000  1
  Pd  Pd26  1  0.342951  0.657049  0.000000  1
  Pb  Pb27  1  0.250000  0.250000  0.250000  1
  Pb  Pb28  1  0.750000  0.750000  0.750000  1
