# generated using pymatgen
data_Pr4Y12Cd4IrPt3
_symmetry_space_group_name_H-M   'P 1'
_cell_length_a   9.80767117
_cell_length_b   9.76436795
_cell_length_c   9.76436817
_cell_angle_alpha   60.31505774
_cell_angle_beta   60.27585779
_cell_angle_gamma   60.27586389
_symmetry_Int_Tables_number   1
_chemical_formula_structural   Pr4Y12Cd4IrPt3
_chemical_formula_sum   'Pr4 Y12 Cd4 Ir1 Pt3'
_cell_volume   665.53285754
_cell_formula_units_Z   1
loop_
 _symmetry_equiv_pos_site_id
 _symmetry_equiv_pos_as_xyz
  1  'x, y, z'
loop_
 _atom_site_type_symbol
 _atom_site_label
 _atom_site_symmetry_multiplicity
 _atom_site_fract_x
 _atom_site_fract_y
 _atom_site_fract_z
 _atom_site_occupancy
  Pr  Pr0  1  0.565582  0.935658  0.564559  1
  Pr  Pr1  1  0.937452  0.562917  0.934423  1
  Pr  Pr2  1  0.565582  0.564559  0.935658  1
  Pr  Pr3  1  0.937452  0.934423  0.562917  1
  Y  Y4  1  0.353012  0.346636  0.346636  1
  Y  Y5  1  0.352412  0.350697  0.949875  1
  Y  Y6  1  0.352412  0.949875  0.350697  1
  Y  Y7  1  0.940700  0.353308  0.353308  1
  Y  Y8  1  0.808081  0.188287  0.188287  1
  Y  Y9  1  0.190621  0.810450  0.810450  1
  Y  Y10  1  0.191284  0.810766  0.188937  1
  Y  Y11  1  0.808731  0.186576  0.814309  1
  Y  Y12  1  0.191284  0.188937  0.810766  1
  Y  Y13  1  0.808731  0.814309  0.186576  1
  Y  Y14  1  0.944958  0.556382  0.556382  1
  Y  Y15  1  0.558268  0.944088  0.944088  1
  Cd  Cd16  1  0.584083  0.577923  0.577923  1
  Cd  Cd17  1  0.577518  0.584274  0.259299  1
  Cd  Cd18  1  0.577518  0.259299  0.584274  1
  Cd  Cd19  1  0.259874  0.578407  0.578407  1
  Ir  Ir20  1  0.573622  0.139786  0.139786  1
  Pt  Pt21  1  0.142547  0.143434  0.143434  1
  Pt  Pt22  1  0.139138  0.145952  0.573057  1
  Pt  Pt23  1  0.139138  0.573057  0.145952  1
