# generated using pymatgen
data_Zr18TiRe7Rh2
_symmetry_space_group_name_H-M   'P 1'
_cell_length_a   8.77308200
_cell_length_b   8.77308210
_cell_length_c   8.57009200
_cell_angle_alpha   90.00000000
_cell_angle_beta   90.00000000
_cell_angle_gamma   119.99999961
_symmetry_Int_Tables_number   1
_chemical_formula_structural   Zr18TiRe7Rh2
_chemical_formula_sum   'Zr18 Ti1 Re7 Rh2'
_cell_volume   571.24248512
_cell_formula_units_Z   1
loop_
 _symmetry_equiv_pos_site_id
 _symmetry_equiv_pos_as_xyz
  1  'x, y, z'
loop_
 _atom_site_type_symbol
 _atom_site_label
 _atom_site_symmetry_multiplicity
 _atom_site_fract_x
 _atom_site_fract_y
 _atom_site_fract_z
 _atom_site_occupancy
  Zr  Zr0  1  0.195766  0.804234  0.446541  1
  Zr  Zr1  1  0.195766  0.391532  0.446541  1
  Zr  Zr2  1  0.608468  0.804234  0.446541  1
  Zr  Zr3  1  0.804234  0.195766  0.553459  1
  Zr  Zr4  1  0.804234  0.608468  0.553459  1
  Zr  Zr5  1  0.391532  0.195766  0.553459  1
  Zr  Zr6  1  0.804327  0.195673  0.944290  1
  Zr  Zr7  1  0.804327  0.608654  0.944290  1
  Zr  Zr8  1  0.391346  0.195673  0.944290  1
  Zr  Zr9  1  0.195673  0.804327  0.055710  1
  Zr  Zr10  1  0.195673  0.391346  0.055710  1
  Zr  Zr11  1  0.608654  0.804327  0.055710  1
  Zr  Zr12  1  0.543558  0.456442  0.248697  1
  Zr  Zr13  1  0.543558  0.087116  0.248697  1
  Zr  Zr14  1  0.912884  0.456442  0.248697  1
  Zr  Zr15  1  0.456442  0.543558  0.751303  1
  Zr  Zr16  1  0.456442  0.912884  0.751303  1
  Zr  Zr17  1  0.087116  0.543558  0.751303  1
  Ti  Ti18  1  0.000000  0.000000  0.500000  1
  Re  Re19  1  0.890999  0.109001  0.251098  1
  Re  Re20  1  0.890999  0.781999  0.251098  1
  Re  Re21  1  0.218001  0.109001  0.251098  1
  Re  Re22  1  0.109001  0.890999  0.748902  1
  Re  Re23  1  0.109001  0.218001  0.748902  1
  Re  Re24  1  0.781999  0.890999  0.748902  1
  Re  Re25  1  0.000000  0.000000  0.000000  1
  Rh  Rh26  1  0.333333  0.666667  0.249064  1
  Rh  Rh27  1  0.666667  0.333333  0.750936  1
