# generated using pymatgen
data_Zr2Np6SbAs9
_symmetry_space_group_name_H-M   'P 1'
_cell_length_a   8.71446100
_cell_length_b   8.71445972
_cell_length_c   5.88699000
_cell_angle_alpha   90.00000000
_cell_angle_beta   90.00000000
_cell_angle_gamma   119.99999345
_symmetry_Int_Tables_number   1
_chemical_formula_structural   Zr2Np6SbAs9
_chemical_formula_sum   'Zr2 Np6 Sb1 As9'
_cell_volume   387.17290421
_cell_formula_units_Z   1
loop_
 _symmetry_equiv_pos_site_id
 _symmetry_equiv_pos_as_xyz
  1  'x, y, z'
loop_
 _atom_site_type_symbol
 _atom_site_label
 _atom_site_symmetry_multiplicity
 _atom_site_fract_x
 _atom_site_fract_y
 _atom_site_fract_z
 _atom_site_occupancy
  Zr  Zr0  1  0.000000  0.000000  0.000000  1
  Zr  Zr1  1  0.000000  0.000000  0.500000  1
  Np  Np2  1  0.622777  0.010699  0.240862  1
  Np  Np3  1  0.387921  0.010699  0.759138  1
  Np  Np4  1  0.989301  0.612079  0.240862  1
  Np  Np5  1  0.989301  0.377223  0.759138  1
  Np  Np6  1  0.387921  0.377223  0.240862  1
  Np  Np7  1  0.622777  0.612079  0.759138  1
  Sb  Sb8  1  0.333333  0.666667  0.500000  1
  As  As9  1  0.268392  0.996772  0.251867  1
  As  As10  1  0.728380  0.996772  0.748133  1
  As  As11  1  0.003228  0.271620  0.251867  1
  As  As12  1  0.003228  0.731608  0.748133  1
  As  As13  1  0.728380  0.731608  0.251867  1
  As  As14  1  0.268392  0.271620  0.748133  1
  As  As15  1  0.333333  0.666667  0.000000  1
  As  As16  1  0.666667  0.333333  0.000000  1
  As  As17  1  0.666667  0.333333  0.500000  1
