# generated using pymatgen
data_Hf18Be2Re3W5
_symmetry_space_group_name_H-M   'P 1'
_cell_length_a   8.61580900
_cell_length_b   8.61580971
_cell_length_c   8.57824000
_cell_angle_alpha   90.00000000
_cell_angle_beta   90.00000000
_cell_angle_gamma   120.00000111
_symmetry_Int_Tables_number   1
_chemical_formula_structural   Hf18Be2Re3W5
_chemical_formula_sum   'Hf18 Be2 Re3 W5'
_cell_volume   551.46884318
_cell_formula_units_Z   1
loop_
 _symmetry_equiv_pos_site_id
 _symmetry_equiv_pos_as_xyz
  1  'x, y, z'
loop_
 _atom_site_type_symbol
 _atom_site_label
 _atom_site_symmetry_multiplicity
 _atom_site_fract_x
 _atom_site_fract_y
 _atom_site_fract_z
 _atom_site_occupancy
  Hf  Hf0  1  0.199455  0.800545  0.448857  1
  Hf  Hf1  1  0.199455  0.398910  0.448857  1
  Hf  Hf2  1  0.601090  0.800545  0.448857  1
  Hf  Hf3  1  0.801258  0.198742  0.555282  1
  Hf  Hf4  1  0.801258  0.602515  0.555282  1
  Hf  Hf5  1  0.397485  0.198742  0.555282  1
  Hf  Hf6  1  0.801258  0.198742  0.944718  1
  Hf  Hf7  1  0.801258  0.602515  0.944718  1
  Hf  Hf8  1  0.397485  0.198742  0.944718  1
  Hf  Hf9  1  0.199455  0.800545  0.051143  1
  Hf  Hf10  1  0.199455  0.398910  0.051143  1
  Hf  Hf11  1  0.601090  0.800545  0.051143  1
  Hf  Hf12  1  0.538795  0.461205  0.250000  1
  Hf  Hf13  1  0.538795  0.077589  0.250000  1
  Hf  Hf14  1  0.922411  0.461205  0.250000  1
  Hf  Hf15  1  0.460179  0.539821  0.750000  1
  Hf  Hf16  1  0.460179  0.920357  0.750000  1
  Hf  Hf17  1  0.079643  0.539821  0.750000  1
  Be  Be18  1  0.333333  0.666667  0.250000  1
  Be  Be19  1  0.666667  0.333333  0.750000  1
  Re  Re20  1  0.111726  0.888274  0.750000  1
  Re  Re21  1  0.111726  0.223453  0.750000  1
  Re  Re22  1  0.776547  0.888274  0.750000  1
  W  W23  1  0.888525  0.111475  0.250000  1
  W  W24  1  0.888525  0.777049  0.250000  1
  W  W25  1  0.222951  0.111475  0.250000  1
  W  W26  1  0.000000  0.000000  0.501003  1
  W  W27  1  0.000000  0.000000  0.998997  1
