# generated using pymatgen
data_Ce2HoNi13B2
_symmetry_space_group_name_H-M   'P 1'
_cell_length_a   4.93537800
_cell_length_b   4.93537824
_cell_length_c   11.01281000
_cell_angle_alpha   90.00000000
_cell_angle_beta   90.00000000
_cell_angle_gamma   119.99999841
_symmetry_Int_Tables_number   1
_chemical_formula_structural   Ce2HoNi13B2
_chemical_formula_sum   'Ce2 Ho1 Ni13 B2'
_cell_volume   232.31093238
_cell_formula_units_Z   1
loop_
 _symmetry_equiv_pos_site_id
 _symmetry_equiv_pos_as_xyz
  1  'x, y, z'
loop_
 _atom_site_type_symbol
 _atom_site_label
 _atom_site_symmetry_multiplicity
 _atom_site_fract_x
 _atom_site_fract_y
 _atom_site_fract_z
 _atom_site_occupancy
  Ce  Ce0  1  0.000000  0.000000  0.670641  1
  Ce  Ce1  1  0.000000  0.000000  0.329359  1
  Ho  Ho2  1  0.000000  0.000000  0.000000  1
  Ni  Ni3  1  0.500000  0.500000  0.500000  1
  Ni  Ni4  1  0.500000  0.000000  0.500000  1
  Ni  Ni5  1  0.000000  0.500000  0.500000  1
  Ni  Ni6  1  0.666667  0.333333  0.682308  1
  Ni  Ni7  1  0.333333  0.666667  0.682308  1
  Ni  Ni8  1  0.333333  0.666667  0.317692  1
  Ni  Ni9  1  0.666667  0.333333  0.317692  1
  Ni  Ni10  1  0.500000  0.500000  0.868142  1
  Ni  Ni11  1  0.500000  0.000000  0.868142  1
  Ni  Ni12  1  0.000000  0.500000  0.868142  1
  Ni  Ni13  1  0.500000  0.500000  0.131858  1
  Ni  Ni14  1  0.500000  0.000000  0.131858  1
  Ni  Ni15  1  0.000000  0.500000  0.131858  1
  B  B16  1  0.666667  0.333333  0.000000  1
  B  B17  1  0.333333  0.666667  0.000000  1
