# generated using pymatgen
data_Er2Zr6Ti7Si16W5
_symmetry_space_group_name_H-M   'P 1'
_cell_length_a   6.81691266
_cell_length_b   6.82249571
_cell_length_c   12.60738122
_cell_angle_alpha   89.82474367
_cell_angle_beta   90.05701724
_cell_angle_gamma   89.84669054
_symmetry_Int_Tables_number   1
_chemical_formula_structural   Er2Zr6Ti7Si16W5
_chemical_formula_sum   'Er2 Zr6 Ti7 Si16 W5'
_cell_volume   586.34345441
_cell_formula_units_Z   1
loop_
 _symmetry_equiv_pos_site_id
 _symmetry_equiv_pos_as_xyz
  1  'x, y, z'
loop_
 _atom_site_type_symbol
 _atom_site_label
 _atom_site_symmetry_multiplicity
 _atom_site_fract_x
 _atom_site_fract_y
 _atom_site_fract_z
 _atom_site_occupancy
  Er  Er0  1  0.000474  0.339279  0.530754  1
  Er  Er1  1  0.998659  0.661479  0.029621  1
  Zr  Zr2  1  0.342205  0.996074  0.469582  1
  Zr  Zr3  1  0.502128  0.839967  0.720405  1
  Zr  Zr4  1  0.497362  0.160136  0.220316  1
  Zr  Zr5  1  0.840969  0.502378  0.280852  1
  Zr  Zr6  1  0.160269  0.495958  0.781137  1
  Zr  Zr7  1  0.656257  0.002097  0.968405  1
  Ti  Ti8  1  0.494764  0.653305  0.125148  1
  Ti  Ti9  1  0.502942  0.345858  0.624983  1
  Ti  Ti10  1  0.654021  0.492565  0.874509  1
  Ti  Ti11  1  0.346314  0.507331  0.374712  1
  Ti  Ti12  1  0.843905  0.997066  0.373669  1
  Ti  Ti13  1  0.005023  0.152548  0.126434  1
  Ti  Ti14  1  0.995682  0.847140  0.625774  1
  Si  Si15  1  0.209114  0.128915  0.679052  1
  Si  Si16  1  0.372562  0.705902  0.927484  1
  Si  Si17  1  0.628626  0.294167  0.427284  1
  Si  Si18  1  0.703884  0.365171  0.072228  1
  Si  Si19  1  0.296949  0.635295  0.571599  1
  Si  Si20  1  0.790902  0.870128  0.180124  1
  Si  Si21  1  0.133242  0.204472  0.320847  1
  Si  Si22  1  0.867777  0.794958  0.820261  1
  Si  Si23  1  0.296241  0.957404  0.065302  1
  Si  Si24  1  0.543213  0.795544  0.314655  1
  Si  Si25  1  0.455762  0.206053  0.814357  1
  Si  Si26  1  0.793924  0.545128  0.685077  1
  Si  Si27  1  0.205355  0.454716  0.185862  1
  Si  Si28  1  0.704165  0.043356  0.564580  1
  Si  Si29  1  0.957220  0.290528  0.936287  1
  Si  Si30  1  0.043448  0.709754  0.434832  1
  W  W31  1  0.332590  0.330091  0.000475  1
  W  W32  1  0.168834  0.832105  0.249566  1
  W  W33  1  0.830206  0.169164  0.750471  1
  W  W34  1  0.667746  0.671855  0.499956  1
  W  W35  1  0.157268  0.002116  0.873403  1
