# generated using pymatgen
data_H2O11
_symmetry_space_group_name_H-M   'P 1'
_cell_length_a   3.77087049
_cell_length_b   5.96239124
_cell_length_c   12.18417023
_cell_angle_alpha   72.51006149
_cell_angle_beta   97.84243976
_cell_angle_gamma   86.68078462
_symmetry_Int_Tables_number   1
_chemical_formula_structural   H2O11
_chemical_formula_sum   'H2 O11'
_cell_volume   257.41147686
_cell_formula_units_Z   1
loop_
 _symmetry_equiv_pos_site_id
 _symmetry_equiv_pos_as_xyz
  1  'x, y, z'
loop_
 _atom_site_type_symbol
 _atom_site_label
 _atom_site_symmetry_multiplicity
 _atom_site_fract_x
 _atom_site_fract_y
 _atom_site_fract_z
 _atom_site_occupancy
  H  H0  1  0.470921  0.972888  0.742131  1
  H  H1  1  0.351911  0.771020  0.836526  1
  O  O2  1  0.593545  0.032958  0.533217  1
  O  O3  1  0.691166  0.217973  0.473497  1
  O  O4  1  0.829661  0.581533  0.073894  1
  O  O5  1  0.094310  0.017111  0.289446  1
  O  O6  1  0.755432  0.429809  0.802388  1
  O  O7  1  0.817362  0.458049  0.702646  1
  O  O8  1  0.420132  0.182463  0.033678  1
  O  O9  1  0.261304  0.922063  0.778122  1
  O  O10  1  0.268685  0.821195  0.319166  1
  O  O11  1  0.226308  0.029099  0.021953  1
  O  O12  1  0.745870  0.557615  0.170769  1
