# generated using pymatgen
data_Ho4MgIrPt2
_symmetry_space_group_name_H-M   'P 1'
_cell_length_a   10.83988100
_cell_length_b   10.83988100
_cell_length_c   6.19134900
_cell_angle_alpha   90.00000000
_cell_angle_beta   90.00000000
_cell_angle_gamma   90.00000000
_symmetry_Int_Tables_number   1
_chemical_formula_structural   Ho4MgIrPt2
_chemical_formula_sum   'Ho16 Mg4 Ir4 Pt8'
_cell_volume   727.50220596
_cell_formula_units_Z   4
loop_
 _symmetry_equiv_pos_site_id
 _symmetry_equiv_pos_as_xyz
  1  'x, y, z'
loop_
 _atom_site_type_symbol
 _atom_site_label
 _atom_site_symmetry_multiplicity
 _atom_site_fract_x
 _atom_site_fract_y
 _atom_site_fract_z
 _atom_site_occupancy
  Ho  Ho0  1  0.289912  0.086844  0.375706  1
  Ho  Ho1  1  0.289912  0.913156  0.875706  1
  Ho  Ho2  1  0.710088  0.086844  0.875706  1
  Ho  Ho3  1  0.710088  0.913156  0.375706  1
  Ho  Ho4  1  0.586844  0.789912  0.875706  1
  Ho  Ho5  1  0.586844  0.210088  0.375706  1
  Ho  Ho6  1  0.413156  0.789912  0.375706  1
  Ho  Ho7  1  0.413156  0.210088  0.875706  1
  Ho  Ho8  1  0.210088  0.413156  0.624294  1
  Ho  Ho9  1  0.210088  0.586844  0.124294  1
  Ho  Ho10  1  0.789912  0.413156  0.124294  1
  Ho  Ho11  1  0.789912  0.586844  0.624294  1
  Ho  Ho12  1  0.913156  0.710088  0.124294  1
  Ho  Ho13  1  0.913156  0.289912  0.624294  1
  Ho  Ho14  1  0.086844  0.710088  0.624294  1
  Ho  Ho15  1  0.086844  0.289912  0.124294  1
  Mg  Mg16  1  0.000000  0.000000  0.500000  1
  Mg  Mg17  1  0.000000  0.000000  0.000000  1
  Mg  Mg18  1  0.500000  0.500000  0.000000  1
  Mg  Mg19  1  0.500000  0.500000  0.500000  1
  Ir  Ir20  1  0.500000  0.000000  0.118462  1
  Ir  Ir21  1  0.500000  0.000000  0.618462  1
  Ir  Ir22  1  0.000000  0.500000  0.881538  1
  Ir  Ir23  1  0.000000  0.500000  0.381538  1
  Pt  Pt24  1  0.847552  0.152448  0.250000  1
  Pt  Pt25  1  0.847552  0.847552  0.750000  1
  Pt  Pt26  1  0.152448  0.152448  0.750000  1
  Pt  Pt27  1  0.152448  0.847552  0.250000  1
  Pt  Pt28  1  0.652448  0.347552  0.750000  1
  Pt  Pt29  1  0.652448  0.652448  0.250000  1
  Pt  Pt30  1  0.347552  0.347552  0.250000  1
  Pt  Pt31  1  0.347552  0.652448  0.750000  1
