# generated using pymatgen
data_Sm3Y3PtBr10
_symmetry_space_group_name_H-M   'P 1'
_cell_length_a   7.42204524
_cell_length_b   9.34920673
_cell_length_c   9.42326212
_cell_angle_alpha   108.34150194
_cell_angle_beta   96.56547537
_cell_angle_gamma   105.56584705
_symmetry_Int_Tables_number   1
_chemical_formula_structural   Sm3Y3PtBr10
_chemical_formula_sum   'Sm3 Y3 Pt1 Br10'
_cell_volume   583.60002619
_cell_formula_units_Z   1
loop_
 _symmetry_equiv_pos_site_id
 _symmetry_equiv_pos_as_xyz
  1  'x, y, z'
loop_
 _atom_site_type_symbol
 _atom_site_label
 _atom_site_symmetry_multiplicity
 _atom_site_fract_x
 _atom_site_fract_y
 _atom_site_fract_z
 _atom_site_occupancy
  Sm  Sm0  1  0.873404  0.954732  0.251528  1
  Sm  Sm1  1  0.127574  0.045538  0.749027  1
  Sm  Sm2  1  0.026805  0.694956  0.902838  1
  Y  Y3  1  0.972712  0.300437  0.095561  1
  Y  Y4  1  0.636399  0.864668  0.822124  1
  Y  Y5  1  0.363501  0.138255  0.178665  1
  Pt  Pt6  1  0.000189  0.999990  0.000204  1
  Br  Br7  1  0.638596  0.548062  0.727085  1
  Br  Br8  1  0.352112  0.452447  0.270572  1
  Br  Br9  1  0.741768  0.914609  0.545758  1
  Br  Br10  1  0.259670  0.085809  0.454050  1
  Br  Br11  1  0.914394  0.626361  0.174217  1
  Br  Br12  1  0.084762  0.367483  0.829405  1
  Br  Br13  1  0.551879  0.178400  0.917726  1
  Br  Br14  1  0.451679  0.824976  0.084711  1
  Br  Br15  1  0.222881  0.742604  0.652201  1
  Br  Br16  1  0.781678  0.260672  0.344326  1
