# generated using pymatgen
data_CePrCdRh2
_symmetry_space_group_name_H-M   'P 1'
_cell_length_a   7.76333863
_cell_length_b   7.76333863
_cell_length_c   3.76891200
_cell_angle_alpha   90.00000000
_cell_angle_beta   90.00000000
_cell_angle_gamma   93.46928641
_symmetry_Int_Tables_number   1
_chemical_formula_structural   CePrCdRh2
_chemical_formula_sum   'Ce2 Pr2 Cd2 Rh4'
_cell_volume   226.73388542
_cell_formula_units_Z   2
loop_
 _symmetry_equiv_pos_site_id
 _symmetry_equiv_pos_as_xyz
  1  'x, y, z'
loop_
 _atom_site_type_symbol
 _atom_site_label
 _atom_site_symmetry_multiplicity
 _atom_site_fract_x
 _atom_site_fract_y
 _atom_site_fract_z
 _atom_site_occupancy
  Ce  Ce0  1  0.666215  0.166215  0.500000  1
  Ce  Ce1  1  0.333785  0.833785  0.500000  1
  Pr  Pr2  1  0.166529  0.333471  0.500000  1
  Pr  Pr3  1  0.833471  0.666529  0.500000  1
  Cd  Cd4  1  0.000000  0.000000  0.000000  1
  Cd  Cd5  1  0.500000  0.500000  0.000000  1
  Rh  Rh6  1  0.151244  0.651244  0.000000  1
  Rh  Rh7  1  0.848756  0.348756  0.000000  1
  Rh  Rh8  1  0.626954  0.873046  0.000000  1
  Rh  Rh9  1  0.373046  0.126954  0.000000  1
