# generated using pymatgen
data_Lu5CoBi2
_symmetry_space_group_name_H-M   'P 1'
_cell_length_a   7.81013300
_cell_length_b   8.81649600
_cell_length_c   12.18636900
_cell_angle_alpha   90.00000000
_cell_angle_beta   90.00000000
_cell_angle_gamma   90.00000000
_symmetry_Int_Tables_number   1
_chemical_formula_structural   Lu5CoBi2
_chemical_formula_sum   'Lu20 Co4 Bi8'
_cell_volume   839.12907403
_cell_formula_units_Z   4
loop_
 _symmetry_equiv_pos_site_id
 _symmetry_equiv_pos_as_xyz
  1  'x, y, z'
loop_
 _atom_site_type_symbol
 _atom_site_label
 _atom_site_symmetry_multiplicity
 _atom_site_fract_x
 _atom_site_fract_y
 _atom_site_fract_z
 _atom_site_occupancy
  Lu  Lu0  1  0.346177  0.750000  0.699419  1
  Lu  Lu1  1  0.653823  0.250000  0.300581  1
  Lu  Lu2  1  0.846177  0.250000  0.800581  1
  Lu  Lu3  1  0.153823  0.750000  0.199419  1
  Lu  Lu4  1  0.886644  0.750000  0.812423  1
  Lu  Lu5  1  0.113356  0.250000  0.187577  1
  Lu  Lu6  1  0.386644  0.250000  0.687577  1
  Lu  Lu7  1  0.613356  0.750000  0.312423  1
  Lu  Lu8  1  0.673468  0.538481  0.562601  1
  Lu  Lu9  1  0.326532  0.461519  0.437399  1
  Lu  Lu10  1  0.173468  0.461519  0.937399  1
  Lu  Lu11  1  0.326532  0.038481  0.437399  1
  Lu  Lu12  1  0.826532  0.538481  0.062601  1
  Lu  Lu13  1  0.673468  0.961519  0.562601  1
  Lu  Lu14  1  0.826532  0.961519  0.062601  1
  Lu  Lu15  1  0.173468  0.038481  0.937399  1
  Lu  Lu16  1  0.056016  0.750000  0.498079  1
  Lu  Lu17  1  0.943984  0.250000  0.501921  1
  Lu  Lu18  1  0.556016  0.250000  0.001921  1
  Lu  Lu19  1  0.443984  0.750000  0.998079  1
  Co  Co20  1  0.067366  0.750000  0.991824  1
  Co  Co21  1  0.932634  0.250000  0.008176  1
  Co  Co22  1  0.567366  0.250000  0.508176  1
  Co  Co23  1  0.432634  0.750000  0.491824  1
  Bi  Bi24  1  0.570373  0.510298  0.826892  1
  Bi  Bi25  1  0.429627  0.489702  0.173108  1
  Bi  Bi26  1  0.070373  0.489702  0.673108  1
  Bi  Bi27  1  0.429627  0.010298  0.173108  1
  Bi  Bi28  1  0.929627  0.510298  0.326892  1
  Bi  Bi29  1  0.570373  0.989702  0.826892  1
  Bi  Bi30  1  0.929627  0.989702  0.326892  1
  Bi  Bi31  1  0.070373  0.010298  0.673108  1
