# generated using pymatgen
data_Ba4Ca3YbBi12
_symmetry_space_group_name_H-M   'P 1'
_cell_length_a   6.81775433
_cell_length_b   7.04556434
_cell_length_c   15.15266100
_cell_angle_alpha   90.00000000
_cell_angle_beta   90.00000000
_cell_angle_gamma   90.03549319
_symmetry_Int_Tables_number   1
_chemical_formula_structural   Ba4Ca3YbBi12
_chemical_formula_sum   'Ba4 Ca3 Yb1 Bi12'
_cell_volume   727.85682157
_cell_formula_units_Z   1
loop_
 _symmetry_equiv_pos_site_id
 _symmetry_equiv_pos_as_xyz
  1  'x, y, z'
loop_
 _atom_site_type_symbol
 _atom_site_label
 _atom_site_symmetry_multiplicity
 _atom_site_fract_x
 _atom_site_fract_y
 _atom_site_fract_z
 _atom_site_occupancy
  Ba  Ba0  1  0.543974  0.499996  0.249983  1
  Ba  Ba1  1  0.456025  0.500018  0.750014  1
  Ba  Ba2  1  0.956026  0.000004  0.249983  1
  Ba  Ba3  1  0.043975  0.999982  0.750014  1
  Ca  Ca4  1  0.750000  0.750000  0.999336  1
  Ca  Ca5  1  0.250000  0.250000  0.000656  1
  Ca  Ca6  1  0.750000  0.250000  0.500665  1
  Yb  Yb7  1  0.250000  0.750000  0.499372  1
  Bi  Bi8  1  0.750000  0.750000  0.447688  1
  Bi  Bi9  1  0.250000  0.250000  0.552315  1
  Bi  Bi10  1  0.750000  0.250000  0.052370  1
  Bi  Bi11  1  0.250000  0.750000  0.947624  1
  Bi  Bi12  1  0.064632  0.551229  0.144280  1
  Bi  Bi13  1  0.935346  0.448771  0.855732  1
  Bi  Bi14  1  0.064831  0.448858  0.355737  1
  Bi  Bi15  1  0.435169  0.051142  0.355737  1
  Bi  Bi16  1  0.935461  0.551390  0.644241  1
  Bi  Bi17  1  0.564539  0.948610  0.644241  1
  Bi  Bi18  1  0.435368  0.948771  0.144280  1
  Bi  Bi19  1  0.564654  0.051229  0.855732  1
