# generated using pymatgen
data_CeHo2PdRu2
_symmetry_space_group_name_H-M   'P 1'
_cell_length_a   3.41002000
_cell_length_b   3.41002000
_cell_length_c   10.55168600
_cell_angle_alpha   90.00000000
_cell_angle_beta   90.00000000
_cell_angle_gamma   90.00000000
_symmetry_Int_Tables_number   1
_chemical_formula_structural   CeHo2PdRu2
_chemical_formula_sum   'Ce1 Ho2 Pd1 Ru2'
_cell_volume   122.69749923
_cell_formula_units_Z   1
loop_
 _symmetry_equiv_pos_site_id
 _symmetry_equiv_pos_as_xyz
  1  'x, y, z'
loop_
 _atom_site_type_symbol
 _atom_site_label
 _atom_site_symmetry_multiplicity
 _atom_site_fract_x
 _atom_site_fract_y
 _atom_site_fract_z
 _atom_site_occupancy
  Ce  Ce0  1  0.000000  0.000000  0.000000  1
  Ho  Ho1  1  0.000000  0.000000  0.325926  1
  Ho  Ho2  1  0.000000  0.000000  0.674073  1
  Pd  Pd3  1  0.500001  0.500001  0.500000  1
  Ru  Ru4  1  0.500001  0.500001  0.162261  1
  Ru  Ru5  1  0.500001  0.500001  0.837739  1
