# generated using pymatgen
data_Gd16Tm4Ir11Os
_symmetry_space_group_name_H-M   'P 1'
_cell_length_a   10.86336900
_cell_length_b   10.86336900
_cell_length_c   6.38487000
_cell_angle_alpha   90.00000000
_cell_angle_beta   90.00000000
_cell_angle_gamma   90.00000000
_symmetry_Int_Tables_number   1
_chemical_formula_structural   Gd16Tm4Ir11Os
_chemical_formula_sum   'Gd16 Tm4 Ir11 Os1'
_cell_volume   753.49629714
_cell_formula_units_Z   1
loop_
 _symmetry_equiv_pos_site_id
 _symmetry_equiv_pos_as_xyz
  1  'x, y, z'
loop_
 _atom_site_type_symbol
 _atom_site_label
 _atom_site_symmetry_multiplicity
 _atom_site_fract_x
 _atom_site_fract_y
 _atom_site_fract_z
 _atom_site_occupancy
  Gd  Gd0  1  0.290361  0.087307  0.376925  1
  Gd  Gd1  1  0.291060  0.912591  0.880796  1
  Gd  Gd2  1  0.708940  0.087409  0.880796  1
  Gd  Gd3  1  0.709639  0.912693  0.376925  1
  Gd  Gd4  1  0.587409  0.791060  0.880796  1
  Gd  Gd5  1  0.587307  0.209639  0.376925  1
  Gd  Gd6  1  0.412693  0.790361  0.376925  1
  Gd  Gd7  1  0.412591  0.208940  0.880796  1
  Gd  Gd8  1  0.210855  0.412090  0.621342  1
  Gd  Gd9  1  0.210647  0.587674  0.120905  1
  Gd  Gd10  1  0.789353  0.412326  0.120905  1
  Gd  Gd11  1  0.789145  0.587910  0.621342  1
  Gd  Gd12  1  0.912326  0.710647  0.120905  1
  Gd  Gd13  1  0.912090  0.289145  0.621342  1
  Gd  Gd14  1  0.087910  0.710855  0.621342  1
  Gd  Gd15  1  0.087674  0.289353  0.120905  1
  Tm  Tm16  1  0.000000  0.000000  0.499522  1
  Tm  Tm17  1  0.000000  0.000000  0.999359  1
  Tm  Tm18  1  0.500000  0.500000  0.999359  1
  Tm  Tm19  1  0.500000  0.500000  0.499522  1
  Ir  Ir20  1  0.850066  0.152140  0.250141  1
  Ir  Ir21  1  0.849827  0.848179  0.749436  1
  Ir  Ir22  1  0.150173  0.151821  0.749436  1
  Ir  Ir23  1  0.149934  0.847860  0.250141  1
  Ir  Ir24  1  0.651821  0.349827  0.749436  1
  Ir  Ir25  1  0.652140  0.649934  0.250141  1
  Ir  Ir26  1  0.347860  0.350066  0.250141  1
  Ir  Ir27  1  0.348179  0.650173  0.749436  1
  Ir  Ir28  1  0.500000  0.000000  0.623867  1
  Ir  Ir29  1  0.000000  0.500000  0.876243  1
  Ir  Ir30  1  0.000000  0.500000  0.377573  1
  Os  Os31  1  0.500000  0.000000  0.126370  1
