# generated using pymatgen
data_SmY6CoI12
_symmetry_space_group_name_H-M   'P 1'
_cell_length_a   9.80938333
_cell_length_b   9.76457241
_cell_length_c   9.75790139
_cell_angle_alpha   106.69839330
_cell_angle_beta   106.93086208
_cell_angle_gamma   106.93632377
_symmetry_Int_Tables_number   1
_chemical_formula_structural   SmY6CoI12
_chemical_formula_sum   'Sm1 Y6 Co1 I12'
_cell_volume   781.44066070
_cell_formula_units_Z   1
loop_
 _symmetry_equiv_pos_site_id
 _symmetry_equiv_pos_as_xyz
  1  'x, y, z'
loop_
 _atom_site_type_symbol
 _atom_site_label
 _atom_site_symmetry_multiplicity
 _atom_site_fract_x
 _atom_site_fract_y
 _atom_site_fract_z
 _atom_site_occupancy
  Sm  Sm0  1  0.707440  0.978243  0.906172  1
  Y  Y1  1  0.500504  0.499969  0.500179  1
  Y  Y2  1  0.022660  0.092299  0.288889  1
  Y  Y3  1  0.093545  0.288833  0.021921  1
  Y  Y4  1  0.287802  0.021790  0.092386  1
  Y  Y5  1  0.978197  0.907651  0.711364  1
  Y  Y6  1  0.908441  0.711432  0.978514  1
  Co  Co7  1  0.999888  0.000168  0.000002  1
  I  I8  1  0.161173  0.462291  0.385504  1
  I  I9  1  0.462732  0.385601  0.161013  1
  I  I10  1  0.385803  0.160838  0.462647  1
  I  I11  1  0.839486  0.537676  0.614427  1
  I  I12  1  0.537072  0.610784  0.838662  1
  I  I13  1  0.614128  0.837192  0.533251  1
  I  I14  1  0.678162  0.072529  0.228919  1
  I  I15  1  0.071172  0.224057  0.677303  1
  I  I16  1  0.224542  0.677283  0.071186  1
  I  I17  1  0.319721  0.928138  0.774973  1
  I  I18  1  0.929068  0.776041  0.322737  1
  I  I19  1  0.778465  0.327185  0.929951  1
