# generated using pymatgen
data_PrTa9S16
_symmetry_space_group_name_H-M   'P 1'
_cell_length_a   6.67053000
_cell_length_b   6.67053272
_cell_length_c   13.26462900
_cell_angle_alpha   90.00005154
_cell_angle_beta   89.99996564
_cell_angle_gamma   119.99999643
_symmetry_Int_Tables_number   1
_chemical_formula_structural   PrTa9S16
_chemical_formula_sum   'Pr1 Ta9 S16'
_cell_volume   511.14794070
_cell_formula_units_Z   1
loop_
 _symmetry_equiv_pos_site_id
 _symmetry_equiv_pos_as_xyz
  1  'x, y, z'
loop_
 _atom_site_type_symbol
 _atom_site_label
 _atom_site_symmetry_multiplicity
 _atom_site_fract_x
 _atom_site_fract_y
 _atom_site_fract_z
 _atom_site_occupancy
  Pr  Pr0  1  0.000000  0.000000  0.500000  1
  Ta  Ta1  1  0.505186  0.494814  0.767984  1
  Ta  Ta2  1  0.010373  0.505187  0.232017  1
  Ta  Ta3  1  0.494813  0.989627  0.232017  1
  Ta  Ta4  1  0.505187  0.010373  0.767983  1
  Ta  Ta5  1  0.989627  0.494813  0.767983  1
  Ta  Ta6  1  0.494814  0.505186  0.232016  1
  Ta  Ta7  1  0.000000  0.000000  0.765031  1
  Ta  Ta8  1  0.000000  0.000000  0.234969  1
  Ta  Ta9  1  0.000000  0.000000  0.000000  1
  S  S10  1  0.828866  0.171134  0.350343  1
  S  S11  1  0.828866  0.657732  0.350343  1
  S  S12  1  0.342268  0.171134  0.350343  1
  S  S13  1  0.666199  0.833099  0.885595  1
  S  S14  1  0.171134  0.342268  0.649657  1
  S  S15  1  0.166901  0.833099  0.885594  1
  S  S16  1  0.166901  0.333802  0.885595  1
  S  S17  1  0.833099  0.166901  0.114406  1
  S  S18  1  0.333801  0.166901  0.114405  1
  S  S19  1  0.657732  0.828866  0.649657  1
  S  S20  1  0.333334  0.666667  0.111771  1
  S  S21  1  0.666667  0.333334  0.645893  1
  S  S22  1  0.666666  0.333333  0.888229  1
  S  S23  1  0.333333  0.666666  0.354107  1
  S  S24  1  0.833099  0.666198  0.114405  1
  S  S25  1  0.171134  0.828866  0.649657  1
