# generated using pymatgen
data_Dy5ThAl18
_symmetry_space_group_name_H-M   'P 1'
_cell_length_a   14.56942248
_cell_length_b   14.56942208
_cell_length_c   14.56942406
_cell_angle_alpha   24.73145422
_cell_angle_beta   24.73145626
_cell_angle_gamma   24.73145407
_symmetry_Int_Tables_number   1
_chemical_formula_structural   Dy5ThAl18
_chemical_formula_sum   'Dy5 Th1 Al18'
_cell_volume   476.05468847
_cell_formula_units_Z   1
loop_
 _symmetry_equiv_pos_site_id
 _symmetry_equiv_pos_as_xyz
  1  'x, y, z'
loop_
 _atom_site_type_symbol
 _atom_site_label
 _atom_site_symmetry_multiplicity
 _atom_site_fract_x
 _atom_site_fract_y
 _atom_site_fract_z
 _atom_site_occupancy
  Dy  Dy0  1  0.999872  0.999872  0.999872  1
  Dy  Dy1  1  0.499834  0.499834  0.499834  1
  Dy  Dy2  1  0.108890  0.108890  0.108890  1
  Dy  Dy3  1  0.891178  0.891178  0.891178  1
  Dy  Dy4  1  0.391735  0.391735  0.391735  1
  Th  Th5  1  0.608683  0.608683  0.608683  1
  Al  Al6  1  0.929013  0.366078  0.366078  1
  Al  Al7  1  0.427207  0.869410  0.869410  1
  Al  Al8  1  0.366078  0.366078  0.929013  1
  Al  Al9  1  0.869410  0.869410  0.427207  1
  Al  Al10  1  0.366078  0.929013  0.366078  1
  Al  Al11  1  0.869410  0.427207  0.869410  1
  Al  Al12  1  0.574173  0.130607  0.130607  1
  Al  Al13  1  0.073787  0.630681  0.630681  1
  Al  Al14  1  0.130607  0.130607  0.574173  1
  Al  Al15  1  0.630681  0.630681  0.073787  1
  Al  Al16  1  0.130607  0.574173  0.130607  1
  Al  Al17  1  0.630681  0.073787  0.630681  1
  Al  Al18  1  0.499075  0.499075  0.005031  1
  Al  Al19  1  0.998527  0.998527  0.501846  1
  Al  Al20  1  0.499075  0.005031  0.499075  1
  Al  Al21  1  0.998527  0.501846  0.998527  1
  Al  Al22  1  0.005031  0.499075  0.499075  1
  Al  Al23  1  0.501846  0.998527  0.998527  1
