# generated using pymatgen
data_Nd4Fe(RhO4)3
_symmetry_space_group_name_H-M   'P 1'
_cell_length_a   5.46403481
_cell_length_b   5.80802172
_cell_length_c   7.85047383
_cell_angle_alpha   90.65118039
_cell_angle_beta   90.42551604
_cell_angle_gamma   90.08900731
_symmetry_Int_Tables_number   1
_chemical_formula_structural   Nd4Fe(RhO4)3
_chemical_formula_sum   'Nd4 Fe1 Rh3 O12'
_cell_volume   249.11332053
_cell_formula_units_Z   1
loop_
 _symmetry_equiv_pos_site_id
 _symmetry_equiv_pos_as_xyz
  1  'x, y, z'
loop_
 _atom_site_type_symbol
 _atom_site_label
 _atom_site_symmetry_multiplicity
 _atom_site_fract_x
 _atom_site_fract_y
 _atom_site_fract_z
 _atom_site_occupancy
  Nd  Nd0  1  0.026714  0.929571  0.751517  1
  Nd  Nd1  1  0.515869  0.570554  0.248313  1
  Nd  Nd2  1  0.484131  0.429446  0.751687  1
  Nd  Nd3  1  0.973286  0.070429  0.248483  1
  Fe  Fe4  1  0.000000  0.500000  0.000000  1
  Rh  Rh5  1  0.000000  0.500000  0.500000  1
  Rh  Rh6  1  0.500000  0.000000  0.500000  1
  Rh  Rh7  1  0.500000  0.000000  0.000000  1
  O  O8  1  0.688661  0.301876  0.440503  1
  O  O9  1  0.190614  0.198849  0.558597  1
  O  O10  1  0.804389  0.793566  0.051037  1
  O  O11  1  0.301827  0.696916  0.950682  1
  O  O12  1  0.311339  0.698124  0.559497  1
  O  O13  1  0.809386  0.801151  0.441403  1
  O  O14  1  0.195611  0.206434  0.948963  1
  O  O15  1  0.698173  0.303084  0.049318  1
  O  O16  1  0.100009  0.468580  0.246833  1
  O  O17  1  0.616286  0.036497  0.750423  1
  O  O18  1  0.383714  0.963503  0.249577  1
  O  O19  1  0.899991  0.531420  0.753167  1
