# generated using pymatgen
data_Y8Er8MgCo4Ag3
_symmetry_space_group_name_H-M   'P 1'
_cell_length_a   9.40493613
_cell_length_b   9.42584753
_cell_length_c   9.42502900
_cell_angle_alpha   60.00287607
_cell_angle_beta   59.92930621
_cell_angle_gamma   60.06380327
_symmetry_Int_Tables_number   1
_chemical_formula_structural   Y8Er8MgCo4Ag3
_chemical_formula_sum   'Y8 Er8 Mg1 Co4 Ag3'
_cell_volume   590.78516578
_cell_formula_units_Z   1
loop_
 _symmetry_equiv_pos_site_id
 _symmetry_equiv_pos_as_xyz
  1  'x, y, z'
loop_
 _atom_site_type_symbol
 _atom_site_label
 _atom_site_symmetry_multiplicity
 _atom_site_fract_x
 _atom_site_fract_y
 _atom_site_fract_z
 _atom_site_occupancy
  Y  Y0  1  0.184914  0.185894  0.814596  1
  Y  Y1  1  0.810113  0.812326  0.188780  1
  Y  Y2  1  0.936409  0.561926  0.561746  1
  Y  Y3  1  0.561635  0.938165  0.938358  1
  Y  Y4  1  0.561635  0.938165  0.561842  1
  Y  Y5  1  0.936409  0.561926  0.939919  1
  Y  Y6  1  0.560817  0.561863  0.938660  1
  Y  Y7  1  0.937002  0.939803  0.561598  1
  Er  Er8  1  0.346354  0.345217  0.343644  1
  Er  Er9  1  0.346354  0.345217  0.964785  1
  Er  Er10  1  0.345866  0.964625  0.344754  1
  Er  Er11  1  0.952883  0.349212  0.348952  1
  Er  Er12  1  0.809639  0.188330  0.189220  1
  Er  Er13  1  0.185301  0.813472  0.814326  1
  Er  Er14  1  0.185301  0.813472  0.186901  1
  Er  Er15  1  0.809639  0.188330  0.812811  1
  Mg  Mg16  1  0.288532  0.570549  0.570459  1
  Co  Co17  1  0.138745  0.142298  0.143879  1
  Co  Co18  1  0.138745  0.142298  0.575078  1
  Co  Co19  1  0.141631  0.574796  0.141786  1
  Co  Co20  1  0.574748  0.143918  0.140667  1
  Ag  Ag21  1  0.582354  0.582123  0.582182  1
  Ag  Ag22  1  0.582354  0.582123  0.253340  1
  Ag  Ag23  1  0.582617  0.253951  0.581716  1
