# generated using pymatgen
data_YHg2O
_symmetry_space_group_name_H-M   'P 1'
_cell_length_a   5.58185000
_cell_length_b   5.65059976
_cell_length_c   10.87364758
_cell_angle_alpha   88.93738522
_cell_angle_beta   90.00000000
_cell_angle_gamma   90.00000000
_symmetry_Int_Tables_number   1
_chemical_formula_structural   YHg2O
_chemical_formula_sum   'Y4 Hg8 O4'
_cell_volume   342.90456537
_cell_formula_units_Z   4
loop_
 _symmetry_equiv_pos_site_id
 _symmetry_equiv_pos_as_xyz
  1  'x, y, z'
loop_
 _atom_site_type_symbol
 _atom_site_label
 _atom_site_symmetry_multiplicity
 _atom_site_fract_x
 _atom_site_fract_y
 _atom_site_fract_z
 _atom_site_occupancy
  Y  Y0  1  0.572661  0.492570  0.098974  1
  Y  Y1  1  0.072471  0.001340  0.098917  1
  Y  Y2  1  0.572472  0.998660  0.901083  1
  Y  Y3  1  0.072661  0.507428  0.901026  1
  Hg  Hg4  1  0.577406  0.023204  0.281171  1
  Hg  Hg5  1  0.078808  0.936457  0.416449  1
  Hg  Hg6  1  0.578807  0.063541  0.583551  1
  Hg  Hg7  1  0.077405  0.976794  0.718829  1
  Hg  Hg8  1  0.076450  0.449005  0.283462  1
  Hg  Hg9  1  0.576610  0.534805  0.412036  1
  Hg  Hg10  1  0.076611  0.465195  0.587965  1
  Hg  Hg11  1  0.576451  0.550997  0.716538  1
  O  O12  1  0.822466  0.250491  0.995701  1
  O  O13  1  0.823147  0.749672  0.004314  1
  O  O14  1  0.323148  0.250328  0.995686  1
  O  O15  1  0.322467  0.749511  0.004299  1
