# generated using pymatgen
data_Rb2Co(TeO4)3
_symmetry_space_group_name_H-M   'P 1'
_cell_length_a   7.07716898
_cell_length_b   7.24870929
_cell_length_c   7.04472422
_cell_angle_alpha   90.00000258
_cell_angle_beta   61.65709422
_cell_angle_gamma   120.80509259
_symmetry_Int_Tables_number   1
_chemical_formula_structural   Rb2Co(TeO4)3
_chemical_formula_sum   'Rb2 Co1 Te3 O12'
_cell_volume   258.68253998
_cell_formula_units_Z   1
loop_
 _symmetry_equiv_pos_site_id
 _symmetry_equiv_pos_as_xyz
  1  'x, y, z'
loop_
 _atom_site_type_symbol
 _atom_site_label
 _atom_site_symmetry_multiplicity
 _atom_site_fract_x
 _atom_site_fract_y
 _atom_site_fract_z
 _atom_site_occupancy
  Rb  Rb0  1  0.260180  0.127434  0.631654  1
  Rb  Rb1  1  0.739820  0.867254  0.368346  1
  Co  Co2  1  0.000000  0.497380  0.000000  1
  Te  Te3  1  0.499995  0.497275  0.999974  1
  Te  Te4  1  0.500005  0.997280  0.000026  1
  Te  Te5  1  0.000000  0.497276  0.500000  1
  O  O6  1  0.656270  0.825453  0.931775  1
  O  O7  1  0.859642  0.427164  0.312972  1
  O  O8  1  0.244330  0.424839  0.931013  1
  O  O9  1  0.259577  0.825223  0.330167  1
  O  O10  1  0.244297  0.814232  0.931028  1
  O  O11  1  0.259586  0.428993  0.330154  1
  O  O12  1  0.343730  0.169182  0.068225  1
  O  O13  1  0.140358  0.567522  0.687028  1
  O  O14  1  0.755703  0.569934  0.068972  1
  O  O15  1  0.740414  0.169407  0.669846  1
  O  O16  1  0.755670  0.180509  0.068987  1
  O  O17  1  0.740423  0.565646  0.669833  1
