# generated using pymatgen
data_Tb8Dy5Lu7Pb16
_symmetry_space_group_name_H-M   'P 1'
_cell_length_a   8.16280047
_cell_length_b   8.24494211
_cell_length_c   15.58804401
_cell_angle_alpha   89.99705215
_cell_angle_beta   90.08107947
_cell_angle_gamma   90.19662212
_symmetry_Int_Tables_number   1
_chemical_formula_structural   Tb8Dy5Lu7Pb16
_chemical_formula_sum   'Tb8 Dy5 Lu7 Pb16'
_cell_volume   1049.09646133
_cell_formula_units_Z   1
loop_
 _symmetry_equiv_pos_site_id
 _symmetry_equiv_pos_as_xyz
  1  'x, y, z'
loop_
 _atom_site_type_symbol
 _atom_site_label
 _atom_site_symmetry_multiplicity
 _atom_site_fract_x
 _atom_site_fract_y
 _atom_site_fract_z
 _atom_site_occupancy
  Tb  Tb0  1  0.534977  0.323472  0.900655  1
  Tb  Tb1  1  0.035856  0.176732  0.599190  1
  Tb  Tb2  1  0.465097  0.677675  0.401462  1
  Tb  Tb3  1  0.963961  0.823824  0.099276  1
  Tb  Tb4  1  0.466788  0.677861  0.098308  1
  Tb  Tb5  1  0.967288  0.823054  0.402261  1
  Tb  Tb6  1  0.533223  0.323320  0.598601  1
  Tb  Tb7  1  0.034539  0.174891  0.899695  1
  Dy  Dy8  1  0.125819  0.342025  0.120297  1
  Dy  Dy9  1  0.623642  0.159157  0.121784  1
  Dy  Dy10  1  0.123380  0.341769  0.379236  1
  Dy  Dy11  1  0.376047  0.841885  0.621365  1
  Dy  Dy12  1  0.876684  0.657971  0.878925  1
  Lu  Lu13  1  0.373610  0.843842  0.876534  1
  Lu  Lu14  1  0.872642  0.656269  0.622067  1
  Lu  Lu15  1  0.626930  0.156234  0.379000  1
  Lu  Lu16  1  0.206797  0.505961  0.750131  1
  Lu  Lu17  1  0.706881  0.995020  0.749460  1
  Lu  Lu18  1  0.792181  0.494775  0.251437  1
  Lu  Lu19  1  0.293566  0.004738  0.249935  1
  Pb  Pb20  1  0.283042  0.031543  0.041759  1
  Pb  Pb21  1  0.781017  0.464910  0.457761  1
  Pb  Pb22  1  0.719466  0.963897  0.543018  1
  Pb  Pb23  1  0.220065  0.536707  0.955343  1
  Pb  Pb24  1  0.713138  0.965550  0.955488  1
  Pb  Pb25  1  0.212699  0.535037  0.544818  1
  Pb  Pb26  1  0.287692  0.035495  0.455745  1
  Pb  Pb27  1  0.782989  0.466947  0.044550  1
  Pb  Pb28  1  0.569858  0.626481  0.750395  1
  Pb  Pb29  1  0.068836  0.873304  0.748839  1
  Pb  Pb30  1  0.431030  0.373713  0.251864  1
  Pb  Pb31  1  0.929547  0.124774  0.250497  1
  Pb  Pb32  1  0.346818  0.155917  0.750005  1
  Pb  Pb33  1  0.846786  0.344326  0.749335  1
  Pb  Pb34  1  0.653900  0.845248  0.250865  1
  Pb  Pb35  1  0.153206  0.655677  0.250099  1
