# generated using pymatgen
data_Ho4TiSi8Tc5
_symmetry_space_group_name_H-M   'P 1'
_cell_length_a   6.80227018
_cell_length_b   6.78709300
_cell_length_c   12.82759903
_cell_angle_alpha   90.00000000
_cell_angle_beta   90.08525888
_cell_angle_gamma   90.00000000
_symmetry_Int_Tables_number   1
_chemical_formula_structural   Ho4TiSi8Tc5
_chemical_formula_sum   'Ho8 Ti2 Si16 Tc10'
_cell_volume   592.21932259
_cell_formula_units_Z   2
loop_
 _symmetry_equiv_pos_site_id
 _symmetry_equiv_pos_as_xyz
  1  'x, y, z'
loop_
 _atom_site_type_symbol
 _atom_site_label
 _atom_site_symmetry_multiplicity
 _atom_site_fract_x
 _atom_site_fract_y
 _atom_site_fract_z
 _atom_site_occupancy
  Ho  Ho0  1  0.336487  0.995569  0.468097  1
  Ho  Ho1  1  0.501061  0.837745  0.719334  1
  Ho  Ho2  1  0.493805  0.160905  0.218340  1
  Ho  Ho3  1  0.839950  0.502688  0.279610  1
  Ho  Ho4  1  0.163513  0.495569  0.781903  1
  Ho  Ho5  1  0.660050  0.002688  0.970390  1
  Ho  Ho6  1  0.998939  0.337745  0.530666  1
  Ho  Ho7  1  0.006195  0.660905  0.031660  1
  Ti  Ti8  1  0.834920  0.167847  0.752301  1
  Ti  Ti9  1  0.665080  0.667847  0.497699  1
  Si  Si10  1  0.200580  0.122635  0.683889  1
  Si  Si11  1  0.384152  0.691252  0.934138  1
  Si  Si12  1  0.622624  0.300286  0.435114  1
  Si  Si13  1  0.693458  0.384980  0.065235  1
  Si  Si14  1  0.299420  0.622635  0.566111  1
  Si  Si15  1  0.806542  0.884980  0.184765  1
  Si  Si16  1  0.115848  0.191252  0.315862  1
  Si  Si17  1  0.877376  0.800286  0.814886  1
  Si  Si18  1  0.270959  0.979228  0.061288  1
  Si  Si19  1  0.518853  0.774075  0.306737  1
  Si  Si20  1  0.467558  0.218403  0.815728  1
  Si  Si21  1  0.784930  0.530694  0.687083  1
  Si  Si22  1  0.229041  0.479228  0.188712  1
  Si  Si23  1  0.715070  0.030694  0.562917  1
  Si  Si24  1  0.981147  0.274075  0.943263  1
  Si  Si25  1  0.032442  0.718403  0.434272  1
  Tc  Tc26  1  0.335602  0.333450  0.001100  1
  Tc  Tc27  1  0.164398  0.833450  0.248900  1
  Tc  Tc28  1  0.175686  0.988684  0.869044  1
  Tc  Tc29  1  0.515871  0.686805  0.117471  1
  Tc  Tc30  1  0.498144  0.325129  0.622399  1
  Tc  Tc31  1  0.687140  0.499623  0.878833  1
  Tc  Tc32  1  0.324314  0.488684  0.380956  1
  Tc  Tc33  1  0.812860  0.999623  0.371167  1
  Tc  Tc34  1  0.984129  0.186805  0.132529  1
  Tc  Tc35  1  0.001856  0.825129  0.627601  1
