# generated using pymatgen
data_BaH12(OsPb)2
_symmetry_space_group_name_H-M   'P 1'
_cell_length_a   5.10453000
_cell_length_b   5.10452893
_cell_length_c   8.82607900
_cell_angle_alpha   90.00000000
_cell_angle_beta   90.00000000
_cell_angle_gamma   119.99999395
_symmetry_Int_Tables_number   1
_chemical_formula_structural   BaH12(OsPb)2
_chemical_formula_sum   'Ba1 H12 Os2 Pb2'
_cell_volume   199.16356841
_cell_formula_units_Z   1
loop_
 _symmetry_equiv_pos_site_id
 _symmetry_equiv_pos_as_xyz
  1  'x, y, z'
loop_
 _atom_site_type_symbol
 _atom_site_label
 _atom_site_symmetry_multiplicity
 _atom_site_fract_x
 _atom_site_fract_y
 _atom_site_fract_z
 _atom_site_occupancy
  Ba  Ba0  1  0.000000  0.000000  0.000000  1
  H  H1  1  0.148250  0.851750  0.300569  1
  H  H2  1  0.703500  0.851750  0.300569  1
  H  H3  1  0.148250  0.296500  0.300569  1
  H  H4  1  0.851750  0.148250  0.699431  1
  H  H5  1  0.296500  0.148250  0.699431  1
  H  H6  1  0.851750  0.703500  0.699431  1
  H  H7  1  0.530872  0.061743  0.868966  1
  H  H8  1  0.530872  0.469128  0.868966  1
  H  H9  1  0.938257  0.469128  0.868966  1
  H  H10  1  0.469128  0.938257  0.131034  1
  H  H11  1  0.469128  0.530872  0.131034  1
  H  H12  1  0.061743  0.530872  0.131034  1
  Os  Os13  1  0.666667  0.333333  0.737173  1
  Os  Os14  1  0.333333  0.666667  0.262827  1
  Pb  Pb15  1  0.666667  0.333333  0.395980  1
  Pb  Pb16  1  0.333333  0.666667  0.604020  1
