# generated using pymatgen
data_Lu3Al2Fe7
_symmetry_space_group_name_H-M   'P 1'
_cell_length_a   5.11058600
_cell_length_b   5.11058387
_cell_length_c   16.12187800
_cell_angle_alpha   90.00000000
_cell_angle_beta   90.00000000
_cell_angle_gamma   119.99998789
_symmetry_Int_Tables_number   1
_chemical_formula_structural   Lu3Al2Fe7
_chemical_formula_sum   'Lu6 Al4 Fe14'
_cell_volume   364.65950315
_cell_formula_units_Z   2
loop_
 _symmetry_equiv_pos_site_id
 _symmetry_equiv_pos_as_xyz
  1  'x, y, z'
loop_
 _atom_site_type_symbol
 _atom_site_label
 _atom_site_symmetry_multiplicity
 _atom_site_fract_x
 _atom_site_fract_y
 _atom_site_fract_z
 _atom_site_occupancy
  Lu  Lu0  1  0.333333  0.666667  0.539062  1
  Lu  Lu1  1  0.666667  0.333333  0.039062  1
  Lu  Lu2  1  0.666667  0.333333  0.460938  1
  Lu  Lu3  1  0.333333  0.666667  0.960938  1
  Lu  Lu4  1  0.333333  0.666667  0.750000  1
  Lu  Lu5  1  0.666667  0.333333  0.250000  1
  Al  Al6  1  0.333333  0.666667  0.250000  1
  Al  Al7  1  0.666667  0.333333  0.750000  1
  Al  Al8  1  0.000000  0.000000  0.250000  1
  Al  Al9  1  0.000000  0.000000  0.750000  1
  Fe  Fe10  1  0.000000  0.000000  0.000000  1
  Fe  Fe11  1  0.000000  0.000000  0.500000  1
  Fe  Fe12  1  0.167438  0.334877  0.124364  1
  Fe  Fe13  1  0.832562  0.665123  0.624364  1
  Fe  Fe14  1  0.665123  0.832562  0.124364  1
  Fe  Fe15  1  0.167438  0.832562  0.124364  1
  Fe  Fe16  1  0.832562  0.167438  0.624364  1
  Fe  Fe17  1  0.334877  0.167438  0.624364  1
  Fe  Fe18  1  0.832562  0.665123  0.875636  1
  Fe  Fe19  1  0.832562  0.167438  0.875636  1
  Fe  Fe20  1  0.334877  0.167438  0.875636  1
  Fe  Fe21  1  0.665123  0.832562  0.375636  1
  Fe  Fe22  1  0.167438  0.832562  0.375636  1
  Fe  Fe23  1  0.167438  0.334877  0.375636  1
