# generated using pymatgen
data_Si4Ni8Mo12C3N
_symmetry_space_group_name_H-M   'P 1'
_cell_length_a   7.84416461
_cell_length_b   7.83022353
_cell_length_c   7.84416500
_cell_angle_alpha   59.94108930
_cell_angle_beta   60.00000257
_cell_angle_gamma   59.94109088
_symmetry_Int_Tables_number   1
_chemical_formula_structural   Si4Ni8Mo12C3N
_chemical_formula_sum   'Si4 Ni8 Mo12 C3 N1'
_cell_volume   340.38099996
_cell_formula_units_Z   1
loop_
 _symmetry_equiv_pos_site_id
 _symmetry_equiv_pos_as_xyz
  1  'x, y, z'
loop_
 _atom_site_type_symbol
 _atom_site_label
 _atom_site_symmetry_multiplicity
 _atom_site_fract_x
 _atom_site_fract_y
 _atom_site_fract_z
 _atom_site_occupancy
  Si  Si0  1  0.125000  0.125000  0.125000  1
  Si  Si1  1  0.625000  0.125000  0.125000  1
  Si  Si2  1  0.125000  0.125000  0.625000  1
  Si  Si3  1  0.125000  0.625000  0.125000  1
  Ni  Ni4  1  0.917895  0.918431  0.245779  1
  Ni  Ni5  1  0.332105  0.331569  0.332105  1
  Ni  Ni6  1  0.245779  0.918431  0.917895  1
  Ni  Ni7  1  0.331833  0.004500  0.331833  1
  Ni  Ni8  1  0.004221  0.331569  0.332105  1
  Ni  Ni9  1  0.332105  0.331569  0.004221  1
  Ni  Ni10  1  0.917895  0.918431  0.917895  1
  Ni  Ni11  1  0.918167  0.245500  0.918167  1
  Mo  Mo12  1  0.691767  0.308506  0.307960  1
  Mo  Mo13  1  0.942040  0.941494  0.558233  1
  Mo  Mo14  1  0.692000  0.693455  0.307272  1
  Mo  Mo15  1  0.691767  0.308506  0.691767  1
  Mo  Mo16  1  0.307272  0.693455  0.307272  1
  Mo  Mo17  1  0.558233  0.941494  0.558233  1
  Mo  Mo18  1  0.558233  0.941494  0.942040  1
  Mo  Mo19  1  0.942728  0.556545  0.558000  1
  Mo  Mo20  1  0.942728  0.556545  0.942728  1
  Mo  Mo21  1  0.307960  0.308506  0.691767  1
  Mo  Mo22  1  0.558000  0.556545  0.942728  1
  Mo  Mo23  1  0.307272  0.693455  0.692000  1
  C  C24  1  0.625000  0.625000  0.625000  1
  C  C25  1  0.625000  0.625000  0.125000  1
  C  C26  1  0.125000  0.625000  0.625000  1
  N  N27  1  0.625000  0.125000  0.625000  1
