# generated using pymatgen
data_YbHo3(ReC2)2
_symmetry_space_group_name_H-M   'P 1'
_cell_length_a   5.10229700
_cell_length_b   6.54160125
_cell_length_c   9.95000148
_cell_angle_alpha   88.81178529
_cell_angle_beta   90.00000000
_cell_angle_gamma   90.00000000
_symmetry_Int_Tables_number   1
_chemical_formula_structural   YbHo3(ReC2)2
_chemical_formula_sum   'Yb2 Ho6 Re4 C8'
_cell_volume   332.03170209
_cell_formula_units_Z   2
loop_
 _symmetry_equiv_pos_site_id
 _symmetry_equiv_pos_as_xyz
  1  'x, y, z'
loop_
 _atom_site_type_symbol
 _atom_site_label
 _atom_site_symmetry_multiplicity
 _atom_site_fract_x
 _atom_site_fract_y
 _atom_site_fract_z
 _atom_site_occupancy
  Yb  Yb0  1  0.750000  0.963545  0.721216  1
  Yb  Yb1  1  0.250000  0.036455  0.278784  1
  Ho  Ho2  1  0.250000  0.686484  0.554439  1
  Ho  Ho3  1  0.750000  0.313516  0.445561  1
  Ho  Ho4  1  0.750000  0.820637  0.054757  1
  Ho  Ho5  1  0.250000  0.179363  0.945243  1
  Ho  Ho6  1  0.250000  0.535322  0.221525  1
  Ho  Ho7  1  0.750000  0.464678  0.778475  1
  Re  Re8  1  0.250000  0.718609  0.862851  1
  Re  Re9  1  0.750000  0.281391  0.137149  1
  Re  Re10  1  0.750000  0.775690  0.363354  1
  Re  Re11  1  0.250000  0.224310  0.636646  1
  C  C12  1  0.250000  0.453462  0.759975  1
  C  C13  1  0.750000  0.546538  0.240025  1
  C  C14  1  0.750000  0.045445  0.260260  1
  C  C15  1  0.250000  0.954555  0.739740  1
  C  C16  1  0.250000  0.814514  0.043838  1
  C  C17  1  0.750000  0.185486  0.956162  1
  C  C18  1  0.750000  0.675996  0.545617  1
  C  C19  1  0.250000  0.324004  0.454383  1
