# generated using pymatgen
data_Yb3Lu(Al3Pd)6
_symmetry_space_group_name_H-M   'P 1'
_cell_length_a   7.64827000
_cell_length_b   7.64478035
_cell_length_c   9.47354100
_cell_angle_alpha   90.00000000
_cell_angle_beta   90.00000000
_cell_angle_gamma   119.56712929
_symmetry_Int_Tables_number   1
_chemical_formula_structural   Yb3Lu(Al3Pd)6
_chemical_formula_sum   'Yb3 Lu1 Al18 Pd6'
_cell_volume   481.78032595
_cell_formula_units_Z   1
loop_
 _symmetry_equiv_pos_site_id
 _symmetry_equiv_pos_as_xyz
  1  'x, y, z'
loop_
 _atom_site_type_symbol
 _atom_site_label
 _atom_site_symmetry_multiplicity
 _atom_site_fract_x
 _atom_site_fract_y
 _atom_site_fract_z
 _atom_site_occupancy
  Yb  Yb0  1  0.993861  0.669311  0.250000  1
  Yb  Yb1  1  0.004815  0.329761  0.750000  1
  Yb  Yb2  1  0.672034  0.997053  0.250000  1
  Lu  Lu3  1  0.329691  0.002818  0.750000  1
  Al  Al4  1  0.133047  0.132892  0.250000  1
  Al  Al5  1  0.872944  0.870486  0.750000  1
  Al  Al6  1  0.001425  0.335272  0.075339  1
  Al  Al7  1  0.000797  0.665708  0.919830  1
  Al  Al8  1  0.000797  0.665708  0.580170  1
  Al  Al9  1  0.334864  0.000242  0.425317  1
  Al  Al10  1  0.001425  0.335272  0.424661  1
  Al  Al11  1  0.664270  0.000414  0.580187  1
  Al  Al12  1  0.664270  0.000414  0.919813  1
  Al  Al13  1  0.334864  0.000242  0.074683  1
  Al  Al14  1  0.332236  0.330437  0.560804  1
  Al  Al15  1  0.666200  0.666514  0.447666  1
  Al  Al16  1  0.666200  0.666514  0.052334  1
  Al  Al17  1  0.332236  0.330437  0.939196  1
  Al  Al18  1  0.340121  0.547363  0.250000  1
  Al  Al19  1  0.655438  0.449986  0.750000  1
  Al  Al20  1  0.544153  0.340150  0.250000  1
  Al  Al21  1  0.454174  0.663684  0.750000  1
  Pd  Pd22  1  0.671561  0.327642  0.999773  1
  Pd  Pd23  1  0.327975  0.672330  0.999012  1
  Pd  Pd24  1  0.327975  0.672330  0.500988  1
  Pd  Pd25  1  0.671561  0.327642  0.500227  1
  Pd  Pd26  1  0.000533  0.999689  0.999402  1
  Pd  Pd27  1  0.000533  0.999689  0.500598  1
