# generated using pymatgen
data_Yb3YSc6(Si5Ir2)4
_symmetry_space_group_name_H-M   'P 1'
_cell_length_a   12.51766519
_cell_length_b   12.51766525
_cell_length_c   4.15448200
_cell_angle_alpha   90.00000000
_cell_angle_beta   90.00000000
_cell_angle_gamma   89.97754429
_symmetry_Int_Tables_number   1
_chemical_formula_structural   Yb3YSc6(Si5Ir2)4
_chemical_formula_sum   'Yb3 Y1 Sc6 Si20 Ir8'
_cell_volume   650.97380519
_cell_formula_units_Z   1
loop_
 _symmetry_equiv_pos_site_id
 _symmetry_equiv_pos_as_xyz
  1  'x, y, z'
loop_
 _atom_site_type_symbol
 _atom_site_label
 _atom_site_symmetry_multiplicity
 _atom_site_fract_x
 _atom_site_fract_y
 _atom_site_fract_z
 _atom_site_occupancy
  Yb  Yb0  1  0.116010  0.615723  0.500000  1
  Yb  Yb1  1  0.884277  0.383990  0.500000  1
  Yb  Yb2  1  0.614938  0.885062  0.500000  1
  Y  Y3  1  0.383993  0.116007  0.500000  1
  Sc  Sc4  1  0.673233  0.172202  0.500000  1
  Sc  Sc5  1  0.327798  0.826767  0.500000  1
  Sc  Sc6  1  0.173558  0.326442  0.500000  1
  Sc  Sc7  1  0.827640  0.672360  0.500000  1
  Sc  Sc8  1  0.000072  0.999877  0.000000  1
  Sc  Sc9  1  0.500123  0.499928  0.000000  1
  Si  Si10  1  0.567716  0.067933  0.000000  1
  Si  Si11  1  0.432067  0.932284  0.000000  1
  Si  Si12  1  0.068324  0.431676  0.000000  1
  Si  Si13  1  0.932023  0.567977  0.000000  1
  Si  Si14  1  0.200227  0.165573  0.000000  1
  Si  Si15  1  0.799209  0.834433  0.000000  1
  Si  Si16  1  0.165846  0.800110  0.000000  1
  Si  Si17  1  0.699890  0.334154  0.000000  1
  Si  Si18  1  0.834098  0.200576  0.000000  1
  Si  Si19  1  0.299424  0.665902  0.000000  1
  Si  Si20  1  0.665567  0.700791  0.000000  1
  Si  Si21  1  0.334427  0.299773  0.000000  1
  Si  Si22  1  0.006830  0.149835  0.500000  1
  Si  Si23  1  0.992795  0.849799  0.500000  1
  Si  Si24  1  0.150516  0.991764  0.500000  1
  Si  Si25  1  0.508236  0.349484  0.500000  1
  Si  Si26  1  0.849474  0.008491  0.500000  1
  Si  Si27  1  0.491509  0.650526  0.500000  1
  Si  Si28  1  0.650201  0.507205  0.500000  1
  Si  Si29  1  0.350165  0.493170  0.500000  1
  Ir  Ir30  1  0.021574  0.242759  0.000000  1
  Ir  Ir31  1  0.978536  0.757082  0.000000  1
  Ir  Ir32  1  0.243856  0.979784  0.000000  1
  Ir  Ir33  1  0.520216  0.256144  0.000000  1
  Ir  Ir34  1  0.756495  0.021018  0.000000  1
  Ir  Ir35  1  0.478982  0.743505  0.000000  1
  Ir  Ir36  1  0.742918  0.521464  0.000000  1
  Ir  Ir37  1  0.257241  0.478426  0.000000  1
