# generated using pymatgen
data_LiTa3(Co4P3)2
_symmetry_space_group_name_H-M   'P 1'
_cell_length_a   11.94513100
_cell_length_b   11.94513047
_cell_length_c   3.56406600
_cell_angle_alpha   90.00000000
_cell_angle_beta   90.00000000
_cell_angle_gamma   120.00000423
_symmetry_Int_Tables_number   1
_chemical_formula_structural   LiTa3(Co4P3)2
_chemical_formula_sum   'Li2 Ta6 Co16 P12'
_cell_volume   440.41100812
_cell_formula_units_Z   2
loop_
 _symmetry_equiv_pos_site_id
 _symmetry_equiv_pos_as_xyz
  1  'x, y, z'
loop_
 _atom_site_type_symbol
 _atom_site_label
 _atom_site_symmetry_multiplicity
 _atom_site_fract_x
 _atom_site_fract_y
 _atom_site_fract_z
 _atom_site_occupancy
  Li  Li0  1  0.333333  0.666667  0.000000  1
  Li  Li1  1  0.666667  0.333333  0.000000  1
  Ta  Ta2  1  0.820957  0.000000  0.500000  1
  Ta  Ta3  1  0.000000  0.820957  0.500000  1
  Ta  Ta4  1  0.179043  0.179043  0.500000  1
  Ta  Ta5  1  0.444428  0.000000  0.000000  1
  Ta  Ta6  1  0.000000  0.444428  0.000000  1
  Ta  Ta7  1  0.555572  0.555572  0.000000  1
  Co  Co8  1  0.276517  0.000000  0.500000  1
  Co  Co9  1  0.000000  0.276517  0.500000  1
  Co  Co10  1  0.723483  0.723483  0.500000  1
  Co  Co11  1  0.635348  0.808596  0.000000  1
  Co  Co12  1  0.191404  0.826752  0.000000  1
  Co  Co13  1  0.173248  0.364652  0.000000  1
  Co  Co14  1  0.364652  0.173248  0.000000  1
  Co  Co15  1  0.808596  0.635348  0.000000  1
  Co  Co16  1  0.826752  0.191404  0.000000  1
  Co  Co17  1  0.522905  0.873790  0.500000  1
  Co  Co18  1  0.126210  0.649115  0.500000  1
  Co  Co19  1  0.350885  0.477095  0.500000  1
  Co  Co20  1  0.477095  0.350885  0.500000  1
  Co  Co21  1  0.873790  0.522905  0.500000  1
  Co  Co22  1  0.649115  0.126210  0.500000  1
  Co  Co23  1  0.000000  0.000000  0.000000  1
  P  P24  1  0.172276  0.000000  0.000000  1
  P  P25  1  0.000000  0.172276  0.000000  1
  P  P26  1  0.827724  0.827724  0.000000  1
  P  P27  1  0.511398  0.685358  0.500000  1
  P  P28  1  0.314642  0.826039  0.500000  1
  P  P29  1  0.173961  0.488602  0.500000  1
  P  P30  1  0.488602  0.173961  0.500000  1
  P  P31  1  0.685358  0.511398  0.500000  1
  P  P32  1  0.826039  0.314642  0.500000  1
  P  P33  1  0.649607  0.000000  0.000000  1
  P  P34  1  0.000000  0.649607  0.000000  1
  P  P35  1  0.350393  0.350393  0.000000  1
