# generated using pymatgen
data_Tb8HfZrIr6
_symmetry_space_group_name_H-M   'P 1'
_cell_length_a   10.89635200
_cell_length_b   10.89635200
_cell_length_c   6.27952200
_cell_angle_alpha   90.00000000
_cell_angle_beta   90.00000000
_cell_angle_gamma   90.00000000
_symmetry_Int_Tables_number   1
_chemical_formula_structural   Tb8HfZrIr6
_chemical_formula_sum   'Tb16 Hf2 Zr2 Ir12'
_cell_volume   745.57070461
_cell_formula_units_Z   2
loop_
 _symmetry_equiv_pos_site_id
 _symmetry_equiv_pos_as_xyz
  1  'x, y, z'
loop_
 _atom_site_type_symbol
 _atom_site_label
 _atom_site_symmetry_multiplicity
 _atom_site_fract_x
 _atom_site_fract_y
 _atom_site_fract_z
 _atom_site_occupancy
  Tb  Tb0  1  0.289415  0.086030  0.375337  1
  Tb  Tb1  1  0.289415  0.913970  0.875337  1
  Tb  Tb2  1  0.710585  0.086030  0.875337  1
  Tb  Tb3  1  0.710585  0.913970  0.375337  1
  Tb  Tb4  1  0.586197  0.789018  0.875443  1
  Tb  Tb5  1  0.586197  0.210982  0.375443  1
  Tb  Tb6  1  0.413803  0.789018  0.375443  1
  Tb  Tb7  1  0.413803  0.210982  0.875443  1
  Tb  Tb8  1  0.210982  0.413803  0.624557  1
  Tb  Tb9  1  0.210982  0.586197  0.124557  1
  Tb  Tb10  1  0.789018  0.413803  0.124557  1
  Tb  Tb11  1  0.789018  0.586197  0.624557  1
  Tb  Tb12  1  0.913970  0.710585  0.124663  1
  Tb  Tb13  1  0.913970  0.289415  0.624663  1
  Tb  Tb14  1  0.086030  0.710585  0.624663  1
  Tb  Tb15  1  0.086030  0.289415  0.124663  1
  Hf  Hf16  1  0.500000  0.500000  0.000000  1
  Hf  Hf17  1  0.500000  0.500000  0.500000  1
  Zr  Zr18  1  0.000000  0.000000  0.500000  1
  Zr  Zr19  1  0.000000  0.000000  0.000000  1
  Ir  Ir20  1  0.855448  0.144552  0.250000  1
  Ir  Ir21  1  0.855448  0.855448  0.750000  1
  Ir  Ir22  1  0.144552  0.144552  0.750000  1
  Ir  Ir23  1  0.144552  0.855448  0.250000  1
  Ir  Ir24  1  0.641637  0.358363  0.750000  1
  Ir  Ir25  1  0.641637  0.641637  0.250000  1
  Ir  Ir26  1  0.358363  0.358363  0.250000  1
  Ir  Ir27  1  0.358363  0.641637  0.750000  1
  Ir  Ir28  1  0.500000  0.000000  0.121144  1
  Ir  Ir29  1  0.500000  0.000000  0.621144  1
  Ir  Ir30  1  0.000000  0.500000  0.878856  1
  Ir  Ir31  1  0.000000  0.500000  0.378856  1
