# generated using pymatgen
data_Cs5Nd(MoH9)3
_symmetry_space_group_name_H-M   'P 1'
_cell_length_a   9.72444600
_cell_length_b   9.47103667
_cell_length_c   5.43160000
_cell_angle_alpha   90.00000000
_cell_angle_beta   90.00000000
_cell_angle_gamma   119.14166572
_symmetry_Int_Tables_number   1
_chemical_formula_structural   Cs5Nd(MoH9)3
_chemical_formula_sum   'Cs5 Nd1 Mo3 H27'
_cell_volume   436.93060601
_cell_formula_units_Z   1
loop_
 _symmetry_equiv_pos_site_id
 _symmetry_equiv_pos_as_xyz
  1  'x, y, z'
loop_
 _atom_site_type_symbol
 _atom_site_label
 _atom_site_symmetry_multiplicity
 _atom_site_fract_x
 _atom_site_fract_y
 _atom_site_fract_z
 _atom_site_occupancy
  Cs  Cs0  1  0.723174  0.741731  0.500000  1
  Cs  Cs1  1  0.276826  0.018558  0.500000  1
  Cs  Cs2  1  0.000000  0.639990  0.000000  1
  Cs  Cs3  1  0.437332  0.396983  0.000000  1
  Cs  Cs4  1  0.562668  0.959651  0.000000  1
  Nd  Nd5  1  0.000000  0.261553  0.500000  1
  Mo  Mo6  1  0.717162  0.333015  0.500000  1
  Mo  Mo7  1  0.282838  0.615854  0.500000  1
  Mo  Mo8  1  0.000000  0.053942  0.000000  1
  H  H9  1  0.820135  0.313383  0.755092  1
  H  H10  1  0.728874  0.472601  0.720259  1
  H  H11  1  0.571352  0.207192  0.700758  1
  H  H12  1  0.179865  0.493249  0.244908  1
  H  H13  1  0.571352  0.207192  0.299242  1
  H  H14  1  0.820135  0.313383  0.244908  1
  H  H15  1  0.728874  0.472601  0.279741  1
  H  H16  1  0.271126  0.743728  0.720259  1
  H  H17  1  0.428648  0.635842  0.700758  1
  H  H18  1  0.168686  0.037110  0.000000  1
  H  H19  1  0.831314  0.868424  0.000000  1
  H  H20  1  0.000000  0.240465  0.000000  1
  H  H21  1  0.866914  0.045564  0.229705  1
  H  H22  1  0.133086  0.178651  0.770295  1
  H  H23  1  0.000000  0.925561  0.773852  1
  H  H24  1  0.000000  0.925561  0.226148  1
  H  H25  1  0.133086  0.178651  0.229705  1
  H  H26  1  0.866914  0.045564  0.770295  1
  H  H27  1  0.054641  0.554327  0.500000  1
  H  H28  1  0.440919  0.805635  0.500000  1
  H  H29  1  0.288913  0.432864  0.500000  1
  H  H30  1  0.559081  0.364716  0.500000  1
  H  H31  1  0.945359  0.499686  0.500000  1
  H  H32  1  0.711087  0.143951  0.500000  1
  H  H33  1  0.179865  0.493249  0.755092  1
  H  H34  1  0.271126  0.743728  0.279741  1
  H  H35  1  0.428648  0.635842  0.299242  1
