# generated using pymatgen
data_Zr18Be3NiP8
_symmetry_space_group_name_H-M   'P 1'
_cell_length_a   11.99761672
_cell_length_b   11.99761672
_cell_length_c   3.67906700
_cell_angle_alpha   90.00000000
_cell_angle_beta   90.00000000
_cell_angle_gamma   89.63541123
_symmetry_Int_Tables_number   1
_chemical_formula_structural   Zr18Be3NiP8
_chemical_formula_sum   'Zr18 Be3 Ni1 P8'
_cell_volume   529.56450985
_cell_formula_units_Z   1
loop_
 _symmetry_equiv_pos_site_id
 _symmetry_equiv_pos_as_xyz
  1  'x, y, z'
loop_
 _atom_site_type_symbol
 _atom_site_label
 _atom_site_symmetry_multiplicity
 _atom_site_fract_x
 _atom_site_fract_y
 _atom_site_fract_z
 _atom_site_occupancy
  Zr  Zr0  1  0.002493  0.001955  0.000000  1
  Zr  Zr1  1  0.498045  0.497507  0.000000  1
  Zr  Zr2  1  0.105389  0.183794  0.500000  1
  Zr  Zr3  1  0.183996  0.896218  0.500000  1
  Zr  Zr4  1  0.816758  0.104705  0.500000  1
  Zr  Zr5  1  0.896620  0.821158  0.500000  1
  Zr  Zr6  1  0.395295  0.683242  0.500000  1
  Zr  Zr7  1  0.603782  0.316004  0.500000  1
  Zr  Zr8  1  0.678842  0.603380  0.500000  1
  Zr  Zr9  1  0.316206  0.394611  0.500000  1
  Zr  Zr10  1  0.098066  0.401934  0.000000  1
  Zr  Zr11  1  0.401103  0.900781  0.000000  1
  Zr  Zr12  1  0.599219  0.098897  0.000000  1
  Zr  Zr13  1  0.903006  0.596994  0.000000  1
  Zr  Zr14  1  0.382175  0.117825  0.500000  1
  Zr  Zr15  1  0.118435  0.618894  0.500000  1
  Zr  Zr16  1  0.881106  0.381565  0.500000  1
  Zr  Zr17  1  0.617249  0.882751  0.500000  1
  Be  Be18  1  0.259518  0.240482  0.000000  1
  Be  Be19  1  0.240422  0.740303  0.000000  1
  Be  Be20  1  0.759697  0.259578  0.000000  1
  Ni  Ni21  1  0.745815  0.754185  0.000000  1
  P  P22  1  0.225997  0.058638  0.000000  1
  P  P23  1  0.058920  0.775789  0.000000  1
  P  P24  1  0.941972  0.225280  0.000000  1
  P  P25  1  0.775112  0.945531  0.000000  1
  P  P26  1  0.274720  0.558028  0.000000  1
  P  P27  1  0.724211  0.441080  0.000000  1
  P  P28  1  0.554469  0.724888  0.000000  1
  P  P29  1  0.441362  0.274003  0.000000  1
