# generated using pymatgen
data_Ho4TmRuRh
_symmetry_space_group_name_H-M   'P 1'
_cell_length_a   6.34913517
_cell_length_b   7.21683457
_cell_length_c   8.46159420
_cell_angle_alpha   96.79909382
_cell_angle_beta   112.03505597
_cell_angle_gamma   89.99999753
_symmetry_Int_Tables_number   1
_chemical_formula_structural   Ho4TmRuRh
_chemical_formula_sum   'Ho8 Tm2 Ru2 Rh2'
_cell_volume   356.45168195
_cell_formula_units_Z   2
loop_
 _symmetry_equiv_pos_site_id
 _symmetry_equiv_pos_as_xyz
  1  'x, y, z'
loop_
 _atom_site_type_symbol
 _atom_site_label
 _atom_site_symmetry_multiplicity
 _atom_site_fract_x
 _atom_site_fract_y
 _atom_site_fract_z
 _atom_site_occupancy
  Ho  Ho0  1  0.792083  0.082016  0.812773  1
  Ho  Ho1  1  0.979309  0.417984  0.187227  1
  Ho  Ho2  1  0.209968  0.914991  0.184419  1
  Ho  Ho3  1  0.025547  0.585009  0.815581  1
  Ho  Ho4  1  0.208178  0.183761  0.565861  1
  Ho  Ho5  1  0.642317  0.316239  0.434139  1
  Ho  Ho6  1  0.791618  0.812556  0.436479  1
  Ho  Ho7  1  0.355138  0.687444  0.563521  1
  Tm  Tm8  1  0.420771  0.250000  0.000000  1
  Tm  Tm9  1  0.576569  0.750000  0.000000  1
  Ru  Ru10  1  0.397293  0.574571  0.218990  1
  Ru  Ru11  1  0.178304  0.925429  0.781010  1
  Rh  Rh12  1  0.601526  0.423985  0.780149  1
  Rh  Rh13  1  0.821376  0.076015  0.219851  1
