# generated using pymatgen
data_Ho5ReMoC7
_symmetry_space_group_name_H-M   'P 1'
_cell_length_a   8.34709504
_cell_length_b   8.34709395
_cell_length_c   3.40844100
_cell_angle_alpha   90.00000000
_cell_angle_beta   90.00000000
_cell_angle_gamma   122.50092670
_symmetry_Int_Tables_number   1
_chemical_formula_structural   Ho5ReMoC7
_chemical_formula_sum   'Ho5 Re1 Mo1 C7'
_cell_volume   200.28626013
_cell_formula_units_Z   1
loop_
 _symmetry_equiv_pos_site_id
 _symmetry_equiv_pos_as_xyz
  1  'x, y, z'
loop_
 _atom_site_type_symbol
 _atom_site_label
 _atom_site_symmetry_multiplicity
 _atom_site_fract_x
 _atom_site_fract_y
 _atom_site_fract_z
 _atom_site_occupancy
  Ho  Ho0  1  0.499067  0.500933  0.000000  1
  Ho  Ho1  1  0.076833  0.335156  0.500000  1
  Ho  Ho2  1  0.925130  0.665909  0.500000  1
  Ho  Ho3  1  0.664844  0.923167  0.500000  1
  Ho  Ho4  1  0.334091  0.074870  0.500000  1
  Re  Re5  1  0.286397  0.713603  0.000000  1
  Mo  Mo6  1  0.713885  0.286115  0.000000  1
  C  C7  1  0.623508  0.376492  0.500000  1
  C  C8  1  0.374257  0.625743  0.500000  1
  C  C9  1  0.999832  0.000168  0.000000  1
  C  C10  1  0.169301  0.168416  0.000000  1
  C  C11  1  0.831584  0.830699  0.000000  1
  C  C12  1  0.002197  0.500926  0.000000  1
  C  C13  1  0.499074  0.997803  0.000000  1
