# generated using pymatgen
data_SmTh3(WN3)4
_symmetry_space_group_name_H-M   'P 1'
_cell_length_a   5.58941912
_cell_length_b   5.66338121
_cell_length_c   7.99073000
_cell_angle_alpha   90.00000000
_cell_angle_beta   90.00000000
_cell_angle_gamma   90.15525496
_symmetry_Int_Tables_number   1
_chemical_formula_structural   SmTh3(WN3)4
_chemical_formula_sum   'Sm1 Th3 W4 N12'
_cell_volume   252.94571908
_cell_formula_units_Z   1
loop_
 _symmetry_equiv_pos_site_id
 _symmetry_equiv_pos_as_xyz
  1  'x, y, z'
loop_
 _atom_site_type_symbol
 _atom_site_label
 _atom_site_symmetry_multiplicity
 _atom_site_fract_x
 _atom_site_fract_y
 _atom_site_fract_z
 _atom_site_occupancy
  Sm  Sm0  1  0.503610  0.546602  0.250000  1
  Th  Th1  1  0.997174  0.044121  0.250000  1
  Th  Th2  1  0.496920  0.456380  0.750000  1
  Th  Th3  1  0.001953  0.955258  0.750000  1
  W  W4  1  0.998768  0.500190  0.002961  1
  W  W5  1  0.500737  0.999233  0.497794  1
  W  W6  1  0.998768  0.500190  0.497039  1
  W  W7  1  0.500737  0.999233  0.002206  1
  N  N8  1  0.430449  0.983340  0.250000  1
  N  N9  1  0.071654  0.488035  0.250000  1
  N  N10  1  0.573708  0.018831  0.750000  1
  N  N11  1  0.924773  0.516062  0.750000  1
  N  N12  1  0.798784  0.797196  0.034836  1
  N  N13  1  0.704098  0.294179  0.462807  1
  N  N14  1  0.200714  0.201120  0.536723  1
  N  N15  1  0.296778  0.703767  0.960198  1
  N  N16  1  0.200714  0.201120  0.963277  1
  N  N17  1  0.296778  0.703767  0.539802  1
  N  N18  1  0.798784  0.797196  0.465164  1
  N  N19  1  0.704098  0.294179  0.037193  1
