# generated using pymatgen
data_NaTbNd3I7N2
_symmetry_space_group_name_H-M   'P 1'
_cell_length_a   14.57942621
_cell_length_b   11.26728800
_cell_length_c   12.07893197
_cell_angle_alpha   90.00000000
_cell_angle_beta   89.42741220
_cell_angle_gamma   90.00000000
_symmetry_Int_Tables_number   1
_chemical_formula_structural   NaTbNd3I7N2
_chemical_formula_sum   'Na4 Tb4 Nd12 I28 N8'
_cell_volume   1984.11424773
_cell_formula_units_Z   4
loop_
 _symmetry_equiv_pos_site_id
 _symmetry_equiv_pos_as_xyz
  1  'x, y, z'
loop_
 _atom_site_type_symbol
 _atom_site_label
 _atom_site_symmetry_multiplicity
 _atom_site_fract_x
 _atom_site_fract_y
 _atom_site_fract_z
 _atom_site_occupancy
  Na  Na0  1  0.901136  0.050169  0.256302  1
  Na  Na1  1  0.401136  0.449830  0.256302  1
  Na  Na2  1  0.603409  0.551325  0.758610  1
  Na  Na3  1  0.103409  0.948676  0.758610  1
  Tb  Tb4  1  0.414045  0.090076  0.067339  1
  Tb  Tb5  1  0.914045  0.409925  0.067339  1
  Tb  Tb6  1  0.072800  0.621089  0.083204  1
  Tb  Tb7  1  0.572799  0.878912  0.083204  1
  Nd  Nd8  1  0.584340  0.118567  0.313645  1
  Nd  Nd9  1  0.084340  0.381433  0.313645  1
  Nd  Nd10  1  0.900417  0.583585  0.329100  1
  Nd  Nd11  1  0.400417  0.916414  0.329100  1
  Nd  Nd12  1  0.087459  0.599232  0.563433  1
  Nd  Nd13  1  0.587459  0.900767  0.563433  1
  Nd  Nd14  1  0.421314  0.125354  0.586699  1
  Nd  Nd15  1  0.921314  0.374646  0.586699  1
  Nd  Nd16  1  0.915479  0.621386  0.820777  1
  Nd  Nd17  1  0.415479  0.878615  0.820777  1
  Nd  Nd18  1  0.597673  0.083483  0.829242  1
  Nd  Nd19  1  0.097673  0.416518  0.829242  1
  I  I20  1  0.736854  0.048355  0.043494  1
  I  I21  1  0.236854  0.451644  0.043494  1
  I  I22  1  0.779374  0.629838  0.099672  1
  I  I23  1  0.279374  0.870161  0.099672  1
  I  I24  1  0.037741  0.193134  0.106032  1
  I  I25  1  0.537740  0.306866  0.106032  1
  I  I26  1  0.521127  0.691396  0.287792  1
  I  I27  1  0.021126  0.808604  0.287792  1
  I  I28  1  0.293639  0.186368  0.282686  1
  I  I29  1  0.793639  0.313632  0.282686  1
  I  I30  1  0.229809  0.594101  0.342587  1
  I  I31  1  0.729809  0.905899  0.342587  1
  I  I32  1  0.014734  0.154937  0.452739  1
  I  I33  1  0.514734  0.345061  0.452739  1
  I  I34  1  0.756608  0.555188  0.540191  1
  I  I35  1  0.256607  0.944812  0.540191  1
  I  I36  1  0.721708  0.133488  0.601860  1
  I  I37  1  0.221708  0.366513  0.601860  1
  I  I38  1  0.457854  0.684866  0.617662  1
  I  I39  1  0.957854  0.815135  0.617662  1
  I  I40  1  0.984669  0.185597  0.781703  1
  I  I41  1  0.484669  0.314404  0.781703  1
  I  I42  1  0.205897  0.686458  0.789515  1
  I  I43  1  0.705897  0.813542  0.789515  1
  I  I44  1  0.275657  0.097781  0.842555  1
  I  I45  1  0.775657  0.402221  0.842555  1
  I  I46  1  0.489290  0.655611  0.962548  1
  I  I47  1  0.989290  0.844389  0.962548  1
  N  N48  1  0.496067  0.001041  0.196349  1
  N  N49  1  0.996068  0.498959  0.196349  1
  N  N50  1  0.497677  0.016666  0.447814  1
  N  N51  1  0.997677  0.483333  0.447814  1
  N  N52  1  0.002530  0.503600  0.700136  1
  N  N53  1  0.502529  0.996400  0.700136  1
  N  N54  1  0.000693  0.518182  0.952114  1
  N  N55  1  0.500693  0.981818  0.952114  1
