# generated using pymatgen
data_Zr12Al9Ni3N4
_symmetry_space_group_name_H-M   'P 1'
_cell_length_a   8.62777664
_cell_length_b   8.62775866
_cell_length_c   8.62780656
_cell_angle_alpha   59.87118919
_cell_angle_beta   59.87132599
_cell_angle_gamma   59.87104156
_symmetry_Int_Tables_number   1
_chemical_formula_structural   Zr12Al9Ni3N4
_chemical_formula_sum   'Zr12 Al9 Ni3 N4'
_cell_volume   452.80480212
_cell_formula_units_Z   1
loop_
 _symmetry_equiv_pos_site_id
 _symmetry_equiv_pos_as_xyz
  1  'x, y, z'
loop_
 _atom_site_type_symbol
 _atom_site_label
 _atom_site_symmetry_multiplicity
 _atom_site_fract_x
 _atom_site_fract_y
 _atom_site_fract_z
 _atom_site_occupancy
  Zr  Zr0  1  0.813752  0.186719  0.186702  1
  Zr  Zr1  1  0.186708  0.813781  0.186680  1
  Zr  Zr2  1  0.813099  0.813072  0.185974  1
  Zr  Zr3  1  0.186071  0.813006  0.812998  1
  Zr  Zr4  1  0.813075  0.186010  0.813040  1
  Zr  Zr5  1  0.186695  0.186684  0.813802  1
  Zr  Zr6  1  0.436248  0.063281  0.063298  1
  Zr  Zr7  1  0.063292  0.436219  0.063320  1
  Zr  Zr8  1  0.436901  0.436928  0.064026  1
  Zr  Zr9  1  0.063929  0.436994  0.437002  1
  Zr  Zr10  1  0.436925  0.063990  0.436960  1
  Zr  Zr11  1  0.063305  0.063316  0.436198  1
  Al  Al12  1  0.411988  0.411984  0.741325  1
  Al  Al13  1  0.419236  0.419234  0.419245  1
  Al  Al14  1  0.741319  0.411978  0.412000  1
  Al  Al15  1  0.411978  0.741320  0.411994  1
  Al  Al16  1  0.838012  0.838016  0.508675  1
  Al  Al17  1  0.830764  0.830766  0.830755  1
  Al  Al18  1  0.508681  0.838022  0.838000  1
  Al  Al19  1  0.838022  0.508680  0.838006  1
  Al  Al20  1  0.625000  0.625000  0.625000  1
  Ni  Ni21  1  0.625000  0.625000  0.125000  1
  Ni  Ni22  1  0.125000  0.625000  0.625000  1
  Ni  Ni23  1  0.625000  0.125000  0.625000  1
  N  N24  1  0.125000  0.125000  0.625000  1
  N  N25  1  0.125000  0.125000  0.125000  1
  N  N26  1  0.625000  0.125000  0.125000  1
  N  N27  1  0.125000  0.625000  0.125000  1
