# generated using pymatgen
data_Ac2NdTm(AsPt)4
_symmetry_space_group_name_H-M   'P 1'
_cell_length_a   4.37339300
_cell_length_b   4.37339424
_cell_length_c   16.43994000
_cell_angle_alpha   90.00000000
_cell_angle_beta   90.00000000
_cell_angle_gamma   120.00001334
_symmetry_Int_Tables_number   1
_chemical_formula_structural   Ac2NdTm(AsPt)4
_chemical_formula_sum   'Ac2 Nd1 Tm1 As4 Pt4'
_cell_volume   272.31272443
_cell_formula_units_Z   1
loop_
 _symmetry_equiv_pos_site_id
 _symmetry_equiv_pos_as_xyz
  1  'x, y, z'
loop_
 _atom_site_type_symbol
 _atom_site_label
 _atom_site_symmetry_multiplicity
 _atom_site_fract_x
 _atom_site_fract_y
 _atom_site_fract_z
 _atom_site_occupancy
  Ac  Ac0  1  0.000000  0.000000  0.506002  1
  Ac  Ac1  1  0.000000  0.000000  0.993998  1
  Nd  Nd2  1  0.000000  0.000000  0.250000  1
  Tm  Tm3  1  0.000000  0.000000  0.750000  1
  As  As4  1  0.333333  0.666667  0.870156  1
  As  As5  1  0.666667  0.333333  0.124700  1
  As  As6  1  0.666667  0.333333  0.375300  1
  As  As7  1  0.333333  0.666667  0.629844  1
  Pt  Pt8  1  0.333333  0.666667  0.369274  1
  Pt  Pt9  1  0.666667  0.333333  0.652300  1
  Pt  Pt10  1  0.666667  0.333333  0.847700  1
  Pt  Pt11  1  0.333333  0.666667  0.130726  1
