# generated using pymatgen
data_Sm2Er(LuRh6)3
_symmetry_space_group_name_H-M   'P 1'
_cell_length_a   5.25939900
_cell_length_b   5.25928686
_cell_length_c   17.48317400
_cell_angle_alpha   90.00002179
_cell_angle_beta   90.00000000
_cell_angle_gamma   120.00329048
_symmetry_Int_Tables_number   1
_chemical_formula_structural   Sm2Er(LuRh6)3
_chemical_formula_sum   'Sm2 Er1 Lu3 Rh18'
_cell_volume   418.79307295
_cell_formula_units_Z   1
loop_
 _symmetry_equiv_pos_site_id
 _symmetry_equiv_pos_as_xyz
  1  'x, y, z'
loop_
 _atom_site_type_symbol
 _atom_site_label
 _atom_site_symmetry_multiplicity
 _atom_site_fract_x
 _atom_site_fract_y
 _atom_site_fract_z
 _atom_site_occupancy
  Sm  Sm0  1  0.333331  0.666668  0.749957  1
  Sm  Sm1  1  0.666668  0.333332  0.250008  1
  Er  Er2  1  0.333340  0.666657  0.959201  1
  Lu  Lu3  1  0.666656  0.333341  0.040992  1
  Lu  Lu4  1  0.666660  0.333346  0.459101  1
  Lu  Lu5  1  0.333350  0.666668  0.540836  1
  Rh  Rh6  1  0.167622  0.832399  0.375779  1
  Rh  Rh7  1  0.167618  0.335245  0.375789  1
  Rh  Rh8  1  0.664767  0.832386  0.375789  1
  Rh  Rh9  1  0.832311  0.167672  0.624207  1
  Rh  Rh10  1  0.832314  0.664617  0.624200  1
  Rh  Rh11  1  0.335367  0.167674  0.624201  1
  Rh  Rh12  1  0.832419  0.167568  0.875578  1
  Rh  Rh13  1  0.832418  0.664831  0.875586  1
  Rh  Rh14  1  0.335160  0.167574  0.875586  1
  Rh  Rh15  1  0.167509  0.832503  0.124357  1
  Rh  Rh16  1  0.167509  0.335020  0.124347  1
  Rh  Rh17  1  0.664986  0.832498  0.124347  1
  Rh  Rh18  1  0.333346  0.666670  0.249982  1
  Rh  Rh19  1  0.666656  0.333332  0.750013  1
  Rh  Rh20  1  0.999992  0.999995  0.250040  1
  Rh  Rh21  1  0.000001  0.000005  0.750014  1
  Rh  Rh22  1  0.999996  0.999997  0.499947  1
  Rh  Rh23  1  0.000004  0.000003  0.000147  1
