# generated using pymatgen
data_Pr14Nd2Cd4IrRu3
_symmetry_space_group_name_H-M   'P 1'
_cell_length_a   9.99928812
_cell_length_b   10.00033443
_cell_length_c   10.01374300
_cell_angle_alpha   59.95563308
_cell_angle_beta   59.95216539
_cell_angle_gamma   59.88867600
_symmetry_Int_Tables_number   1
_chemical_formula_structural   Pr14Nd2Cd4IrRu3
_chemical_formula_sum   'Pr14 Nd2 Cd4 Ir1 Ru3'
_cell_volume   706.96166729
_cell_formula_units_Z   1
loop_
 _symmetry_equiv_pos_site_id
 _symmetry_equiv_pos_as_xyz
  1  'x, y, z'
loop_
 _atom_site_type_symbol
 _atom_site_label
 _atom_site_symmetry_multiplicity
 _atom_site_fract_x
 _atom_site_fract_y
 _atom_site_fract_z
 _atom_site_occupancy
  Pr  Pr0  1  0.344585  0.960500  0.347457  1
  Pr  Pr1  1  0.962048  0.345238  0.346357  1
  Pr  Pr2  1  0.810773  0.191032  0.190342  1
  Pr  Pr3  1  0.191101  0.809173  0.810001  1
  Pr  Pr4  1  0.191101  0.809173  0.189725  1
  Pr  Pr5  1  0.810773  0.191032  0.807855  1
  Pr  Pr6  1  0.191499  0.190370  0.809065  1
  Pr  Pr7  1  0.811452  0.807922  0.190313  1
  Pr  Pr8  1  0.939249  0.561226  0.560798  1
  Pr  Pr9  1  0.560235  0.939330  0.938976  1
  Pr  Pr10  1  0.560235  0.939330  0.561458  1
  Pr  Pr11  1  0.939249  0.561226  0.938728  1
  Pr  Pr12  1  0.560509  0.562111  0.938690  1
  Pr  Pr13  1  0.939367  0.939693  0.560470  1
  Nd  Nd14  1  0.344607  0.346571  0.347171  1
  Nd  Nd15  1  0.344607  0.346571  0.961649  1
  Cd  Cd16  1  0.579235  0.579103  0.579833  1
  Cd  Cd17  1  0.579235  0.579103  0.261828  1
  Cd  Cd18  1  0.579074  0.261251  0.579837  1
  Cd  Cd19  1  0.261468  0.578909  0.579812  1
  Ir  Ir20  1  0.577922  0.141629  0.140225  1
  Ru  Ru21  1  0.140391  0.138154  0.136957  1
  Ru  Ru22  1  0.140391  0.138154  0.584498  1
  Ru  Ru23  1  0.140892  0.583197  0.137955  1
