# generated using pymatgen
data_AlTe19
_symmetry_space_group_name_H-M   'P 1'
_cell_length_a   7.96740280
_cell_length_b   8.94102754
_cell_length_c   10.12016500
_cell_angle_alpha   103.09486428
_cell_angle_beta   96.93454965
_cell_angle_gamma   107.31739481
_symmetry_Int_Tables_number   1
_chemical_formula_structural   AlTe19
_chemical_formula_sum   'Al1 Te19'
_cell_volume   656.48094483
_cell_formula_units_Z   1
loop_
 _symmetry_equiv_pos_site_id
 _symmetry_equiv_pos_as_xyz
  1  'x, y, z'
loop_
 _atom_site_type_symbol
 _atom_site_label
 _atom_site_symmetry_multiplicity
 _atom_site_fract_x
 _atom_site_fract_y
 _atom_site_fract_z
 _atom_site_occupancy
  Al  Al0  1  0.000000  0.500000  0.000000  1
  Te  Te1  1  0.795034  0.585666  0.619401  1
  Te  Te2  1  0.629976  0.205893  0.203161  1
  Te  Te3  1  0.370024  0.794107  0.796839  1
  Te  Te4  1  0.600677  0.690037  0.194142  1
  Te  Te5  1  0.204966  0.414334  0.380599  1
  Te  Te6  1  0.399323  0.309963  0.805858  1
  Te  Te7  1  0.000000  0.000000  0.000000  1
  Te  Te8  1  0.190895  0.901343  0.392430  1
  Te  Te9  1  0.809105  0.098657  0.607570  1
  Te  Te10  1  0.712905  0.631428  0.911067  1
  Te  Te11  1  0.515299  0.256422  0.491033  1
  Te  Te12  1  0.735392  0.175413  0.915967  1
  Te  Te13  1  0.264608  0.824587  0.084033  1
  Te  Te14  1  0.484701  0.743578  0.508967  1
  Te  Te15  1  0.089170  0.456561  0.720082  1
  Te  Te16  1  0.287095  0.368572  0.088933  1
  Te  Te17  1  0.908714  0.041554  0.298395  1
  Te  Te18  1  0.091286  0.958446  0.701605  1
  Te  Te19  1  0.910830  0.543439  0.279918  1
