# generated using pymatgen
data_Tb3LuTc3Os5
_symmetry_space_group_name_H-M   'P 1'
_cell_length_a   5.28180760
_cell_length_b   5.29989046
_cell_length_c   9.04090730
_cell_angle_alpha   90.00000061
_cell_angle_beta   89.97399693
_cell_angle_gamma   120.11329753
_symmetry_Int_Tables_number   1
_chemical_formula_structural   Tb3LuTc3Os5
_chemical_formula_sum   'Tb3 Lu1 Tc3 Os5'
_cell_volume   218.92487433
_cell_formula_units_Z   1
loop_
 _symmetry_equiv_pos_site_id
 _symmetry_equiv_pos_as_xyz
  1  'x, y, z'
loop_
 _atom_site_type_symbol
 _atom_site_label
 _atom_site_symmetry_multiplicity
 _atom_site_fract_x
 _atom_site_fract_y
 _atom_site_fract_z
 _atom_site_occupancy
  Tb  Tb0  1  0.335257  0.667629  0.433913  1
  Tb  Tb1  1  0.668261  0.334130  0.562747  1
  Tb  Tb2  1  0.668346  0.334173  0.938044  1
  Lu  Lu3  1  0.335432  0.667716  0.066066  1
  Tc  Tc4  1  0.165927  0.338005  0.751498  1
  Tc  Tc5  1  0.165927  0.827922  0.751498  1
  Tc  Tc6  1  0.333331  0.166665  0.248311  1
  Os  Os7  1  0.824604  0.655388  0.247897  1
  Os  Os8  1  0.652321  0.826161  0.751594  1
  Os  Os9  1  0.013122  0.006561  0.001301  1
  Os  Os10  1  0.824604  0.169215  0.247897  1
  Os  Os11  1  0.012869  0.006435  0.499235  1
