# generated using pymatgen
data_Zr10CuSn3Bi4
_symmetry_space_group_name_H-M   'P 1'
_cell_length_a   8.87017300
_cell_length_b   8.86880953
_cell_length_c   5.98789100
_cell_angle_alpha   89.99835316
_cell_angle_beta   90.00329318
_cell_angle_gamma   120.00508202
_symmetry_Int_Tables_number   1
_chemical_formula_structural   Zr10CuSn3Bi4
_chemical_formula_sum   'Zr10 Cu1 Sn3 Bi4'
_cell_volume   407.92440907
_cell_formula_units_Z   1
loop_
 _symmetry_equiv_pos_site_id
 _symmetry_equiv_pos_as_xyz
  1  'x, y, z'
loop_
 _atom_site_type_symbol
 _atom_site_label
 _atom_site_symmetry_multiplicity
 _atom_site_fract_x
 _atom_site_fract_y
 _atom_site_fract_z
 _atom_site_occupancy
  Zr  Zr0  1  0.332058  0.666533  0.001539  1
  Zr  Zr1  1  0.664556  0.333567  0.498318  1
  Zr  Zr2  1  0.665525  0.333467  0.001539  1
  Zr  Zr3  1  0.330988  0.666433  0.498318  1
  Zr  Zr4  1  0.272538  0.000000  0.226095  1
  Zr  Zr5  1  0.274678  0.269469  0.773730  1
  Zr  Zr6  1  0.005209  0.730531  0.773730  1
  Zr  Zr7  1  0.005269  0.278366  0.228229  1
  Zr  Zr8  1  0.726902  0.721634  0.228229  1
  Zr  Zr9  1  0.724710  0.000000  0.771621  1
  Cu  Cu10  1  0.999508  0.000000  0.001749  1
  Sn  Sn11  1  0.999935  0.614201  0.254395  1
  Sn  Sn12  1  0.385734  0.385799  0.254395  1
  Sn  Sn13  1  0.387140  0.000000  0.745259  1
  Bi  Bi14  1  0.999344  0.000000  0.498719  1
  Bi  Bi15  1  0.613725  0.000000  0.255688  1
  Bi  Bi16  1  0.612377  0.612575  0.744224  1
  Bi  Bi17  1  0.999802  0.387425  0.744224  1
