# generated using pymatgen
data_Gd3ErCdIr
_symmetry_space_group_name_H-M   'P 1'
_cell_length_a   9.61229195
_cell_length_b   9.61229217
_cell_length_c   9.61229200
_cell_angle_alpha   60.00000057
_cell_angle_beta   59.99999982
_cell_angle_gamma   60.00000461
_symmetry_Int_Tables_number   1
_chemical_formula_structural   Gd3ErCdIr
_chemical_formula_sum   'Gd12 Er4 Cd4 Ir4'
_cell_volume   628.00903150
_cell_formula_units_Z   4
loop_
 _symmetry_equiv_pos_site_id
 _symmetry_equiv_pos_as_xyz
  1  'x, y, z'
loop_
 _atom_site_type_symbol
 _atom_site_label
 _atom_site_symmetry_multiplicity
 _atom_site_fract_x
 _atom_site_fract_y
 _atom_site_fract_z
 _atom_site_occupancy
  Gd  Gd0  1  0.809704  0.190296  0.190296  1
  Gd  Gd1  1  0.190296  0.809704  0.809704  1
  Gd  Gd2  1  0.190296  0.809704  0.190296  1
  Gd  Gd3  1  0.809704  0.190296  0.809704  1
  Gd  Gd4  1  0.190296  0.190296  0.809704  1
  Gd  Gd5  1  0.809704  0.809704  0.190296  1
  Gd  Gd6  1  0.938484  0.561516  0.561516  1
  Gd  Gd7  1  0.561516  0.938484  0.938484  1
  Gd  Gd8  1  0.561516  0.938484  0.561516  1
  Gd  Gd9  1  0.938484  0.561516  0.938484  1
  Gd  Gd10  1  0.561516  0.561516  0.938484  1
  Gd  Gd11  1  0.938484  0.938484  0.561516  1
  Er  Er12  1  0.348416  0.348416  0.348416  1
  Er  Er13  1  0.348416  0.348416  0.954752  1
  Er  Er14  1  0.348416  0.954752  0.348416  1
  Er  Er15  1  0.954752  0.348416  0.348416  1
  Cd  Cd16  1  0.579952  0.579952  0.579952  1
  Cd  Cd17  1  0.579952  0.579952  0.260142  1
  Cd  Cd18  1  0.579952  0.260142  0.579952  1
  Cd  Cd19  1  0.260142  0.579952  0.579952  1
  Ir  Ir20  1  0.142201  0.142201  0.142201  1
  Ir  Ir21  1  0.142201  0.142201  0.573396  1
  Ir  Ir22  1  0.142201  0.573396  0.142201  1
  Ir  Ir23  1  0.573396  0.142201  0.142201  1
