# generated using pymatgen
data_SrLa3(Re2Si)8
_symmetry_space_group_name_H-M   'P 1'
_cell_length_a   4.17155400
_cell_length_b   7.36880304
_cell_length_c   15.58036500
_cell_angle_alpha   89.96957465
_cell_angle_beta   90.00000000
_cell_angle_gamma   90.00000000
_symmetry_Int_Tables_number   1
_chemical_formula_structural   SrLa3(Re2Si)8
_chemical_formula_sum   'Sr1 La3 Re16 Si8'
_cell_volume   478.93037791
_cell_formula_units_Z   1
loop_
 _symmetry_equiv_pos_site_id
 _symmetry_equiv_pos_as_xyz
  1  'x, y, z'
loop_
 _atom_site_type_symbol
 _atom_site_label
 _atom_site_symmetry_multiplicity
 _atom_site_fract_x
 _atom_site_fract_y
 _atom_site_fract_z
 _atom_site_occupancy
  Sr  Sr0  1  0.500000  0.923339  0.618252  1
  La  La1  1  0.000000  0.579260  0.117969  1
  La  La2  1  0.000000  0.422144  0.881548  1
  La  La3  1  0.500000  0.078653  0.383015  1
  Re  Re4  1  0.000000  0.136664  0.051971  1
  Re  Re5  1  0.000000  0.862585  0.948379  1
  Re  Re6  1  0.500000  0.635413  0.447101  1
  Re  Re7  1  0.500000  0.363083  0.552116  1
  Re  Re8  1  0.000000  0.730927  0.320367  1
  Re  Re9  1  0.000000  0.268903  0.680273  1
  Re  Re10  1  0.500000  0.231335  0.179208  1
  Re  Re11  1  0.500000  0.768544  0.820790  1
  Re  Re12  1  0.000000  0.432108  0.417968  1
  Re  Re13  1  0.000000  0.564024  0.581683  1
  Re  Re14  1  0.500000  0.932471  0.081704  1
  Re  Re15  1  0.500000  0.067235  0.918053  1
  Re  Re16  1  0.000000  0.991091  0.206089  1
  Re  Re17  1  0.000000  0.009922  0.794478  1
  Re  Re18  1  0.500000  0.490587  0.293539  1
  Re  Re19  1  0.500000  0.510193  0.706720  1
  Si  Si20  1  0.000000  0.822206  0.475083  1
  Si  Si21  1  0.000000  0.176828  0.525328  1
  Si  Si22  1  0.500000  0.323587  0.024829  1
  Si  Si23  1  0.500000  0.675975  0.975086  1
  Si  Si24  1  0.000000  0.292317  0.273409  1
  Si  Si25  1  0.000000  0.709943  0.725331  1
  Si  Si26  1  0.500000  0.792795  0.226692  1
  Si  Si27  1  0.500000  0.207863  0.773021  1
