# generated using pymatgen
data_K4GeAu8
_symmetry_space_group_name_H-M   'P 1'
_cell_length_a   10.93744641
_cell_length_b   10.93744568
_cell_length_c   10.35884239
_cell_angle_alpha   76.51199596
_cell_angle_beta   76.51199529
_cell_angle_gamma   35.94605882
_symmetry_Int_Tables_number   1
_chemical_formula_structural   K4GeAu8
_chemical_formula_sum   'K8 Ge2 Au16'
_cell_volume   705.23377210
_cell_formula_units_Z   2
loop_
 _symmetry_equiv_pos_site_id
 _symmetry_equiv_pos_as_xyz
  1  'x, y, z'
loop_
 _atom_site_type_symbol
 _atom_site_label
 _atom_site_symmetry_multiplicity
 _atom_site_fract_x
 _atom_site_fract_y
 _atom_site_fract_z
 _atom_site_occupancy
  K  K0  1  0.479457  0.479457  0.840963  1
  K  K1  1  0.520543  0.520543  0.159037  1
  K  K2  1  0.285194  0.285194  0.917295  1
  K  K3  1  0.714806  0.714806  0.082705  1
  K  K4  1  0.220921  0.220921  0.601232  1
  K  K5  1  0.779079  0.779079  0.398768  1
  K  K6  1  0.040033  0.040033  0.644552  1
  K  K7  1  0.959967  0.959967  0.355448  1
  Ge  Ge8  1  0.664545  0.664545  0.771270  1
  Ge  Ge9  1  0.335455  0.335455  0.228730  1
  Au  Au10  1  0.786481  0.786481  0.733314  1
  Au  Au11  1  0.213519  0.213519  0.266686  1
  Au  Au12  1  0.621578  0.621578  0.570705  1
  Au  Au13  1  0.378422  0.378422  0.429295  1
  Au  Au14  1  0.500000  0.500000  0.500000  1
  Au  Au15  1  0.000000  0.000000  0.000000  1
  Au  Au16  1  0.109053  0.109053  0.143836  1
  Au  Au17  1  0.890947  0.890947  0.856164  1
  Au  Au18  1  0.843412  0.373094  0.357497  1
  Au  Au19  1  0.626906  0.156588  0.642503  1
  Au  Au20  1  0.156588  0.626906  0.642503  1
  Au  Au21  1  0.373094  0.843412  0.357497  1
  Au  Au22  1  0.087297  0.672145  0.094678  1
  Au  Au23  1  0.327855  0.912703  0.905322  1
  Au  Au24  1  0.912703  0.327855  0.905322  1
  Au  Au25  1  0.672145  0.087297  0.094678  1
