# generated using pymatgen
data_Yb2CrWO6
_symmetry_space_group_name_H-M   'P 1'
_cell_length_a   5.34538519
_cell_length_b   5.59948200
_cell_length_c   7.73322398
_cell_angle_alpha   90.00124290
_cell_angle_beta   90.02432462
_cell_angle_gamma   90.00036335
_symmetry_Int_Tables_number   1
_chemical_formula_structural   Yb2CrWO6
_chemical_formula_sum   'Yb4 Cr2 W2 O12'
_cell_volume   231.46610789
_cell_formula_units_Z   2
loop_
 _symmetry_equiv_pos_site_id
 _symmetry_equiv_pos_as_xyz
  1  'x, y, z'
loop_
 _atom_site_type_symbol
 _atom_site_label
 _atom_site_symmetry_multiplicity
 _atom_site_fract_x
 _atom_site_fract_y
 _atom_site_fract_z
 _atom_site_occupancy
  Yb  Yb0  1  0.982792  0.057068  0.250971  1
  Yb  Yb1  1  0.517188  0.557056  0.249064  1
  Yb  Yb2  1  0.017214  0.942928  0.749045  1
  Yb  Yb3  1  0.482789  0.442933  0.750998  1
  Cr  Cr4  1  0.500071  0.999790  0.999937  1
  Cr  Cr5  1  0.000029  0.500160  0.499976  1
  W  W6  1  0.500007  0.999953  0.499950  1
  W  W7  1  0.000039  0.500015  0.999980  1
  O  O8  1  0.696411  0.295309  0.449701  1
  O  O9  1  0.803634  0.795231  0.050319  1
  O  O10  1  0.303625  0.704777  0.550330  1
  O  O11  1  0.196382  0.204695  0.949716  1
  O  O12  1  0.204398  0.204920  0.551924  1
  O  O13  1  0.295548  0.704776  0.948077  1
  O  O14  1  0.795531  0.795258  0.448093  1
  O  O15  1  0.704361  0.295092  0.051899  1
  O  O16  1  0.100914  0.466769  0.250713  1
  O  O17  1  0.399080  0.966676  0.249295  1
  O  O18  1  0.600961  0.033254  0.750712  1
  O  O19  1  0.899028  0.533341  0.749299  1
