# generated using pymatgen
data_Dy14Tm6(Bi3Sb)3
_symmetry_space_group_name_H-M   'P 1'
_cell_length_a   8.18719040
_cell_length_b   9.43032301
_cell_length_c   11.99973259
_cell_angle_alpha   90.00015000
_cell_angle_beta   90.05131007
_cell_angle_gamma   90.00386353
_symmetry_Int_Tables_number   1
_chemical_formula_structural   Dy14Tm6(Bi3Sb)3
_chemical_formula_sum   'Dy14 Tm6 Bi9 Sb3'
_cell_volume   926.47317925
_cell_formula_units_Z   1
loop_
 _symmetry_equiv_pos_site_id
 _symmetry_equiv_pos_as_xyz
  1  'x, y, z'
loop_
 _atom_site_type_symbol
 _atom_site_label
 _atom_site_symmetry_multiplicity
 _atom_site_fract_x
 _atom_site_fract_y
 _atom_site_fract_z
 _atom_site_occupancy
  Dy  Dy0  1  0.352530  0.750069  0.213223  1
  Dy  Dy1  1  0.852990  0.749930  0.286230  1
  Dy  Dy2  1  0.647524  0.249962  0.786457  1
  Dy  Dy3  1  0.148468  0.250055  0.716630  1
  Dy  Dy4  1  0.688899  0.936992  0.057381  1
  Dy  Dy5  1  0.190326  0.566226  0.442561  1
  Dy  Dy6  1  0.476367  0.249840  0.488228  1
  Dy  Dy7  1  0.973664  0.250177  0.011591  1
  Dy  Dy8  1  0.528470  0.750251  0.512657  1
  Dy  Dy9  1  0.027595  0.749768  0.987975  1
  Dy  Dy10  1  0.318052  0.249999  0.216064  1
  Dy  Dy11  1  0.811507  0.250033  0.279025  1
  Dy  Dy12  1  0.683407  0.749761  0.782121  1
  Dy  Dy13  1  0.183951  0.750200  0.717947  1
  Tm  Tm14  1  0.688642  0.563610  0.057333  1
  Tm  Tm15  1  0.190054  0.932976  0.442577  1
  Tm  Tm16  1  0.311448  0.063563  0.942889  1
  Tm  Tm17  1  0.808635  0.438858  0.558971  1
  Tm  Tm18  1  0.311266  0.436571  0.942805  1
  Tm  Tm19  1  0.808481  0.061065  0.559065  1
  Bi  Bi20  1  0.091558  0.248448  0.456801  1
  Bi  Bi21  1  0.565430  0.995084  0.325716  1
  Bi  Bi22  1  0.065852  0.504093  0.174302  1
  Bi  Bi23  1  0.433743  0.495498  0.674841  1
  Bi  Bi24  1  0.933851  0.004030  0.825582  1
  Bi  Bi25  1  0.433754  0.004579  0.674621  1
  Bi  Bi26  1  0.933838  0.495907  0.825787  1
  Bi  Bi27  1  0.565771  0.504890  0.325505  1
  Bi  Bi28  1  0.066185  0.995946  0.174488  1
  Sb  Sb29  1  0.407013  0.749413  0.957811  1
  Sb  Sb30  1  0.907811  0.750619  0.541838  1
  Sb  Sb31  1  0.592919  0.251585  0.040980  1
