# generated using pymatgen
data_Rb3Fe(NO3)5
_symmetry_space_group_name_H-M   'P 1'
_cell_length_a   14.53842000
_cell_length_b   8.45772486
_cell_length_c   12.00300400
_cell_angle_alpha   89.66815550
_cell_angle_beta   90.00000000
_cell_angle_gamma   90.00000000
_symmetry_Int_Tables_number   1
_chemical_formula_structural   Rb3Fe(NO3)5
_chemical_formula_sum   'Rb12 Fe4 N20 O60'
_cell_volume   1475.88809759
_cell_formula_units_Z   4
loop_
 _symmetry_equiv_pos_site_id
 _symmetry_equiv_pos_as_xyz
  1  'x, y, z'
loop_
 _atom_site_type_symbol
 _atom_site_label
 _atom_site_symmetry_multiplicity
 _atom_site_fract_x
 _atom_site_fract_y
 _atom_site_fract_z
 _atom_site_occupancy
  Rb  Rb0  1  0.536987  0.726830  0.054246  1
  Rb  Rb1  1  0.036508  0.734709  0.957283  1
  Rb  Rb2  1  0.963013  0.726830  0.554246  1
  Rb  Rb3  1  0.536508  0.265291  0.542717  1
  Rb  Rb4  1  0.769535  0.591338  0.283818  1
  Rb  Rb5  1  0.463492  0.734709  0.457283  1
  Rb  Rb6  1  0.230465  0.408662  0.716182  1
  Rb  Rb7  1  0.730465  0.591338  0.783818  1
  Rb  Rb8  1  0.036987  0.273170  0.445754  1
  Rb  Rb9  1  0.463013  0.273170  0.945754  1
  Rb  Rb10  1  0.963492  0.265291  0.042717  1
  Rb  Rb11  1  0.269535  0.408662  0.216182  1
  Fe  Fe12  1  0.768233  0.078406  0.680644  1
  Fe  Fe13  1  0.231767  0.921594  0.319356  1
  Fe  Fe14  1  0.731767  0.078406  0.180644  1
  Fe  Fe15  1  0.268233  0.921594  0.819356  1
  N  N16  1  0.201328  0.132231  0.970807  1
  N  N17  1  0.810904  0.330716  0.554529  1
  N  N18  1  0.701328  0.867769  0.529193  1
  N  N19  1  0.365066  0.976056  0.172650  1
  N  N20  1  0.689096  0.330716  0.054529  1
  N  N21  1  0.134934  0.976056  0.672650  1
  N  N22  1  0.310904  0.669284  0.945471  1
  N  N23  1  0.917755  0.060111  0.802449  1
  N  N24  1  0.798672  0.867769  0.029193  1
  N  N25  1  0.865066  0.023944  0.327350  1
  N  N26  1  0.417755  0.939889  0.697551  1
  N  N27  1  0.998981  0.459716  0.760606  1
  N  N28  1  0.582245  0.060111  0.302449  1
  N  N29  1  0.634934  0.023944  0.827350  1
  N  N30  1  0.082245  0.939889  0.197551  1
  N  N31  1  0.189096  0.669284  0.445471  1
  N  N32  1  0.501019  0.459716  0.260606  1
  N  N33  1  0.298672  0.132231  0.470807  1
  N  N34  1  0.498981  0.540284  0.739394  1
  N  N35  1  0.001019  0.540284  0.239394  1
  O  O36  1  0.490257  0.955149  0.644096  1
  O  O37  1  0.859595  0.205532  0.558146  1
  O  O38  1  0.926282  0.541747  0.770523  1
  O  O39  1  0.863954  0.178329  0.815656  1
  O  O40  1  0.636046  0.178329  0.315656  1
  O  O41  1  0.953470  0.574774  0.153767  1
  O  O42  1  0.837735  0.779139  0.961939  1
  O  O43  1  0.546530  0.574774  0.653767  1
  O  O44  1  0.832659  0.446228  0.495634  1
  O  O45  1  0.359595  0.794468  0.941854  1
  O  O46  1  0.607592  0.956692  0.230659  1
  O  O47  1  0.990257  0.044851  0.855904  1
  O  O48  1  0.474133  0.416455  0.165212  1
  O  O49  1  0.073718  0.458253  0.229477  1
  O  O50  1  0.573718  0.541747  0.270523  1
  O  O51  1  0.261863  0.669169  0.384338  1
  O  O52  1  0.802782  0.922358  0.303815  1
  O  O53  1  0.642636  0.159255  0.778859  1
  O  O54  1  0.453470  0.425226  0.346233  1
  O  O55  1  0.326363  0.990093  0.454828  1
  O  O56  1  0.238137  0.669169  0.884338  1
  O  O57  1  0.428276  0.006818  0.107057  1
  O  O58  1  0.107592  0.043308  0.269341  1
  O  O59  1  0.426282  0.458253  0.729477  1
  O  O60  1  0.738137  0.330831  0.615662  1
  O  O61  1  0.974133  0.583545  0.334788  1
  O  O62  1  0.770932  0.823539  0.586179  1
  O  O63  1  0.392408  0.043308  0.769341  1
  O  O64  1  0.673637  0.009907  0.545172  1
  O  O65  1  0.009743  0.955149  0.144096  1
  O  O66  1  0.197218  0.077642  0.696185  1
  O  O67  1  0.046530  0.425226  0.846233  1
  O  O68  1  0.140405  0.794468  0.441854  1
  O  O69  1  0.162265  0.220861  0.038061  1
  O  O70  1  0.729068  0.823539  0.086179  1
  O  O71  1  0.667341  0.446228  0.995634  1
  O  O72  1  0.173637  0.990093  0.954828  1
  O  O73  1  0.826363  0.009907  0.045172  1
  O  O74  1  0.229068  0.176461  0.413821  1
  O  O75  1  0.761863  0.330831  0.115662  1
  O  O76  1  0.892408  0.956692  0.730659  1
  O  O77  1  0.928276  0.993182  0.392943  1
  O  O78  1  0.270932  0.176461  0.913821  1
  O  O79  1  0.142636  0.840745  0.721141  1
  O  O80  1  0.857364  0.159255  0.278859  1
  O  O81  1  0.337735  0.220861  0.538061  1
  O  O82  1  0.167341  0.553772  0.504366  1
  O  O83  1  0.363954  0.821671  0.684344  1
  O  O84  1  0.071724  0.006818  0.607057  1
  O  O85  1  0.136046  0.821671  0.184344  1
  O  O86  1  0.662265  0.779139  0.461939  1
  O  O87  1  0.357364  0.840745  0.221141  1
  O  O88  1  0.640405  0.205532  0.058146  1
  O  O89  1  0.571724  0.993182  0.892943  1
  O  O90  1  0.525867  0.583545  0.834788  1
  O  O91  1  0.509743  0.044851  0.355904  1
  O  O92  1  0.302782  0.077642  0.196185  1
  O  O93  1  0.332659  0.553772  0.004366  1
  O  O94  1  0.025867  0.416455  0.665212  1
  O  O95  1  0.697218  0.922358  0.803815  1
