# generated using pymatgen
data_La(PPt4)2
_symmetry_space_group_name_H-M   'P 1'
_cell_length_a   6.39195546
_cell_length_b   6.39195473
_cell_length_c   9.45072756
_cell_angle_alpha   54.50698129
_cell_angle_beta   54.50698805
_cell_angle_gamma   37.53040464
_symmetry_Int_Tables_number   1
_chemical_formula_structural   La(PPt4)2
_chemical_formula_sum   'La1 P2 Pt8'
_cell_volume   185.80954150
_cell_formula_units_Z   1
loop_
 _symmetry_equiv_pos_site_id
 _symmetry_equiv_pos_as_xyz
  1  'x, y, z'
loop_
 _atom_site_type_symbol
 _atom_site_label
 _atom_site_symmetry_multiplicity
 _atom_site_fract_x
 _atom_site_fract_y
 _atom_site_fract_z
 _atom_site_occupancy
  La  La0  1  0.500000  0.500000  0.500000  1
  P  P1  1  0.058955  0.058955  0.712020  1
  P  P2  1  0.941045  0.941045  0.287980  1
  Pt  Pt3  1  0.229787  0.229787  0.411649  1
  Pt  Pt4  1  0.822279  0.822279  0.845439  1
  Pt  Pt5  1  0.177721  0.177721  0.154561  1
  Pt  Pt6  1  0.165918  0.165918  0.848973  1
  Pt  Pt7  1  0.473397  0.473397  0.871299  1
  Pt  Pt8  1  0.526603  0.526603  0.128701  1
  Pt  Pt9  1  0.770213  0.770213  0.588351  1
  Pt  Pt10  1  0.834082  0.834082  0.151027  1
