# generated using pymatgen
data_Tb13Ho3(TmPb4)4
_symmetry_space_group_name_H-M   'P 1'
_cell_length_a   8.17800078
_cell_length_b   8.26763240
_cell_length_c   15.64960300
_cell_angle_alpha   89.99614685
_cell_angle_beta   90.08393995
_cell_angle_gamma   90.14473451
_symmetry_Int_Tables_number   1
_chemical_formula_structural   Tb13Ho3(TmPb4)4
_chemical_formula_sum   'Tb13 Ho3 Tm4 Pb16'
_cell_volume   1058.10746400
_cell_formula_units_Z   1
loop_
 _symmetry_equiv_pos_site_id
 _symmetry_equiv_pos_as_xyz
  1  'x, y, z'
loop_
 _atom_site_type_symbol
 _atom_site_label
 _atom_site_symmetry_multiplicity
 _atom_site_fract_x
 _atom_site_fract_y
 _atom_site_fract_z
 _atom_site_occupancy
  Tb  Tb0  1  0.125852  0.342199  0.120441  1
  Tb  Tb1  1  0.623783  0.158907  0.121565  1
  Tb  Tb2  1  0.123683  0.341922  0.379243  1
  Tb  Tb3  1  0.375932  0.842014  0.621129  1
  Tb  Tb4  1  0.876389  0.657928  0.879092  1
  Tb  Tb5  1  0.534651  0.323637  0.900781  1
  Tb  Tb6  1  0.035209  0.176473  0.599057  1
  Tb  Tb7  1  0.465583  0.677295  0.401521  1
  Tb  Tb8  1  0.964441  0.823980  0.099216  1
  Tb  Tb9  1  0.467170  0.677722  0.098499  1
  Tb  Tb10  1  0.968028  0.823018  0.402077  1
  Tb  Tb11  1  0.532591  0.323305  0.598603  1
  Tb  Tb12  1  0.034067  0.175081  0.899913  1
  Ho  Ho13  1  0.373739  0.843615  0.876980  1
  Ho  Ho14  1  0.872738  0.656359  0.621822  1
  Ho  Ho15  1  0.627001  0.156399  0.378925  1
  Tm  Tm16  1  0.206981  0.505374  0.750109  1
  Tm  Tm17  1  0.707141  0.995339  0.749537  1
  Tm  Tm18  1  0.792433  0.495064  0.251153  1
  Tm  Tm19  1  0.293255  0.004686  0.249800  1
  Pb  Pb20  1  0.282656  0.032574  0.042550  1
  Pb  Pb21  1  0.781520  0.465086  0.457220  1
  Pb  Pb22  1  0.718924  0.964333  0.543151  1
  Pb  Pb23  1  0.219261  0.535660  0.955835  1
  Pb  Pb24  1  0.714314  0.965480  0.955967  1
  Pb  Pb25  1  0.213648  0.534993  0.544327  1
  Pb  Pb26  1  0.286467  0.035448  0.455957  1
  Pb  Pb27  1  0.783067  0.466685  0.044518  1
  Pb  Pb28  1  0.569953  0.625584  0.750337  1
  Pb  Pb29  1  0.069226  0.874164  0.749087  1
  Pb  Pb30  1  0.430155  0.374430  0.251441  1
  Pb  Pb31  1  0.929866  0.124564  0.250105  1
  Pb  Pb32  1  0.346518  0.156062  0.749839  1
  Pb  Pb33  1  0.846411  0.344296  0.749599  1
  Pb  Pb34  1  0.654000  0.844751  0.250572  1
  Pb  Pb35  1  0.153346  0.655577  0.250029  1
