# generated using pymatgen
data_Dy2SiPt6
_symmetry_space_group_name_H-M   'P 1'
_cell_length_a   6.67701589
_cell_length_b   6.67701615
_cell_length_c   6.67701746
_cell_angle_alpha   50.15398187
_cell_angle_beta   50.15398193
_cell_angle_gamma   50.15397759
_symmetry_Int_Tables_number   1
_chemical_formula_structural   Dy2SiPt6
_chemical_formula_sum   'Dy2 Si1 Pt6'
_cell_volume   161.53930976
_cell_formula_units_Z   1
loop_
 _symmetry_equiv_pos_site_id
 _symmetry_equiv_pos_as_xyz
  1  'x, y, z'
loop_
 _atom_site_type_symbol
 _atom_site_label
 _atom_site_symmetry_multiplicity
 _atom_site_fract_x
 _atom_site_fract_y
 _atom_site_fract_z
 _atom_site_occupancy
  Dy  Dy0  1  0.219666  0.219666  0.219666  1
  Dy  Dy1  1  0.780334  0.780334  0.780334  1
  Si  Si2  1  0.500000  0.500000  0.500000  1
  Pt  Pt3  1  0.735283  0.231764  0.231765  1
  Pt  Pt4  1  0.231764  0.735283  0.231765  1
  Pt  Pt5  1  0.768236  0.768236  0.264716  1
  Pt  Pt6  1  0.231764  0.231764  0.735284  1
  Pt  Pt7  1  0.768236  0.264717  0.768235  1
  Pt  Pt8  1  0.264717  0.768236  0.768235  1
