# generated using pymatgen
data_Cd7Pd9
_symmetry_space_group_name_H-M   'P 1'
_cell_length_a   7.13842074
_cell_length_b   7.13842054
_cell_length_c   7.13842014
_cell_angle_alpha   106.35494379
_cell_angle_beta   106.35493810
_cell_angle_gamma   115.90154997
_symmetry_Int_Tables_number   1
_chemical_formula_structural   Cd7Pd9
_chemical_formula_sum   'Cd7 Pd9'
_cell_volume   277.34276816
_cell_formula_units_Z   1
loop_
 _symmetry_equiv_pos_site_id
 _symmetry_equiv_pos_as_xyz
  1  'x, y, z'
loop_
 _atom_site_type_symbol
 _atom_site_label
 _atom_site_symmetry_multiplicity
 _atom_site_fract_x
 _atom_site_fract_y
 _atom_site_fract_z
 _atom_site_occupancy
  Cd  Cd0  1  0.500000  0.000000  0.500000  1
  Cd  Cd1  1  0.000000  0.500000  0.500000  1
  Cd  Cd2  1  0.500000  0.500000  0.000000  1
  Cd  Cd3  1  0.240785  0.240785  0.481571  1
  Cd  Cd4  1  0.759215  0.759215  0.518429  1
  Cd  Cd5  1  0.240785  0.759215  0.000000  1
  Cd  Cd6  1  0.759215  0.240785  0.000000  1
  Pd  Pd7  1  0.505943  0.256958  0.248984  1
  Pd  Pd8  1  0.494057  0.743042  0.751016  1
  Pd  Pd9  1  0.007973  0.256958  0.751016  1
  Pd  Pd10  1  0.256958  0.007973  0.751016  1
  Pd  Pd11  1  0.992027  0.743042  0.248984  1
  Pd  Pd12  1  0.743042  0.992027  0.248984  1
  Pd  Pd13  1  0.256958  0.505943  0.248984  1
  Pd  Pd14  1  0.743042  0.494057  0.751016  1
  Pd  Pd15  1  0.000000  0.000000  0.000000  1
