# generated using pymatgen
data_Y2ErCu4(SiSn)2
_symmetry_space_group_name_H-M   'P 1'
_cell_length_a   8.18856674
_cell_length_b   8.18856726
_cell_length_c   8.18856659
_cell_angle_alpha   149.33793450
_cell_angle_beta   132.04954556
_cell_angle_gamma   57.99703061
_symmetry_Int_Tables_number   1
_chemical_formula_structural   Y2ErCu4(SiSn)2
_chemical_formula_sum   'Y2 Er1 Cu4 Si2 Sn2'
_cell_volume   206.37374775
_cell_formula_units_Z   1
loop_
 _symmetry_equiv_pos_site_id
 _symmetry_equiv_pos_as_xyz
  1  'x, y, z'
loop_
 _atom_site_type_symbol
 _atom_site_label
 _atom_site_symmetry_multiplicity
 _atom_site_fract_x
 _atom_site_fract_y
 _atom_site_fract_z
 _atom_site_occupancy
  Y  Y0  1  0.500121  0.000121  0.500000  1
  Y  Y1  1  0.876087  0.876087  0.000000  1
  Er  Er2  1  0.123917  0.123917  0.000000  1
  Cu  Cu3  1  0.463646  0.653302  0.810343  1
  Cu  Cu4  1  0.842958  0.653302  0.189657  1
  Cu  Cu5  1  0.157899  0.346631  0.811267  1
  Cu  Cu6  1  0.535365  0.346631  0.188733  1
  Si  Si7  1  0.181031  0.500243  0.680788  1
  Si  Si8  1  0.819456  0.500243  0.319212  1
  Sn  Sn9  1  0.718326  0.218326  0.500000  1
  Sn  Sn10  1  0.281195  0.781195  0.500000  1
