# generated using pymatgen
data_La6Y13ThSn16
_symmetry_space_group_name_H-M   'P 1'
_cell_length_a   8.17869300
_cell_length_b   8.33076631
_cell_length_c   15.71723100
_cell_angle_alpha   90.05937444
_cell_angle_beta   90.45066803
_cell_angle_gamma   89.82014261
_symmetry_Int_Tables_number   1
_chemical_formula_structural   La6Y13ThSn16
_chemical_formula_sum   'La6 Y13 Th1 Sn16'
_cell_volume   1070.85112682
_cell_formula_units_Z   1
loop_
 _symmetry_equiv_pos_site_id
 _symmetry_equiv_pos_as_xyz
  1  'x, y, z'
loop_
 _atom_site_type_symbol
 _atom_site_label
 _atom_site_symmetry_multiplicity
 _atom_site_fract_x
 _atom_site_fract_y
 _atom_site_fract_z
 _atom_site_occupancy
  La  La0  1  0.014591  0.179132  0.598867  1
  La  La1  1  0.486898  0.678283  0.404145  1
  La  La2  1  0.985044  0.821792  0.095341  1
  La  La3  1  0.485104  0.676581  0.094724  1
  La  La4  1  0.986617  0.821862  0.403937  1
  La  La5  1  0.512729  0.323169  0.596669  1
  Y  Y6  1  0.361327  0.835842  0.877549  1
  Y  Y7  1  0.858402  0.664757  0.625160  1
  Y  Y8  1  0.641122  0.164260  0.376555  1
  Y  Y9  1  0.136201  0.336595  0.121386  1
  Y  Y10  1  0.637396  0.162453  0.121404  1
  Y  Y11  1  0.142023  0.336414  0.377044  1
  Y  Y12  1  0.357925  0.837352  0.625889  1
  Y  Y13  1  0.861458  0.662503  0.877992  1
  Y  Y14  1  0.521195  0.320561  0.900977  1
  Y  Y15  1  0.193411  0.500389  0.751597  1
  Y  Y16  1  0.692399  0.997809  0.751244  1
  Y  Y17  1  0.805531  0.497246  0.249735  1
  Y  Y18  1  0.305934  0.002266  0.248630  1
  Th  Th19  1  0.015400  0.180749  0.902123  1
  Sn  Sn20  1  0.299776  0.043746  0.039074  1
  Sn  Sn21  1  0.807483  0.458633  0.458414  1
  Sn  Sn22  1  0.692860  0.960100  0.543376  1
  Sn  Sn23  1  0.203460  0.530527  0.954567  1
  Sn  Sn24  1  0.699595  0.966135  0.955475  1
  Sn  Sn25  1  0.191729  0.543547  0.543209  1
  Sn  Sn26  1  0.307700  0.041217  0.458617  1
  Sn  Sn27  1  0.798621  0.452993  0.038367  1
  Sn  Sn28  1  0.558375  0.623084  0.751430  1
  Sn  Sn29  1  0.057594  0.877224  0.753306  1
  Sn  Sn30  1  0.440502  0.374442  0.248659  1
  Sn  Sn31  1  0.940730  0.125538  0.249486  1
  Sn  Sn32  1  0.326095  0.145672  0.753940  1
  Sn  Sn33  1  0.820550  0.358645  0.752018  1
  Sn  Sn34  1  0.676622  0.858103  0.249463  1
  Sn  Sn35  1  0.177594  0.640379  0.249633  1
