# generated using pymatgen
data_ScSbO4
_symmetry_space_group_name_H-M   'P 1'
_cell_length_a   5.71504500
_cell_length_b   4.83761699
_cell_length_c   5.23072279
_cell_angle_alpha   87.24447272
_cell_angle_beta   90.00000000
_cell_angle_gamma   90.00000000
_symmetry_Int_Tables_number   1
_chemical_formula_structural   ScSbO4
_chemical_formula_sum   'Sc2 Sb2 O8'
_cell_volume   144.44762238
_cell_formula_units_Z   2
loop_
 _symmetry_equiv_pos_site_id
 _symmetry_equiv_pos_as_xyz
  1  'x, y, z'
loop_
 _atom_site_type_symbol
 _atom_site_label
 _atom_site_symmetry_multiplicity
 _atom_site_fract_x
 _atom_site_fract_y
 _atom_site_fract_z
 _atom_site_occupancy
  Sc  Sc0  1  0.336473  0.500000  0.250000  1
  Sc  Sc1  1  0.663527  0.500000  0.750000  1
  Sb  Sb2  1  0.836897  0.000000  0.250000  1
  Sb  Sb3  1  0.163103  0.000000  0.750000  1
  O  O4  1  0.104453  0.779250  0.434680  1
  O  O5  1  0.614950  0.734462  0.407945  1
  O  O6  1  0.104453  0.220750  0.065320  1
  O  O7  1  0.385050  0.265538  0.592055  1
  O  O8  1  0.614950  0.265538  0.092055  1
  O  O9  1  0.895547  0.779250  0.934680  1
  O  O10  1  0.385050  0.734462  0.907945  1
  O  O11  1  0.895547  0.220750  0.565320  1
