# generated using pymatgen
data_Cs3NaYbBr6
_symmetry_space_group_name_H-M   'P 1'
_cell_length_a   9.58992554
_cell_length_b   9.58992638
_cell_length_c   9.58992759
_cell_angle_alpha   93.67359185
_cell_angle_beta   93.67359187
_cell_angle_gamma   93.67359047
_symmetry_Int_Tables_number   1
_chemical_formula_structural   Cs3NaYbBr6
_chemical_formula_sum   'Cs6 Na2 Yb2 Br12'
_cell_volume   876.27253664
_cell_formula_units_Z   2
loop_
 _symmetry_equiv_pos_site_id
 _symmetry_equiv_pos_as_xyz
  1  'x, y, z'
loop_
 _atom_site_type_symbol
 _atom_site_label
 _atom_site_symmetry_multiplicity
 _atom_site_fract_x
 _atom_site_fract_y
 _atom_site_fract_z
 _atom_site_occupancy
  Cs  Cs0  1  0.868981  0.631019  0.250000  1
  Cs  Cs1  1  0.631019  0.250000  0.868981  1
  Cs  Cs2  1  0.250000  0.868981  0.631019  1
  Cs  Cs3  1  0.131019  0.368981  0.750000  1
  Cs  Cs4  1  0.368981  0.750000  0.131019  1
  Cs  Cs5  1  0.750000  0.131019  0.368981  1
  Na  Na6  1  0.250000  0.250000  0.250000  1
  Na  Na7  1  0.750000  0.750000  0.750000  1
  Yb  Yb8  1  0.000000  0.000000  0.000000  1
  Yb  Yb9  1  0.500000  0.500000  0.500000  1
  Br  Br10  1  0.210289  0.534212  0.414929  1
  Br  Br11  1  0.034212  0.710289  0.914929  1
  Br  Br12  1  0.914929  0.034212  0.710289  1
  Br  Br13  1  0.789711  0.465788  0.585071  1
  Br  Br14  1  0.710289  0.914929  0.034212  1
  Br  Br15  1  0.465788  0.585071  0.789711  1
  Br  Br16  1  0.585071  0.789711  0.465788  1
  Br  Br17  1  0.534212  0.414929  0.210289  1
  Br  Br18  1  0.085071  0.965788  0.289711  1
  Br  Br19  1  0.965788  0.289711  0.085071  1
  Br  Br20  1  0.289711  0.085071  0.965788  1
  Br  Br21  1  0.414929  0.210289  0.534212  1
