# generated using pymatgen
data_TaBe3CuRu
_symmetry_space_group_name_H-M   'P 1'
_cell_length_a   4.51767076
_cell_length_b   4.51767052
_cell_length_c   4.51767075
_cell_angle_alpha   60.51209705
_cell_angle_beta   60.51209843
_cell_angle_gamma   60.51209253
_symmetry_Int_Tables_number   1
_chemical_formula_structural   TaBe3CuRu
_chemical_formula_sum   'Ta1 Be3 Cu1 Ru1'
_cell_volume   65.95165238
_cell_formula_units_Z   1
loop_
 _symmetry_equiv_pos_site_id
 _symmetry_equiv_pos_as_xyz
  1  'x, y, z'
loop_
 _atom_site_type_symbol
 _atom_site_label
 _atom_site_symmetry_multiplicity
 _atom_site_fract_x
 _atom_site_fract_y
 _atom_site_fract_z
 _atom_site_occupancy
  Ta  Ta0  1  0.248665  0.248665  0.248665  1
  Be  Be1  1  0.121441  0.625415  0.625415  1
  Be  Be2  1  0.625415  0.121441  0.625415  1
  Be  Be3  1  0.625415  0.625415  0.121441  1
  Cu  Cu4  1  0.622657  0.622657  0.622657  1
  Ru  Ru5  1  0.006409  0.006409  0.006409  1
