# generated using pymatgen
data_Y4Tc3MoRu4
_symmetry_space_group_name_H-M   'P 1'
_cell_length_a   5.47219800
_cell_length_b   5.20871661
_cell_length_c   9.18494600
_cell_angle_alpha   90.00000000
_cell_angle_beta   90.00000000
_cell_angle_gamma   121.68793929
_symmetry_Int_Tables_number   1
_chemical_formula_structural   Y4Tc3MoRu4
_chemical_formula_sum   'Y4 Tc3 Mo1 Ru4'
_cell_volume   222.77104375
_cell_formula_units_Z   1
loop_
 _symmetry_equiv_pos_site_id
 _symmetry_equiv_pos_as_xyz
  1  'x, y, z'
loop_
 _atom_site_type_symbol
 _atom_site_label
 _atom_site_symmetry_multiplicity
 _atom_site_fract_x
 _atom_site_fract_y
 _atom_site_fract_z
 _atom_site_occupancy
  Y  Y0  1  0.331036  0.662072  0.434999  1
  Y  Y1  1  0.672568  0.345134  0.566495  1
  Y  Y2  1  0.672568  0.345134  0.933505  1
  Y  Y3  1  0.331036  0.662072  0.065001  1
  Tc  Tc4  1  0.349576  0.170836  0.250000  1
  Tc  Tc5  1  0.837978  0.675955  0.250000  1
  Tc  Tc6  1  0.821260  0.170836  0.250000  1
  Mo  Mo7  1  0.151663  0.303327  0.750000  1
  Ru  Ru8  1  0.178361  0.821710  0.750000  1
  Ru  Ru9  1  0.643350  0.821710  0.750000  1
  Ru  Ru10  1  0.005303  0.010607  0.999036  1
  Ru  Ru11  1  0.005303  0.010607  0.500964  1
