# generated using pymatgen
data_Nd2YTm13(In3Ir)2
_symmetry_space_group_name_H-M   'P 1'
_cell_length_a   10.31118900
_cell_length_b   10.32507003
_cell_length_c   7.13882507
_cell_angle_alpha   90.03776521
_cell_angle_beta   90.00000000
_cell_angle_gamma   119.95553435
_symmetry_Int_Tables_number   1
_chemical_formula_structural   Nd2YTm13(In3Ir)2
_chemical_formula_sum   'Nd2 Y1 Tm13 In6 Ir2'
_cell_volume   658.49641824
_cell_formula_units_Z   1
loop_
 _symmetry_equiv_pos_site_id
 _symmetry_equiv_pos_as_xyz
  1  'x, y, z'
loop_
 _atom_site_type_symbol
 _atom_site_label
 _atom_site_symmetry_multiplicity
 _atom_site_fract_x
 _atom_site_fract_y
 _atom_site_fract_z
 _atom_site_occupancy
  Nd  Nd0  1  0.000230  0.000460  0.779026  1
  Nd  Nd1  1  0.999867  0.999734  0.279345  1
  Y  Y2  1  0.533366  0.066732  0.792286  1
  Tm  Tm3  1  0.930445  0.465112  0.792598  1
  Tm  Tm4  1  0.534669  0.465112  0.792598  1
  Tm  Tm5  1  0.464798  0.929594  0.292870  1
  Tm  Tm6  1  0.069692  0.535074  0.293371  1
  Tm  Tm7  1  0.465383  0.535074  0.293371  1
  Tm  Tm8  1  0.822065  0.644130  0.496587  1
  Tm  Tm9  1  0.356790  0.179147  0.494912  1
  Tm  Tm10  1  0.822357  0.179147  0.494912  1
  Tm  Tm11  1  0.178424  0.356848  0.997224  1
  Tm  Tm12  1  0.643704  0.820794  0.997533  1
  Tm  Tm13  1  0.177091  0.820794  0.997533  1
  Tm  Tm14  1  0.667125  0.334249  0.177726  1
  Tm  Tm15  1  0.332745  0.665490  0.678259  1
  In  In16  1  0.834699  0.669400  0.041235  1
  In  In17  1  0.329671  0.164883  0.041676  1
  In  In18  1  0.835211  0.164883  0.041676  1
  In  In19  1  0.165098  0.330197  0.542234  1
  In  In20  1  0.669773  0.835518  0.542034  1
  In  In21  1  0.165747  0.835518  0.542034  1
  Ir  Ir22  1  0.667744  0.335488  0.566382  1
  Ir  Ir23  1  0.333307  0.666616  0.068481  1
