# generated using pymatgen
data_TbHoFe4(PRh)6
_symmetry_space_group_name_H-M   'P 1'
_cell_length_a   3.80460400
_cell_length_b   10.54875900
_cell_length_c   12.26436200
_cell_angle_alpha   90.00000000
_cell_angle_beta   90.00000000
_cell_angle_gamma   90.00000000
_symmetry_Int_Tables_number   1
_chemical_formula_structural   TbHoFe4(PRh)6
_chemical_formula_sum   'Tb2 Ho2 Fe8 P12 Rh12'
_cell_volume   492.21607327
_cell_formula_units_Z   2
loop_
 _symmetry_equiv_pos_site_id
 _symmetry_equiv_pos_as_xyz
  1  'x, y, z'
loop_
 _atom_site_type_symbol
 _atom_site_label
 _atom_site_symmetry_multiplicity
 _atom_site_fract_x
 _atom_site_fract_y
 _atom_site_fract_z
 _atom_site_occupancy
  Tb  Tb0  1  0.750000  0.421275  0.289945  1
  Tb  Tb1  1  0.750000  0.078725  0.789945  1
  Ho  Ho2  1  0.250000  0.578580  0.710240  1
  Ho  Ho3  1  0.250000  0.921420  0.210240  1
  Fe  Fe4  1  0.250000  0.875516  0.698284  1
  Fe  Fe5  1  0.250000  0.624484  0.198284  1
  Fe  Fe6  1  0.750000  0.123616  0.301378  1
  Fe  Fe7  1  0.750000  0.376384  0.801378  1
  Fe  Fe8  1  0.250000  0.459572  0.934102  1
  Fe  Fe9  1  0.250000  0.040428  0.434102  1
  Fe  Fe10  1  0.750000  0.541138  0.065307  1
  Fe  Fe11  1  0.750000  0.958862  0.565307  1
  P  P12  1  0.250000  0.441071  0.111443  1
  P  P13  1  0.250000  0.058929  0.611443  1
  P  P14  1  0.750000  0.559281  0.887705  1
  P  P15  1  0.750000  0.940719  0.387705  1
  P  P16  1  0.250000  0.272627  0.864110  1
  P  P17  1  0.250000  0.227373  0.364110  1
  P  P18  1  0.750000  0.727792  0.136140  1
  P  P19  1  0.750000  0.772208  0.636140  1
  P  P20  1  0.250000  0.602311  0.381174  1
  P  P21  1  0.250000  0.897689  0.881174  1
  P  P22  1  0.750000  0.398395  0.619200  1
  P  P23  1  0.750000  0.101605  0.119200  1
  Rh  Rh24  1  0.250000  0.713723  0.990816  1
  Rh  Rh25  1  0.250000  0.786277  0.490816  1
  Rh  Rh26  1  0.750000  0.286330  0.009189  1
  Rh  Rh27  1  0.750000  0.213670  0.509189  1
  Rh  Rh28  1  0.250000  0.408128  0.479587  1
  Rh  Rh29  1  0.250000  0.091872  0.979587  1
  Rh  Rh30  1  0.750000  0.592201  0.521372  1
  Rh  Rh31  1  0.750000  0.907799  0.021372  1
  Rh  Rh32  1  0.250000  0.232196  0.174120  1
  Rh  Rh33  1  0.250000  0.267804  0.674120  1
  Rh  Rh34  1  0.750000  0.767180  0.825888  1
  Rh  Rh35  1  0.750000  0.732820  0.325888  1
