# generated using pymatgen
data_Er10In3SnBi2
_symmetry_space_group_name_H-M   'P 1'
_cell_length_a   8.97586232
_cell_length_b   8.94697562
_cell_length_c   6.56302800
_cell_angle_alpha   90.00000000
_cell_angle_beta   90.00000000
_cell_angle_gamma   119.94392777
_symmetry_Int_Tables_number   1
_chemical_formula_structural   Er10In3SnBi2
_chemical_formula_sum   'Er10 In3 Sn1 Bi2'
_cell_volume   456.70149516
_cell_formula_units_Z   1
loop_
 _symmetry_equiv_pos_site_id
 _symmetry_equiv_pos_as_xyz
  1  'x, y, z'
loop_
 _atom_site_type_symbol
 _atom_site_label
 _atom_site_symmetry_multiplicity
 _atom_site_fract_x
 _atom_site_fract_y
 _atom_site_fract_z
 _atom_site_occupancy
  Er  Er0  1  0.992527  0.757977  0.750000  1
  Er  Er1  1  0.994739  0.236248  0.250000  1
  Er  Er2  1  0.768004  0.765462  0.250000  1
  Er  Er3  1  0.766376  0.000338  0.750000  1
  Er  Er4  1  0.233506  0.241670  0.750000  1
  Er  Er5  1  0.234044  0.992456  0.250000  1
  Er  Er6  1  0.331374  0.665313  0.500691  1
  Er  Er7  1  0.676223  0.338941  0.999236  1
  Er  Er8  1  0.676223  0.338941  0.500764  1
  Er  Er9  1  0.331374  0.665313  0.999309  1
  In  In10  1  0.001515  0.602541  0.250000  1
  In  In11  1  0.001263  0.398763  0.750000  1
  In  In12  1  0.601386  0.603015  0.750000  1
  Sn  Sn13  1  0.602981  0.998647  0.250000  1
  Bi  Bi14  1  0.394110  0.002493  0.750000  1
  Bi  Bi15  1  0.394354  0.391883  0.250000  1
