# generated using pymatgen
data_Tm3Cu3Sb4
_symmetry_space_group_name_H-M   'P 1'
_cell_length_a   8.25406584
_cell_length_b   8.25406533
_cell_length_c   8.25406700
_cell_angle_alpha   109.47121982
_cell_angle_beta   109.47121858
_cell_angle_gamma   109.47122393
_symmetry_Int_Tables_number   1
_chemical_formula_structural   Tm3Cu3Sb4
_chemical_formula_sum   'Tm6 Cu6 Sb8'
_cell_volume   432.89435978
_cell_formula_units_Z   2
loop_
 _symmetry_equiv_pos_site_id
 _symmetry_equiv_pos_as_xyz
  1  'x, y, z'
loop_
 _atom_site_type_symbol
 _atom_site_label
 _atom_site_symmetry_multiplicity
 _atom_site_fract_x
 _atom_site_fract_y
 _atom_site_fract_z
 _atom_site_occupancy
  Tm  Tm0  1  0.875000  0.125000  0.750000  1
  Tm  Tm1  1  0.125000  0.750000  0.875000  1
  Tm  Tm2  1  0.750000  0.875000  0.125000  1
  Tm  Tm3  1  0.250000  0.625000  0.375000  1
  Tm  Tm4  1  0.625000  0.375000  0.250000  1
  Tm  Tm5  1  0.375000  0.250000  0.625000  1
  Cu  Cu6  1  0.125000  0.875000  0.250000  1
  Cu  Cu7  1  0.250000  0.125000  0.875000  1
  Cu  Cu8  1  0.750000  0.375000  0.625000  1
  Cu  Cu9  1  0.625000  0.750000  0.375000  1
  Cu  Cu10  1  0.875000  0.250000  0.125000  1
  Cu  Cu11  1  0.375000  0.625000  0.750000  1
  Sb  Sb12  1  0.500000  0.000000  0.339443  1
  Sb  Sb13  1  0.000000  0.339443  0.500000  1
  Sb  Sb14  1  0.339443  0.500000  0.000000  1
  Sb  Sb15  1  0.000000  0.839443  0.500000  1
  Sb  Sb16  1  0.660557  0.660557  0.660557  1
  Sb  Sb17  1  0.839443  0.500000  0.000000  1
  Sb  Sb18  1  0.160557  0.160557  0.160557  1
  Sb  Sb19  1  0.500000  0.000000  0.839443  1
