# generated using pymatgen
data_HfPdAu3
_symmetry_space_group_name_H-M   'P 1'
_cell_length_a   5.10967599
_cell_length_b   5.10967620
_cell_length_c   5.05143102
_cell_angle_alpha   99.65056917
_cell_angle_beta   98.92927158
_cell_angle_gamma   132.90822604
_symmetry_Int_Tables_number   1
_chemical_formula_structural   HfPdAu3
_chemical_formula_sum   'Hf1 Pd1 Au3'
_cell_volume   88.35930645
_cell_formula_units_Z   1
loop_
 _symmetry_equiv_pos_site_id
 _symmetry_equiv_pos_as_xyz
  1  'x, y, z'
loop_
 _atom_site_type_symbol
 _atom_site_label
 _atom_site_symmetry_multiplicity
 _atom_site_fract_x
 _atom_site_fract_y
 _atom_site_fract_z
 _atom_site_occupancy
  Hf  Hf0  1  0.000784  0.996208  0.996993  1
  Pd  Pd1  1  0.397494  0.206504  0.603998  1
  Au  Au2  1  0.604170  0.797088  0.401257  1
  Au  Au3  1  0.795638  0.399725  0.195362  1
  Au  Au4  1  0.201914  0.600475  0.802389  1
