# generated using pymatgen
data_K8EuBi3F20
_symmetry_space_group_name_H-M   'P 1'
_cell_length_a   6.77129466
_cell_length_b   7.58398500
_cell_length_c   11.07584845
_cell_angle_alpha   90.00000000
_cell_angle_beta   90.23710546
_cell_angle_gamma   90.00000000
_symmetry_Int_Tables_number   1
_chemical_formula_structural   K8EuBi3F20
_chemical_formula_sum   'K8 Eu1 Bi3 F20'
_cell_volume   568.77757330
_cell_formula_units_Z   1
loop_
 _symmetry_equiv_pos_site_id
 _symmetry_equiv_pos_as_xyz
  1  'x, y, z'
loop_
 _atom_site_type_symbol
 _atom_site_label
 _atom_site_symmetry_multiplicity
 _atom_site_fract_x
 _atom_site_fract_y
 _atom_site_fract_z
 _atom_site_occupancy
  K  K0  1  0.528707  0.498252  0.829097  1
  K  K1  1  0.472590  0.502555  0.170667  1
  K  K2  1  0.029326  0.502463  0.672640  1
  K  K3  1  0.472590  0.997445  0.170667  1
  K  K4  1  0.969848  0.497124  0.327742  1
  K  K5  1  0.528707  0.001748  0.829097  1
  K  K6  1  0.969848  0.002876  0.327742  1
  K  K7  1  0.029326  0.997537  0.672640  1
  Eu  Eu8  1  0.939342  0.750000  0.001262  1
  Bi  Bi9  1  0.563915  0.750000  0.502874  1
  Bi  Bi10  1  0.435527  0.250000  0.497055  1
  Bi  Bi11  1  0.062476  0.250000  0.998083  1
  F  F12  1  0.832775  0.750000  0.806765  1
  F  F13  1  0.168384  0.250000  0.195677  1
  F  F14  1  0.333434  0.250000  0.694598  1
  F  F15  1  0.666378  0.750000  0.305354  1
  F  F16  1  0.361023  0.750000  0.670632  1
  F  F17  1  0.638853  0.250000  0.329358  1
  F  F18  1  0.859695  0.250000  0.829675  1
  F  F19  1  0.130255  0.750000  0.168244  1
  F  F20  1  0.902328  0.750000  0.513136  1
  F  F21  1  0.097093  0.250000  0.487357  1
  F  F22  1  0.401241  0.250000  0.988154  1
  F  F23  1  0.603361  0.750000  0.012939  1
  F  F24  1  0.648810  0.034699  0.581506  1
  F  F25  1  0.350683  0.965160  0.417954  1
  F  F26  1  0.147672  0.966249  0.919071  1
  F  F27  1  0.350683  0.534840  0.417954  1
  F  F28  1  0.854326  0.031729  0.080742  1
  F  F29  1  0.648810  0.465301  0.581506  1
  F  F30  1  0.854326  0.468271  0.080742  1
  F  F31  1  0.147672  0.533751  0.919071  1
