# generated using pymatgen
data_Pr2Sm4OsBr10
_symmetry_space_group_name_H-M   'P 1'
_cell_length_a   7.61726782
_cell_length_b   9.56588664
_cell_length_c   9.47084531
_cell_angle_alpha   107.58778427
_cell_angle_beta   95.84124559
_cell_angle_gamma   106.45071243
_symmetry_Int_Tables_number   1
_chemical_formula_structural   Pr2Sm4OsBr10
_chemical_formula_sum   'Pr2 Sm4 Os1 Br10'
_cell_volume   617.52486813
_cell_formula_units_Z   1
loop_
 _symmetry_equiv_pos_site_id
 _symmetry_equiv_pos_as_xyz
  1  'x, y, z'
loop_
 _atom_site_type_symbol
 _atom_site_label
 _atom_site_symmetry_multiplicity
 _atom_site_fract_x
 _atom_site_fract_y
 _atom_site_fract_z
 _atom_site_occupancy
  Pr  Pr0  1  0.625623  0.548832  0.260979  1
  Pr  Pr1  1  0.374377  0.451168  0.739021  1
  Sm  Sm2  1  0.529472  0.197374  0.405326  1
  Sm  Sm3  1  0.470528  0.802626  0.594674  1
  Sm  Sm4  1  0.132977  0.358261  0.317229  1
  Sm  Sm5  1  0.867023  0.641739  0.682771  1
  Os  Os6  1  0.500000  0.500000  0.500000  1
  Br  Br7  1  0.151789  0.048289  0.230132  1
  Br  Br8  1  0.848211  0.951711  0.769868  1
  Br  Br9  1  0.245276  0.414413  0.049773  1
  Br  Br10  1  0.754724  0.585587  0.950227  1
  Br  Br11  1  0.710782  0.242017  0.155906  1
  Br  Br12  1  0.289218  0.757983  0.844094  1
  Br  Br13  1  0.050532  0.673896  0.418642  1
  Br  Br14  1  0.949468  0.326104  0.581358  1
  Br  Br15  1  0.414775  0.127407  0.669399  1
  Br  Br16  1  0.585225  0.872593  0.330601  1
