# generated using pymatgen
data_CaGa4SnBr16
_symmetry_space_group_name_H-M   'P 1'
_cell_length_a   7.75287029
_cell_length_b   7.86356928
_cell_length_c   14.49988118
_cell_angle_alpha   87.79512091
_cell_angle_beta   89.64122959
_cell_angle_gamma   90.15818180
_symmetry_Int_Tables_number   1
_chemical_formula_structural   CaGa4SnBr16
_chemical_formula_sum   'Ca1 Ga4 Sn1 Br16'
_cell_volume   883.31286057
_cell_formula_units_Z   1
loop_
 _symmetry_equiv_pos_site_id
 _symmetry_equiv_pos_as_xyz
  1  'x, y, z'
loop_
 _atom_site_type_symbol
 _atom_site_label
 _atom_site_symmetry_multiplicity
 _atom_site_fract_x
 _atom_site_fract_y
 _atom_site_fract_z
 _atom_site_occupancy
  Ca  Ca0  1  0.244672  0.078592  0.312384  1
  Ga  Ga1  1  0.939683  0.222607  0.576331  1
  Ga  Ga2  1  0.066035  0.219365  0.080233  1
  Ga  Ga3  1  0.566047  0.640322  0.777867  1
  Ga  Ga4  1  0.425903  0.640867  0.277688  1
  Sn  Sn5  1  0.759122  0.076292  0.813564  1
  Br  Br6  1  0.427778  0.614309  0.639623  1
  Br  Br7  1  0.573970  0.613385  0.141758  1
  Br  Br8  1  0.863655  0.729601  0.761806  1
  Br  Br9  1  0.132498  0.732414  0.262160  1
  Br  Br10  1  0.939415  0.478242  0.494233  1
  Br  Br11  1  0.058549  0.473341  0.996854  1
  Br  Br12  1  0.927661  0.991904  0.004246  1
  Br  Br13  1  0.080155  0.999926  0.496069  1
  Br  Br14  1  0.652417  0.125589  0.615502  1
  Br  Br15  1  0.354007  0.128881  0.118537  1
  Br  Br16  1  0.554933  0.391892  0.876865  1
  Br  Br17  1  0.432911  0.384498  0.374002  1
  Br  Br18  1  0.442816  0.865148  0.864806  1
  Br  Br19  1  0.546479  0.865931  0.365500  1
  Br  Br20  1  0.933816  0.230169  0.230557  1
  Br  Br21  1  0.077477  0.231529  0.723818  1
