# generated using pymatgen
data_RbSb12(RuRh)2
_symmetry_space_group_name_H-M   'P 1'
_cell_length_a   8.16625420
_cell_length_b   8.16597524
_cell_length_c   8.16442928
_cell_angle_alpha   109.41003568
_cell_angle_beta   109.49896992
_cell_angle_gamma   109.47314427
_symmetry_Int_Tables_number   1
_chemical_formula_structural   RbSb12(RuRh)2
_chemical_formula_sum   'Rb1 Sb12 Ru2 Rh2'
_cell_volume   419.27934597
_cell_formula_units_Z   1
loop_
 _symmetry_equiv_pos_site_id
 _symmetry_equiv_pos_as_xyz
  1  'x, y, z'
loop_
 _atom_site_type_symbol
 _atom_site_label
 _atom_site_symmetry_multiplicity
 _atom_site_fract_x
 _atom_site_fract_y
 _atom_site_fract_z
 _atom_site_occupancy
  Rb  Rb0  1  0.000000  0.000000  0.000000  1
  Sb  Sb1  1  0.654129  0.840325  0.498146  1
  Sb  Sb2  1  0.345871  0.159675  0.501854  1
  Sb  Sb3  1  0.839865  0.185452  0.342118  1
  Sb  Sb4  1  0.811310  0.654724  0.156925  1
  Sb  Sb5  1  0.840420  0.498199  0.654321  1
  Sb  Sb6  1  0.188690  0.345276  0.843075  1
  Sb  Sb7  1  0.160135  0.814548  0.657882  1
  Sb  Sb8  1  0.498785  0.658213  0.840530  1
  Sb  Sb9  1  0.501215  0.341787  0.159470  1
  Sb  Sb10  1  0.159580  0.501801  0.345679  1
  Sb  Sb11  1  0.345571  0.843489  0.185947  1
  Sb  Sb12  1  0.654429  0.156511  0.814053  1
  Ru  Ru13  1  0.500000  0.500000  0.500000  1
  Ru  Ru14  1  0.500000  0.000000  0.000000  1
  Rh  Rh15  1  0.000000  0.000000  0.500000  1
  Rh  Rh16  1  0.000000  0.500000  0.000000  1
