# generated using pymatgen
data_Ho2ErSn3Ir2Pd
_symmetry_space_group_name_H-M   'P 1'
_cell_length_a   7.57121002
_cell_length_b   7.57402570
_cell_length_c   3.87616600
_cell_angle_alpha   90.00000000
_cell_angle_beta   90.00000000
_cell_angle_gamma   119.99604664
_symmetry_Int_Tables_number   1
_chemical_formula_structural   Ho2ErSn3Ir2Pd
_chemical_formula_sum   'Ho2 Er1 Sn3 Ir2 Pd1'
_cell_volume   192.50515626
_cell_formula_units_Z   1
loop_
 _symmetry_equiv_pos_site_id
 _symmetry_equiv_pos_as_xyz
  1  'x, y, z'
loop_
 _atom_site_type_symbol
 _atom_site_label
 _atom_site_symmetry_multiplicity
 _atom_site_fract_x
 _atom_site_fract_y
 _atom_site_fract_z
 _atom_site_occupancy
  Ho  Ho0  1  0.396116  0.408867  0.500000  1
  Ho  Ho1  1  0.591080  0.987300  0.500000  1
  Er  Er2  1  0.013010  0.604184  0.500000  1
  Sn  Sn3  1  0.740121  0.737645  0.000000  1
  Sn  Sn4  1  0.262098  0.001993  0.000000  1
  Sn  Sn5  1  0.997725  0.260206  0.000000  1
  Ir  Ir6  1  0.332824  0.666518  0.000000  1
  Ir  Ir7  1  0.999985  0.999675  0.500000  1
  Pd  Pd8  1  0.667041  0.333613  0.000000  1
