# generated using pymatgen
data_Rb4ScUI12
_symmetry_space_group_name_H-M   'P 1'
_cell_length_a   8.39184600
_cell_length_b   8.39184600
_cell_length_c   12.41937900
_cell_angle_alpha   90.00000000
_cell_angle_beta   90.00000000
_cell_angle_gamma   90.00000000
_symmetry_Int_Tables_number   1
_chemical_formula_structural   Rb4ScUI12
_chemical_formula_sum   'Rb4 Sc1 U1 I12'
_cell_volume   874.61091202
_cell_formula_units_Z   1
loop_
 _symmetry_equiv_pos_site_id
 _symmetry_equiv_pos_as_xyz
  1  'x, y, z'
loop_
 _atom_site_type_symbol
 _atom_site_label
 _atom_site_symmetry_multiplicity
 _atom_site_fract_x
 _atom_site_fract_y
 _atom_site_fract_z
 _atom_site_occupancy
  Rb  Rb0  1  0.500000  0.000000  0.797413  1
  Rb  Rb1  1  0.500000  0.000000  0.202587  1
  Rb  Rb2  1  0.000000  0.500000  0.202587  1
  Rb  Rb3  1  0.000000  0.500000  0.797413  1
  Sc  Sc4  1  0.000000  0.000000  0.000000  1
  U  U5  1  0.500000  0.500000  0.500000  1
  I  I6  1  0.763785  0.254487  0.000000  1
  I  I7  1  0.236215  0.745513  0.000000  1
  I  I8  1  0.500000  0.500000  0.261385  1
  I  I9  1  0.294135  0.217753  0.500000  1
  I  I10  1  0.254487  0.236215  0.000000  1
  I  I11  1  0.782247  0.294135  0.500000  1
  I  I12  1  0.000000  0.000000  0.234741  1
  I  I13  1  0.705865  0.782247  0.500000  1
  I  I14  1  0.217753  0.705865  0.500000  1
  I  I15  1  0.500000  0.500000  0.738615  1
  I  I16  1  0.745513  0.763785  0.000000  1
  I  I17  1  0.000000  0.000000  0.765259  1
