# generated using pymatgen
data_Nd4SnRu3F28
_symmetry_space_group_name_H-M   'P 1'
_cell_length_a   5.71744977
_cell_length_b   9.18155538
_cell_length_c   12.25672200
_cell_angle_alpha   62.24673171
_cell_angle_beta   90.10035247
_cell_angle_gamma   90.05595379
_symmetry_Int_Tables_number   1
_chemical_formula_structural   Nd4SnRu3F28
_chemical_formula_sum   'Nd4 Sn1 Ru3 F28'
_cell_volume   569.39866931
_cell_formula_units_Z   1
loop_
 _symmetry_equiv_pos_site_id
 _symmetry_equiv_pos_as_xyz
  1  'x, y, z'
loop_
 _atom_site_type_symbol
 _atom_site_label
 _atom_site_symmetry_multiplicity
 _atom_site_fract_x
 _atom_site_fract_y
 _atom_site_fract_z
 _atom_site_occupancy
  Nd  Nd0  1  0.258397  0.810181  0.264521  1
  Nd  Nd1  1  0.742221  0.191684  0.732109  1
  Nd  Nd2  1  0.758903  0.190369  0.233381  1
  Nd  Nd3  1  0.241894  0.810183  0.770132  1
  Sn  Sn4  1  0.745297  0.728193  0.542591  1
  Ru  Ru5  1  0.754361  0.726416  0.043803  1
  Ru  Ru6  1  0.245267  0.272679  0.956925  1
  Ru  Ru7  1  0.255981  0.273845  0.455251  1
  F  F8  1  0.944453  0.705725  0.417831  1
  F  F9  1  0.061151  0.292323  0.580551  1
  F  F10  1  0.442826  0.291465  0.081053  1
  F  F11  1  0.557937  0.707532  0.919092  1
  F  F12  1  0.472340  0.731874  0.133694  1
  F  F13  1  0.525975  0.263831  0.867581  1
  F  F14  1  0.975142  0.273917  0.362663  1
  F  F15  1  0.029958  0.730772  0.637128  1
  F  F16  1  0.948446  0.744253  0.170308  1
  F  F17  1  0.050211  0.253202  0.831494  1
  F  F18  1  0.447415  0.257446  0.327788  1
  F  F19  1  0.549824  0.746699  0.671179  1
  F  F20  1  0.760738  0.492236  0.137515  1
  F  F21  1  0.238856  0.507518  0.863510  1
  F  F22  1  0.267179  0.509009  0.361543  1
  F  F23  1  0.730016  0.484265  0.641122  1
  F  F24  1  0.959186  0.284844  0.043039  1
  F  F25  1  0.041890  0.714728  0.958504  1
  F  F26  1  0.450456  0.715781  0.457587  1
  F  F27  1  0.543328  0.281503  0.542180  1
  F  F28  1  0.739658  0.972777  0.447084  1
  F  F29  1  0.257508  0.039490  0.547558  1
  F  F30  1  0.240178  0.037985  0.047692  1
  F  F31  1  0.759629  0.960091  0.952404  1
  F  F32  1  0.587875  0.967801  0.230977  1
  F  F33  1  0.414324  0.031023  0.770074  1
  F  F34  1  0.087251  0.029459  0.269204  1
  F  F35  1  0.913932  0.968903  0.730930  1
