# generated using pymatgen
data_Hf4Ta6Si5Sn
_symmetry_space_group_name_H-M   'P 1'
_cell_length_a   7.82547927
_cell_length_b   7.82547897
_cell_length_c   7.82547862
_cell_angle_alpha   129.16996440
_cell_angle_beta   129.16996153
_cell_angle_gamma   74.73724181
_symmetry_Int_Tables_number   1
_chemical_formula_structural   Hf4Ta6Si5Sn
_chemical_formula_sum   'Hf4 Ta6 Si5 Sn1'
_cell_volume   280.59783390
_cell_formula_units_Z   1
loop_
 _symmetry_equiv_pos_site_id
 _symmetry_equiv_pos_as_xyz
  1  'x, y, z'
loop_
 _atom_site_type_symbol
 _atom_site_label
 _atom_site_symmetry_multiplicity
 _atom_site_fract_x
 _atom_site_fract_y
 _atom_site_fract_z
 _atom_site_occupancy
  Hf  Hf0  1  0.026278  0.198241  0.520084  1
  Hf  Hf1  1  0.678157  0.506194  0.479916  1
  Hf  Hf2  1  0.506194  0.026278  0.828037  1
  Hf  Hf3  1  0.198241  0.678157  0.171963  1
  Ta  Ta4  1  0.991771  0.814694  0.516462  1
  Ta  Ta5  1  0.298232  0.475309  0.483538  1
  Ta  Ta6  1  0.475309  0.991771  0.177077  1
  Ta  Ta7  1  0.814694  0.298232  0.822923  1
  Ta  Ta8  1  0.006053  0.006053  0.000000  1
  Ta  Ta9  1  0.507386  0.507386  0.000000  1
  Si  Si10  1  0.240643  0.240643  0.000000  1
  Si  Si11  1  0.370537  0.134208  0.500265  1
  Si  Si12  1  0.633942  0.870272  0.499735  1
  Si  Si13  1  0.870272  0.370537  0.236331  1
  Si  Si14  1  0.134208  0.633942  0.763669  1
  Sn  Sn15  1  0.748083  0.748083  0.000000  1
