# generated using pymatgen
data_Mn2ZnPt5
_symmetry_space_group_name_H-M   'P 1'
_cell_length_a   5.49470681
_cell_length_b   5.49470703
_cell_length_c   3.99618300
_cell_angle_alpha   90.00000000
_cell_angle_beta   90.00000000
_cell_angle_gamma   93.05820251
_symmetry_Int_Tables_number   1
_chemical_formula_structural   Mn2ZnPt5
_chemical_formula_sum   'Mn2 Zn1 Pt5'
_cell_volume   120.48014851
_cell_formula_units_Z   1
loop_
 _symmetry_equiv_pos_site_id
 _symmetry_equiv_pos_as_xyz
  1  'x, y, z'
loop_
 _atom_site_type_symbol
 _atom_site_label
 _atom_site_symmetry_multiplicity
 _atom_site_fract_x
 _atom_site_fract_y
 _atom_site_fract_z
 _atom_site_occupancy
  Mn  Mn0  1  0.264182  0.735818  0.500000  1
  Mn  Mn1  1  0.735818  0.264182  0.500000  1
  Zn  Zn2  1  0.000000  0.000000  0.000000  1
  Pt  Pt3  1  0.500000  0.500000  0.000000  1
  Pt  Pt4  1  0.500000  0.000000  0.000000  1
  Pt  Pt5  1  0.000000  0.500000  0.000000  1
  Pt  Pt6  1  0.232546  0.232546  0.500000  1
  Pt  Pt7  1  0.767454  0.767454  0.500000  1
