# generated using pymatgen
data_Pr8Sc12Si15Tc
_symmetry_space_group_name_H-M   'P 1'
_cell_length_a   7.25580855
_cell_length_b   7.56783622
_cell_length_c   14.25283600
_cell_angle_alpha   90.00000000
_cell_angle_beta   90.00000000
_cell_angle_gamma   90.25871206
_symmetry_Int_Tables_number   1
_chemical_formula_structural   Pr8Sc12Si15Tc
_chemical_formula_sum   'Pr8 Sc12 Si15 Tc1'
_cell_volume   782.62623243
_cell_formula_units_Z   1
loop_
 _symmetry_equiv_pos_site_id
 _symmetry_equiv_pos_as_xyz
  1  'x, y, z'
loop_
 _atom_site_type_symbol
 _atom_site_label
 _atom_site_symmetry_multiplicity
 _atom_site_fract_x
 _atom_site_fract_y
 _atom_site_fract_z
 _atom_site_occupancy
  Pr  Pr0  1  0.012967  0.172420  0.401381  1
  Pr  Pr1  1  0.511602  0.329352  0.402978  1
  Pr  Pr2  1  0.483024  0.676993  0.900457  1
  Pr  Pr3  1  0.483024  0.676993  0.599543  1
  Pr  Pr4  1  0.993304  0.826956  0.599219  1
  Pr  Pr5  1  0.993304  0.826956  0.900781  1
  Pr  Pr6  1  0.511602  0.329352  0.097022  1
  Pr  Pr7  1  0.012967  0.172420  0.098619  1
  Sc  Sc8  1  0.329438  0.169415  0.627229  1
  Sc  Sc9  1  0.670783  0.822360  0.375742  1
  Sc  Sc10  1  0.649095  0.995719  0.750000  1
  Sc  Sc11  1  0.170378  0.675758  0.374657  1
  Sc  Sc12  1  0.828594  0.325537  0.875331  1
  Sc  Sc13  1  0.828594  0.325537  0.624669  1
  Sc  Sc14  1  0.841116  0.503269  0.250000  1
  Sc  Sc15  1  0.341439  0.999664  0.250000  1
  Sc  Sc16  1  0.329438  0.169415  0.872771  1
  Sc  Sc17  1  0.170378  0.675758  0.125343  1
  Sc  Sc18  1  0.670783  0.822360  0.124258  1
  Sc  Sc19  1  0.162819  0.498067  0.750000  1
  Si  Si20  1  0.465168  0.626636  0.250000  1
  Si  Si21  1  0.031944  0.128167  0.750000  1
  Si  Si22  1  0.538187  0.376637  0.750000  1
  Si  Si23  1  0.149955  0.461543  0.539128  1
  Si  Si24  1  0.965331  0.874813  0.250000  1
  Si  Si25  1  0.712020  0.116984  0.250000  1
  Si  Si26  1  0.850116  0.534733  0.040583  1
  Si  Si27  1  0.351437  0.964220  0.040902  1
  Si  Si28  1  0.149955  0.461543  0.960872  1
  Si  Si29  1  0.653825  0.040280  0.538666  1
  Si  Si30  1  0.351437  0.964220  0.459098  1
  Si  Si31  1  0.850116  0.534733  0.459417  1
  Si  Si32  1  0.786197  0.609282  0.750000  1
  Si  Si33  1  0.212705  0.382934  0.250000  1
  Si  Si34  1  0.653825  0.040280  0.961334  1
  Tc  Tc35  1  0.283139  0.888697  0.750000  1
