# generated using pymatgen
data_SrYb2Pt9
_symmetry_space_group_name_H-M   'P 1'
_cell_length_a   9.34111773
_cell_length_b   9.34111802
_cell_length_c   9.34111819
_cell_angle_alpha   33.95808341
_cell_angle_beta   33.95808087
_cell_angle_gamma   33.95808053
_symmetry_Int_Tables_number   1
_chemical_formula_structural   SrYb2Pt9
_chemical_formula_sum   'Sr1 Yb2 Pt9'
_cell_volume   226.67713999
_cell_formula_units_Z   1
loop_
 _symmetry_equiv_pos_site_id
 _symmetry_equiv_pos_as_xyz
  1  'x, y, z'
loop_
 _atom_site_type_symbol
 _atom_site_label
 _atom_site_symmetry_multiplicity
 _atom_site_fract_x
 _atom_site_fract_y
 _atom_site_fract_z
 _atom_site_occupancy
  Sr  Sr0  1  0.000000  0.000000  0.000000  1
  Yb  Yb1  1  0.141186  0.141186  0.141186  1
  Yb  Yb2  1  0.858814  0.858814  0.858814  1
  Pt  Pt3  1  0.586972  0.586972  0.081311  1
  Pt  Pt4  1  0.332290  0.332290  0.332290  1
  Pt  Pt5  1  0.918690  0.413027  0.413028  1
  Pt  Pt6  1  0.413027  0.918690  0.413028  1
  Pt  Pt7  1  0.500000  0.500000  0.500000  1
  Pt  Pt8  1  0.586973  0.081310  0.586972  1
  Pt  Pt9  1  0.081310  0.586973  0.586972  1
  Pt  Pt10  1  0.667710  0.667710  0.667710  1
  Pt  Pt11  1  0.413028  0.413028  0.918690  1
