# generated using pymatgen
data_Cs4UO5
_symmetry_space_group_name_H-M   'P 1'
_cell_length_a   7.14363344
_cell_length_b   7.30243526
_cell_length_c   10.63764195
_cell_angle_alpha   102.27539800
_cell_angle_beta   109.75208339
_cell_angle_gamma   102.07054102
_symmetry_Int_Tables_number   1
_chemical_formula_structural   Cs4UO5
_chemical_formula_sum   'Cs8 U2 O10'
_cell_volume   485.93130549
_cell_formula_units_Z   2
loop_
 _symmetry_equiv_pos_site_id
 _symmetry_equiv_pos_as_xyz
  1  'x, y, z'
loop_
 _atom_site_type_symbol
 _atom_site_label
 _atom_site_symmetry_multiplicity
 _atom_site_fract_x
 _atom_site_fract_y
 _atom_site_fract_z
 _atom_site_occupancy
  Cs  Cs0  1  0.588918  0.800174  0.097565  1
  Cs  Cs1  1  0.214925  0.608353  0.703760  1
  Cs  Cs2  1  0.599784  0.298231  0.599557  1
  Cs  Cs3  1  0.400216  0.701769  0.400443  1
  Cs  Cs4  1  0.411082  0.199826  0.902435  1
  Cs  Cs5  1  0.000000  0.000000  0.500000  1
  Cs  Cs6  1  0.000000  0.500000  0.000000  1
  Cs  Cs7  1  0.785075  0.391647  0.296240  1
  U  U8  1  0.180656  0.095467  0.185847  1
  U  U9  1  0.819344  0.904533  0.814153  1
  O  O10  1  0.333509  0.339024  0.156116  1
  O  O11  1  0.666491  0.660976  0.843884  1
  O  O12  1  0.167317  0.274056  0.363784  1
  O  O13  1  0.832683  0.725944  0.636216  1
  O  O14  1  0.959253  0.143215  0.773260  1
  O  O15  1  0.040747  0.856785  0.226740  1
  O  O16  1  0.867323  0.090401  0.032459  1
  O  O17  1  0.132677  0.909599  0.967541  1
  O  O18  1  0.525401  0.933797  0.708972  1
  O  O19  1  0.474599  0.066203  0.291028  1
