# generated using pymatgen
data_Yb3(PrPd2)2
_symmetry_space_group_name_H-M   'P 1'
_cell_length_a   7.58649900
_cell_length_b   7.78943300
_cell_length_c   14.80182900
_cell_angle_alpha   90.00000000
_cell_angle_beta   90.00000000
_cell_angle_gamma   90.00000000
_symmetry_Int_Tables_number   1
_chemical_formula_structural   Yb3(PrPd2)2
_chemical_formula_sum   'Yb12 Pr8 Pd16'
_cell_volume   874.70706373
_cell_formula_units_Z   4
loop_
 _symmetry_equiv_pos_site_id
 _symmetry_equiv_pos_as_xyz
  1  'x, y, z'
loop_
 _atom_site_type_symbol
 _atom_site_label
 _atom_site_symmetry_multiplicity
 _atom_site_fract_x
 _atom_site_fract_y
 _atom_site_fract_z
 _atom_site_occupancy
  Yb  Yb0  1  0.666851  0.165309  0.622964  1
  Yb  Yb1  1  0.166851  0.334691  0.877036  1
  Yb  Yb2  1  0.333149  0.834691  0.122964  1
  Yb  Yb3  1  0.833149  0.665309  0.377036  1
  Yb  Yb4  1  0.333149  0.834691  0.377036  1
  Yb  Yb5  1  0.833149  0.665309  0.122964  1
  Yb  Yb6  1  0.666851  0.165309  0.877036  1
  Yb  Yb7  1  0.166851  0.334691  0.622964  1
  Yb  Yb8  1  0.827597  0.499753  0.750000  1
  Yb  Yb9  1  0.327597  0.000247  0.750000  1
  Yb  Yb10  1  0.172403  0.500247  0.250000  1
  Yb  Yb11  1  0.672403  0.999753  0.250000  1
  Pr  Pr12  1  0.502891  0.678977  0.596667  1
  Pr  Pr13  1  0.002891  0.821023  0.903333  1
  Pr  Pr14  1  0.497109  0.321023  0.096667  1
  Pr  Pr15  1  0.997109  0.178977  0.403333  1
  Pr  Pr16  1  0.497109  0.321023  0.403333  1
  Pr  Pr17  1  0.997109  0.178977  0.096667  1
  Pr  Pr18  1  0.502891  0.678977  0.903333  1
  Pr  Pr19  1  0.002891  0.821023  0.596667  1
  Pd  Pd20  1  0.675863  0.965321  0.461274  1
  Pd  Pd21  1  0.175863  0.534679  0.038726  1
  Pd  Pd22  1  0.324137  0.034679  0.961274  1
  Pd  Pd23  1  0.824137  0.465321  0.538726  1
  Pd  Pd24  1  0.324137  0.034679  0.538726  1
  Pd  Pd25  1  0.824137  0.465321  0.961274  1
  Pd  Pd26  1  0.675863  0.965321  0.038726  1
  Pd  Pd27  1  0.175863  0.534679  0.461274  1
  Pd  Pd28  1  0.462422  0.389988  0.750000  1
  Pd  Pd29  1  0.962422  0.110012  0.750000  1
  Pd  Pd30  1  0.537578  0.610012  0.250000  1
  Pd  Pd31  1  0.037578  0.889988  0.250000  1
  Pd  Pd32  1  0.702759  0.856191  0.750000  1
  Pd  Pd33  1  0.202759  0.643809  0.750000  1
  Pd  Pd34  1  0.297241  0.143809  0.250000  1
  Pd  Pd35  1  0.797241  0.356191  0.250000  1
