# generated using pymatgen
data_AlGaCu5Se7
_symmetry_space_group_name_H-M   'P 1'
_cell_length_a   6.81740463
_cell_length_b   6.81820921
_cell_length_c   8.76818884
_cell_angle_alpha   82.80153401
_cell_angle_beta   82.79850027
_cell_angle_gamma   48.68336189
_symmetry_Int_Tables_number   1
_chemical_formula_structural   AlGaCu5Se7
_chemical_formula_sum   'Al1 Ga1 Cu5 Se7'
_cell_volume   303.20238778
_cell_formula_units_Z   1
loop_
 _symmetry_equiv_pos_site_id
 _symmetry_equiv_pos_as_xyz
  1  'x, y, z'
loop_
 _atom_site_type_symbol
 _atom_site_label
 _atom_site_symmetry_multiplicity
 _atom_site_fract_x
 _atom_site_fract_y
 _atom_site_fract_z
 _atom_site_occupancy
  Al  Al0  1  0.154570  0.699547  0.218000  1
  Ga  Ga1  1  0.300062  0.845923  0.781941  1
  Cu  Cu2  1  0.733202  0.266612  0.499998  1
  Cu  Cu3  1  0.883219  0.404100  0.071723  1
  Cu  Cu4  1  0.595547  0.117373  0.928519  1
  Cu  Cu5  1  0.448300  0.978687  0.357376  1
  Cu  Cu6  1  0.020688  0.552103  0.642520  1
  Se  Se7  1  0.341418  0.371334  0.430036  1
  Se  Se8  1  0.632466  0.656291  0.567745  1
  Se  Se9  1  0.485437  0.513202  0.002109  1
  Se  Se10  1  0.054483  0.090898  0.287069  1
  Se  Se11  1  0.903819  0.947225  0.712218  1
  Se  Se12  1  0.766628  0.800821  0.142377  1
  Se  Se13  1  0.197761  0.238283  0.858370  1
