# generated using pymatgen
data_Sc5Pa3(SnPt2)4
_symmetry_space_group_name_H-M   'P 1'
_cell_length_a   7.65182291
_cell_length_b   7.65182295
_cell_length_c   7.01286100
_cell_angle_alpha   90.00000000
_cell_angle_beta   90.00000000
_cell_angle_gamma   88.82404834
_symmetry_Int_Tables_number   1
_chemical_formula_structural   Sc5Pa3(SnPt2)4
_chemical_formula_sum   'Sc5 Pa3 Sn4 Pt8'
_cell_volume   410.51929623
_cell_formula_units_Z   1
loop_
 _symmetry_equiv_pos_site_id
 _symmetry_equiv_pos_as_xyz
  1  'x, y, z'
loop_
 _atom_site_type_symbol
 _atom_site_label
 _atom_site_symmetry_multiplicity
 _atom_site_fract_x
 _atom_site_fract_y
 _atom_site_fract_z
 _atom_site_occupancy
  Sc  Sc0  1  0.684548  0.317949  0.500000  1
  Sc  Sc1  1  0.317949  0.684548  0.500000  1
  Sc  Sc2  1  0.180939  0.180939  0.000000  1
  Sc  Sc3  1  0.852351  0.852351  0.500000  1
  Sc  Sc4  1  0.153000  0.153000  0.500000  1
  Pa  Pa5  1  0.817765  0.817765  0.000000  1
  Pa  Pa6  1  0.347292  0.647455  0.000000  1
  Pa  Pa7  1  0.647455  0.347292  0.000000  1
  Sn  Sn8  1  0.493135  0.004313  0.264221  1
  Sn  Sn9  1  0.004313  0.493135  0.735779  1
  Sn  Sn10  1  0.493135  0.004313  0.735779  1
  Sn  Sn11  1  0.004313  0.493135  0.264221  1
  Pt  Pt12  1  0.868033  0.132349  0.224351  1
  Pt  Pt13  1  0.132349  0.868033  0.224351  1
  Pt  Pt14  1  0.367667  0.367667  0.713639  1
  Pt  Pt15  1  0.633853  0.633853  0.711755  1
  Pt  Pt16  1  0.132349  0.868033  0.775649  1
  Pt  Pt17  1  0.868033  0.132349  0.775649  1
  Pt  Pt18  1  0.633853  0.633853  0.288245  1
  Pt  Pt19  1  0.367667  0.367667  0.286361  1
