# generated using pymatgen
data_YbBrClO3
_symmetry_space_group_name_H-M   'P 1'
_cell_length_a   6.91046600
_cell_length_b   7.06001000
_cell_length_c   8.67782400
_cell_angle_alpha   90.00000000
_cell_angle_beta   90.00000000
_cell_angle_gamma   90.00000000
_symmetry_Int_Tables_number   1
_chemical_formula_structural   YbBrClO3
_chemical_formula_sum   'Yb4 Br4 Cl4 O12'
_cell_volume   423.37332208
_cell_formula_units_Z   4
loop_
 _symmetry_equiv_pos_site_id
 _symmetry_equiv_pos_as_xyz
  1  'x, y, z'
loop_
 _atom_site_type_symbol
 _atom_site_label
 _atom_site_symmetry_multiplicity
 _atom_site_fract_x
 _atom_site_fract_y
 _atom_site_fract_z
 _atom_site_occupancy
  Yb  Yb0  1  0.612173  0.250000  0.053025  1
  Yb  Yb1  1  0.112174  0.250000  0.446976  1
  Yb  Yb2  1  0.887827  0.750000  0.553025  1
  Yb  Yb3  1  0.387826  0.750000  0.946975  1
  Br  Br4  1  0.796006  0.750000  0.127193  1
  Br  Br5  1  0.296006  0.750000  0.372808  1
  Br  Br6  1  0.703994  0.250000  0.627192  1
  Br  Br7  1  0.203993  0.250000  0.872808  1
  Cl  Cl8  1  0.978002  0.250000  0.160737  1
  Cl  Cl9  1  0.478000  0.250000  0.339262  1
  Cl  Cl10  1  0.521999  0.750000  0.660737  1
  Cl  Cl11  1  0.021999  0.750000  0.839262  1
  O  O12  1  0.657291  0.572948  0.055763  1
  O  O13  1  0.657291  0.927052  0.055763  1
  O  O14  1  0.243187  0.750000  0.184918  1
  O  O15  1  0.743187  0.750000  0.315082  1
  O  O16  1  0.157291  0.572948  0.444236  1
  O  O17  1  0.157291  0.927052  0.444236  1
  O  O18  1  0.842710  0.072948  0.555764  1
  O  O19  1  0.842710  0.427052  0.555764  1
  O  O20  1  0.256814  0.250000  0.684919  1
  O  O21  1  0.756814  0.250000  0.815082  1
  O  O22  1  0.342709  0.072948  0.944236  1
  O  O23  1  0.342709  0.427052  0.944236  1
