# generated using pymatgen
data_Sc9Co8Si20Os
_symmetry_space_group_name_H-M   'P 1'
_cell_length_a   11.92629921
_cell_length_b   11.92629928
_cell_length_c   3.91934000
_cell_angle_alpha   90.00000000
_cell_angle_beta   90.00000000
_cell_angle_gamma   90.24496435
_symmetry_Int_Tables_number   1
_chemical_formula_structural   Sc9Co8Si20Os
_chemical_formula_sum   'Sc9 Co8 Si20 Os1'
_cell_volume   557.46855395
_cell_formula_units_Z   1
loop_
 _symmetry_equiv_pos_site_id
 _symmetry_equiv_pos_as_xyz
  1  'x, y, z'
loop_
 _atom_site_type_symbol
 _atom_site_label
 _atom_site_symmetry_multiplicity
 _atom_site_fract_x
 _atom_site_fract_y
 _atom_site_fract_z
 _atom_site_occupancy
  Sc  Sc0  1  0.998384  0.997744  0.000000  1
  Sc  Sc1  1  0.497744  0.498384  0.000000  1
  Sc  Sc2  1  0.175622  0.324816  0.500000  1
  Sc  Sc3  1  0.824816  0.675622  0.500000  1
  Sc  Sc4  1  0.325906  0.825906  0.500000  1
  Sc  Sc5  1  0.884267  0.384267  0.500000  1
  Sc  Sc6  1  0.390532  0.114655  0.500000  1
  Sc  Sc7  1  0.614655  0.890532  0.500000  1
  Sc  Sc8  1  0.109753  0.609753  0.500000  1
  Co  Co9  1  0.521550  0.250586  0.000000  1
  Co  Co10  1  0.253669  0.472976  0.000000  1
  Co  Co11  1  0.743394  0.515908  0.000000  1
  Co  Co12  1  0.476886  0.746627  0.000000  1
  Co  Co13  1  0.972976  0.753669  0.000000  1
  Co  Co14  1  0.015908  0.243394  0.000000  1
  Co  Co15  1  0.750586  0.021550  0.000000  1
  Co  Co16  1  0.246627  0.976886  0.000000  1
  Si  Si17  1  0.574888  0.074888  0.000000  1
  Si  Si18  1  0.066133  0.429370  0.000000  1
  Si  Si19  1  0.929370  0.566133  0.000000  1
  Si  Si20  1  0.435563  0.935563  0.000000  1
  Si  Si21  1  0.195517  0.157245  0.000000  1
  Si  Si22  1  0.156773  0.802292  0.000000  1
  Si  Si23  1  0.833772  0.191601  0.000000  1
  Si  Si24  1  0.800091  0.842210  0.000000  1
  Si  Si25  1  0.302292  0.656773  0.000000  1
  Si  Si26  1  0.691601  0.333772  0.000000  1
  Si  Si27  1  0.657245  0.695517  0.000000  1
  Si  Si28  1  0.342210  0.300091  0.000000  1
  Si  Si29  1  0.010983  0.158629  0.500000  1
  Si  Si30  1  0.164539  0.002860  0.500000  1
  Si  Si31  1  0.832355  0.026879  0.500000  1
  Si  Si32  1  0.004779  0.831987  0.500000  1
  Si  Si33  1  0.502860  0.664539  0.500000  1
  Si  Si34  1  0.526879  0.332355  0.500000  1
  Si  Si35  1  0.658629  0.510983  0.500000  1
  Si  Si36  1  0.331987  0.504779  0.500000  1
  Os  Os37  1  0.678262  0.178262  0.500000  1
