# generated using pymatgen
data_Nd8AlZn7PtRh7
_symmetry_space_group_name_H-M   'P 1'
_cell_length_a   4.02723000
_cell_length_b   7.36284700
_cell_length_c   16.60178706
_cell_angle_alpha   90.12065510
_cell_angle_beta   90.00000000
_cell_angle_gamma   90.00000000
_symmetry_Int_Tables_number   1
_chemical_formula_structural   Nd8AlZn7PtRh7
_chemical_formula_sum   'Nd8 Al1 Zn7 Pt1 Rh7'
_cell_volume   492.27307845
_cell_formula_units_Z   1
loop_
 _symmetry_equiv_pos_site_id
 _symmetry_equiv_pos_as_xyz
  1  'x, y, z'
loop_
 _atom_site_type_symbol
 _atom_site_label
 _atom_site_symmetry_multiplicity
 _atom_site_fract_x
 _atom_site_fract_y
 _atom_site_fract_z
 _atom_site_occupancy
  Nd  Nd0  1  0.250000  0.170425  0.939597  1
  Nd  Nd1  1  0.250000  0.665840  0.561441  1
  Nd  Nd2  1  0.750000  0.333477  0.439797  1
  Nd  Nd3  1  0.750000  0.944880  0.283665  1
  Nd  Nd4  1  0.750000  0.830765  0.060335  1
  Nd  Nd5  1  0.750000  0.453801  0.213659  1
  Nd  Nd6  1  0.250000  0.049311  0.718689  1
  Nd  Nd7  1  0.250000  0.549953  0.784575  1
  Al  Al8  1  0.750000  0.003404  0.561108  1
  Zn  Zn9  1  0.250000  0.627867  0.349308  1
  Zn  Zn10  1  0.750000  0.376041  0.652356  1
  Zn  Zn11  1  0.250000  0.499025  0.059223  1
  Zn  Zn12  1  0.750000  0.501755  0.940170  1
  Zn  Zn13  1  0.250000  0.994894  0.438701  1
  Zn  Zn14  1  0.250000  0.121687  0.149813  1
  Zn  Zn15  1  0.750000  0.877315  0.850043  1
  Pt  Pt16  1  0.250000  0.245337  0.313253  1
  Rh  Rh17  1  0.750000  0.759507  0.437552  1
  Rh  Rh18  1  0.750000  0.257063  0.813503  1
  Rh  Rh19  1  0.750000  0.761745  0.681833  1
  Rh  Rh20  1  0.250000  0.228914  0.564934  1
  Rh  Rh21  1  0.250000  0.746255  0.186477  1
  Rh  Rh22  1  0.750000  0.254831  0.065573  1
  Rh  Rh23  1  0.250000  0.745909  0.934397  1
