# generated using pymatgen
data_Dy4ScP12Ir4Ru15
_symmetry_space_group_name_H-M   'P 1'
_cell_length_a   12.51848646
_cell_length_b   12.52315945
_cell_length_c   3.97128300
_cell_angle_alpha   90.00000000
_cell_angle_beta   90.00000000
_cell_angle_gamma   119.91586616
_symmetry_Int_Tables_number   1
_chemical_formula_structural   Dy4ScP12Ir4Ru15
_chemical_formula_sum   'Dy4 Sc1 P12 Ir4 Ru15'
_cell_volume   539.62836345
_cell_formula_units_Z   1
loop_
 _symmetry_equiv_pos_site_id
 _symmetry_equiv_pos_as_xyz
  1  'x, y, z'
loop_
 _atom_site_type_symbol
 _atom_site_label
 _atom_site_symmetry_multiplicity
 _atom_site_fract_x
 _atom_site_fract_y
 _atom_site_fract_z
 _atom_site_occupancy
  Dy  Dy0  1  0.332780  0.666023  0.000000  1
  Dy  Dy1  1  0.665985  0.332791  0.000000  1
  Dy  Dy2  1  0.813289  0.999324  0.500000  1
  Dy  Dy3  1  0.000803  0.813866  0.500000  1
  Sc  Sc4  1  0.188897  0.189211  0.500000  1
  P  P5  1  0.182486  0.998491  0.000000  1
  P  P6  1  0.004123  0.185081  0.000000  1
  P  P7  1  0.815643  0.818102  0.000000  1
  P  P8  1  0.172471  0.478648  0.500000  1
  P  P9  1  0.520369  0.693211  0.500000  1
  P  P10  1  0.306190  0.828090  0.500000  1
  P  P11  1  0.687515  0.517597  0.500000  1
  P  P12  1  0.831018  0.311570  0.500000  1
  P  P13  1  0.481382  0.169490  0.500000  1
  P  P14  1  0.627075  0.996055  0.000000  1
  P  P15  1  0.004208  0.631290  0.000000  1
  P  P16  1  0.367566  0.371913  0.000000  1
  Ir  Ir17  1  0.811596  0.626590  0.000000  1
  Ir  Ir18  1  0.815722  0.188797  0.000000  1
  Ir  Ir19  1  0.369487  0.185496  0.000000  1
  Ir  Ir20  1  0.001765  0.001798  0.000000  1
  Ru  Ru21  1  0.449905  0.006179  0.000000  1
  Ru  Ru22  1  0.996060  0.445004  0.000000  1
  Ru  Ru23  1  0.554503  0.549357  0.000000  1
  Ru  Ru24  1  0.365581  0.490115  0.500000  1
  Ru  Ru25  1  0.508668  0.875556  0.500000  1
  Ru  Ru26  1  0.124505  0.633738  0.500000  1
  Ru  Ru27  1  0.870598  0.509056  0.500000  1
  Ru  Ru28  1  0.639206  0.129301  0.500000  1
  Ru  Ru29  1  0.489399  0.360121  0.500000  1
  Ru  Ru30  1  0.182981  0.374991  0.000000  1
  Ru  Ru31  1  0.622201  0.804590  0.000000  1
  Ru  Ru32  1  0.195640  0.818194  0.000000  1
  Ru  Ru33  1  0.284522  0.003406  0.500000  1
  Ru  Ru34  1  0.999730  0.282646  0.500000  1
  Ru  Ru35  1  0.716129  0.714313  0.500000  1
