# generated using pymatgen
data_Tb6YbCo4Sn23Pd2
_symmetry_space_group_name_H-M   'P 1'
_cell_length_a   9.79402653
_cell_length_b   9.79402659
_cell_length_c   10.05469569
_cell_angle_alpha   89.73239638
_cell_angle_beta   90.26759692
_cell_angle_gamma   119.91064791
_symmetry_Int_Tables_number   1
_chemical_formula_structural   Tb6YbCo4Sn23Pd2
_chemical_formula_sum   'Tb6 Yb1 Co4 Sn23 Pd2'
_cell_volume   835.99969435
_cell_formula_units_Z   1
loop_
 _symmetry_equiv_pos_site_id
 _symmetry_equiv_pos_as_xyz
  1  'x, y, z'
loop_
 _atom_site_type_symbol
 _atom_site_label
 _atom_site_symmetry_multiplicity
 _atom_site_fract_x
 _atom_site_fract_y
 _atom_site_fract_z
 _atom_site_occupancy
  Tb  Tb0  1  0.477001  0.522999  0.307208  1
  Tb  Tb1  1  0.522999  0.477001  0.692792  1
  Tb  Tb2  1  0.478284  0.955359  0.306811  1
  Tb  Tb3  1  0.521716  0.044641  0.693189  1
  Tb  Tb4  1  0.044641  0.521716  0.306811  1
  Tb  Tb5  1  0.955359  0.478284  0.693189  1
  Yb  Yb6  1  0.000000  0.000000  0.000000  1
  Co  Co7  1  0.830193  0.661999  0.200102  1
  Co  Co8  1  0.169807  0.338001  0.799898  1
  Co  Co9  1  0.338001  0.169807  0.200102  1
  Co  Co10  1  0.661999  0.830193  0.799898  1
  Sn  Sn11  1  0.352465  0.008870  0.006806  1
  Sn  Sn12  1  0.647535  0.991130  0.993194  1
  Sn  Sn13  1  0.008870  0.352465  0.993194  1
  Sn  Sn14  1  0.991130  0.647535  0.006806  1
  Sn  Sn15  1  0.654644  0.654644  0.000000  1
  Sn  Sn16  1  0.345356  0.345356  0.000000  1
  Sn  Sn17  1  0.339084  0.660916  0.818353  1
  Sn  Sn18  1  0.660916  0.339084  0.181647  1
  Sn  Sn19  1  0.000000  0.000000  0.500000  1
  Sn  Sn20  1  0.776961  0.223039  0.459007  1
  Sn  Sn21  1  0.223039  0.776961  0.540993  1
  Sn  Sn22  1  0.780666  0.561327  0.450479  1
  Sn  Sn23  1  0.219334  0.438673  0.549521  1
  Sn  Sn24  1  0.438673  0.219334  0.450479  1
  Sn  Sn25  1  0.561327  0.780666  0.549521  1
  Sn  Sn26  1  0.332392  0.667608  0.114777  1
  Sn  Sn27  1  0.667608  0.332392  0.885223  1
  Sn  Sn28  1  0.116783  0.883217  0.273562  1
  Sn  Sn29  1  0.883217  0.116783  0.726438  1
  Sn  Sn30  1  0.126480  0.237524  0.277806  1
  Sn  Sn31  1  0.873520  0.762476  0.722194  1
  Sn  Sn32  1  0.762476  0.873520  0.277806  1
  Sn  Sn33  1  0.237524  0.126480  0.722194  1
  Pd  Pd34  1  0.830414  0.169586  0.197879  1
  Pd  Pd35  1  0.169586  0.830414  0.802121  1
