# generated using pymatgen
data_Pa2Mn7(VP2)3
_symmetry_space_group_name_H-M   'P 1'
_cell_length_a   3.73778800
_cell_length_b   6.83549623
_cell_length_c   9.52653551
_cell_angle_alpha   79.72103727
_cell_angle_beta   90.00000000
_cell_angle_gamma   90.00000000
_symmetry_Int_Tables_number   1
_chemical_formula_structural   Pa2Mn7(VP2)3
_chemical_formula_sum   'Pa2 Mn7 V3 P6'
_cell_volume   239.49310183
_cell_formula_units_Z   1
loop_
 _symmetry_equiv_pos_site_id
 _symmetry_equiv_pos_as_xyz
  1  'x, y, z'
loop_
 _atom_site_type_symbol
 _atom_site_label
 _atom_site_symmetry_multiplicity
 _atom_site_fract_x
 _atom_site_fract_y
 _atom_site_fract_z
 _atom_site_occupancy
  Pa  Pa0  1  0.250000  0.804746  0.788797  1
  Pa  Pa1  1  0.750000  0.198591  0.212073  1
  Mn  Mn2  1  0.250000  0.533599  0.091700  1
  Mn  Mn3  1  0.750000  0.464231  0.911353  1
  Mn  Mn4  1  0.250000  0.920514  0.088594  1
  Mn  Mn5  1  0.750000  0.078842  0.909351  1
  Mn  Mn6  1  0.250000  0.626321  0.512567  1
  Mn  Mn7  1  0.750000  0.377418  0.489353  1
  Mn  Mn8  1  0.250000  0.118938  0.494438  1
  V  V9  1  0.750000  0.873710  0.502805  1
  V  V10  1  0.250000  0.318965  0.718797  1
  V  V11  1  0.750000  0.684686  0.279265  1
  P  P12  1  0.250000  0.255084  0.975415  1
  P  P13  1  0.750000  0.744065  0.023285  1
  P  P14  1  0.250000  0.433436  0.338177  1
  P  P15  1  0.750000  0.563615  0.668834  1
  P  P16  1  0.250000  0.899180  0.330514  1
  P  P17  1  0.750000  0.104060  0.664683  1
