# generated using pymatgen
data_Ti12Al8Cu4C3N
_symmetry_space_group_name_H-M   'P 1'
_cell_length_a   8.14181650
_cell_length_b   8.16254959
_cell_length_c   8.16254900
_cell_angle_alpha   60.00000644
_cell_angle_beta   59.91573331
_cell_angle_gamma   59.91573018
_symmetry_Int_Tables_number   1
_chemical_formula_structural   Ti12Al8Cu4C3N
_chemical_formula_sum   'Ti12 Al8 Cu4 C3 N1'
_cell_volume   383.09247796
_cell_formula_units_Z   1
loop_
 _symmetry_equiv_pos_site_id
 _symmetry_equiv_pos_as_xyz
  1  'x, y, z'
loop_
 _atom_site_type_symbol
 _atom_site_label
 _atom_site_symmetry_multiplicity
 _atom_site_fract_x
 _atom_site_fract_y
 _atom_site_fract_z
 _atom_site_occupancy
  Ti  Ti0  1  0.935385  0.930877  0.566869  1
  Ti  Ti1  1  0.683565  0.315639  0.315639  1
  Ti  Ti2  1  0.314615  0.683131  0.683131  1
  Ti  Ti3  1  0.683565  0.685158  0.315639  1
  Ti  Ti4  1  0.683565  0.315639  0.685158  1
  Ti  Ti5  1  0.314615  0.683131  0.319123  1
  Ti  Ti6  1  0.566435  0.934361  0.564842  1
  Ti  Ti7  1  0.566435  0.934361  0.934361  1
  Ti  Ti8  1  0.935385  0.566869  0.566869  1
  Ti  Ti9  1  0.935385  0.566869  0.930877  1
  Ti  Ti10  1  0.314615  0.319123  0.683131  1
  Ti  Ti11  1  0.566435  0.564842  0.934361  1
  Al  Al12  1  0.916139  0.251433  0.916214  1
  Al  Al13  1  0.333861  0.333786  0.998567  1
  Al  Al14  1  0.997668  0.334111  0.334111  1
  Al  Al15  1  0.333861  0.333786  0.333786  1
  Al  Al16  1  0.252332  0.915889  0.915889  1
  Al  Al17  1  0.916139  0.916214  0.916214  1
  Al  Al18  1  0.916139  0.916214  0.251433  1
  Al  Al19  1  0.333861  0.998567  0.333786  1
  Cu  Cu20  1  0.125000  0.625000  0.125000  1
  Cu  Cu21  1  0.125000  0.125000  0.625000  1
  Cu  Cu22  1  0.625000  0.125000  0.125000  1
  Cu  Cu23  1  0.125000  0.125000  0.125000  1
  C  C24  1  0.625000  0.125000  0.625000  1
  C  C25  1  0.625000  0.625000  0.125000  1
  C  C26  1  0.625000  0.625000  0.625000  1
  N  N27  1  0.125000  0.625000  0.625000  1
