# generated using pymatgen
data_Y4Co9Si4Ru
_symmetry_space_group_name_H-M   'P 1'
_cell_length_a   11.56817046
_cell_length_b   11.56817024
_cell_length_c   11.56817039
_cell_angle_alpha   25.88070459
_cell_angle_beta   25.88070456
_cell_angle_gamma   25.88070588
_symmetry_Int_Tables_number   1
_chemical_formula_structural   Y4Co9Si4Ru
_chemical_formula_sum   'Y4 Co9 Si4 Ru1'
_cell_volume   259.78094522
_cell_formula_units_Z   1
loop_
 _symmetry_equiv_pos_site_id
 _symmetry_equiv_pos_as_xyz
  1  'x, y, z'
loop_
 _atom_site_type_symbol
 _atom_site_label
 _atom_site_symmetry_multiplicity
 _atom_site_fract_x
 _atom_site_fract_y
 _atom_site_fract_z
 _atom_site_occupancy
  Y  Y0  1  0.949783  0.949783  0.949783  1
  Y  Y1  1  0.851828  0.851828  0.851828  1
  Y  Y2  1  0.148172  0.148172  0.148172  1
  Y  Y3  1  0.050217  0.050217  0.050217  1
  Co  Co4  1  0.605151  0.605151  0.106639  1
  Co  Co5  1  0.893361  0.394849  0.394849  1
  Co  Co6  1  0.500000  0.000000  0.500000  1
  Co  Co7  1  0.394849  0.893361  0.394849  1
  Co  Co8  1  0.500000  0.500000  0.000000  1
  Co  Co9  1  0.106639  0.605151  0.605151  1
  Co  Co10  1  0.000000  0.500000  0.500000  1
  Co  Co11  1  0.394849  0.394849  0.893361  1
  Co  Co12  1  0.605151  0.106639  0.605151  1
  Si  Si13  1  0.280698  0.280698  0.280698  1
  Si  Si14  1  0.386227  0.386227  0.386227  1
  Si  Si15  1  0.719302  0.719302  0.719302  1
  Si  Si16  1  0.613773  0.613773  0.613773  1
  Ru  Ru17  1  0.500000  0.500000  0.500000  1
