# generated using pymatgen
data_Cs5Rb(LiPb4)2
_symmetry_space_group_name_H-M   'P 1'
_cell_length_a   9.38432173
_cell_length_b   9.38432193
_cell_length_c   10.99566087
_cell_angle_alpha   90.15149708
_cell_angle_beta   89.84850468
_cell_angle_gamma   134.10965737
_symmetry_Int_Tables_number   1
_chemical_formula_structural   Cs5Rb(LiPb4)2
_chemical_formula_sum   'Cs5 Rb1 Li2 Pb8'
_cell_volume   695.27276008
_cell_formula_units_Z   1
loop_
 _symmetry_equiv_pos_site_id
 _symmetry_equiv_pos_as_xyz
  1  'x, y, z'
loop_
 _atom_site_type_symbol
 _atom_site_label
 _atom_site_symmetry_multiplicity
 _atom_site_fract_x
 _atom_site_fract_y
 _atom_site_fract_z
 _atom_site_occupancy
  Cs  Cs0  1  0.228408  0.771592  0.250813  1
  Cs  Cs1  1  0.770522  0.229478  0.748746  1
  Cs  Cs2  1  0.614692  0.385308  0.053265  1
  Cs  Cs3  1  0.385425  0.614575  0.947635  1
  Cs  Cs4  1  0.386020  0.613980  0.551312  1
  Rb  Rb5  1  0.613435  0.386565  0.455713  1
  Li  Li6  1  0.000321  0.999679  0.000418  1
  Li  Li7  1  0.000461  0.999539  0.497713  1
  Pb  Pb8  1  0.189109  0.260455  0.252550  1
  Pb  Pb9  1  0.812353  0.740479  0.747138  1
  Pb  Pb10  1  0.739545  0.810891  0.252550  1
  Pb  Pb11  1  0.259521  0.187647  0.747138  1
  Pb  Pb12  1  0.838877  0.161123  0.109966  1
  Pb  Pb13  1  0.162351  0.837649  0.887833  1
  Pb  Pb14  1  0.163461  0.836539  0.606793  1
  Pb  Pb15  1  0.835498  0.164502  0.390416  1
