# generated using pymatgen
data_Pr4Sc4Re(B8Ru)3
_symmetry_space_group_name_H-M   'P 1'
_cell_length_a   3.64264600
_cell_length_b   9.09195510
_cell_length_c   11.55018241
_cell_angle_alpha   90.05652735
_cell_angle_beta   90.00000000
_cell_angle_gamma   90.00000000
_symmetry_Int_Tables_number   1
_chemical_formula_structural   Pr4Sc4Re(B8Ru)3
_chemical_formula_sum   'Pr4 Sc4 Re1 B24 Ru3'
_cell_volume   382.52769342
_cell_formula_units_Z   1
loop_
 _symmetry_equiv_pos_site_id
 _symmetry_equiv_pos_as_xyz
  1  'x, y, z'
loop_
 _atom_site_type_symbol
 _atom_site_label
 _atom_site_symmetry_multiplicity
 _atom_site_fract_x
 _atom_site_fract_y
 _atom_site_fract_z
 _atom_site_occupancy
  Pr  Pr0  1  0.000000  0.321930  0.415954  1
  Pr  Pr1  1  0.000000  0.679377  0.585600  1
  Pr  Pr2  1  0.000000  0.821502  0.083959  1
  Pr  Pr3  1  0.000000  0.177981  0.914175  1
  Sc  Sc4  1  0.000000  0.945116  0.371890  1
  Sc  Sc5  1  0.000000  0.053571  0.628353  1
  Sc  Sc6  1  0.000000  0.444527  0.127735  1
  Sc  Sc7  1  0.000000  0.555936  0.872450  1
  Re  Re8  1  0.000000  0.858279  0.816788  1
  B  B9  1  0.500000  0.557962  0.429060  1
  B  B10  1  0.500000  0.441865  0.571053  1
  B  B11  1  0.500000  0.057690  0.071330  1
  B  B12  1  0.500000  0.943413  0.929185  1
  B  B13  1  0.500000  0.754216  0.415352  1
  B  B14  1  0.500000  0.245693  0.584475  1
  B  B15  1  0.500000  0.254519  0.084864  1
  B  B16  1  0.500000  0.745191  0.915474  1
  B  B17  1  0.500000  0.793338  0.265537  1
  B  B18  1  0.500000  0.206492  0.733761  1
  B  B19  1  0.500000  0.293571  0.234414  1
  B  B20  1  0.500000  0.705490  0.765413  1
  B  B21  1  0.500000  0.627886  0.183375  1
  B  B22  1  0.500000  0.371911  0.816402  1
  B  B23  1  0.500000  0.128456  0.316819  1
  B  B24  1  0.500000  0.871672  0.683311  1
  B  B25  1  0.500000  0.984460  0.215957  1
  B  B26  1  0.500000  0.016965  0.784068  1
  B  B27  1  0.500000  0.484440  0.284547  1
  B  B28  1  0.500000  0.515444  0.715691  1
  B  B29  1  0.500000  0.595248  0.025917  1
  B  B30  1  0.500000  0.403743  0.974832  1
  B  B31  1  0.500000  0.095930  0.474199  1
  B  B32  1  0.500000  0.904258  0.524815  1
  Ru  Ru33  1  0.000000  0.641751  0.316326  1
  Ru  Ru34  1  0.000000  0.358406  0.683200  1
  Ru  Ru35  1  0.000000  0.141773  0.183721  1
