# generated using pymatgen
data_Ho5Tm5HgSb5
_symmetry_space_group_name_H-M   'P 1'
_cell_length_a   8.88502600
_cell_length_b   8.89418906
_cell_length_c   6.32635700
_cell_angle_alpha   90.00000000
_cell_angle_beta   90.00000000
_cell_angle_gamma   119.96592613
_symmetry_Int_Tables_number   1
_chemical_formula_structural   Ho5Tm5HgSb5
_chemical_formula_sum   'Ho5 Tm5 Hg1 Sb5'
_cell_volume   433.11018848
_cell_formula_units_Z   1
loop_
 _symmetry_equiv_pos_site_id
 _symmetry_equiv_pos_as_xyz
  1  'x, y, z'
loop_
 _atom_site_type_symbol
 _atom_site_label
 _atom_site_symmetry_multiplicity
 _atom_site_fract_x
 _atom_site_fract_y
 _atom_site_fract_z
 _atom_site_occupancy
  Ho  Ho0  1  0.754041  0.756665  0.250000  1
  Ho  Ho1  1  0.997376  0.243335  0.250000  1
  Ho  Ho2  1  0.007722  0.761281  0.750000  1
  Ho  Ho3  1  0.246441  0.238719  0.750000  1
  Ho  Ho4  1  0.243056  0.000000  0.250000  1
  Tm  Tm5  1  0.334445  0.671630  0.999654  1
  Tm  Tm6  1  0.662817  0.328370  0.500346  1
  Tm  Tm7  1  0.662817  0.328370  0.999654  1
  Tm  Tm8  1  0.334445  0.671630  0.500346  1
  Tm  Tm9  1  0.756623  0.000000  0.750000  1
  Hg  Hg10  1  0.395937  0.000000  0.750000  1
  Sb  Sb11  1  0.389804  0.393466  0.250000  1
  Sb  Sb12  1  0.996340  0.606534  0.250000  1
  Sb  Sb13  1  0.001160  0.391362  0.750000  1
  Sb  Sb14  1  0.609800  0.608638  0.750000  1
  Sb  Sb15  1  0.607176  0.000000  0.250000  1
