# generated using pymatgen
data_Hf16Co4Re3Pt
_symmetry_space_group_name_H-M   'P 1'
_cell_length_a   8.62896621
_cell_length_b   8.61339885
_cell_length_c   8.61340000
_cell_angle_alpha   60.00000327
_cell_angle_beta   60.05966387
_cell_angle_gamma   60.05966079
_symmetry_Int_Tables_number   1
_chemical_formula_structural   Hf16Co4Re3Pt
_chemical_formula_sum   'Hf16 Co4 Re3 Pt1'
_cell_volume   453.08951503
_cell_formula_units_Z   1
loop_
 _symmetry_equiv_pos_site_id
 _symmetry_equiv_pos_as_xyz
  1  'x, y, z'
loop_
 _atom_site_type_symbol
 _atom_site_label
 _atom_site_symmetry_multiplicity
 _atom_site_fract_x
 _atom_site_fract_y
 _atom_site_fract_z
 _atom_site_occupancy
  Hf  Hf0  1  0.696467  0.101177  0.101177  1
  Hf  Hf1  1  0.101890  0.698985  0.099562  1
  Hf  Hf2  1  0.101890  0.099562  0.698985  1
  Hf  Hf3  1  0.101890  0.099562  0.099562  1
  Hf  Hf4  1  0.314651  0.315219  0.685065  1
  Hf  Hf5  1  0.679881  0.690996  0.314562  1
  Hf  Hf6  1  0.314651  0.685065  0.315219  1
  Hf  Hf7  1  0.679881  0.314562  0.690996  1
  Hf  Hf8  1  0.679881  0.314562  0.314562  1
  Hf  Hf9  1  0.314651  0.685065  0.685065  1
  Hf  Hf10  1  0.954234  0.949716  0.548025  1
  Hf  Hf11  1  0.546125  0.545626  0.954124  1
  Hf  Hf12  1  0.954234  0.548025  0.949716  1
  Hf  Hf13  1  0.546125  0.954124  0.545626  1
  Hf  Hf14  1  0.546125  0.954124  0.954124  1
  Hf  Hf15  1  0.954234  0.548025  0.548025  1
  Co  Co16  1  0.330162  0.889946  0.889946  1
  Co  Co17  1  0.891044  0.329564  0.889696  1
  Co  Co18  1  0.891044  0.889696  0.329564  1
  Co  Co19  1  0.891044  0.889696  0.889696  1
  Re  Re20  1  0.335982  0.999959  0.332030  1
  Re  Re21  1  0.335982  0.332030  0.999959  1
  Re  Re22  1  0.335982  0.332030  0.332030  1
  Pt  Pt23  1  0.001949  0.332684  0.332684  1
