# generated using pymatgen
data_Hf18ZnCoMo8
_symmetry_space_group_name_H-M   'P 1'
_cell_length_a   8.70921000
_cell_length_b   8.70921027
_cell_length_c   8.50919200
_cell_angle_alpha   90.00000000
_cell_angle_beta   90.00000000
_cell_angle_gamma   119.99999136
_symmetry_Int_Tables_number   1
_chemical_formula_structural   Hf18ZnCoMo8
_chemical_formula_sum   'Hf18 Zn1 Co1 Mo8'
_cell_volume   558.95459584
_cell_formula_units_Z   1
loop_
 _symmetry_equiv_pos_site_id
 _symmetry_equiv_pos_as_xyz
  1  'x, y, z'
loop_
 _atom_site_type_symbol
 _atom_site_label
 _atom_site_symmetry_multiplicity
 _atom_site_fract_x
 _atom_site_fract_y
 _atom_site_fract_z
 _atom_site_occupancy
  Hf  Hf0  1  0.202364  0.797636  0.058349  1
  Hf  Hf1  1  0.595271  0.797636  0.058349  1
  Hf  Hf2  1  0.805176  0.610352  0.551641  1
  Hf  Hf3  1  0.202364  0.404729  0.058349  1
  Hf  Hf4  1  0.805176  0.194824  0.551641  1
  Hf  Hf5  1  0.389648  0.194824  0.551641  1
  Hf  Hf6  1  0.805176  0.610352  0.948359  1
  Hf  Hf7  1  0.805176  0.194824  0.948359  1
  Hf  Hf8  1  0.389648  0.194824  0.948359  1
  Hf  Hf9  1  0.595271  0.797636  0.441651  1
  Hf  Hf10  1  0.202364  0.797636  0.441651  1
  Hf  Hf11  1  0.202364  0.404729  0.441651  1
  Hf  Hf12  1  0.541289  0.082579  0.250000  1
  Hf  Hf13  1  0.458311  0.916621  0.750000  1
  Hf  Hf14  1  0.917421  0.458711  0.250000  1
  Hf  Hf15  1  0.541289  0.458711  0.250000  1
  Hf  Hf16  1  0.458311  0.541689  0.750000  1
  Hf  Hf17  1  0.083379  0.541689  0.750000  1
  Zn  Zn18  1  0.666667  0.333333  0.750000  1
  Co  Co19  1  0.333333  0.666667  0.250000  1
  Mo  Mo20  1  0.000000  0.000000  0.002255  1
  Mo  Mo21  1  0.000000  0.000000  0.497745  1
  Mo  Mo22  1  0.888189  0.776378  0.250000  1
  Mo  Mo23  1  0.111681  0.223361  0.750000  1
  Mo  Mo24  1  0.223622  0.111811  0.250000  1
  Mo  Mo25  1  0.888189  0.111811  0.250000  1
  Mo  Mo26  1  0.111681  0.888319  0.750000  1
  Mo  Mo27  1  0.776639  0.888319  0.750000  1
