# generated using pymatgen
data_TbY3Al17NiPd6
_symmetry_space_group_name_H-M   'P 1'
_cell_length_a   7.59187800
_cell_length_b   7.59175170
_cell_length_c   9.39839000
_cell_angle_alpha   90.00000000
_cell_angle_beta   90.00000000
_cell_angle_gamma   118.67614393
_symmetry_Int_Tables_number   1
_chemical_formula_structural   TbY3Al17NiPd6
_chemical_formula_sum   'Tb1 Y3 Al17 Ni1 Pd6'
_cell_volume   475.24285593
_cell_formula_units_Z   1
loop_
 _symmetry_equiv_pos_site_id
 _symmetry_equiv_pos_as_xyz
  1  'x, y, z'
loop_
 _atom_site_type_symbol
 _atom_site_label
 _atom_site_symmetry_multiplicity
 _atom_site_fract_x
 _atom_site_fract_y
 _atom_site_fract_z
 _atom_site_occupancy
  Tb  Tb0  1  0.325495  0.007055  0.750000  1
  Y  Y1  1  0.989323  0.674586  0.250000  1
  Y  Y2  1  0.007040  0.325502  0.750000  1
  Y  Y3  1  0.674583  0.989324  0.250000  1
  Al  Al4  1  0.863930  0.863922  0.750000  1
  Al  Al5  1  0.005883  0.326142  0.088652  1
  Al  Al6  1  0.999360  0.661442  0.922100  1
  Al  Al7  1  0.999360  0.661442  0.577900  1
  Al  Al8  1  0.326152  0.005898  0.411347  1
  Al  Al9  1  0.005883  0.326142  0.411348  1
  Al  Al10  1  0.661484  0.999381  0.577895  1
  Al  Al11  1  0.661484  0.999381  0.922105  1
  Al  Al12  1  0.326152  0.005898  0.088653  1
  Al  Al13  1  0.329856  0.329864  0.536236  1
  Al  Al14  1  0.666162  0.666160  0.448090  1
  Al  Al15  1  0.666162  0.666160  0.051910  1
  Al  Al16  1  0.329856  0.329864  0.963764  1
  Al  Al17  1  0.339851  0.544361  0.250000  1
  Al  Al18  1  0.655340  0.448007  0.750000  1
  Al  Al19  1  0.544363  0.339855  0.250000  1
  Al  Al20  1  0.448010  0.655345  0.750000  1
  Ni  Ni21  1  0.175606  0.175603  0.250000  1
  Pd  Pd22  1  0.677556  0.327723  0.000379  1
  Pd  Pd23  1  0.327714  0.677537  0.000383  1
  Pd  Pd24  1  0.327714  0.677537  0.499617  1
  Pd  Pd25  1  0.677556  0.327723  0.499621  1
  Pd  Pd26  1  0.994063  0.994072  0.994804  1
  Pd  Pd27  1  0.994063  0.994072  0.505196  1
