# generated using pymatgen
data_Tb3YSc6(Si5Ir2)4
_symmetry_space_group_name_H-M   'P 1'
_cell_length_a   12.50120862
_cell_length_b   12.50120872
_cell_length_c   4.16438200
_cell_angle_alpha   90.00000000
_cell_angle_beta   90.00000000
_cell_angle_gamma   90.00614610
_symmetry_Int_Tables_number   1
_chemical_formula_structural   Tb3YSc6(Si5Ir2)4
_chemical_formula_sum   'Tb3 Y1 Sc6 Si20 Ir8'
_cell_volume   650.81052399
_cell_formula_units_Z   1
loop_
 _symmetry_equiv_pos_site_id
 _symmetry_equiv_pos_as_xyz
  1  'x, y, z'
loop_
 _atom_site_type_symbol
 _atom_site_label
 _atom_site_symmetry_multiplicity
 _atom_site_fract_x
 _atom_site_fract_y
 _atom_site_fract_z
 _atom_site_occupancy
  Tb  Tb0  1  0.115633  0.615557  0.500000  1
  Tb  Tb1  1  0.884443  0.384367  0.500000  1
  Tb  Tb2  1  0.615465  0.884535  0.500000  1
  Y  Y3  1  0.384559  0.115441  0.500000  1
  Sc  Sc4  1  0.673845  0.174221  0.500000  1
  Sc  Sc5  1  0.325779  0.826155  0.500000  1
  Sc  Sc6  1  0.174412  0.325588  0.500000  1
  Sc  Sc7  1  0.825857  0.674143  0.500000  1
  Sc  Sc8  1  0.000251  0.999986  0.000000  1
  Sc  Sc9  1  0.500014  0.499749  0.000000  1
  Si  Si10  1  0.567862  0.067700  0.000000  1
  Si  Si11  1  0.432300  0.932138  0.000000  1
  Si  Si12  1  0.067961  0.432039  0.000000  1
  Si  Si13  1  0.932186  0.567814  0.000000  1
  Si  Si14  1  0.199684  0.165518  0.000000  1
  Si  Si15  1  0.800377  0.834481  0.000000  1
  Si  Si16  1  0.165637  0.800619  0.000000  1
  Si  Si17  1  0.699381  0.334363  0.000000  1
  Si  Si18  1  0.834347  0.199671  0.000000  1
  Si  Si19  1  0.300329  0.665653  0.000000  1
  Si  Si20  1  0.665519  0.699623  0.000000  1
  Si  Si21  1  0.334482  0.300316  0.000000  1
  Si  Si22  1  0.007819  0.150733  0.500000  1
  Si  Si23  1  0.992579  0.849371  0.500000  1
  Si  Si24  1  0.151197  0.993236  0.500000  1
  Si  Si25  1  0.506764  0.348803  0.500000  1
  Si  Si26  1  0.849306  0.008094  0.500000  1
  Si  Si27  1  0.491906  0.650694  0.500000  1
  Si  Si28  1  0.650629  0.507421  0.500000  1
  Si  Si29  1  0.349267  0.492181  0.500000  1
  Ir  Ir30  1  0.020640  0.243744  0.000000  1
  Ir  Ir31  1  0.979445  0.756276  0.000000  1
  Ir  Ir32  1  0.244289  0.979584  0.000000  1
  Ir  Ir33  1  0.520416  0.255711  0.000000  1
  Ir  Ir34  1  0.756068  0.020626  0.000000  1
  Ir  Ir35  1  0.479374  0.743932  0.000000  1
  Ir  Ir36  1  0.743724  0.520555  0.000000  1
  Ir  Ir37  1  0.256256  0.479360  0.000000  1
