# generated using pymatgen
data_Mg4Co6Re3B8Ru
_symmetry_space_group_name_H-M   'P 1'
_cell_length_a   2.95632500
_cell_length_b   8.18374416
_cell_length_c   9.34925314
_cell_angle_alpha   90.02100552
_cell_angle_beta   90.00000000
_cell_angle_gamma   90.00000000
_symmetry_Int_Tables_number   1
_chemical_formula_structural   Mg4Co6Re3B8Ru
_chemical_formula_sum   'Mg4 Co6 Re3 B8 Ru1'
_cell_volume   226.19401493
_cell_formula_units_Z   1
loop_
 _symmetry_equiv_pos_site_id
 _symmetry_equiv_pos_as_xyz
  1  'x, y, z'
loop_
 _atom_site_type_symbol
 _atom_site_label
 _atom_site_symmetry_multiplicity
 _atom_site_fract_x
 _atom_site_fract_y
 _atom_site_fract_z
 _atom_site_occupancy
  Mg  Mg0  1  0.500000  0.663223  0.820196  1
  Mg  Mg1  1  0.500000  0.338905  0.181539  1
  Mg  Mg2  1  0.500000  0.161608  0.680559  1
  Mg  Mg3  1  0.500000  0.839064  0.316353  1
  Co  Co4  1  0.000000  0.408645  0.744548  1
  Co  Co5  1  0.000000  0.591506  0.255709  1
  Co  Co6  1  0.000000  0.909984  0.756723  1
  Co  Co7  1  0.000000  0.092272  0.242767  1
  Co  Co8  1  0.000000  0.999561  0.499209  1
  Co  Co9  1  0.000000  0.499993  0.000159  1
  Re  Re10  1  0.000000  0.665546  0.547314  1
  Re  Re11  1  0.000000  0.334704  0.452923  1
  Re  Re12  1  0.000000  0.163219  0.953891  1
  B  B13  1  0.500000  0.862146  0.601306  1
  B  B14  1  0.500000  0.136251  0.399325  1
  B  B15  1  0.500000  0.362340  0.897462  1
  B  B16  1  0.500000  0.634366  0.102837  1
  B  B17  1  0.500000  0.966741  0.902059  1
  B  B18  1  0.500000  0.037148  0.096791  1
  B  B19  1  0.500000  0.463630  0.596473  1
  B  B20  1  0.500000  0.536071  0.404218  1
  Ru  Ru21  1  0.000000  0.833076  0.047638  1
