# generated using pymatgen
data_Sc2Fe12P7
_symmetry_space_group_name_H-M   'P 1'
_cell_length_a   8.86647600
_cell_length_b   8.86647597
_cell_length_c   3.58792000
_cell_angle_alpha   90.00000000
_cell_angle_beta   90.00000000
_cell_angle_gamma   119.99999265
_symmetry_Int_Tables_number   1
_chemical_formula_structural   Sc2Fe12P7
_chemical_formula_sum   'Sc2 Fe12 P7'
_cell_volume   244.27301849
_cell_formula_units_Z   1
loop_
 _symmetry_equiv_pos_site_id
 _symmetry_equiv_pos_as_xyz
  1  'x, y, z'
loop_
 _atom_site_type_symbol
 _atom_site_label
 _atom_site_symmetry_multiplicity
 _atom_site_fract_x
 _atom_site_fract_y
 _atom_site_fract_z
 _atom_site_occupancy
  Sc  Sc0  1  0.000000  0.000000  0.000000  1
  Sc  Sc1  1  0.333333  0.666667  0.500000  1
  Fe  Fe2  1  0.094853  0.389731  0.000000  1
  Fe  Fe3  1  0.294878  0.905147  0.000000  1
  Fe  Fe4  1  0.610269  0.705122  0.000000  1
  Fe  Fe5  1  0.826224  0.611097  0.000000  1
  Fe  Fe6  1  0.784873  0.173776  0.000000  1
  Fe  Fe7  1  0.388903  0.215127  0.000000  1
  Fe  Fe8  1  0.051907  0.766966  0.500000  1
  Fe  Fe9  1  0.715060  0.948093  0.500000  1
  Fe  Fe10  1  0.233034  0.284940  0.500000  1
  Fe  Fe11  1  0.882353  0.427427  0.500000  1
  Fe  Fe12  1  0.545074  0.117647  0.500000  1
  Fe  Fe13  1  0.572573  0.454926  0.500000  1
  P  P14  1  0.083228  0.629666  0.000000  1
  P  P15  1  0.546439  0.916772  0.000000  1
  P  P16  1  0.370334  0.453561  0.000000  1
  P  P17  1  0.784276  0.740400  0.500000  1
  P  P18  1  0.956124  0.215724  0.500000  1
  P  P19  1  0.259600  0.043876  0.500000  1
  P  P20  1  0.666667  0.333333  0.000000  1
