# generated using pymatgen
data_Tm4Cr3Co3(P6Rh7)2
_symmetry_space_group_name_H-M   'P 1'
_cell_length_a   3.82265400
_cell_length_b   10.77966603
_cell_length_c   12.40962548
_cell_angle_alpha   90.28830925
_cell_angle_beta   90.00000000
_cell_angle_gamma   90.00000000
_symmetry_Int_Tables_number   1
_chemical_formula_structural   Tm4Cr3Co3(P6Rh7)2
_chemical_formula_sum   'Tm4 Cr3 Co3 P12 Rh14'
_cell_volume   511.35613762
_cell_formula_units_Z   1
loop_
 _symmetry_equiv_pos_site_id
 _symmetry_equiv_pos_as_xyz
  1  'x, y, z'
loop_
 _atom_site_type_symbol
 _atom_site_label
 _atom_site_symmetry_multiplicity
 _atom_site_fract_x
 _atom_site_fract_y
 _atom_site_fract_z
 _atom_site_occupancy
  Tm  Tm0  1  0.250000  0.585211  0.706778  1
  Tm  Tm1  1  0.250000  0.914321  0.207832  1
  Tm  Tm2  1  0.750000  0.417454  0.292978  1
  Tm  Tm3  1  0.750000  0.079848  0.791878  1
  Cr  Cr4  1  0.250000  0.717075  0.991086  1
  Cr  Cr5  1  0.250000  0.789235  0.486946  1
  Cr  Cr6  1  0.750000  0.286400  0.010567  1
  Co  Co7  1  0.250000  0.033232  0.433812  1
  Co  Co8  1  0.750000  0.536494  0.067769  1
  Co  Co9  1  0.750000  0.963823  0.564421  1
  P  P10  1  0.250000  0.422364  0.113792  1
  P  P11  1  0.250000  0.074430  0.605916  1
  P  P12  1  0.750000  0.583270  0.893089  1
  P  P13  1  0.750000  0.923034  0.393244  1
  P  P14  1  0.250000  0.261820  0.869426  1
  P  P15  1  0.250000  0.228734  0.372163  1
  P  P16  1  0.750000  0.730153  0.127115  1
  P  P17  1  0.750000  0.771939  0.627112  1
  P  P18  1  0.250000  0.600621  0.389227  1
  P  P19  1  0.250000  0.899947  0.889783  1
  P  P20  1  0.750000  0.403709  0.609345  1
  P  P21  1  0.750000  0.097824  0.112216  1
  Rh  Rh22  1  0.750000  0.214439  0.513179  1
  Rh  Rh23  1  0.250000  0.407627  0.482315  1
  Rh  Rh24  1  0.250000  0.092918  0.985049  1
  Rh  Rh25  1  0.750000  0.596188  0.516329  1
  Rh  Rh26  1  0.750000  0.906124  0.017581  1
  Rh  Rh27  1  0.250000  0.227692  0.179009  1
  Rh  Rh28  1  0.250000  0.267142  0.678926  1
  Rh  Rh29  1  0.750000  0.773808  0.821369  1
  Rh  Rh30  1  0.750000  0.729860  0.321704  1
  Rh  Rh31  1  0.250000  0.887066  0.697384  1
  Rh  Rh32  1  0.250000  0.612767  0.199203  1
  Rh  Rh33  1  0.750000  0.110347  0.301284  1
  Rh  Rh34  1  0.750000  0.388310  0.796082  1
  Rh  Rh35  1  0.250000  0.464773  0.934089  1
