# generated using pymatgen
data_PmScS3
_symmetry_space_group_name_H-M   'P 1'
_cell_length_a   6.48474700
_cell_length_b   7.13889400
_cell_length_c   9.59433100
_cell_angle_alpha   90.00000000
_cell_angle_beta   90.00000000
_cell_angle_gamma   90.00000000
_symmetry_Int_Tables_number   1
_chemical_formula_structural   PmScS3
_chemical_formula_sum   'Pm4 Sc4 S12'
_cell_volume   444.15920568
_cell_formula_units_Z   4
loop_
 _symmetry_equiv_pos_site_id
 _symmetry_equiv_pos_as_xyz
  1  'x, y, z'
loop_
 _atom_site_type_symbol
 _atom_site_label
 _atom_site_symmetry_multiplicity
 _atom_site_fract_x
 _atom_site_fract_y
 _atom_site_fract_z
 _atom_site_occupancy
  Pm  Pm0  1  0.960591  0.098685  0.250000  1
  Pm  Pm1  1  0.539409  0.598684  0.250000  1
  Pm  Pm2  1  0.460589  0.401315  0.750000  1
  Pm  Pm3  1  0.039409  0.901316  0.750000  1
  Sc  Sc4  1  0.500000  0.000000  0.000000  1
  Sc  Sc5  1  0.000000  0.500000  0.000000  1
  Sc  Sc6  1  0.500000  0.000000  0.500001  1
  Sc  Sc7  1  0.000000  0.500000  0.500001  1
  S  S8  1  0.679221  0.312978  0.065415  1
  S  S9  1  0.820779  0.812976  0.065415  1
  S  S10  1  0.133527  0.458917  0.250000  1
  S  S11  1  0.366473  0.958917  0.250000  1
  S  S12  1  0.679221  0.312978  0.434584  1
  S  S13  1  0.820779  0.812976  0.434584  1
  S  S14  1  0.179221  0.187023  0.565416  1
  S  S15  1  0.320781  0.687023  0.565416  1
  S  S16  1  0.633528  0.041082  0.750000  1
  S  S17  1  0.866473  0.541082  0.750000  1
  S  S18  1  0.179221  0.187023  0.934585  1
  S  S19  1  0.320781  0.687023  0.934585  1
