# generated using pymatgen
data_YLu9GaSb5
_symmetry_space_group_name_H-M   'P 1'
_cell_length_a   6.25385900
_cell_length_b   8.73920540
_cell_length_c   8.71634248
_cell_angle_alpha   119.92590083
_cell_angle_beta   89.99914112
_cell_angle_gamma   90.00231516
_symmetry_Int_Tables_number   1
_chemical_formula_structural   YLu9GaSb5
_chemical_formula_sum   'Y1 Lu9 Ga1 Sb5'
_cell_volume   412.86564025
_cell_formula_units_Z   1
loop_
 _symmetry_equiv_pos_site_id
 _symmetry_equiv_pos_as_xyz
  1  'x, y, z'
loop_
 _atom_site_type_symbol
 _atom_site_label
 _atom_site_symmetry_multiplicity
 _atom_site_fract_x
 _atom_site_fract_y
 _atom_site_fract_z
 _atom_site_occupancy
  Y  Y0  1  0.249979  0.000013  0.757877  1
  Lu  Lu1  1  0.502351  0.340239  0.675903  1
  Lu  Lu2  1  0.502614  0.666609  0.325300  1
  Lu  Lu3  1  0.997328  0.666563  0.325236  1
  Lu  Lu4  1  0.997641  0.340254  0.675867  1
  Lu  Lu5  1  0.749978  0.248594  0.000925  1
  Lu  Lu6  1  0.749996  0.752640  0.766077  1
  Lu  Lu7  1  0.749995  0.987634  0.231287  1
  Lu  Lu8  1  0.249997  0.757236  0.999690  1
  Lu  Lu9  1  0.249986  0.242835  0.241757  1
  Ga  Ga10  1  0.750186  0.604602  0.000591  1
  Sb  Sb11  1  0.749965  0.389367  0.391234  1
  Sb  Sb12  1  0.749984  0.998124  0.609062  1
  Sb  Sb13  1  0.249983  0.395827  0.002153  1
  Sb  Sb14  1  0.250009  0.605267  0.603663  1
  Sb  Sb15  1  0.250009  0.004197  0.393378  1
