# generated using pymatgen
data_CaEu(SnPd)2
_symmetry_space_group_name_H-M   'P 1'
_cell_length_a   4.69543900
_cell_length_b   7.52626523
_cell_length_c   8.09580520
_cell_angle_alpha   92.41425590
_cell_angle_beta   90.00000000
_cell_angle_gamma   90.00000000
_symmetry_Int_Tables_number   1
_chemical_formula_structural   CaEu(SnPd)2
_chemical_formula_sum   'Ca2 Eu2 Sn4 Pd4'
_cell_volume   285.84467872
_cell_formula_units_Z   2
loop_
 _symmetry_equiv_pos_site_id
 _symmetry_equiv_pos_as_xyz
  1  'x, y, z'
loop_
 _atom_site_type_symbol
 _atom_site_label
 _atom_site_symmetry_multiplicity
 _atom_site_fract_x
 _atom_site_fract_y
 _atom_site_fract_z
 _atom_site_occupancy
  Ca  Ca0  1  0.250000  0.519591  0.185094  1
  Ca  Ca1  1  0.750000  0.480409  0.814906  1
  Eu  Eu2  1  0.250000  0.021401  0.312174  1
  Eu  Eu3  1  0.750000  0.978599  0.687826  1
  Sn  Sn4  1  0.250000  0.170343  0.924369  1
  Sn  Sn5  1  0.750000  0.332747  0.426919  1
  Sn  Sn6  1  0.250000  0.667253  0.573081  1
  Sn  Sn7  1  0.750000  0.829657  0.075631  1
  Pd  Pd8  1  0.750000  0.211145  0.101359  1
  Pd  Pd9  1  0.250000  0.297706  0.609211  1
  Pd  Pd10  1  0.750000  0.702294  0.390789  1
  Pd  Pd11  1  0.250000  0.788855  0.898641  1
