# generated using pymatgen
data_Er2Al9Ni2Ir
_symmetry_space_group_name_H-M   'P 1'
_cell_length_a   7.43410442
_cell_length_b   7.43410419
_cell_length_c   9.28707800
_cell_angle_alpha   90.00000000
_cell_angle_beta   90.00000000
_cell_angle_gamma   119.03296533
_symmetry_Int_Tables_number   1
_chemical_formula_structural   Er2Al9Ni2Ir
_chemical_formula_sum   'Er4 Al18 Ni4 Ir2'
_cell_volume   448.76300923
_cell_formula_units_Z   2
loop_
 _symmetry_equiv_pos_site_id
 _symmetry_equiv_pos_as_xyz
  1  'x, y, z'
loop_
 _atom_site_type_symbol
 _atom_site_label
 _atom_site_symmetry_multiplicity
 _atom_site_fract_x
 _atom_site_fract_y
 _atom_site_fract_z
 _atom_site_occupancy
  Er  Er0  1  0.994417  0.675623  0.750000  1
  Er  Er1  1  0.005583  0.324377  0.250000  1
  Er  Er2  1  0.675623  0.994417  0.750000  1
  Er  Er3  1  0.324377  0.005583  0.250000  1
  Al  Al4  1  0.136713  0.136713  0.750000  1
  Al  Al5  1  0.863287  0.863287  0.250000  1
  Al  Al6  1  0.997626  0.339121  0.574711  1
  Al  Al7  1  0.002374  0.660879  0.425289  1
  Al  Al8  1  0.002374  0.660879  0.074711  1
  Al  Al9  1  0.339121  0.997626  0.925289  1
  Al  Al10  1  0.997626  0.339121  0.925289  1
  Al  Al11  1  0.660879  0.002374  0.074711  1
  Al  Al12  1  0.660879  0.002374  0.425289  1
  Al  Al13  1  0.339121  0.997626  0.574711  1
  Al  Al14  1  0.335654  0.335654  0.050511  1
  Al  Al15  1  0.664346  0.664346  0.949489  1
  Al  Al16  1  0.664346  0.664346  0.550511  1
  Al  Al17  1  0.335654  0.335654  0.449489  1
  Al  Al18  1  0.341923  0.558699  0.750000  1
  Al  Al19  1  0.658077  0.441301  0.250000  1
  Al  Al20  1  0.558699  0.341923  0.750000  1
  Al  Al21  1  0.441301  0.658077  0.250000  1
  Ni  Ni22  1  0.671431  0.328569  0.500000  1
  Ni  Ni23  1  0.328569  0.671431  0.500000  1
  Ni  Ni24  1  0.328569  0.671431  0.000000  1
  Ni  Ni25  1  0.671431  0.328569  0.000000  1
  Ir  Ir26  1  0.000000  0.000000  0.500000  1
  Ir  Ir27  1  0.000000  0.000000  0.000000  1
