# generated using pymatgen
data_Pr12CoSiI17
_symmetry_space_group_name_H-M   'P 1'
_cell_length_a   10.03506473
_cell_length_b   12.03200687
_cell_length_c   11.94703262
_cell_angle_alpha   93.72441657
_cell_angle_beta   104.70521961
_cell_angle_gamma   114.81674101
_symmetry_Int_Tables_number   1
_chemical_formula_structural   Pr12CoSiI17
_chemical_formula_sum   'Pr12 Co1 Si1 I17'
_cell_volume   1242.01420446
_cell_formula_units_Z   1
loop_
 _symmetry_equiv_pos_site_id
 _symmetry_equiv_pos_as_xyz
  1  'x, y, z'
loop_
 _atom_site_type_symbol
 _atom_site_label
 _atom_site_symmetry_multiplicity
 _atom_site_fract_x
 _atom_site_fract_y
 _atom_site_fract_z
 _atom_site_occupancy
  Pr  Pr0  1  0.061176  0.518307  0.328503  1
  Pr  Pr1  1  0.989200  0.807949  0.581667  1
  Pr  Pr2  1  0.635712  0.239385  0.283540  1
  Pr  Pr3  1  0.012912  0.189018  0.422937  1
  Pr  Pr4  1  0.224109  0.670965  0.991277  1
  Pr  Pr5  1  0.262822  0.985610  0.895409  1
  Pr  Pr6  1  0.354513  0.759766  0.715323  1
  Pr  Pr7  1  0.942665  0.487869  0.676516  1
  Pr  Pr8  1  0.729986  0.006329  0.100070  1
  Pr  Pr9  1  0.156264  0.287986  0.146775  1
  Pr  Pr10  1  0.777829  0.333663  0.002613  1
  Pr  Pr11  1  0.850778  0.711354  0.852218  1
  Co  Co12  1  0.104471  0.737787  0.786292  1
  Si  Si13  1  0.894973  0.262112  0.214180  1
  I  I14  1  0.778022  0.525896  0.413963  1
  I  I15  1  0.631545  0.417677  0.750259  1
  I  I16  1  0.841117  0.895676  0.323222  1
  I  I17  1  0.324829  0.212861  0.371126  1
  I  I18  1  0.158525  0.105379  0.677432  1
  I  I19  1  0.590812  0.056304  0.840209  1
  I  I20  1  0.751207  0.178745  0.538256  1
  I  I21  1  0.546285  0.697345  0.952595  1
  I  I22  1  0.361367  0.581605  0.245880  1
  I  I23  1  0.220835  0.470152  0.581545  1
  I  I24  1  0.057540  0.364341  0.894436  1
  I  I25  1  0.457201  0.300105  0.044605  1
  I  I26  1  0.000272  0.000963  0.002524  1
  I  I27  1  0.252080  0.827064  0.461002  1
  I  I28  1  0.414247  0.948320  0.165045  1
  I  I29  1  0.673285  0.787121  0.631472  1
  I  I30  1  0.943423  0.632349  0.109107  1
