# generated using pymatgen
data_Lu3Si3Os2
_symmetry_space_group_name_H-M   'P 1'
_cell_length_a   5.64098806
_cell_length_b   5.64098667
_cell_length_c   13.48874800
_cell_angle_alpha   90.00000000
_cell_angle_beta   90.00000000
_cell_angle_gamma   136.76618089
_symmetry_Int_Tables_number   1
_chemical_formula_structural   Lu3Si3Os2
_chemical_formula_sum   'Lu6 Si6 Os4'
_cell_volume   294.00725788
_cell_formula_units_Z   2
loop_
 _symmetry_equiv_pos_site_id
 _symmetry_equiv_pos_as_xyz
  1  'x, y, z'
loop_
 _atom_site_type_symbol
 _atom_site_label
 _atom_site_symmetry_multiplicity
 _atom_site_fract_x
 _atom_site_fract_y
 _atom_site_fract_z
 _atom_site_occupancy
  Lu  Lu0  1  0.641144  0.358856  0.250000  1
  Lu  Lu1  1  0.358856  0.641144  0.750000  1
  Lu  Lu2  1  0.923586  0.076414  0.115195  1
  Lu  Lu3  1  0.076414  0.923586  0.884805  1
  Lu  Lu4  1  0.076414  0.923586  0.615195  1
  Lu  Lu5  1  0.923586  0.076414  0.384805  1
  Si  Si6  1  0.329271  0.670729  0.250000  1
  Si  Si7  1  0.670729  0.329271  0.750000  1
  Si  Si8  1  0.613686  0.386314  0.038265  1
  Si  Si9  1  0.386314  0.613686  0.961735  1
  Si  Si10  1  0.386314  0.613686  0.538265  1
  Si  Si11  1  0.613686  0.386314  0.461735  1
  Os  Os12  1  0.788183  0.211817  0.582927  1
  Os  Os13  1  0.211817  0.788183  0.417073  1
  Os  Os14  1  0.211817  0.788183  0.082927  1
  Os  Os15  1  0.788183  0.211817  0.917073  1
