# generated using pymatgen
data_Pa3AgPd12
_symmetry_space_group_name_H-M   'P 1'
_cell_length_a   5.79604400
_cell_length_b   5.79604420
_cell_length_c   9.49140600
_cell_angle_alpha   90.00000000
_cell_angle_beta   90.00000000
_cell_angle_gamma   120.00001027
_symmetry_Int_Tables_number   1
_chemical_formula_structural   Pa3AgPd12
_chemical_formula_sum   'Pa3 Ag1 Pd12'
_cell_volume   276.13693509
_cell_formula_units_Z   1
loop_
 _symmetry_equiv_pos_site_id
 _symmetry_equiv_pos_as_xyz
  1  'x, y, z'
loop_
 _atom_site_type_symbol
 _atom_site_label
 _atom_site_symmetry_multiplicity
 _atom_site_fract_x
 _atom_site_fract_y
 _atom_site_fract_z
 _atom_site_occupancy
  Pa  Pa0  1  0.000000  0.000000  0.512616  1
  Pa  Pa1  1  0.000000  0.000000  0.987384  1
  Pa  Pa2  1  0.666667  0.333333  0.250000  1
  Ag  Ag3  1  0.333333  0.666667  0.750000  1
  Pd  Pd4  1  0.500436  0.499564  0.499012  1
  Pd  Pd5  1  0.500436  0.000872  0.499012  1
  Pd  Pd6  1  0.999128  0.499564  0.499012  1
  Pd  Pd7  1  0.500436  0.499564  0.000988  1
  Pd  Pd8  1  0.500436  0.000872  0.000988  1
  Pd  Pd9  1  0.999128  0.499564  0.000988  1
  Pd  Pd10  1  0.168545  0.831455  0.250000  1
  Pd  Pd11  1  0.168545  0.337093  0.250000  1
  Pd  Pd12  1  0.662907  0.831455  0.250000  1
  Pd  Pd13  1  0.828488  0.171512  0.750000  1
  Pd  Pd14  1  0.828488  0.656973  0.750000  1
  Pd  Pd15  1  0.343027  0.171512  0.750000  1
