# generated using pymatgen
data_Ce10Si5Ir
_symmetry_space_group_name_H-M   'P 1'
_cell_length_a   8.41641855
_cell_length_b   8.42511782
_cell_length_c   7.74881670
_cell_angle_alpha   62.54924035
_cell_angle_beta   62.66346842
_cell_angle_gamma   54.78729435
_symmetry_Int_Tables_number   1
_chemical_formula_structural   Ce10Si5Ir
_chemical_formula_sum   'Ce10 Si5 Ir1'
_cell_volume   383.94020035
_cell_formula_units_Z   1
loop_
 _symmetry_equiv_pos_site_id
 _symmetry_equiv_pos_as_xyz
  1  'x, y, z'
loop_
 _atom_site_type_symbol
 _atom_site_label
 _atom_site_symmetry_multiplicity
 _atom_site_fract_x
 _atom_site_fract_y
 _atom_site_fract_z
 _atom_site_occupancy
  Ce  Ce0  1  0.500671  0.499329  0.001056  1
  Ce  Ce1  1  0.998944  0.001056  0.499329  1
  Ce  Ce2  1  0.834173  0.475212  0.165827  1
  Ce  Ce3  1  0.476913  0.833428  0.523087  1
  Ce  Ce4  1  0.330222  0.976141  0.023973  1
  Ce  Ce5  1  0.976027  0.330335  0.669778  1
  Ce  Ce6  1  0.166572  0.523087  0.833428  1
  Ce  Ce7  1  0.524788  0.165827  0.475212  1
  Ce  Ce8  1  0.669665  0.023973  0.976141  1
  Ce  Ce9  1  0.023859  0.669778  0.330335  1
  Si  Si10  1  0.749088  0.750912  0.750912  1
  Si  Si11  1  0.249088  0.250912  0.250912  1
  Si  Si12  1  0.117559  0.882441  0.882441  1
  Si  Si13  1  0.384665  0.615335  0.386492  1
  Si  Si14  1  0.613508  0.386492  0.615335  1
  Ir  Ir15  1  0.884257  0.115743  0.115743  1
