# generated using pymatgen
data_YHo15Cd2In2Ir3Pd
_symmetry_space_group_name_H-M   'P 1'
_cell_length_a   9.64235713
_cell_length_b   9.65337203
_cell_length_c   9.64675500
_cell_angle_alpha   60.02266891
_cell_angle_beta   59.98490780
_cell_angle_gamma   59.97641969
_symmetry_Int_Tables_number   1
_chemical_formula_structural   YHo15Cd2In2Ir3Pd
_chemical_formula_sum   'Y1 Ho15 Cd2 In2 Ir3 Pd1'
_cell_volume   634.85685785
_cell_formula_units_Z   1
loop_
 _symmetry_equiv_pos_site_id
 _symmetry_equiv_pos_as_xyz
  1  'x, y, z'
loop_
 _atom_site_type_symbol
 _atom_site_label
 _atom_site_symmetry_multiplicity
 _atom_site_fract_x
 _atom_site_fract_y
 _atom_site_fract_z
 _atom_site_occupancy
  Y  Y0  1  0.439161  0.433710  0.063566  1
  Ho  Ho1  1  0.654063  0.647889  0.050502  1
  Ho  Ho2  1  0.185228  0.810744  0.194709  1
  Ho  Ho3  1  0.062515  0.438342  0.060513  1
  Ho  Ho4  1  0.185229  0.810743  0.809319  1
  Ho  Ho5  1  0.062513  0.438342  0.438631  1
  Ho  Ho6  1  0.811544  0.189762  0.189555  1
  Ho  Ho7  1  0.654060  0.647891  0.647546  1
  Ho  Ho8  1  0.811544  0.189766  0.809136  1
  Ho  Ho9  1  0.184286  0.193754  0.810978  1
  Ho  Ho10  1  0.046846  0.650478  0.651336  1
  Ho  Ho11  1  0.440429  0.062822  0.061706  1
  Ho  Ho12  1  0.062065  0.061064  0.438436  1
  Ho  Ho13  1  0.653049  0.051942  0.647506  1
  Ho  Ho14  1  0.810343  0.809468  0.190096  1
  Ho  Ho15  1  0.440432  0.062822  0.435046  1
  Cd  Cd16  1  0.417032  0.417494  0.418235  1
  Cd  Cd17  1  0.417032  0.417494  0.747241  1
  In  In18  1  0.416833  0.747378  0.417895  1
  In  In19  1  0.748595  0.416690  0.417357  1
  Ir  Ir20  1  0.856460  0.858510  0.858002  1
  Ir  Ir21  1  0.857292  0.426085  0.858309  1
  Ir  Ir22  1  0.856457  0.858512  0.427030  1
  Pd  Pd23  1  0.426999  0.858297  0.857351  1
