# generated using pymatgen
data_Lu3Al3Si2Ru
_symmetry_space_group_name_H-M   'P 1'
_cell_length_a   6.78292800
_cell_length_b   6.78292940
_cell_length_c   4.20781800
_cell_angle_alpha   90.00000000
_cell_angle_beta   90.00000000
_cell_angle_gamma   120.00000292
_symmetry_Int_Tables_number   1
_chemical_formula_structural   Lu3Al3Si2Ru
_chemical_formula_sum   'Lu3 Al3 Si2 Ru1'
_cell_volume   167.65714635
_cell_formula_units_Z   1
loop_
 _symmetry_equiv_pos_site_id
 _symmetry_equiv_pos_as_xyz
  1  'x, y, z'
loop_
 _atom_site_type_symbol
 _atom_site_label
 _atom_site_symmetry_multiplicity
 _atom_site_fract_x
 _atom_site_fract_y
 _atom_site_fract_z
 _atom_site_occupancy
  Lu  Lu0  1  0.419486  0.000000  0.000000  1
  Lu  Lu1  1  0.000000  0.419485  0.000000  1
  Lu  Lu2  1  0.580513  0.580513  0.000000  1
  Al  Al3  1  0.766330  0.000000  0.500001  1
  Al  Al4  1  0.233669  0.233670  0.500001  1
  Al  Al5  1  0.000000  0.766329  0.500001  1
  Si  Si6  1  0.666667  0.333334  0.500001  1
  Si  Si7  1  0.333333  0.666666  0.500001  1
  Ru  Ru8  1  0.000000  0.000000  0.000000  1
