# generated using pymatgen
data_Lu10Zn3ReTe4
_symmetry_space_group_name_H-M   'P 1'
_cell_length_a   8.58927226
_cell_length_b   8.58927441
_cell_length_c   7.71459657
_cell_angle_alpha   90.60473313
_cell_angle_beta   90.60472871
_cell_angle_gamma   126.57995772
_symmetry_Int_Tables_number   1
_chemical_formula_structural   Lu10Zn3ReTe4
_chemical_formula_sum   'Lu10 Zn3 Re1 Te4'
_cell_volume   456.91551268
_cell_formula_units_Z   1
loop_
 _symmetry_equiv_pos_site_id
 _symmetry_equiv_pos_as_xyz
  1  'x, y, z'
loop_
 _atom_site_type_symbol
 _atom_site_label
 _atom_site_symmetry_multiplicity
 _atom_site_fract_x
 _atom_site_fract_y
 _atom_site_fract_z
 _atom_site_occupancy
  Lu  Lu0  1  0.995267  0.995267  0.006591  1
  Lu  Lu1  1  0.506782  0.506782  0.494362  1
  Lu  Lu2  1  0.805716  0.559000  0.179410  1
  Lu  Lu3  1  0.461039  0.215305  0.837617  1
  Lu  Lu4  1  0.956889  0.715223  0.649249  1
  Lu  Lu5  1  0.266946  0.026698  0.338994  1
  Lu  Lu6  1  0.215305  0.461039  0.837617  1
  Lu  Lu7  1  0.559000  0.805716  0.179410  1
  Lu  Lu8  1  0.026698  0.266946  0.338994  1
  Lu  Lu9  1  0.715223  0.956889  0.649249  1
  Zn  Zn10  1  0.131394  0.131394  0.631708  1
  Zn  Zn11  1  0.627663  0.627663  0.873456  1
  Zn  Zn12  1  0.371336  0.371336  0.125701  1
  Re  Re13  1  0.868549  0.868549  0.370413  1
  Te  Te14  1  0.218929  0.799889  0.993165  1
  Te  Te15  1  0.693404  0.279968  0.500450  1
  Te  Te16  1  0.799889  0.218929  0.993165  1
  Te  Te17  1  0.279968  0.693404  0.500450  1
