# generated using pymatgen
data_HoEr4InAu4
_symmetry_space_group_name_H-M   'P 1'
_cell_length_a   8.06732600
_cell_length_b   8.06732600
_cell_length_c   3.70026300
_cell_angle_alpha   90.00000000
_cell_angle_beta   90.00000000
_cell_angle_gamma   90.00000000
_symmetry_Int_Tables_number   1
_chemical_formula_structural   HoEr4InAu4
_chemical_formula_sum   'Ho1 Er4 In1 Au4'
_cell_volume   240.81958702
_cell_formula_units_Z   1
loop_
 _symmetry_equiv_pos_site_id
 _symmetry_equiv_pos_as_xyz
  1  'x, y, z'
loop_
 _atom_site_type_symbol
 _atom_site_label
 _atom_site_symmetry_multiplicity
 _atom_site_fract_x
 _atom_site_fract_y
 _atom_site_fract_z
 _atom_site_occupancy
  Ho  Ho0  1  0.500000  0.500000  0.000000  1
  Er  Er1  1  0.684126  0.140431  0.500000  1
  Er  Er2  1  0.315874  0.859569  0.500000  1
  Er  Er3  1  0.140431  0.315874  0.500000  1
  Er  Er4  1  0.859569  0.684126  0.500000  1
  In  In5  1  0.000000  0.000000  0.000000  1
  Au  Au6  1  0.146704  0.619037  0.000000  1
  Au  Au7  1  0.853296  0.380963  0.000000  1
  Au  Au8  1  0.619037  0.853296  0.000000  1
  Au  Au9  1  0.380963  0.146704  0.000000  1
