# generated using pymatgen
data_Zr6TaNb3(GaSn3)2
_symmetry_space_group_name_H-M   'P 1'
_cell_length_a   8.57743500
_cell_length_b   8.57743509
_cell_length_c   5.75591900
_cell_angle_alpha   90.00000000
_cell_angle_beta   90.00000000
_cell_angle_gamma   119.99999580
_symmetry_Int_Tables_number   1
_chemical_formula_structural   Zr6TaNb3(GaSn3)2
_chemical_formula_sum   'Zr6 Ta1 Nb3 Ga2 Sn6'
_cell_volume   366.74162041
_cell_formula_units_Z   1
loop_
 _symmetry_equiv_pos_site_id
 _symmetry_equiv_pos_as_xyz
  1  'x, y, z'
loop_
 _atom_site_type_symbol
 _atom_site_label
 _atom_site_symmetry_multiplicity
 _atom_site_fract_x
 _atom_site_fract_y
 _atom_site_fract_z
 _atom_site_occupancy
  Zr  Zr0  1  0.000051  0.269717  0.250057  1
  Zr  Zr1  1  0.730283  0.999949  0.749943  1
  Zr  Zr2  1  0.730283  0.730334  0.250057  1
  Zr  Zr3  1  0.000051  0.730334  0.749943  1
  Zr  Zr4  1  0.269666  0.269717  0.749943  1
  Zr  Zr5  1  0.269666  0.999949  0.250057  1
  Ta  Ta6  1  0.333333  0.666667  0.500000  1
  Nb  Nb7  1  0.666667  0.333333  0.500000  1
  Nb  Nb8  1  0.333333  0.666667  0.000000  1
  Nb  Nb9  1  0.666667  0.333333  0.000000  1
  Ga  Ga10  1  0.000000  0.000000  0.000000  1
  Ga  Ga11  1  0.000000  0.000000  0.500000  1
  Sn  Sn12  1  0.609792  0.000017  0.250034  1
  Sn  Sn13  1  0.390225  0.000017  0.749966  1
  Sn  Sn14  1  0.390225  0.390208  0.250034  1
  Sn  Sn15  1  0.999983  0.609775  0.250034  1
  Sn  Sn16  1  0.999983  0.390208  0.749966  1
  Sn  Sn17  1  0.609792  0.609775  0.749966  1
