# generated using pymatgen
data_Tb6Y5In9Ru4
_symmetry_space_group_name_H-M   'P 1'
_cell_length_a   3.78229600
_cell_length_b   13.01839456
_cell_length_c   13.01775476
_cell_angle_alpha   112.68781596
_cell_angle_beta   90.00000000
_cell_angle_gamma   90.00000000
_symmetry_Int_Tables_number   1
_chemical_formula_structural   Tb6Y5In9Ru4
_chemical_formula_sum   'Tb6 Y5 In9 Ru4'
_cell_volume   591.38724876
_cell_formula_units_Z   1
loop_
 _symmetry_equiv_pos_site_id
 _symmetry_equiv_pos_as_xyz
  1  'x, y, z'
loop_
 _atom_site_type_symbol
 _atom_site_label
 _atom_site_symmetry_multiplicity
 _atom_site_fract_x
 _atom_site_fract_y
 _atom_site_fract_z
 _atom_site_occupancy
  Tb  Tb0  1  0.000000  0.161866  0.838139  1
  Tb  Tb1  1  0.000000  0.838134  0.161861  1
  Tb  Tb2  1  0.000000  0.374444  0.625533  1
  Tb  Tb3  1  0.000000  0.625556  0.374467  1
  Tb  Tb4  1  0.000000  0.689456  0.689440  1
  Tb  Tb5  1  0.000000  0.310544  0.310560  1
  Y  Y6  1  0.000000  0.917499  0.581572  1
  Y  Y7  1  0.000000  0.082501  0.418428  1
  Y  Y8  1  0.000000  0.581575  0.917509  1
  Y  Y9  1  0.000000  0.418425  0.082491  1
  Y  Y10  1  0.000000  0.000000  0.000000  1
  In  In11  1  0.500000  0.156861  0.631666  1
  In  In12  1  0.500000  0.843139  0.368334  1
  In  In13  1  0.500000  0.631668  0.156848  1
  In  In14  1  0.500000  0.368332  0.843152  1
  In  In15  1  0.500000  0.925630  0.780619  1
  In  In16  1  0.500000  0.074370  0.219381  1
  In  In17  1  0.500000  0.780620  0.925628  1
  In  In18  1  0.500000  0.219380  0.074372  1
  In  In19  1  0.500000  0.500000  0.500000  1
  Ru  Ru20  1  0.500000  0.746869  0.551003  1
  Ru  Ru21  1  0.500000  0.253131  0.448997  1
  Ru  Ru22  1  0.500000  0.551008  0.746872  1
  Ru  Ru23  1  0.500000  0.448992  0.253128  1
