# generated using pymatgen
data_Tm2TcB8Ir
_symmetry_space_group_name_H-M   'P 1'
_cell_length_a   3.55749000
_cell_length_b   5.93399781
_cell_length_c   11.49598334
_cell_angle_alpha   90.31477770
_cell_angle_beta   90.00000000
_cell_angle_gamma   90.00000000
_symmetry_Int_Tables_number   1
_chemical_formula_structural   Tm2TcB8Ir
_chemical_formula_sum   'Tm4 Tc2 B16 Ir2'
_cell_volume   242.67813070
_cell_formula_units_Z   2
loop_
 _symmetry_equiv_pos_site_id
 _symmetry_equiv_pos_as_xyz
  1  'x, y, z'
loop_
 _atom_site_type_symbol
 _atom_site_label
 _atom_site_symmetry_multiplicity
 _atom_site_fract_x
 _atom_site_fract_y
 _atom_site_fract_z
 _atom_site_occupancy
  Tm  Tm0  1  0.000000  0.130026  0.648082  1
  Tm  Tm1  1  0.000000  0.869974  0.351918  1
  Tm  Tm2  1  0.000000  0.629433  0.850111  1
  Tm  Tm3  1  0.000000  0.370567  0.149889  1
  Tc  Tc4  1  0.000000  0.635175  0.589960  1
  Tc  Tc5  1  0.000000  0.364825  0.410040  1
  B  B6  1  0.500000  0.790717  0.685888  1
  B  B7  1  0.500000  0.209283  0.314112  1
  B  B8  1  0.500000  0.292594  0.813016  1
  B  B9  1  0.500000  0.707406  0.186984  1
  B  B10  1  0.500000  0.865499  0.530497  1
  B  B11  1  0.500000  0.134501  0.469503  1
  B  B12  1  0.500000  0.364539  0.970049  1
  B  B13  1  0.500000  0.635461  0.029951  1
  B  B14  1  0.500000  0.023497  0.193469  1
  B  B15  1  0.500000  0.976503  0.806531  1
  B  B16  1  0.500000  0.522595  0.307135  1
  B  B17  1  0.500000  0.477405  0.692865  1
  B  B18  1  0.500000  0.112981  0.048203  1
  B  B19  1  0.500000  0.887019  0.951797  1
  B  B20  1  0.500000  0.612853  0.453134  1
  B  B21  1  0.500000  0.387147  0.546866  1
  Ir  Ir22  1  0.000000  0.144945  0.904238  1
  Ir  Ir23  1  0.000000  0.855055  0.095762  1
