# generated using pymatgen
data_TmMnGa6Fe5
_symmetry_space_group_name_H-M   'P 1'
_cell_length_a   5.02211229
_cell_length_b   6.57954791
_cell_length_c   6.57954809
_cell_angle_alpha   80.30316205
_cell_angle_beta   67.56434185
_cell_angle_gamma   67.56433996
_symmetry_Int_Tables_number   1
_chemical_formula_structural   TmMnGa6Fe5
_chemical_formula_sum   'Tm1 Mn1 Ga6 Fe5'
_cell_volume   185.67701806
_cell_formula_units_Z   1
loop_
 _symmetry_equiv_pos_site_id
 _symmetry_equiv_pos_as_xyz
  1  'x, y, z'
loop_
 _atom_site_type_symbol
 _atom_site_label
 _atom_site_symmetry_multiplicity
 _atom_site_fract_x
 _atom_site_fract_y
 _atom_site_fract_z
 _atom_site_occupancy
  Tm  Tm0  1  0.000000  0.000083  0.999917  1
  Mn  Mn1  1  0.500000  0.242300  0.757700  1
  Ga  Ga2  1  0.000000  0.668365  0.331635  1
  Ga  Ga3  1  0.000000  0.331813  0.668187  1
  Ga  Ga4  1  0.343326  0.656608  0.656739  1
  Ga  Ga5  1  0.656674  0.343261  0.343392  1
  Ga  Ga6  1  0.318962  0.181087  0.180990  1
  Ga  Ga7  1  0.681038  0.819010  0.818913  1
  Fe  Fe8  1  0.500000  0.757077  0.242923  1
  Fe  Fe9  1  0.999129  0.501117  0.000919  1
  Fe  Fe10  1  0.498835  0.501117  0.000919  1
  Fe  Fe11  1  0.000871  0.999081  0.498883  1
  Fe  Fe12  1  0.501165  0.999081  0.498883  1
