# generated using pymatgen
data_Nd7TmSc12Si15Hg
_symmetry_space_group_name_H-M   'P 1'
_cell_length_a   7.24037637
_cell_length_b   7.49924928
_cell_length_c   14.27880598
_cell_angle_alpha   89.87791166
_cell_angle_beta   89.65188919
_cell_angle_gamma   90.23126787
_symmetry_Int_Tables_number   1
_chemical_formula_structural   Nd7TmSc12Si15Hg
_chemical_formula_sum   'Nd7 Tm1 Sc12 Si15 Hg1'
_cell_volume   775.27943159
_cell_formula_units_Z   1
loop_
 _symmetry_equiv_pos_site_id
 _symmetry_equiv_pos_as_xyz
  1  'x, y, z'
loop_
 _atom_site_type_symbol
 _atom_site_label
 _atom_site_symmetry_multiplicity
 _atom_site_fract_x
 _atom_site_fract_y
 _atom_site_fract_z
 _atom_site_occupancy
  Nd  Nd0  1  0.011798  0.173510  0.097665  1
  Nd  Nd1  1  0.987926  0.827357  0.902241  1
  Nd  Nd2  1  0.488108  0.673568  0.903867  1
  Nd  Nd3  1  0.989589  0.831860  0.598568  1
  Nd  Nd4  1  0.510935  0.326439  0.096756  1
  Nd  Nd5  1  0.008502  0.168986  0.399585  1
  Nd  Nd6  1  0.511825  0.324775  0.400304  1
  Tm  Tm7  1  0.497856  0.682376  0.602476  1
  Sc  Sc8  1  0.162562  0.500272  0.753730  1
  Sc  Sc9  1  0.837709  0.501092  0.250053  1
  Sc  Sc10  1  0.337852  0.997784  0.248610  1
  Sc  Sc11  1  0.664032  0.999489  0.750993  1
  Sc  Sc12  1  0.341868  0.168537  0.629522  1
  Sc  Sc13  1  0.664056  0.823251  0.373513  1
  Sc  Sc14  1  0.167339  0.677639  0.370938  1
  Sc  Sc15  1  0.669192  0.824740  0.124363  1
  Sc  Sc16  1  0.823285  0.326044  0.625718  1
  Sc  Sc17  1  0.329526  0.174026  0.874476  1
  Sc  Sc18  1  0.828834  0.324382  0.874847  1
  Sc  Sc19  1  0.169424  0.675694  0.124871  1
  Si  Si20  1  0.035306  0.127535  0.750343  1
  Si  Si21  1  0.962759  0.876561  0.248725  1
  Si  Si22  1  0.464484  0.622612  0.248419  1
  Si  Si23  1  0.533872  0.382762  0.750507  1
  Si  Si24  1  0.290166  0.875780  0.749661  1
  Si  Si25  1  0.710321  0.119416  0.248323  1
  Si  Si26  1  0.210977  0.379071  0.249143  1
  Si  Si27  1  0.787415  0.622447  0.749836  1
  Si  Si28  1  0.835671  0.541805  0.460057  1
  Si  Si29  1  0.345128  0.956467  0.462258  1
  Si  Si30  1  0.847828  0.536853  0.038733  1
  Si  Si31  1  0.652261  0.033872  0.539132  1
  Si  Si32  1  0.150866  0.462307  0.961179  1
  Si  Si33  1  0.652468  0.037059  0.960117  1
  Si  Si34  1  0.347166  0.963251  0.039375  1
  Hg  Hg35  1  0.171092  0.460382  0.541099  1
