# generated using pymatgen
data_PrSi(GeIr2)3
_symmetry_space_group_name_H-M   'P 1'
_cell_length_a   7.19657400
_cell_length_b   7.19657358
_cell_length_c   3.94313000
_cell_angle_alpha   90.00000000
_cell_angle_beta   90.00000000
_cell_angle_gamma   119.99999272
_symmetry_Int_Tables_number   1
_chemical_formula_structural   PrSi(GeIr2)3
_chemical_formula_sum   'Pr1 Si1 Ge3 Ir6'
_cell_volume   176.85743609
_cell_formula_units_Z   1
loop_
 _symmetry_equiv_pos_site_id
 _symmetry_equiv_pos_as_xyz
  1  'x, y, z'
loop_
 _atom_site_type_symbol
 _atom_site_label
 _atom_site_symmetry_multiplicity
 _atom_site_fract_x
 _atom_site_fract_y
 _atom_site_fract_z
 _atom_site_occupancy
  Pr  Pr0  1  0.000000  0.000000  0.000000  1
  Si  Si1  1  0.333333  0.666667  0.000000  1
  Ge  Ge2  1  0.803371  0.196629  0.500000  1
  Ge  Ge3  1  0.803371  0.606744  0.500000  1
  Ge  Ge4  1  0.393256  0.196629  0.500000  1
  Ir  Ir5  1  0.529662  0.470338  0.000000  1
  Ir  Ir6  1  0.529662  0.059323  0.000000  1
  Ir  Ir7  1  0.940677  0.470338  0.000000  1
  Ir  Ir8  1  0.203283  0.796717  0.500000  1
  Ir  Ir9  1  0.203283  0.406565  0.500000  1
  Ir  Ir10  1  0.593435  0.796717  0.500000  1
