# generated using pymatgen
data_LaZnSiGePt
_symmetry_space_group_name_H-M   'P 1'
_cell_length_a   4.33732200
_cell_length_b   4.33732200
_cell_length_c   10.30536800
_cell_angle_alpha   90.00000000
_cell_angle_beta   90.00000000
_cell_angle_gamma   90.00000000
_symmetry_Int_Tables_number   1
_chemical_formula_structural   LaZnSiGePt
_chemical_formula_sum   'La2 Zn2 Si2 Ge2 Pt2'
_cell_volume   193.86831472
_cell_formula_units_Z   2
loop_
 _symmetry_equiv_pos_site_id
 _symmetry_equiv_pos_as_xyz
  1  'x, y, z'
loop_
 _atom_site_type_symbol
 _atom_site_label
 _atom_site_symmetry_multiplicity
 _atom_site_fract_x
 _atom_site_fract_y
 _atom_site_fract_z
 _atom_site_occupancy
  La  La0  1  0.000000  0.500000  0.262996  1
  La  La1  1  0.500000  0.000000  0.737004  1
  Zn  Zn2  1  0.500000  0.500000  0.000000  1
  Zn  Zn3  1  0.000000  0.000000  0.000000  1
  Si  Si4  1  0.500000  0.500000  0.500000  1
  Si  Si5  1  0.000000  0.000000  0.500000  1
  Ge  Ge6  1  0.000000  0.500000  0.856082  1
  Ge  Ge7  1  0.500000  0.000000  0.143918  1
  Pt  Pt8  1  0.000000  0.500000  0.610690  1
  Pt  Pt9  1  0.500000  0.000000  0.389310  1
