# generated using pymatgen
data_Tb13Dy7IrRh11
_symmetry_space_group_name_H-M   'P 1'
_cell_length_a   10.93261909
_cell_length_b   10.93233685
_cell_length_c   6.37318900
_cell_angle_alpha   89.99808341
_cell_angle_beta   89.99328204
_cell_angle_gamma   90.04584734
_symmetry_Int_Tables_number   1
_chemical_formula_structural   Tb13Dy7IrRh11
_chemical_formula_sum   'Tb13 Dy7 Ir1 Rh11'
_cell_volume   761.71740206
_cell_formula_units_Z   1
loop_
 _symmetry_equiv_pos_site_id
 _symmetry_equiv_pos_as_xyz
  1  'x, y, z'
loop_
 _atom_site_type_symbol
 _atom_site_label
 _atom_site_symmetry_multiplicity
 _atom_site_fract_x
 _atom_site_fract_y
 _atom_site_fract_z
 _atom_site_occupancy
  Tb  Tb0  1  0.290647  0.089047  0.378766  1
  Tb  Tb1  1  0.290987  0.909633  0.878640  1
  Tb  Tb2  1  0.709268  0.088878  0.878678  1
  Tb  Tb3  1  0.709114  0.910975  0.378691  1
  Tb  Tb4  1  0.587637  0.790263  0.878483  1
  Tb  Tb5  1  0.589030  0.209188  0.379150  1
  Tb  Tb6  1  0.410577  0.790157  0.379740  1
  Tb  Tb7  1  0.410948  0.209015  0.878716  1
  Tb  Tb8  1  0.209559  0.412413  0.621482  1
  Tb  Tb9  1  0.209742  0.589318  0.120211  1
  Tb  Tb10  1  0.790952  0.410922  0.120848  1
  Tb  Tb11  1  0.791118  0.588908  0.621302  1
  Tb  Tb12  1  0.911129  0.709318  0.121116  1
  Dy  Dy13  1  0.911357  0.290950  0.621083  1
  Dy  Dy14  1  0.090279  0.708816  0.621188  1
  Dy  Dy15  1  0.088875  0.291013  0.121172  1
  Dy  Dy16  1  0.999849  0.999945  0.500212  1
  Dy  Dy17  1  0.000119  0.000262  0.999957  1
  Dy  Dy18  1  0.499724  0.500035  0.000121  1
  Dy  Dy19  1  0.499957  0.500274  0.499981  1
  Ir  Ir20  1  0.346121  0.653754  0.749922  1
  Rh  Rh21  1  0.846443  0.153841  0.250152  1
  Rh  Rh22  1  0.846281  0.846389  0.750095  1
  Rh  Rh23  1  0.153393  0.153944  0.750010  1
  Rh  Rh24  1  0.153059  0.846800  0.250269  1
  Rh  Rh25  1  0.653892  0.346192  0.749930  1
  Rh  Rh26  1  0.654367  0.653840  0.250079  1
  Rh  Rh27  1  0.346024  0.345581  0.249856  1
  Rh  Rh28  1  0.500222  0.000430  0.124754  1
  Rh  Rh29  1  0.500301  0.000643  0.624212  1
  Rh  Rh30  1  0.999399  0.499587  0.875734  1
  Rh  Rh31  1  0.999631  0.499665  0.375449  1
