# generated using pymatgen
data_CaOs2F12
_symmetry_space_group_name_H-M   'P 1'
_cell_length_a   11.74099246
_cell_length_b   5.85739083
_cell_length_c   5.90291286
_cell_angle_alpha   57.73411790
_cell_angle_beta   57.47270102
_cell_angle_gamma   57.28675456
_symmetry_Int_Tables_number   1
_chemical_formula_structural   CaOs2F12
_chemical_formula_sum   'Ca1 Os2 F12'
_cell_volume   270.52344259
_cell_formula_units_Z   1
loop_
 _symmetry_equiv_pos_site_id
 _symmetry_equiv_pos_as_xyz
  1  'x, y, z'
loop_
 _atom_site_type_symbol
 _atom_site_label
 _atom_site_symmetry_multiplicity
 _atom_site_fract_x
 _atom_site_fract_y
 _atom_site_fract_z
 _atom_site_occupancy
  Ca  Ca0  1  0.750000  0.500000  0.500000  1
  Os  Os1  1  0.006117  0.992798  0.998002  1
  Os  Os2  1  0.493883  0.007202  0.001998  1
  F  F3  1  0.159483  0.128644  0.776641  1
  F  F4  1  0.661882  0.132906  0.774449  1
  F  F5  1  0.061254  0.780621  0.320545  1
  F  F6  1  0.568569  0.773358  0.318304  1
  F  F7  1  0.110387  0.676516  0.873359  1
  F  F8  1  0.614901  0.675213  0.867390  1
  F  F9  1  0.438746  0.219379  0.679455  1
  F  F10  1  0.931431  0.226642  0.681696  1
  F  F11  1  0.340517  0.871356  0.223359  1
  F  F12  1  0.838118  0.867094  0.225551  1
  F  F13  1  0.389613  0.323484  0.126641  1
  F  F14  1  0.885099  0.324787  0.132610  1
