# generated using pymatgen
data_YHo3Al24Pd8Rh
_symmetry_space_group_name_H-M   'P 1'
_cell_length_a   7.53787070
_cell_length_b   7.56612080
_cell_length_c   13.20101545
_cell_angle_alpha   84.59616158
_cell_angle_beta   79.12927804
_cell_angle_gamma   59.92679744
_symmetry_Int_Tables_number   1
_chemical_formula_structural   YHo3Al24Pd8Rh
_chemical_formula_sum   'Y1 Ho3 Al24 Pd8 Rh1'
_cell_volume   639.84528397
_cell_formula_units_Z   1
loop_
 _symmetry_equiv_pos_site_id
 _symmetry_equiv_pos_as_xyz
  1  'x, y, z'
loop_
 _atom_site_type_symbol
 _atom_site_label
 _atom_site_symmetry_multiplicity
 _atom_site_fract_x
 _atom_site_fract_y
 _atom_site_fract_z
 _atom_site_occupancy
  Y  Y0  1  0.393606  0.168409  0.809283  1
  Ho  Ho1  1  0.606408  0.831535  0.190833  1
  Ho  Ho2  1  0.733528  0.497871  0.809130  1
  Ho  Ho3  1  0.266442  0.502132  0.190872  1
  Al  Al4  1  0.687678  0.830257  0.945569  1
  Al  Al5  1  0.312448  0.169549  0.054649  1
  Al  Al6  1  0.146165  0.832692  0.561520  1
  Al  Al7  1  0.853836  0.167305  0.438475  1
  Al  Al8  1  0.479212  0.166745  0.559287  1
  Al  Al9  1  0.520804  0.833264  0.440626  1
  Al  Al10  1  0.217270  0.165167  0.328635  1
  Al  Al11  1  0.782930  0.834670  0.671271  1
  Al  Al12  1  0.436041  0.507485  0.671194  1
  Al  Al13  1  0.563996  0.492663  0.328707  1
  Al  Al14  1  0.108689  0.159891  0.669762  1
  Al  Al15  1  0.891177  0.840113  0.330137  1
  Al  Al16  1  0.349179  0.499944  0.945820  1
  Al  Al17  1  0.650776  0.500262  0.054287  1
  Al  Al18  1  0.015073  0.171516  0.954876  1
  Al  Al19  1  0.984703  0.828502  0.045240  1
  Al  Al20  1  0.186920  0.499521  0.440718  1
  Al  Al21  1  0.813080  0.500487  0.559283  1
  Al  Al22  1  0.733490  0.163573  0.183336  1
  Al  Al23  1  0.266490  0.836196  0.816663  1
  Al  Al24  1  0.060951  0.629300  0.817447  1
  Al  Al25  1  0.938836  0.370943  0.182552  1
  Al  Al26  1  0.855441  0.042218  0.816409  1
  Al  Al27  1  0.144792  0.957752  0.183584  1
  Pd  Pd28  1  0.119585  0.492791  0.638563  1
  Pd  Pd29  1  0.880340  0.507311  0.361355  1
  Pd  Pd30  1  0.656693  0.171584  0.999737  1
  Pd  Pd31  1  0.343310  0.828421  0.000296  1
  Pd  Pd32  1  0.537837  0.166757  0.361985  1
  Pd  Pd33  1  0.462179  0.833162  0.637947  1
  Pd  Pd34  1  0.778167  0.174923  0.637360  1
  Pd  Pd35  1  0.221939  0.825070  0.362556  1
  Rh  Rh36  1  0.999989  0.500019  0.000036  1
