# generated using pymatgen
data_Sm3In3HgRuRh
_symmetry_space_group_name_H-M   'P 1'
_cell_length_a   7.91831900
_cell_length_b   7.91831703
_cell_length_c   3.90338500
_cell_angle_alpha   90.00000000
_cell_angle_beta   90.00000000
_cell_angle_gamma   119.99999570
_symmetry_Int_Tables_number   1
_chemical_formula_structural   Sm3In3HgRuRh
_chemical_formula_sum   'Sm3 In3 Hg1 Ru1 Rh1'
_cell_volume   211.95219529
_cell_formula_units_Z   1
loop_
 _symmetry_equiv_pos_site_id
 _symmetry_equiv_pos_as_xyz
  1  'x, y, z'
loop_
 _atom_site_type_symbol
 _atom_site_label
 _atom_site_symmetry_multiplicity
 _atom_site_fract_x
 _atom_site_fract_y
 _atom_site_fract_z
 _atom_site_occupancy
  Sm  Sm0  1  0.967767  0.389473  0.500000  1
  Sm  Sm1  1  0.610527  0.578293  0.500000  1
  Sm  Sm2  1  0.421707  0.032233  0.500000  1
  In  In3  1  0.253929  0.248769  0.000000  1
  In  In4  1  0.994839  0.746071  0.000000  1
  In  In5  1  0.751231  0.005161  0.000000  1
  Hg  Hg6  1  0.333333  0.666667  0.000000  1
  Ru  Ru7  1  0.666667  0.333333  0.000000  1
  Rh  Rh8  1  0.000000  0.000000  0.500000  1
