# generated using pymatgen
data_Li4TbNd3(SiO4)4
_symmetry_space_group_name_H-M   'P 1'
_cell_length_a   6.35657539
_cell_length_b   5.54134068
_cell_length_c   11.17221477
_cell_angle_alpha   66.78104646
_cell_angle_beta   90.03479041
_cell_angle_gamma   90.26581199
_symmetry_Int_Tables_number   1
_chemical_formula_structural   Li4TbNd3(SiO4)4
_chemical_formula_sum   'Li4 Tb1 Nd3 Si4 O16'
_cell_volume   361.65138502
_cell_formula_units_Z   1
loop_
 _symmetry_equiv_pos_site_id
 _symmetry_equiv_pos_as_xyz
  1  'x, y, z'
loop_
 _atom_site_type_symbol
 _atom_site_label
 _atom_site_symmetry_multiplicity
 _atom_site_fract_x
 _atom_site_fract_y
 _atom_site_fract_z
 _atom_site_occupancy
  Li  Li0  1  0.133742  0.924505  0.426409  1
  Li  Li1  1  0.633463  0.071561  0.073211  1
  Li  Li2  1  0.867840  0.079314  0.569071  1
  Li  Li3  1  0.367742  0.923960  0.927362  1
  Tb  Tb4  1  0.384103  0.444066  0.349972  1
  Nd  Nd5  1  0.118059  0.440502  0.851018  1
  Nd  Nd6  1  0.884376  0.556153  0.153493  1
  Nd  Nd7  1  0.617162  0.558975  0.649578  1
  Si  Si8  1  0.646834  0.909950  0.357213  1
  Si  Si9  1  0.346101  0.094234  0.638656  1
  Si  Si10  1  0.158318  0.088547  0.146032  1
  Si  Si11  1  0.847478  0.908488  0.858246  1
  O  O12  1  0.857417  0.228218  0.777505  1
  O  O13  1  0.633344  0.230473  0.278630  1
  O  O14  1  0.164339  0.183363  0.524399  1
  O  O15  1  0.838535  0.767950  0.752421  1
  O  O16  1  0.149486  0.767758  0.227978  1
  O  O17  1  0.566294  0.217314  0.554414  1
  O  O18  1  0.655960  0.765270  0.252659  1
  O  O19  1  0.429357  0.775194  0.441476  1
  O  O20  1  0.067142  0.784798  0.942414  1
  O  O21  1  0.662347  0.823369  0.970327  1
  O  O22  1  0.170428  0.236285  0.249313  1
  O  O23  1  0.935704  0.208348  0.064285  1
  O  O24  1  0.339682  0.173706  0.031406  1
  O  O25  1  0.336687  0.233614  0.745246  1
  O  O26  1  0.353336  0.774585  0.719830  1
  O  O27  1  0.834725  0.829498  0.467434  1
