# generated using pymatgen
data_LaCe(Sn2Rh)2
_symmetry_space_group_name_H-M   'P 1'
_cell_length_a   8.91737555
_cell_length_b   8.91737612
_cell_length_c   9.65464701
_cell_angle_alpha   89.99577592
_cell_angle_beta   90.00422467
_cell_angle_gamma   149.67230380
_symmetry_Int_Tables_number   1
_chemical_formula_structural   LaCe(Sn2Rh)2
_chemical_formula_sum   'La2 Ce2 Sn8 Rh4'
_cell_volume   387.66317575
_cell_formula_units_Z   2
loop_
 _symmetry_equiv_pos_site_id
 _symmetry_equiv_pos_as_xyz
  1  'x, y, z'
loop_
 _atom_site_type_symbol
 _atom_site_label
 _atom_site_symmetry_multiplicity
 _atom_site_fract_x
 _atom_site_fract_y
 _atom_site_fract_z
 _atom_site_occupancy
  La  La0  1  0.500000  0.500000  0.500000  1
  La  La1  1  0.500000  0.500000  0.000000  1
  Ce  Ce2  1  0.704288  0.295712  0.750007  1
  Ce  Ce3  1  0.295712  0.704288  0.249993  1
  Sn  Sn4  1  0.698258  0.301742  0.409503  1
  Sn  Sn5  1  0.301742  0.698258  0.590497  1
  Sn  Sn6  1  0.301734  0.698266  0.909507  1
  Sn  Sn7  1  0.698266  0.301734  0.090493  1
  Sn  Sn8  1  0.908501  0.091499  0.750015  1
  Sn  Sn9  1  0.091499  0.908501  0.249985  1
  Sn  Sn10  1  0.074579  0.925421  0.750006  1
  Sn  Sn11  1  0.925421  0.074579  0.249994  1
  Rh  Rh12  1  0.851240  0.148760  0.494137  1
  Rh  Rh13  1  0.148760  0.851240  0.505863  1
  Rh  Rh14  1  0.148767  0.851233  0.994143  1
  Rh  Rh15  1  0.851233  0.148767  0.005857  1
