# generated using pymatgen
data_Tm3Lu7In8(CoPt)2
_symmetry_space_group_name_H-M   'P 1'
_cell_length_a   3.53586600
_cell_length_b   7.97424986
_cell_length_c   17.85202408
_cell_angle_alpha   90.04296063
_cell_angle_beta   90.00000000
_cell_angle_gamma   90.00000000
_symmetry_Int_Tables_number   1
_chemical_formula_structural   Tm3Lu7In8(CoPt)2
_chemical_formula_sum   'Tm3 Lu7 In8 Co2 Pt2'
_cell_volume   503.35336853
_cell_formula_units_Z   1
loop_
 _symmetry_equiv_pos_site_id
 _symmetry_equiv_pos_as_xyz
  1  'x, y, z'
loop_
 _atom_site_type_symbol
 _atom_site_label
 _atom_site_symmetry_multiplicity
 _atom_site_fract_x
 _atom_site_fract_y
 _atom_site_fract_z
 _atom_site_occupancy
  Tm  Tm0  1  0.000000  0.113650  0.410160  1
  Tm  Tm1  1  0.000000  0.999969  0.999994  1
  Tm  Tm2  1  0.000000  0.500077  0.500010  1
  Lu  Lu3  1  0.000000  0.886605  0.590189  1
  Lu  Lu4  1  0.000000  0.381600  0.913724  1
  Lu  Lu5  1  0.000000  0.618416  0.086264  1
  Lu  Lu6  1  0.000000  0.234687  0.223649  1
  Lu  Lu7  1  0.000000  0.765416  0.776247  1
  Lu  Lu8  1  0.000000  0.243902  0.719926  1
  Lu  Lu9  1  0.000000  0.755971  0.280005  1
  In  In10  1  0.500000  0.423428  0.352028  1
  In  In11  1  0.500000  0.577112  0.647882  1
  In  In12  1  0.500000  0.071031  0.848789  1
  In  In13  1  0.500000  0.928949  0.151179  1
  In  In14  1  0.500000  0.292415  0.066615  1
  In  In15  1  0.500000  0.707596  0.933377  1
  In  In16  1  0.500000  0.203756  0.567855  1
  In  In17  1  0.500000  0.795654  0.432325  1
  Co  Co18  1  0.500000  0.021793  0.304411  1
  Co  Co19  1  0.500000  0.977942  0.695381  1
  Pt  Pt20  1  0.500000  0.476083  0.802951  1
  Pt  Pt21  1  0.500000  0.523950  0.197039  1
