# generated using pymatgen
data_Mn7AlPt16
_symmetry_space_group_name_H-M   'P 1'
_cell_length_a   3.98403100
_cell_length_b   5.54144245
_cell_length_c   16.49208228
_cell_angle_alpha   89.49027005
_cell_angle_beta   90.00000000
_cell_angle_gamma   90.00000000
_symmetry_Int_Tables_number   1
_chemical_formula_structural   Mn7AlPt16
_chemical_formula_sum   'Mn7 Al1 Pt16'
_cell_volume   364.08588494
_cell_formula_units_Z   1
loop_
 _symmetry_equiv_pos_site_id
 _symmetry_equiv_pos_as_xyz
  1  'x, y, z'
loop_
 _atom_site_type_symbol
 _atom_site_label
 _atom_site_symmetry_multiplicity
 _atom_site_fract_x
 _atom_site_fract_y
 _atom_site_fract_z
 _atom_site_occupancy
  Mn  Mn0  1  0.000000  0.204126  0.750294  1
  Mn  Mn1  1  0.000000  0.795874  0.249706  1
  Mn  Mn2  1  0.000000  0.706446  0.587249  1
  Mn  Mn3  1  0.000000  0.293554  0.412751  1
  Mn  Mn4  1  0.000000  0.702249  0.911846  1
  Mn  Mn5  1  0.000000  0.297751  0.088154  1
  Mn  Mn6  1  0.500000  0.000000  0.500000  1
  Al  Al7  1  0.500000  0.000000  0.000000  1
  Pt  Pt8  1  0.500000  0.045626  0.337324  1
  Pt  Pt9  1  0.500000  0.954374  0.662676  1
  Pt  Pt10  1  0.500000  0.548894  0.166416  1
  Pt  Pt11  1  0.500000  0.451106  0.833584  1
  Pt  Pt12  1  0.500000  0.545978  0.333404  1
  Pt  Pt13  1  0.500000  0.454022  0.666596  1
  Pt  Pt14  1  0.000000  0.289800  0.249630  1
  Pt  Pt15  1  0.000000  0.710200  0.750370  1
  Pt  Pt16  1  0.500000  0.953654  0.839045  1
  Pt  Pt17  1  0.500000  0.046346  0.160955  1
  Pt  Pt18  1  0.500000  0.500000  0.500000  1
  Pt  Pt19  1  0.500000  0.500000  0.000000  1
  Pt  Pt20  1  0.000000  0.210641  0.577107  1
  Pt  Pt21  1  0.000000  0.789359  0.422893  1
  Pt  Pt22  1  0.000000  0.202433  0.926690  1
  Pt  Pt23  1  0.000000  0.797567  0.073310  1
