# generated using pymatgen
data_Y2Ho2Al15(SiRh2)3
_symmetry_space_group_name_H-M   'P 1'
_cell_length_a   7.52658089
_cell_length_b   7.48866062
_cell_length_c   9.40057207
_cell_angle_alpha   89.99333989
_cell_angle_beta   89.92757188
_cell_angle_gamma   119.76048436
_symmetry_Int_Tables_number   1
_chemical_formula_structural   Y2Ho2Al15(SiRh2)3
_chemical_formula_sum   'Y2 Ho2 Al15 Si3 Rh6'
_cell_volume   459.96990510
_cell_formula_units_Z   1
loop_
 _symmetry_equiv_pos_site_id
 _symmetry_equiv_pos_as_xyz
  1  'x, y, z'
loop_
 _atom_site_type_symbol
 _atom_site_label
 _atom_site_symmetry_multiplicity
 _atom_site_fract_x
 _atom_site_fract_y
 _atom_site_fract_z
 _atom_site_occupancy
  Y  Y0  1  0.674750  0.000319  0.247971  1
  Y  Y1  1  0.320489  0.993092  0.749867  1
  Ho  Ho2  1  0.994413  0.664466  0.247434  1
  Ho  Ho3  1  0.006082  0.340888  0.753531  1
  Al  Al4  1  0.128828  0.126318  0.250044  1
  Al  Al5  1  0.871645  0.871364  0.749381  1
  Al  Al6  1  0.338553  0.002786  0.423973  1
  Al  Al7  1  0.001359  0.330532  0.429861  1
  Al  Al8  1  0.665975  0.001845  0.575260  1
  Al  Al9  1  0.662298  0.998104  0.922631  1
  Al  Al10  1  0.338317  0.002929  0.076364  1
  Al  Al11  1  0.333140  0.331661  0.554746  1
  Al  Al12  1  0.664432  0.667804  0.446407  1
  Al  Al13  1  0.663925  0.667469  0.054978  1
  Al  Al14  1  0.335377  0.332163  0.945678  1
  Al  Al15  1  0.337979  0.549875  0.250229  1
  Al  Al16  1  0.661528  0.450562  0.750356  1
  Al  Al17  1  0.548473  0.343033  0.250214  1
  Al  Al18  1  0.454644  0.657995  0.749694  1
  Si  Si19  1  0.002294  0.328982  0.074866  1
  Si  Si20  1  0.997187  0.671414  0.930885  1
  Si  Si21  1  0.997894  0.665509  0.564708  1
  Rh  Rh22  1  0.689221  0.337648  0.001309  1
  Rh  Rh23  1  0.310943  0.662878  0.997674  1
  Rh  Rh24  1  0.319285  0.670429  0.502511  1
  Rh  Rh25  1  0.679949  0.336284  0.499846  1
  Rh  Rh26  1  0.000050  0.000452  0.999317  1
  Rh  Rh27  1  0.000965  0.993201  0.500264  1
