# generated using pymatgen
data_U3CoGe2
_symmetry_space_group_name_H-M   'P 1'
_cell_length_a   3.89814100
_cell_length_b   9.80552900
_cell_length_c   11.88494700
_cell_angle_alpha   90.00000000
_cell_angle_beta   90.00000000
_cell_angle_gamma   90.00000000
_symmetry_Int_Tables_number   1
_chemical_formula_structural   U3CoGe2
_chemical_formula_sum   'U12 Co4 Ge8'
_cell_volume   454.28230614
_cell_formula_units_Z   4
loop_
 _symmetry_equiv_pos_site_id
 _symmetry_equiv_pos_as_xyz
  1  'x, y, z'
loop_
 _atom_site_type_symbol
 _atom_site_label
 _atom_site_symmetry_multiplicity
 _atom_site_fract_x
 _atom_site_fract_y
 _atom_site_fract_z
 _atom_site_occupancy
  U  U0  1  0.250000  0.091639  0.860709  1
  U  U1  1  0.250000  0.408361  0.360709  1
  U  U2  1  0.750000  0.908361  0.139291  1
  U  U3  1  0.750000  0.591639  0.639291  1
  U  U4  1  0.250000  0.078500  0.536176  1
  U  U5  1  0.250000  0.421500  0.036176  1
  U  U6  1  0.750000  0.921500  0.463824  1
  U  U7  1  0.750000  0.578500  0.963824  1
  U  U8  1  0.250000  0.752309  0.710354  1
  U  U9  1  0.250000  0.747691  0.210354  1
  U  U10  1  0.750000  0.247691  0.289646  1
  U  U11  1  0.750000  0.252309  0.789646  1
  Co  Co12  1  0.250000  0.319083  0.643338  1
  Co  Co13  1  0.250000  0.180917  0.143338  1
  Co  Co14  1  0.750000  0.680917  0.356662  1
  Co  Co15  1  0.750000  0.819083  0.856662  1
  Ge  Ge16  1  0.250000  0.811953  0.968587  1
  Ge  Ge17  1  0.250000  0.688047  0.468587  1
  Ge  Ge18  1  0.750000  0.188047  0.031413  1
  Ge  Ge19  1  0.750000  0.311953  0.531413  1
  Ge  Ge20  1  0.250000  0.476778  0.797700  1
  Ge  Ge21  1  0.250000  0.023222  0.297700  1
  Ge  Ge22  1  0.750000  0.523222  0.202300  1
  Ge  Ge23  1  0.750000  0.976778  0.702300  1
