# generated using pymatgen
data_Tb7YEr12(CoBi2)4
_symmetry_space_group_name_H-M   'P 1'
_cell_length_a   7.96074313
_cell_length_b   8.87957400
_cell_length_c   12.39343220
_cell_angle_alpha   90.00000000
_cell_angle_beta   89.97926429
_cell_angle_gamma   90.00000000
_symmetry_Int_Tables_number   1
_chemical_formula_structural   Tb7YEr12(CoBi2)4
_chemical_formula_sum   'Tb7 Y1 Er12 Co4 Bi8'
_cell_volume   876.06697387
_cell_formula_units_Z   1
loop_
 _symmetry_equiv_pos_site_id
 _symmetry_equiv_pos_as_xyz
  1  'x, y, z'
loop_
 _atom_site_type_symbol
 _atom_site_label
 _atom_site_symmetry_multiplicity
 _atom_site_fract_x
 _atom_site_fract_y
 _atom_site_fract_z
 _atom_site_occupancy
  Tb  Tb0  1  0.345050  0.250000  0.300145  1
  Tb  Tb1  1  0.155122  0.250000  0.800093  1
  Tb  Tb2  1  0.844820  0.750000  0.200049  1
  Tb  Tb3  1  0.123688  0.750000  0.813171  1
  Tb  Tb4  1  0.876278  0.250000  0.186784  1
  Tb  Tb5  1  0.623694  0.250000  0.686795  1
  Tb  Tb6  1  0.376106  0.750000  0.313011  1
  Y  Y7  1  0.655266  0.750000  0.700421  1
  Er  Er8  1  0.553414  0.750000  0.996712  1
  Er  Er9  1  0.446843  0.250000  0.003340  1
  Er  Er10  1  0.053307  0.250000  0.503435  1
  Er  Er11  1  0.946736  0.750000  0.496595  1
  Er  Er12  1  0.826609  0.463703  0.935564  1
  Er  Er13  1  0.173297  0.536218  0.064438  1
  Er  Er14  1  0.326583  0.536531  0.564339  1
  Er  Er15  1  0.173297  0.963782  0.064438  1
  Er  Er16  1  0.673408  0.463901  0.435748  1
  Er  Er17  1  0.826609  0.036297  0.935564  1
  Er  Er18  1  0.673408  0.036099  0.435748  1
  Er  Er19  1  0.326583  0.963469  0.564339  1
  Co  Co20  1  0.937074  0.750000  0.992739  1
  Co  Co21  1  0.063194  0.250000  0.007251  1
  Co  Co22  1  0.437122  0.250000  0.507329  1
  Co  Co23  1  0.562662  0.750000  0.492078  1
  Bi  Bi24  1  0.934342  0.006392  0.672166  1
  Bi  Bi25  1  0.065290  0.993481  0.327899  1
  Bi  Bi26  1  0.434998  0.993123  0.827779  1
  Bi  Bi27  1  0.065290  0.506519  0.327899  1
  Bi  Bi28  1  0.565286  0.006612  0.172093  1
  Bi  Bi29  1  0.934342  0.493608  0.672166  1
  Bi  Bi30  1  0.565286  0.493388  0.172093  1
  Bi  Bi31  1  0.434998  0.506877  0.827779  1
