# generated using pymatgen
data_Sr2LiLaCd2Pb3
_symmetry_space_group_name_H-M   'P 1'
_cell_length_a   8.02153431
_cell_length_b   7.95895446
_cell_length_c   4.92570200
_cell_angle_alpha   90.00000000
_cell_angle_beta   90.00000000
_cell_angle_gamma   120.40124100
_symmetry_Int_Tables_number   1
_chemical_formula_structural   Sr2LiLaCd2Pb3
_chemical_formula_sum   'Sr2 Li1 La1 Cd2 Pb3'
_cell_volume   271.23271220
_cell_formula_units_Z   1
loop_
 _symmetry_equiv_pos_site_id
 _symmetry_equiv_pos_as_xyz
  1  'x, y, z'
loop_
 _atom_site_type_symbol
 _atom_site_label
 _atom_site_symmetry_multiplicity
 _atom_site_fract_x
 _atom_site_fract_y
 _atom_site_fract_z
 _atom_site_occupancy
  Sr  Sr0  1  0.423586  0.422916  0.500000  1
  Sr  Sr1  1  0.568382  0.005576  0.500000  1
  Li  Li2  1  0.766703  0.766158  0.000000  1
  La  La3  1  0.005261  0.569568  0.500000  1
  Cd  Cd4  1  0.241206  0.998230  0.000000  1
  Cd  Cd5  1  0.998662  0.241348  0.000000  1
  Pb  Pb6  1  0.675825  0.351875  0.000000  1
  Pb  Pb7  1  0.339963  0.667647  0.000000  1
  Pb  Pb8  1  0.980412  0.976684  0.500000  1
