# generated using pymatgen
data_Dy3Tm2Pb3
_symmetry_space_group_name_H-M   'P 1'
_cell_length_a   6.57090500
_cell_length_b   9.02882069
_cell_length_c   9.03090903
_cell_angle_alpha   119.99235070
_cell_angle_beta   90.00000000
_cell_angle_gamma   90.00000000
_symmetry_Int_Tables_number   1
_chemical_formula_structural   Dy3Tm2Pb3
_chemical_formula_sum   'Dy6 Tm4 Pb6'
_cell_volume   464.03611922
_cell_formula_units_Z   2
loop_
 _symmetry_equiv_pos_site_id
 _symmetry_equiv_pos_as_xyz
  1  'x, y, z'
loop_
 _atom_site_type_symbol
 _atom_site_label
 _atom_site_symmetry_multiplicity
 _atom_site_fract_x
 _atom_site_fract_y
 _atom_site_fract_z
 _atom_site_occupancy
  Dy  Dy0  1  0.750003  0.238695  0.000000  1
  Dy  Dy1  1  0.749998  0.761245  0.761309  1
  Dy  Dy2  1  0.749998  0.999936  0.238691  1
  Dy  Dy3  1  0.250003  0.761305  0.000000  1
  Dy  Dy4  1  0.249998  0.238755  0.238691  1
  Dy  Dy5  1  0.249998  0.000064  0.761309  1
  Tm  Tm6  1  0.499999  0.333346  0.666745  1
  Tm  Tm7  1  0.499999  0.666601  0.333255  1
  Tm  Tm8  1  0.999999  0.666654  0.333255  1
  Tm  Tm9  1  0.999999  0.333399  0.666745  1
  Pb  Pb10  1  0.749996  0.605289  0.000000  1
  Pb  Pb11  1  0.750004  0.394666  0.394599  1
  Pb  Pb12  1  0.750004  0.000067  0.605401  1
  Pb  Pb13  1  0.249996  0.394711  0.000000  1
  Pb  Pb14  1  0.250004  0.605334  0.605401  1
  Pb  Pb15  1  0.250004  0.999933  0.394599  1
