# generated using pymatgen
data_Dy9MgCd3Ni
_symmetry_space_group_name_H-M   'P 1'
_cell_length_a   9.59412200
_cell_length_b   9.59412254
_cell_length_c   9.51317500
_cell_angle_alpha   90.00000000
_cell_angle_beta   90.00000000
_cell_angle_gamma   119.99999815
_symmetry_Int_Tables_number   1
_chemical_formula_structural   Dy9MgCd3Ni
_chemical_formula_sum   'Dy18 Mg2 Cd6 Ni2'
_cell_volume   758.34464342
_cell_formula_units_Z   2
loop_
 _symmetry_equiv_pos_site_id
 _symmetry_equiv_pos_as_xyz
  1  'x, y, z'
loop_
 _atom_site_type_symbol
 _atom_site_label
 _atom_site_symmetry_multiplicity
 _atom_site_fract_x
 _atom_site_fract_y
 _atom_site_fract_z
 _atom_site_occupancy
  Dy  Dy0  1  0.543280  0.456720  0.250000  1
  Dy  Dy1  1  0.543280  0.086559  0.250000  1
  Dy  Dy2  1  0.913441  0.456720  0.250000  1
  Dy  Dy3  1  0.456720  0.543280  0.750000  1
  Dy  Dy4  1  0.456720  0.913441  0.750000  1
  Dy  Dy5  1  0.086559  0.543280  0.750000  1
  Dy  Dy6  1  0.207972  0.792028  0.438526  1
  Dy  Dy7  1  0.207972  0.415944  0.438526  1
  Dy  Dy8  1  0.584056  0.792028  0.438526  1
  Dy  Dy9  1  0.792028  0.207972  0.561474  1
  Dy  Dy10  1  0.792028  0.584056  0.561474  1
  Dy  Dy11  1  0.415944  0.207972  0.561474  1
  Dy  Dy12  1  0.792028  0.207972  0.938526  1
  Dy  Dy13  1  0.792028  0.584056  0.938526  1
  Dy  Dy14  1  0.415944  0.207972  0.938526  1
  Dy  Dy15  1  0.207972  0.792028  0.061474  1
  Dy  Dy16  1  0.207972  0.415944  0.061474  1
  Dy  Dy17  1  0.584056  0.792028  0.061474  1
  Mg  Mg18  1  0.000000  0.000000  0.500000  1
  Mg  Mg19  1  0.000000  0.000000  0.000000  1
  Cd  Cd20  1  0.888440  0.111560  0.250000  1
  Cd  Cd21  1  0.888440  0.776880  0.250000  1
  Cd  Cd22  1  0.223120  0.111560  0.250000  1
  Cd  Cd23  1  0.111560  0.888440  0.750000  1
  Cd  Cd24  1  0.111560  0.223120  0.750000  1
  Cd  Cd25  1  0.776880  0.888440  0.750000  1
  Ni  Ni26  1  0.333333  0.666667  0.250000  1
  Ni  Ni27  1  0.666667  0.333333  0.750000  1
