# generated using pymatgen
data_Gd6TmRh3
_symmetry_space_group_name_H-M   'P 1'
_cell_length_a   9.82049900
_cell_length_b   9.82049785
_cell_length_c   6.22895100
_cell_angle_alpha   90.00000000
_cell_angle_beta   90.00000000
_cell_angle_gamma   120.00000723
_symmetry_Int_Tables_number   1
_chemical_formula_structural   Gd6TmRh3
_chemical_formula_sum   'Gd12 Tm2 Rh6'
_cell_volume   520.25058282
_cell_formula_units_Z   2
loop_
 _symmetry_equiv_pos_site_id
 _symmetry_equiv_pos_as_xyz
  1  'x, y, z'
loop_
 _atom_site_type_symbol
 _atom_site_label
 _atom_site_symmetry_multiplicity
 _atom_site_fract_x
 _atom_site_fract_y
 _atom_site_fract_z
 _atom_site_occupancy
  Gd  Gd0  1  0.875734  0.751466  0.740536  1
  Gd  Gd1  1  0.248534  0.124266  0.740536  1
  Gd  Gd2  1  0.875734  0.124266  0.740536  1
  Gd  Gd3  1  0.124266  0.248534  0.240536  1
  Gd  Gd4  1  0.751466  0.875734  0.240536  1
  Gd  Gd5  1  0.124266  0.875734  0.240536  1
  Gd  Gd6  1  0.459286  0.918573  0.547683  1
  Gd  Gd7  1  0.081427  0.540714  0.547683  1
  Gd  Gd8  1  0.459286  0.540714  0.547683  1
  Gd  Gd9  1  0.540714  0.081427  0.047683  1
  Gd  Gd10  1  0.918573  0.459286  0.047683  1
  Gd  Gd11  1  0.540714  0.459286  0.047683  1
  Tm  Tm12  1  0.666667  0.333333  0.532530  1
  Tm  Tm13  1  0.333333  0.666667  0.032530  1
  Rh  Rh14  1  0.190480  0.380959  0.814511  1
  Rh  Rh15  1  0.619041  0.809520  0.814511  1
  Rh  Rh16  1  0.190480  0.809520  0.814511  1
  Rh  Rh17  1  0.809520  0.619041  0.314511  1
  Rh  Rh18  1  0.380959  0.190480  0.314511  1
  Rh  Rh19  1  0.809520  0.190480  0.314511  1
