# generated using pymatgen
data_Eu6Hg2Ru
_symmetry_space_group_name_H-M   'P 1'
_cell_length_a   8.64843900
_cell_length_b   8.64844022
_cell_length_c   4.40228700
_cell_angle_alpha   90.00000000
_cell_angle_beta   90.00000000
_cell_angle_gamma   119.99999915
_symmetry_Int_Tables_number   1
_chemical_formula_structural   Eu6Hg2Ru
_chemical_formula_sum   'Eu6 Hg2 Ru1'
_cell_volume   285.15730540
_cell_formula_units_Z   1
loop_
 _symmetry_equiv_pos_site_id
 _symmetry_equiv_pos_as_xyz
  1  'x, y, z'
loop_
 _atom_site_type_symbol
 _atom_site_label
 _atom_site_symmetry_multiplicity
 _atom_site_fract_x
 _atom_site_fract_y
 _atom_site_fract_z
 _atom_site_occupancy
  Eu  Eu0  1  0.762956  0.000000  0.000000  1
  Eu  Eu1  1  0.237045  0.237044  0.000000  1
  Eu  Eu2  1  0.000000  0.762956  0.000000  1
  Eu  Eu3  1  0.396046  0.000000  0.500001  1
  Eu  Eu4  1  0.000000  0.396046  0.500001  1
  Eu  Eu5  1  0.603954  0.603954  0.500001  1
  Hg  Hg6  1  0.666667  0.333333  0.000000  1
  Hg  Hg7  1  0.333333  0.666666  0.000000  1
  Ru  Ru8  1  0.000000  0.000000  0.500001  1
