# generated using pymatgen
data_K3Dy3(PS4)4
_symmetry_space_group_name_H-M   'P 1'
_cell_length_a   9.85497812
_cell_length_b   9.85497860
_cell_length_c   14.66135000
_cell_angle_alpha   89.31411299
_cell_angle_beta   89.31411295
_cell_angle_gamma   71.81701298
_symmetry_Int_Tables_number   1
_chemical_formula_structural   K3Dy3(PS4)4
_chemical_formula_sum   'K6 Dy6 P8 S32'
_cell_volume   1352.66757613
_cell_formula_units_Z   2
loop_
 _symmetry_equiv_pos_site_id
 _symmetry_equiv_pos_as_xyz
  1  'x, y, z'
loop_
 _atom_site_type_symbol
 _atom_site_label
 _atom_site_symmetry_multiplicity
 _atom_site_fract_x
 _atom_site_fract_y
 _atom_site_fract_z
 _atom_site_occupancy
  K  K0  1  0.028827  0.391114  0.662798  1
  K  K1  1  0.000000  0.000000  0.000000  1
  K  K2  1  0.391114  0.028827  0.162798  1
  K  K3  1  0.971173  0.608886  0.337202  1
  K  K4  1  0.608886  0.971173  0.837202  1
  K  K5  1  0.000000  0.000000  0.500000  1
  Dy  Dy6  1  0.250450  0.749550  0.750000  1
  Dy  Dy7  1  0.749550  0.250450  0.250000  1
  Dy  Dy8  1  0.486954  0.251897  0.512021  1
  Dy  Dy9  1  0.513046  0.748103  0.487979  1
  Dy  Dy10  1  0.748103  0.513046  0.987979  1
  Dy  Dy11  1  0.251897  0.486954  0.012021  1
  P  P12  1  0.962730  0.667392  0.860708  1
  P  P13  1  0.235540  0.602658  0.524513  1
  P  P14  1  0.667392  0.962730  0.360708  1
  P  P15  1  0.037270  0.332608  0.139292  1
  P  P16  1  0.764460  0.397342  0.475487  1
  P  P17  1  0.397342  0.764460  0.975487  1
  P  P18  1  0.332608  0.037270  0.639292  1
  P  P19  1  0.602658  0.235540  0.024513  1
  S  S20  1  0.544565  0.419016  0.103852  1
  S  S21  1  0.402679  0.197176  0.686421  1
  S  S22  1  0.742574  0.268207  0.581690  1
  S  S23  1  0.789123  0.581515  0.524474  1
  S  S24  1  0.580984  0.455435  0.396148  1
  S  S25  1  0.706919  0.073009  0.109858  1
  S  S26  1  0.838342  0.476209  0.171287  1
  S  S27  1  0.946911  0.679630  0.000380  1
  S  S28  1  0.161658  0.523791  0.828713  1
  S  S29  1  0.523791  0.161658  0.328713  1
  S  S30  1  0.197176  0.402679  0.186421  1
  S  S31  1  0.959847  0.858701  0.804619  1
  S  S32  1  0.040153  0.141299  0.195381  1
  S  S33  1  0.320370  0.053089  0.499620  1
  S  S34  1  0.476209  0.838342  0.671287  1
  S  S35  1  0.210877  0.418485  0.475526  1
  S  S36  1  0.455435  0.580984  0.896148  1
  S  S37  1  0.581515  0.789123  0.024474  1
  S  S38  1  0.926991  0.293081  0.390142  1
  S  S39  1  0.802824  0.597321  0.813579  1
  S  S40  1  0.053089  0.320370  0.999620  1
  S  S41  1  0.293081  0.926991  0.890142  1
  S  S42  1  0.073009  0.706919  0.609858  1
  S  S43  1  0.858701  0.959847  0.304619  1
  S  S44  1  0.257426  0.731793  0.418310  1
  S  S45  1  0.419016  0.544565  0.603852  1
  S  S46  1  0.597321  0.802824  0.313579  1
  S  S47  1  0.731793  0.257426  0.918310  1
  S  S48  1  0.268207  0.742574  0.081690  1
  S  S49  1  0.679630  0.946911  0.500380  1
  S  S50  1  0.141299  0.040153  0.695381  1
  S  S51  1  0.418485  0.210877  0.975526  1
