# generated using pymatgen
data_Th3Ge3IrRh2
_symmetry_space_group_name_H-M   'P 1'
_cell_length_a   7.32551200
_cell_length_b   7.32551331
_cell_length_c   4.01796400
_cell_angle_alpha   90.00000000
_cell_angle_beta   90.00000000
_cell_angle_gamma   119.99999409
_symmetry_Int_Tables_number   1
_chemical_formula_structural   Th3Ge3IrRh2
_chemical_formula_sum   'Th3 Ge3 Ir1 Rh2'
_cell_volume   186.72941847
_cell_formula_units_Z   1
loop_
 _symmetry_equiv_pos_site_id
 _symmetry_equiv_pos_as_xyz
  1  'x, y, z'
loop_
 _atom_site_type_symbol
 _atom_site_label
 _atom_site_symmetry_multiplicity
 _atom_site_fract_x
 _atom_site_fract_y
 _atom_site_fract_z
 _atom_site_occupancy
  Th  Th0  1  0.412263  0.411491  0.500000  1
  Th  Th1  1  0.588509  0.000773  0.500000  1
  Th  Th2  1  0.999227  0.587737  0.500000  1
  Ge  Ge3  1  0.750949  0.752357  0.000000  1
  Ge  Ge4  1  0.247643  0.998593  0.000000  1
  Ge  Ge5  1  0.001407  0.249051  0.000000  1
  Ir  Ir6  1  0.666667  0.333333  0.000000  1
  Rh  Rh7  1  0.333333  0.666667  0.000000  1
  Rh  Rh8  1  0.000000  0.000000  0.500000  1
