# generated using pymatgen
data_Er4Ga18Ir3Pd2Ru
_symmetry_space_group_name_H-M   'P 1'
_cell_length_a   7.59159275
_cell_length_b   7.59159259
_cell_length_c   9.48156734
_cell_angle_alpha   90.04828333
_cell_angle_beta   90.04828283
_cell_angle_gamma   119.89958169
_symmetry_Int_Tables_number   1
_chemical_formula_structural   Er4Ga18Ir3Pd2Ru
_chemical_formula_sum   'Er4 Ga18 Ir3 Pd2 Ru1'
_cell_volume   473.71213716
_cell_formula_units_Z   1
loop_
 _symmetry_equiv_pos_site_id
 _symmetry_equiv_pos_as_xyz
  1  'x, y, z'
loop_
 _atom_site_type_symbol
 _atom_site_label
 _atom_site_symmetry_multiplicity
 _atom_site_fract_x
 _atom_site_fract_y
 _atom_site_fract_z
 _atom_site_occupancy
  Er  Er0  1  0.995961  0.668207  0.749713  1
  Er  Er1  1  0.002989  0.331166  0.250111  1
  Er  Er2  1  0.668834  0.997011  0.749889  1
  Er  Er3  1  0.331793  0.004039  0.250287  1
  Ga  Ga4  1  0.128184  0.128598  0.750085  1
  Ga  Ga5  1  0.871402  0.871816  0.249915  1
  Ga  Ga6  1  0.996815  0.337011  0.580910  1
  Ga  Ga7  1  0.999088  0.660954  0.419074  1
  Ga  Ga8  1  0.001166  0.663429  0.081881  1
  Ga  Ga9  1  0.336571  0.998834  0.918119  1
  Ga  Ga10  1  0.998982  0.336830  0.918242  1
  Ga  Ga11  1  0.663170  0.001018  0.081758  1
  Ga  Ga12  1  0.662989  0.003185  0.419090  1
  Ga  Ga13  1  0.339046  0.000912  0.580926  1
  Ga  Ga14  1  0.334622  0.334839  0.068670  1
  Ga  Ga15  1  0.665161  0.665378  0.931330  1
  Ga  Ga16  1  0.665062  0.662785  0.567609  1
  Ga  Ga17  1  0.337215  0.334938  0.432391  1
  Ga  Ga18  1  0.336980  0.545596  0.749906  1
  Ga  Ga19  1  0.662692  0.452917  0.251888  1
  Ga  Ga20  1  0.547083  0.337308  0.748112  1
  Ga  Ga21  1  0.454404  0.663020  0.250094  1
  Ir  Ir22  1  0.328139  0.671861  0.500000  1
  Ir  Ir23  1  0.328219  0.671781  0.000000  1
  Ir  Ir24  1  0.671564  0.328436  0.000000  1
  Pd  Pd25  1  0.999949  0.000051  0.500000  1
  Pd  Pd26  1  0.999974  0.000026  0.000000  1
  Ru  Ru27  1  0.671945  0.328055  0.500000  1
