# generated using pymatgen
data_ThCoGeH
_symmetry_space_group_name_H-M   'P 1'
_cell_length_a   4.09928000
_cell_length_b   4.09928000
_cell_length_c   7.31469100
_cell_angle_alpha   90.00000000
_cell_angle_beta   90.00000000
_cell_angle_gamma   90.00000000
_symmetry_Int_Tables_number   1
_chemical_formula_structural   ThCoGeH
_chemical_formula_sum   'Th2 Co2 Ge2 H2'
_cell_volume   122.91677357
_cell_formula_units_Z   2
loop_
 _symmetry_equiv_pos_site_id
 _symmetry_equiv_pos_as_xyz
  1  'x, y, z'
loop_
 _atom_site_type_symbol
 _atom_site_label
 _atom_site_symmetry_multiplicity
 _atom_site_fract_x
 _atom_site_fract_y
 _atom_site_fract_z
 _atom_site_occupancy
  Th  Th0  1  0.500000  0.000000  0.316692  1
  Th  Th1  1  0.000000  0.500000  0.683308  1
  Co  Co2  1  0.500000  0.500000  0.000000  1
  Co  Co3  1  0.000000  0.000000  0.000000  1
  Ge  Ge4  1  0.500000  0.000000  0.830467  1
  Ge  Ge5  1  0.000000  0.500000  0.169533  1
  H  H6  1  0.000000  0.000000  0.500000  1
  H  H7  1  0.500000  0.500000  0.500000  1
