# generated using pymatgen
data_SrNd4Si12Ir19
_symmetry_space_group_name_H-M   'P 1'
_cell_length_a   12.92730887
_cell_length_b   12.91910514
_cell_length_c   4.03460400
_cell_angle_alpha   90.00000000
_cell_angle_beta   90.00000000
_cell_angle_gamma   119.97900710
_symmetry_Int_Tables_number   1
_chemical_formula_structural   SrNd4Si12Ir19
_chemical_formula_sum   'Sr1 Nd4 Si12 Ir19'
_cell_volume   583.66538231
_cell_formula_units_Z   1
loop_
 _symmetry_equiv_pos_site_id
 _symmetry_equiv_pos_as_xyz
  1  'x, y, z'
loop_
 _atom_site_type_symbol
 _atom_site_label
 _atom_site_symmetry_multiplicity
 _atom_site_fract_x
 _atom_site_fract_y
 _atom_site_fract_z
 _atom_site_occupancy
  Sr  Sr0  1  0.000000  0.814744  0.500000  1
  Nd  Nd1  1  0.184936  0.184838  0.500000  1
  Nd  Nd2  1  0.815064  0.999902  0.500000  1
  Nd  Nd3  1  0.333827  0.666732  0.000000  1
  Nd  Nd4  1  0.666173  0.332904  0.000000  1
  Si  Si5  1  0.000000  0.184553  0.000000  1
  Si  Si6  1  0.815354  0.815513  0.000000  1
  Si  Si7  1  0.184646  0.000159  0.000000  1
  Si  Si8  1  0.520338  0.688634  0.500000  1
  Si  Si9  1  0.310642  0.831704  0.500000  1
  Si  Si10  1  0.168460  0.479320  0.500000  1
  Si  Si11  1  0.479662  0.168295  0.500000  1
  Si  Si12  1  0.689358  0.521061  0.500000  1
  Si  Si13  1  0.831540  0.310860  0.500000  1
  Si  Si14  1  0.000000  0.629249  0.000000  1
  Si  Si15  1  0.370032  0.369873  0.000000  1
  Si  Si16  1  0.629968  0.999841  0.000000  1
  Ir  Ir17  1  0.000000  0.284902  0.500000  1
  Ir  Ir18  1  0.714362  0.715537  0.500000  1
  Ir  Ir19  1  0.285638  0.001175  0.500000  1
  Ir  Ir20  1  0.621699  0.804982  0.000000  1
  Ir  Ir21  1  0.197073  0.816503  0.000000  1
  Ir  Ir22  1  0.182667  0.377835  0.000000  1
  Ir  Ir23  1  0.378301  0.183283  0.000000  1
  Ir  Ir24  1  0.802927  0.619429  0.000000  1
  Ir  Ir25  1  0.817333  0.195168  0.000000  1
  Ir  Ir26  1  0.511787  0.874576  0.500000  1
  Ir  Ir27  1  0.125328  0.636891  0.500000  1
  Ir  Ir28  1  0.361871  0.487425  0.500000  1
  Ir  Ir29  1  0.488213  0.362788  0.500000  1
  Ir  Ir30  1  0.874672  0.511562  0.500000  1
  Ir  Ir31  1  0.638129  0.125554  0.500000  1
  Ir  Ir32  1  0.000000  0.002529  0.000000  1
  Ir  Ir33  1  0.000000  0.446508  0.000000  1
  Ir  Ir34  1  0.551583  0.553375  0.000000  1
  Ir  Ir35  1  0.448417  0.001792  0.000000  1
