# generated using pymatgen
data_CaTb5PrRhBr12
_symmetry_space_group_name_H-M   'P 1'
_cell_length_a   9.32828433
_cell_length_b   9.36233840
_cell_length_c   9.38458692
_cell_angle_alpha   106.52831386
_cell_angle_beta   106.65351538
_cell_angle_gamma   107.25843405
_symmetry_Int_Tables_number   1
_chemical_formula_structural   CaTb5PrRhBr12
_chemical_formula_sum   'Ca1 Tb5 Pr1 Rh1 Br12'
_cell_volume   685.98930583
_cell_formula_units_Z   1
loop_
 _symmetry_equiv_pos_site_id
 _symmetry_equiv_pos_as_xyz
  1  'x, y, z'
loop_
 _atom_site_type_symbol
 _atom_site_label
 _atom_site_symmetry_multiplicity
 _atom_site_fract_x
 _atom_site_fract_y
 _atom_site_fract_z
 _atom_site_occupancy
  Ca  Ca0  1  0.499180  0.500247  0.500979  1
  Tb  Tb1  1  0.025036  0.315089  0.105668  1
  Tb  Tb2  1  0.102553  0.022824  0.312551  1
  Tb  Tb3  1  0.696905  0.897483  0.977386  1
  Tb  Tb4  1  0.975953  0.684638  0.894202  1
  Tb  Tb5  1  0.892637  0.975859  0.685025  1
  Pr  Pr6  1  0.312154  0.104223  0.021779  1
  Rh  Rh7  1  0.000463  0.999703  0.998648  1
  Br  Br8  1  0.687290  0.218209  0.072456  1
  Br  Br9  1  0.070526  0.678449  0.216196  1
  Br  Br10  1  0.210622  0.069212  0.668215  1
  Br  Br11  1  0.319289  0.771423  0.925631  1
  Br  Br12  1  0.928489  0.321519  0.783224  1
  Br  Br13  1  0.780680  0.927684  0.319634  1
  Br  Br14  1  0.454560  0.160162  0.384056  1
  Br  Br15  1  0.374426  0.465663  0.165056  1
  Br  Br16  1  0.155968  0.373150  0.453194  1
  Br  Br17  1  0.545474  0.841858  0.627784  1
  Br  Br18  1  0.625766  0.546092  0.842121  1
  Br  Br19  1  0.842031  0.626513  0.546194  1
