# generated using pymatgen
data_La5YZn4IrPd12
_symmetry_space_group_name_H-M   'P 1'
_cell_length_a   8.42705880
_cell_length_b   8.42705844
_cell_length_c   8.42705926
_cell_angle_alpha   109.67722127
_cell_angle_beta   109.67722240
_cell_angle_gamma   109.05999908
_symmetry_Int_Tables_number   1
_chemical_formula_structural   La5YZn4IrPd12
_chemical_formula_sum   'La5 Y1 Zn4 Ir1 Pd12'
_cell_volume   460.66946206
_cell_formula_units_Z   1
loop_
 _symmetry_equiv_pos_site_id
 _symmetry_equiv_pos_as_xyz
  1  'x, y, z'
loop_
 _atom_site_type_symbol
 _atom_site_label
 _atom_site_symmetry_multiplicity
 _atom_site_fract_x
 _atom_site_fract_y
 _atom_site_fract_z
 _atom_site_occupancy
  La  La0  1  0.295360  0.998933  0.296427  1
  La  La1  1  0.998933  0.295360  0.296427  1
  La  La2  1  0.300167  0.300167  0.000000  1
  La  La3  1  0.702506  0.998933  0.703573  1
  La  La4  1  0.998933  0.702506  0.703573  1
  Y  Y5  1  0.697910  0.697910  0.000000  1
  Zn  Zn6  1  0.999117  0.999117  0.496849  1
  Zn  Zn7  1  0.999117  0.502268  0.000000  1
  Zn  Zn8  1  0.502268  0.999117  0.000000  1
  Zn  Zn9  1  0.502268  0.502268  0.503151  1
  Ir  Ir10  1  0.993576  0.993576  0.000000  1
  Pd  Pd11  1  0.336000  0.336000  0.669192  1
  Pd  Pd12  1  0.668722  0.998605  0.329883  1
  Pd  Pd13  1  0.998605  0.668722  0.329883  1
  Pd  Pd14  1  0.666810  0.336000  0.000000  1
  Pd  Pd15  1  0.332334  0.664583  0.332248  1
  Pd  Pd16  1  0.000086  0.332334  0.667752  1
  Pd  Pd17  1  0.336000  0.666810  0.000000  1
  Pd  Pd18  1  0.332334  0.000086  0.667752  1
  Pd  Pd19  1  0.664583  0.332334  0.332248  1
  Pd  Pd20  1  0.666810  0.666810  0.330808  1
  Pd  Pd21  1  0.668722  0.338838  0.670117  1
  Pd  Pd22  1  0.338838  0.668722  0.670117  1
