# generated using pymatgen
data_DyEr7Re2(B12Rh)2
_symmetry_space_group_name_H-M   'P 1'
_cell_length_a   3.65939200
_cell_length_b   9.11269436
_cell_length_c   11.50218700
_cell_angle_alpha   90.42983743
_cell_angle_beta   90.00000000
_cell_angle_gamma   90.00000000
_symmetry_Int_Tables_number   1
_chemical_formula_structural   DyEr7Re2(B12Rh)2
_chemical_formula_sum   'Dy1 Er7 Re2 B24 Rh2'
_cell_volume   383.55172592
_cell_formula_units_Z   1
loop_
 _symmetry_equiv_pos_site_id
 _symmetry_equiv_pos_as_xyz
  1  'x, y, z'
loop_
 _atom_site_type_symbol
 _atom_site_label
 _atom_site_symmetry_multiplicity
 _atom_site_fract_x
 _atom_site_fract_y
 _atom_site_fract_z
 _atom_site_occupancy
  Dy  Dy0  1  0.000000  0.318708  0.411089  1
  Er  Er1  1  0.000000  0.682019  0.589236  1
  Er  Er2  1  0.000000  0.826186  0.082475  1
  Er  Er3  1  0.000000  0.173816  0.917379  1
  Er  Er4  1  0.000000  0.945154  0.371925  1
  Er  Er5  1  0.000000  0.054570  0.628197  1
  Er  Er6  1  0.000000  0.442458  0.126551  1
  Er  Er7  1  0.000000  0.557616  0.873395  1
  Re  Re8  1  0.000000  0.138514  0.179447  1
  Re  Re9  1  0.000000  0.861039  0.820281  1
  B  B10  1  0.500000  0.554786  0.434410  1
  B  B11  1  0.500000  0.445921  0.566029  1
  B  B12  1  0.500000  0.052734  0.067088  1
  B  B13  1  0.500000  0.947065  0.932713  1
  B  B14  1  0.500000  0.749299  0.421617  1
  B  B15  1  0.500000  0.250671  0.579002  1
  B  B16  1  0.500000  0.248560  0.080926  1
  B  B17  1  0.500000  0.751362  0.918853  1
  B  B18  1  0.500000  0.791525  0.265006  1
  B  B19  1  0.500000  0.208434  0.735117  1
  B  B20  1  0.500000  0.292889  0.234562  1
  B  B21  1  0.500000  0.706845  0.765027  1
  B  B22  1  0.500000  0.632550  0.183129  1
  B  B23  1  0.500000  0.367548  0.816835  1
  B  B24  1  0.500000  0.131520  0.314820  1
  B  B25  1  0.500000  0.868056  0.684899  1
  B  B26  1  0.500000  0.982431  0.212914  1
  B  B27  1  0.500000  0.017297  0.786973  1
  B  B28  1  0.500000  0.483733  0.287497  1
  B  B29  1  0.500000  0.516854  0.712348  1
  B  B30  1  0.500000  0.605909  0.029326  1
  B  B31  1  0.500000  0.394156  0.970591  1
  B  B32  1  0.500000  0.106500  0.471278  1
  B  B33  1  0.500000  0.892874  0.528938  1
  Rh  Rh34  1  0.000000  0.638433  0.321394  1
  Rh  Rh35  1  0.000000  0.361969  0.678734  1
