# generated using pymatgen
data_TbNpTcB6
_symmetry_space_group_name_H-M   'P 1'
_cell_length_a   3.63430600
_cell_length_b   9.27685900
_cell_length_c   11.35048100
_cell_angle_alpha   90.00000000
_cell_angle_beta   90.00000000
_cell_angle_gamma   90.00000000
_symmetry_Int_Tables_number   1
_chemical_formula_structural   TbNpTcB6
_chemical_formula_sum   'Tb4 Np4 Tc4 B24'
_cell_volume   382.68083498
_cell_formula_units_Z   4
loop_
 _symmetry_equiv_pos_site_id
 _symmetry_equiv_pos_as_xyz
  1  'x, y, z'
loop_
 _atom_site_type_symbol
 _atom_site_label
 _atom_site_symmetry_multiplicity
 _atom_site_fract_x
 _atom_site_fract_y
 _atom_site_fract_z
 _atom_site_occupancy
  Tb  Tb0  1  0.000000  0.337891  0.406844  1
  Tb  Tb1  1  0.000000  0.662109  0.593156  1
  Tb  Tb2  1  0.000000  0.837891  0.093156  1
  Tb  Tb3  1  0.000000  0.162109  0.906844  1
  Np  Np4  1  0.000000  0.959147  0.400826  1
  Np  Np5  1  0.000000  0.040853  0.599174  1
  Np  Np6  1  0.000000  0.459147  0.099174  1
  Np  Np7  1  0.000000  0.540853  0.900826  1
  Tc  Tc8  1  0.000000  0.647033  0.318239  1
  Tc  Tc9  1  0.000000  0.352967  0.681761  1
  Tc  Tc10  1  0.000000  0.147033  0.181761  1
  Tc  Tc11  1  0.000000  0.852967  0.818239  1
  B  B12  1  0.500000  0.553034  0.430752  1
  B  B13  1  0.500000  0.446966  0.569248  1
  B  B14  1  0.500000  0.053034  0.069248  1
  B  B15  1  0.500000  0.946966  0.930752  1
  B  B16  1  0.500000  0.744747  0.422483  1
  B  B17  1  0.500000  0.255253  0.577517  1
  B  B18  1  0.500000  0.244747  0.077517  1
  B  B19  1  0.500000  0.755253  0.922483  1
  B  B20  1  0.500000  0.804410  0.275106  1
  B  B21  1  0.500000  0.195590  0.724894  1
  B  B22  1  0.500000  0.304410  0.224894  1
  B  B23  1  0.500000  0.695590  0.775106  1
  B  B24  1  0.500000  0.644306  0.188314  1
  B  B25  1  0.500000  0.355694  0.811686  1
  B  B26  1  0.500000  0.144306  0.311686  1
  B  B27  1  0.500000  0.855694  0.688314  1
  B  B28  1  0.500000  0.989822  0.220715  1
  B  B29  1  0.500000  0.010178  0.779285  1
  B  B30  1  0.500000  0.489822  0.279285  1
  B  B31  1  0.500000  0.510178  0.720715  1
  B  B32  1  0.500000  0.639256  0.038504  1
  B  B33  1  0.500000  0.360744  0.961496  1
  B  B34  1  0.500000  0.139256  0.461496  1
  B  B35  1  0.500000  0.860744  0.538504  1
