# generated using pymatgen
data_Ho5Al13Ga2
_symmetry_space_group_name_H-M   'P 1'
_cell_length_a   6.11046860
_cell_length_b   6.09047799
_cell_length_c   12.36808939
_cell_angle_alpha   104.35524845
_cell_angle_beta   75.69843553
_cell_angle_gamma   120.10862754
_symmetry_Int_Tables_number   1
_chemical_formula_structural   Ho5Al13Ga2
_chemical_formula_sum   'Ho5 Al13 Ga2'
_cell_volume   381.59708358
_cell_formula_units_Z   1
loop_
 _symmetry_equiv_pos_site_id
 _symmetry_equiv_pos_as_xyz
  1  'x, y, z'
loop_
 _atom_site_type_symbol
 _atom_site_label
 _atom_site_symmetry_multiplicity
 _atom_site_fract_x
 _atom_site_fract_y
 _atom_site_fract_z
 _atom_site_occupancy
  Ho  Ho0  1  0.001651  0.999661  0.996359  1
  Ho  Ho1  1  0.599874  0.400271  0.200524  1
  Ho  Ho2  1  0.868905  0.130374  0.392564  1
  Ho  Ho3  1  0.130458  0.871730  0.610814  1
  Ho  Ho4  1  0.399832  0.599360  0.799697  1
  Al  Al5  1  0.000995  0.502020  0.000290  1
  Al  Al6  1  0.500736  0.502020  0.000290  1
  Al  Al7  1  0.499337  0.999647  0.000974  1
  Al  Al8  1  0.116299  0.883617  0.198326  1
  Al  Al9  1  0.568992  0.883617  0.198326  1
  Al  Al10  1  0.116042  0.430446  0.198363  1
  Al  Al11  1  0.362481  0.637075  0.402558  1
  Al  Al12  1  0.872036  0.637075  0.402558  1
  Al  Al13  1  0.362840  0.128495  0.402815  1
  Al  Al14  1  0.636623  0.869992  0.596746  1
  Al  Al15  1  0.130691  0.365555  0.597455  1
  Al  Al16  1  0.637408  0.365555  0.597455  1
  Al  Al17  1  0.880271  0.561744  0.801200  1
  Ga  Ga18  1  0.433045  0.115874  0.801344  1
  Ga  Ga19  1  0.881485  0.115874  0.801344  1
