# generated using pymatgen
data_YbY3Al16(SiIr3)2
_symmetry_space_group_name_H-M   'P 1'
_cell_length_a   7.54955901
_cell_length_b   7.55155198
_cell_length_c   9.38159100
_cell_angle_alpha   90.00000000
_cell_angle_beta   90.00000000
_cell_angle_gamma   119.64763205
_symmetry_Int_Tables_number   1
_chemical_formula_structural   YbY3Al16(SiIr3)2
_chemical_formula_sum   'Yb1 Y3 Al16 Si2 Ir6'
_cell_volume   464.83203283
_cell_formula_units_Z   1
loop_
 _symmetry_equiv_pos_site_id
 _symmetry_equiv_pos_as_xyz
  1  'x, y, z'
loop_
 _atom_site_type_symbol
 _atom_site_label
 _atom_site_symmetry_multiplicity
 _atom_site_fract_x
 _atom_site_fract_y
 _atom_site_fract_z
 _atom_site_occupancy
  Yb  Yb0  1  0.994838  0.675009  0.250000  1
  Y  Y1  1  0.004511  0.325425  0.750000  1
  Y  Y2  1  0.675264  0.995063  0.250000  1
  Y  Y3  1  0.324235  0.003423  0.750000  1
  Al  Al4  1  0.001474  0.337808  0.076739  1
  Al  Al5  1  0.998351  0.663620  0.925816  1
  Al  Al6  1  0.998351  0.663620  0.574184  1
  Al  Al7  1  0.335162  0.000052  0.423292  1
  Al  Al8  1  0.001474  0.337808  0.423261  1
  Al  Al9  1  0.663567  0.998478  0.576541  1
  Al  Al10  1  0.663567  0.998478  0.923459  1
  Al  Al11  1  0.335162  0.000052  0.076708  1
  Al  Al12  1  0.335711  0.335619  0.555067  1
  Al  Al13  1  0.665491  0.664328  0.444723  1
  Al  Al14  1  0.665491  0.664328  0.055277  1
  Al  Al15  1  0.335711  0.335619  0.944933  1
  Al  Al16  1  0.336322  0.548828  0.250000  1
  Al  Al17  1  0.664873  0.451987  0.750000  1
  Al  Al18  1  0.548724  0.335092  0.250000  1
  Al  Al19  1  0.452169  0.664542  0.750000  1
  Si  Si20  1  0.129373  0.129773  0.250000  1
  Si  Si21  1  0.871233  0.870581  0.750000  1
  Ir  Ir22  1  0.670579  0.327097  0.999656  1
  Ir  Ir23  1  0.329083  0.671869  0.999678  1
  Ir  Ir24  1  0.329083  0.671869  0.500322  1
  Ir  Ir25  1  0.670579  0.327097  0.500344  1
  Ir  Ir26  1  0.999811  0.001269  0.999462  1
  Ir  Ir27  1  0.999811  0.001269  0.500538  1
