# generated using pymatgen
data_Mg3InPt4
_symmetry_space_group_name_H-M   'P 1'
_cell_length_a   5.63188569
_cell_length_b   5.63188553
_cell_length_c   4.22948200
_cell_angle_alpha   90.00000000
_cell_angle_beta   90.00000000
_cell_angle_gamma   98.81517027
_symmetry_Int_Tables_number   1
_chemical_formula_structural   Mg3InPt4
_chemical_formula_sum   'Mg3 In1 Pt4'
_cell_volume   132.56666694
_cell_formula_units_Z   1
loop_
 _symmetry_equiv_pos_site_id
 _symmetry_equiv_pos_as_xyz
  1  'x, y, z'
loop_
 _atom_site_type_symbol
 _atom_site_label
 _atom_site_symmetry_multiplicity
 _atom_site_fract_x
 _atom_site_fract_y
 _atom_site_fract_z
 _atom_site_occupancy
  Mg  Mg0  1  0.745246  0.254754  0.500000  1
  Mg  Mg1  1  0.254754  0.745246  0.500000  1
  Mg  Mg2  1  0.500000  0.500000  0.000000  1
  In  In3  1  0.000000  0.000000  0.000000  1
  Pt  Pt4  1  0.000000  0.500000  0.000000  1
  Pt  Pt5  1  0.500000  0.000000  0.000000  1
  Pt  Pt6  1  0.253182  0.253182  0.500000  1
  Pt  Pt7  1  0.746818  0.746818  0.500000  1
