# generated using pymatgen
data_Nd2B4Ir2Rh3
_symmetry_space_group_name_H-M   'P 1'
_cell_length_a   7.58460163
_cell_length_b   6.32026524
_cell_length_c   5.72672691
_cell_angle_alpha   77.86687447
_cell_angle_beta   54.55651226
_cell_angle_gamma   47.57661778
_symmetry_Int_Tables_number   1
_chemical_formula_structural   Nd2B4Ir2Rh3
_chemical_formula_sum   'Nd2 B4 Ir2 Rh3'
_cell_volume   157.43636667
_cell_formula_units_Z   1
loop_
 _symmetry_equiv_pos_site_id
 _symmetry_equiv_pos_as_xyz
  1  'x, y, z'
loop_
 _atom_site_type_symbol
 _atom_site_label
 _atom_site_symmetry_multiplicity
 _atom_site_fract_x
 _atom_site_fract_y
 _atom_site_fract_z
 _atom_site_occupancy
  Nd  Nd0  1  0.856731  0.856731  0.143269  1
  Nd  Nd1  1  0.143269  0.143269  0.856731  1
  B  B2  1  0.785563  0.477971  0.530183  1
  B  B3  1  0.206283  0.530183  0.477971  1
  B  B4  1  0.530183  0.206283  0.785563  1
  B  B5  1  0.477971  0.785563  0.206283  1
  Ir  Ir6  1  0.750000  0.750000  0.750000  1
  Ir  Ir7  1  0.500000  0.500000  0.500000  1
  Rh  Rh8  1  0.499070  0.499070  0.000930  1
  Rh  Rh9  1  0.000930  0.000930  0.499070  1
  Rh  Rh10  1  0.250000  0.250000  0.250000  1
