# generated using pymatgen
data_Er8Ga12Pt3Au
_symmetry_space_group_name_H-M   'P 1'
_cell_length_a   7.07308200
_cell_length_b   8.82980164
_cell_length_c   8.82980200
_cell_angle_alpha   119.99999387
_cell_angle_beta   90.00000000
_cell_angle_gamma   90.00000000
_symmetry_Int_Tables_number   1
_chemical_formula_structural   Er8Ga12Pt3Au
_chemical_formula_sum   'Er8 Ga12 Pt3 Au1'
_cell_volume   477.57464742
_cell_formula_units_Z   1
loop_
 _symmetry_equiv_pos_site_id
 _symmetry_equiv_pos_as_xyz
  1  'x, y, z'
loop_
 _atom_site_type_symbol
 _atom_site_label
 _atom_site_symmetry_multiplicity
 _atom_site_fract_x
 _atom_site_fract_y
 _atom_site_fract_z
 _atom_site_occupancy
  Er  Er0  1  0.755327  0.000000  0.000000  1
  Er  Er1  1  0.249920  0.000000  0.000000  1
  Er  Er2  1  0.750834  0.476753  0.523247  1
  Er  Er3  1  0.245964  0.517542  0.482458  1
  Er  Er4  1  0.750834  0.046495  0.523247  1
  Er  Er5  1  0.245964  0.964914  0.482458  1
  Er  Er6  1  0.750834  0.476753  0.953505  1
  Er  Er7  1  0.245964  0.517542  0.035086  1
  Ga  Ga8  1  0.950527  0.832264  0.167736  1
  Ga  Ga9  1  0.045127  0.165386  0.834614  1
  Ga  Ga10  1  0.950527  0.335474  0.167736  1
  Ga  Ga11  1  0.451895  0.166309  0.833691  1
  Ga  Ga12  1  0.045127  0.669227  0.834614  1
  Ga  Ga13  1  0.547098  0.836522  0.163478  1
  Ga  Ga14  1  0.950527  0.832264  0.664526  1
  Ga  Ga15  1  0.451895  0.667382  0.833691  1
  Ga  Ga16  1  0.045127  0.165386  0.330773  1
  Ga  Ga17  1  0.547098  0.326957  0.163478  1
  Ga  Ga18  1  0.451895  0.166309  0.332618  1
  Ga  Ga19  1  0.547098  0.836522  0.673043  1
  Pt  Pt20  1  0.980270  0.666667  0.333333  1
  Pt  Pt21  1  0.030529  0.333333  0.666667  1
  Pt  Pt22  1  0.467248  0.333333  0.666667  1
  Au  Au23  1  0.542366  0.666667  0.333333  1
