# generated using pymatgen
data_Sm2BePdPt5
_symmetry_space_group_name_H-M   'P 1'
_cell_length_a   6.11319141
_cell_length_b   6.18505686
_cell_length_c   6.18505600
_cell_angle_alpha   56.57588116
_cell_angle_beta   57.53414723
_cell_angle_gamma   57.53415148
_symmetry_Int_Tables_number   1
_chemical_formula_structural   Sm2BePdPt5
_chemical_formula_sum   'Sm2 Be1 Pd1 Pt5'
_cell_volume   154.72388991
_cell_formula_units_Z   1
loop_
 _symmetry_equiv_pos_site_id
 _symmetry_equiv_pos_as_xyz
  1  'x, y, z'
loop_
 _atom_site_type_symbol
 _atom_site_label
 _atom_site_symmetry_multiplicity
 _atom_site_fract_x
 _atom_site_fract_y
 _atom_site_fract_z
 _atom_site_occupancy
  Sm  Sm0  1  0.244885  0.243533  0.243533  1
  Sm  Sm1  1  0.757685  0.754494  0.754494  1
  Be  Be2  1  0.496436  0.502044  0.502044  1
  Pd  Pd3  1  0.750518  0.239490  0.239491  1
  Pt  Pt4  1  0.238692  0.751984  0.236161  1
  Pt  Pt5  1  0.762283  0.761865  0.247141  1
  Pt  Pt6  1  0.238692  0.236160  0.751985  1
  Pt  Pt7  1  0.762283  0.247142  0.761864  1
  Pt  Pt8  1  0.248524  0.763289  0.763288  1
