# generated using pymatgen
data_CeHo3(Tc3Ge4)2
_symmetry_space_group_name_H-M   'P 1'
_cell_length_a   8.29669296
_cell_length_b   5.71417160
_cell_length_c   7.00536283
_cell_angle_alpha   76.18276577
_cell_angle_beta   90.19201726
_cell_angle_gamma   90.18169892
_symmetry_Int_Tables_number   1
_chemical_formula_structural   CeHo3(Tc3Ge4)2
_chemical_formula_sum   'Ce1 Ho3 Tc6 Ge8'
_cell_volume   322.50197167
_cell_formula_units_Z   1
loop_
 _symmetry_equiv_pos_site_id
 _symmetry_equiv_pos_as_xyz
  1  'x, y, z'
loop_
 _atom_site_type_symbol
 _atom_site_label
 _atom_site_symmetry_multiplicity
 _atom_site_fract_x
 _atom_site_fract_y
 _atom_site_fract_z
 _atom_site_occupancy
  Ce  Ce0  1  0.554386  0.079056  0.244676  1
  Ho  Ho1  1  0.054193  0.423149  0.755123  1
  Ho  Ho2  1  0.443560  0.924299  0.753733  1
  Ho  Ho3  1  0.943405  0.576915  0.244389  1
  Tc  Tc4  1  0.211093  0.110856  0.116134  1
  Tc  Tc5  1  0.705436  0.380750  0.892177  1
  Tc  Tc6  1  0.796042  0.888648  0.883746  1
  Tc  Tc7  1  0.294948  0.612408  0.111837  1
  Tc  Tc8  1  0.999119  0.998890  0.498617  1
  Tc  Tc9  1  0.500249  0.500560  0.501236  1
  Ge  Ge10  1  0.905696  0.119368  0.127615  1
  Ge  Ge11  1  0.399449  0.384221  0.867386  1
  Ge  Ge12  1  0.099026  0.878621  0.873090  1
  Ge  Ge13  1  0.598249  0.624940  0.124009  1
  Ge  Ge14  1  0.748859  0.225005  0.580066  1
  Ge  Ge15  1  0.244330  0.281961  0.421557  1
  Ge  Ge16  1  0.249304  0.771794  0.422686  1
  Ge  Ge17  1  0.752658  0.718560  0.581923  1
