# generated using pymatgen
data_Y14Tm6Si15Pd
_symmetry_space_group_name_H-M   'P 1'
_cell_length_a   7.37155090
_cell_length_b   7.73083438
_cell_length_c   14.56804800
_cell_angle_alpha   90.08908425
_cell_angle_beta   89.97173899
_cell_angle_gamma   90.00544680
_symmetry_Int_Tables_number   1
_chemical_formula_structural   Y14Tm6Si15Pd
_chemical_formula_sum   'Y14 Tm6 Si15 Pd1'
_cell_volume   830.20629443
_cell_formula_units_Z   1
loop_
 _symmetry_equiv_pos_site_id
 _symmetry_equiv_pos_as_xyz
  1  'x, y, z'
loop_
 _atom_site_type_symbol
 _atom_site_label
 _atom_site_symmetry_multiplicity
 _atom_site_fract_x
 _atom_site_fract_y
 _atom_site_fract_z
 _atom_site_occupancy
  Y  Y0  1  0.317989  0.819730  0.123507  1
  Y  Y1  1  0.817239  0.677519  0.376272  1
  Y  Y2  1  0.318096  0.820499  0.376765  1
  Y  Y3  1  0.817287  0.676950  0.123612  1
  Y  Y4  1  0.681108  0.177600  0.876838  1
  Y  Y5  1  0.186502  0.323804  0.623835  1
  Y  Y6  1  0.524783  0.682668  0.594476  1
  Y  Y7  1  0.025988  0.818090  0.904005  1
  Y  Y8  1  0.473375  0.316124  0.097304  1
  Y  Y9  1  0.972935  0.182527  0.402614  1
  Y  Y10  1  0.474224  0.316721  0.403036  1
  Y  Y11  1  0.973839  0.182227  0.097023  1
  Y  Y12  1  0.524354  0.682628  0.905660  1
  Y  Y13  1  0.026134  0.817726  0.595905  1
  Tm  Tm14  1  0.680099  0.178518  0.624048  1
  Tm  Tm15  1  0.187638  0.325059  0.875182  1
  Tm  Tm16  1  0.845205  0.510774  0.749820  1
  Tm  Tm17  1  0.354426  0.983038  0.750036  1
  Tm  Tm18  1  0.148774  0.485514  0.249934  1
  Tm  Tm19  1  0.648427  0.013250  0.250185  1
  Si  Si20  1  0.648516  0.972859  0.460493  1
  Si  Si21  1  0.148113  0.526632  0.039467  1
  Si  Si22  1  0.349321  0.028400  0.959827  1
  Si  Si23  1  0.849903  0.469980  0.540632  1
  Si  Si24  1  0.353916  0.026746  0.541000  1
  Si  Si25  1  0.854146  0.471421  0.958535  1
  Si  Si26  1  0.646640  0.971966  0.040697  1
  Si  Si27  1  0.146331  0.527315  0.459410  1
  Si  Si28  1  0.981462  0.102937  0.749768  1
  Si  Si29  1  0.519559  0.601857  0.250038  1
  Si  Si30  1  0.019130  0.896748  0.250030  1
  Si  Si31  1  0.738575  0.874680  0.749283  1
  Si  Si32  1  0.226983  0.632533  0.750575  1
  Si  Si33  1  0.268198  0.129228  0.250024  1
  Si  Si34  1  0.768601  0.370024  0.250002  1
  Pd  Pd35  1  0.482181  0.405708  0.750158  1
