# generated using pymatgen
data_YEr7Ti12Si15As
_symmetry_space_group_name_H-M   'P 1'
_cell_length_a   7.03937701
_cell_length_b   7.03185168
_cell_length_c   12.92660015
_cell_angle_alpha   89.99223564
_cell_angle_beta   89.81428701
_cell_angle_gamma   89.92582601
_symmetry_Int_Tables_number   1
_chemical_formula_structural   YEr7Ti12Si15As
_chemical_formula_sum   'Y1 Er7 Ti12 Si15 As1'
_cell_volume   639.86093114
_cell_formula_units_Z   1
loop_
 _symmetry_equiv_pos_site_id
 _symmetry_equiv_pos_as_xyz
  1  'x, y, z'
loop_
 _atom_site_type_symbol
 _atom_site_label
 _atom_site_symmetry_multiplicity
 _atom_site_fract_x
 _atom_site_fract_y
 _atom_site_fract_z
 _atom_site_occupancy
  Y  Y0  1  0.340924  0.001934  0.466134  1
  Er  Er1  1  0.497900  0.842262  0.717653  1
  Er  Er2  1  0.501923  0.158951  0.216409  1
  Er  Er3  1  0.840190  0.497222  0.283069  1
  Er  Er4  1  0.159014  0.501209  0.783270  1
  Er  Er5  1  0.661138  0.995353  0.967708  1
  Er  Er6  1  0.998841  0.343514  0.531875  1
  Er  Er7  1  0.998782  0.659218  0.033462  1
  Ti  Ti8  1  0.326682  0.326978  0.999807  1
  Ti  Ti9  1  0.172679  0.827004  0.249704  1
  Ti  Ti10  1  0.824208  0.173638  0.750220  1
  Ti  Ti11  1  0.672582  0.672483  0.500151  1
  Ti  Ti12  1  0.154182  0.008979  0.875126  1
  Ti  Ti13  1  0.492372  0.651276  0.125346  1
  Ti  Ti14  1  0.508527  0.348007  0.627043  1
  Ti  Ti15  1  0.654624  0.495282  0.875387  1
  Ti  Ti16  1  0.347163  0.507356  0.374140  1
  Ti  Ti17  1  0.847044  0.992802  0.375413  1
  Ti  Ti18  1  0.007624  0.151188  0.124399  1
  Ti  Ti19  1  0.989715  0.844381  0.623412  1
  Si  Si20  1  0.368653  0.703684  0.933014  1
  Si  Si21  1  0.629960  0.297761  0.433907  1
  Si  Si22  1  0.703824  0.369006  0.066960  1
  Si  Si23  1  0.296632  0.630292  0.566922  1
  Si  Si24  1  0.796454  0.868677  0.183797  1
  Si  Si25  1  0.130401  0.203608  0.316323  1
  Si  Si26  1  0.870232  0.797471  0.816031  1
  Si  Si27  1  0.291858  0.953056  0.064394  1
  Si  Si28  1  0.546948  0.790356  0.314011  1
  Si  Si29  1  0.462396  0.210947  0.819537  1
  Si  Si30  1  0.791113  0.546565  0.685477  1
  Si  Si31  1  0.208371  0.453059  0.185494  1
  Si  Si32  1  0.708482  0.046318  0.564477  1
  Si  Si33  1  0.954152  0.291413  0.935535  1
  Si  Si34  1  0.045950  0.708721  0.434762  1
  As  As35  1  0.198459  0.130028  0.679632  1
