# generated using pymatgen
data_LiNd6Ir15Rh2
_symmetry_space_group_name_H-M   'P 1'
_cell_length_a   5.37935400
_cell_length_b   5.37935751
_cell_length_c   17.50576600
_cell_angle_alpha   90.00000000
_cell_angle_beta   90.00000000
_cell_angle_gamma   119.99999480
_symmetry_Int_Tables_number   1
_chemical_formula_structural   LiNd6Ir15Rh2
_chemical_formula_sum   'Li1 Nd6 Ir15 Rh2'
_cell_volume   438.70471925
_cell_formula_units_Z   1
loop_
 _symmetry_equiv_pos_site_id
 _symmetry_equiv_pos_as_xyz
  1  'x, y, z'
loop_
 _atom_site_type_symbol
 _atom_site_label
 _atom_site_symmetry_multiplicity
 _atom_site_fract_x
 _atom_site_fract_y
 _atom_site_fract_z
 _atom_site_occupancy
  Li  Li0  1  0.333331  0.666667  0.250000  1
  Nd  Nd1  1  0.333331  0.666664  0.541527  1
  Nd  Nd2  1  0.666665  0.333333  0.040452  1
  Nd  Nd3  1  0.666665  0.333333  0.459548  1
  Nd  Nd4  1  0.333331  0.666664  0.958473  1
  Nd  Nd5  1  0.333337  0.666667  0.750000  1
  Nd  Nd6  1  0.666667  0.333335  0.250000  1
  Ir  Ir7  1  0.169006  0.338010  0.127932  1
  Ir  Ir8  1  0.833227  0.666463  0.626163  1
  Ir  Ir9  1  0.661990  0.830996  0.127932  1
  Ir  Ir10  1  0.169005  0.830993  0.127932  1
  Ir  Ir11  1  0.833232  0.166771  0.626160  1
  Ir  Ir12  1  0.333539  0.166770  0.626162  1
  Ir  Ir13  1  0.833227  0.666463  0.873837  1
  Ir  Ir14  1  0.833232  0.166771  0.873840  1
  Ir  Ir15  1  0.333539  0.166770  0.873838  1
  Ir  Ir16  1  0.661990  0.830996  0.372068  1
  Ir  Ir17  1  0.169005  0.830993  0.372068  1
  Ir  Ir18  1  0.169006  0.338010  0.372068  1
  Ir  Ir19  1  0.000005  0.999996  0.250000  1
  Ir  Ir20  1  0.000000  0.999999  0.002665  1
  Ir  Ir21  1  0.000000  0.999999  0.497335  1
  Rh  Rh22  1  0.000002  0.000005  0.750000  1
  Rh  Rh23  1  0.666674  0.333334  0.750000  1
