# generated using pymatgen
data_YbPa3(GePd)4
_symmetry_space_group_name_H-M   'P 1'
_cell_length_a   4.42372500
_cell_length_b   7.06211651
_cell_length_c   7.62215972
_cell_angle_alpha   90.39256633
_cell_angle_beta   90.00000000
_cell_angle_gamma   90.00000000
_symmetry_Int_Tables_number   1
_chemical_formula_structural   YbPa3(GePd)4
_chemical_formula_sum   'Yb1 Pa3 Ge4 Pd4'
_cell_volume   238.11724573
_cell_formula_units_Z   1
loop_
 _symmetry_equiv_pos_site_id
 _symmetry_equiv_pos_as_xyz
  1  'x, y, z'
loop_
 _atom_site_type_symbol
 _atom_site_label
 _atom_site_symmetry_multiplicity
 _atom_site_fract_x
 _atom_site_fract_y
 _atom_site_fract_z
 _atom_site_occupancy
  Yb  Yb0  1  0.750000  0.498438  0.790257  1
  Pa  Pa1  1  0.250000  0.991670  0.287850  1
  Pa  Pa2  1  0.250000  0.504211  0.205211  1
  Pa  Pa3  1  0.750000  0.002676  0.714611  1
  Ge  Ge4  1  0.250000  0.263334  0.589097  1
  Ge  Ge5  1  0.250000  0.801195  0.900852  1
  Ge  Ge6  1  0.750000  0.721404  0.412138  1
  Ge  Ge7  1  0.750000  0.200760  0.098140  1
  Pd  Pd8  1  0.250000  0.220359  0.925850  1
  Pd  Pd9  1  0.250000  0.682879  0.577282  1
  Pd  Pd10  1  0.750000  0.792764  0.077969  1
  Pd  Pd11  1  0.750000  0.320311  0.420745  1
