# generated using pymatgen
data_LuZr3(Al3Co)6
_symmetry_space_group_name_H-M   'P 1'
_cell_length_a   7.29297360
_cell_length_b   7.28862242
_cell_length_c   9.09957200
_cell_angle_alpha   90.00000000
_cell_angle_beta   90.00000000
_cell_angle_gamma   119.51098872
_symmetry_Int_Tables_number   1
_chemical_formula_structural   LuZr3(Al3Co)6
_chemical_formula_sum   'Lu1 Zr3 Al18 Co6'
_cell_volume   420.94048777
_cell_formula_units_Z   1
loop_
 _symmetry_equiv_pos_site_id
 _symmetry_equiv_pos_as_xyz
  1  'x, y, z'
loop_
 _atom_site_type_symbol
 _atom_site_label
 _atom_site_symmetry_multiplicity
 _atom_site_fract_x
 _atom_site_fract_y
 _atom_site_fract_z
 _atom_site_occupancy
  Lu  Lu0  1  0.328889  0.007180  0.750000  1
  Zr  Zr1  1  0.993735  0.671468  0.250000  1
  Zr  Zr2  1  0.006588  0.329369  0.750000  1
  Zr  Zr3  1  0.670600  0.992862  0.250000  1
  Al  Al4  1  0.116719  0.117528  0.250000  1
  Al  Al5  1  0.878072  0.881138  0.750000  1
  Al  Al6  1  0.994855  0.334514  0.072621  1
  Al  Al7  1  0.003298  0.663630  0.929329  1
  Al  Al8  1  0.003298  0.663630  0.570671  1
  Al  Al9  1  0.334975  0.995774  0.425774  1
  Al  Al10  1  0.994855  0.334514  0.427379  1
  Al  Al11  1  0.666902  0.004586  0.570858  1
  Al  Al12  1  0.666902  0.004586  0.929142  1
  Al  Al13  1  0.334975  0.995774  0.074226  1
  Al  Al14  1  0.330610  0.332157  0.547489  1
  Al  Al15  1  0.669668  0.669489  0.449104  1
  Al  Al16  1  0.669668  0.669489  0.050896  1
  Al  Al17  1  0.330610  0.332157  0.952511  1
  Al  Al18  1  0.337643  0.558639  0.250000  1
  Al  Al19  1  0.665737  0.444716  0.750000  1
  Al  Al20  1  0.560566  0.338854  0.250000  1
  Al  Al21  1  0.440412  0.657583  0.750000  1
  Co  Co22  1  0.672090  0.328397  0.000760  1
  Co  Co23  1  0.328563  0.672598  0.001478  1
  Co  Co24  1  0.328563  0.672598  0.498522  1
  Co  Co25  1  0.672090  0.328397  0.499240  1
  Co  Co26  1  0.999557  0.999187  0.000905  1
  Co  Co27  1  0.999557  0.999187  0.499095  1
