# generated using pymatgen
data_Yb2Dy4Si24Os3Ru5
_symmetry_space_group_name_H-M   'P 1'
_cell_length_a   10.13926544
_cell_length_b   10.13926551
_cell_length_c   8.14025913
_cell_angle_alpha   90.00815973
_cell_angle_beta   90.00817088
_cell_angle_gamma   132.63577111
_symmetry_Int_Tables_number   1
_chemical_formula_structural   Yb2Dy4Si24Os3Ru5
_chemical_formula_sum   'Yb2 Dy4 Si24 Os3 Ru5'
_cell_volume   615.65414537
_cell_formula_units_Z   1
loop_
 _symmetry_equiv_pos_site_id
 _symmetry_equiv_pos_as_xyz
  1  'x, y, z'
loop_
 _atom_site_type_symbol
 _atom_site_label
 _atom_site_symmetry_multiplicity
 _atom_site_fract_x
 _atom_site_fract_y
 _atom_site_fract_z
 _atom_site_occupancy
  Yb  Yb0  1  0.500038  0.499962  0.500000  1
  Yb  Yb1  1  0.999980  0.000020  0.000000  1
  Dy  Dy2  1  0.502138  0.002156  0.749995  1
  Dy  Dy3  1  0.997844  0.497862  0.250005  1
  Dy  Dy4  1  0.499116  0.999142  0.249914  1
  Dy  Dy5  1  0.000858  0.500884  0.750086  1
  Si  Si6  1  0.796912  0.203088  0.500000  1
  Si  Si7  1  0.296997  0.703003  0.000000  1
  Si  Si8  1  0.202989  0.797011  0.500000  1
  Si  Si9  1  0.703690  0.296310  0.000000  1
  Si  Si10  1  0.333176  0.331999  0.832471  1
  Si  Si11  1  0.668001  0.666824  0.167529  1
  Si  Si12  1  0.167001  0.168085  0.332526  1
  Si  Si13  1  0.831915  0.832999  0.667474  1
  Si  Si14  1  0.122207  0.890876  0.730094  1
  Si  Si15  1  0.109124  0.877793  0.269906  1
  Si  Si16  1  0.610199  0.378203  0.229216  1
  Si  Si17  1  0.621797  0.389801  0.770784  1
  Si  Si18  1  0.877302  0.109527  0.269419  1
  Si  Si19  1  0.890473  0.122698  0.730581  1
  Si  Si20  1  0.391199  0.622516  0.770014  1
  Si  Si21  1  0.377484  0.608801  0.229986  1
  Si  Si22  1  0.346047  0.114742  0.506544  1
  Si  Si23  1  0.885258  0.653953  0.493456  1
  Si  Si24  1  0.385944  0.154614  0.005282  1
  Si  Si25  1  0.845386  0.614056  0.994718  1
  Si  Si26  1  0.654269  0.885367  0.493840  1
  Si  Si27  1  0.114633  0.345731  0.506160  1
  Si  Si28  1  0.615226  0.847039  0.993321  1
  Si  Si29  1  0.152961  0.384774  0.006679  1
  Os  Os30  1  0.671413  0.328587  0.500000  1
  Os  Os31  1  0.171788  0.828212  0.000000  1
  Os  Os32  1  0.328176  0.671824  0.500000  1
  Ru  Ru33  1  0.828667  0.171333  0.000000  1
  Ru  Ru34  1  0.125832  0.126000  0.626129  1
  Ru  Ru35  1  0.874000  0.874168  0.373871  1
  Ru  Ru36  1  0.373970  0.374006  0.125940  1
  Ru  Ru37  1  0.625994  0.626030  0.874060  1
