# generated using pymatgen
data_Li3Pr2HoZnSn4
_symmetry_space_group_name_H-M   'P 1'
_cell_length_a   8.72846761
_cell_length_b   8.77451067
_cell_length_c   8.77450947
_cell_angle_alpha   148.77045398
_cell_angle_beta   132.36161052
_cell_angle_gamma   58.12012340
_symmetry_Int_Tables_number   1
_chemical_formula_structural   Li3Pr2HoZnSn4
_chemical_formula_sum   'Li3 Pr2 Ho1 Zn1 Sn4'
_cell_volume   255.42014868
_cell_formula_units_Z   1
loop_
 _symmetry_equiv_pos_site_id
 _symmetry_equiv_pos_as_xyz
  1  'x, y, z'
loop_
 _atom_site_type_symbol
 _atom_site_label
 _atom_site_symmetry_multiplicity
 _atom_site_fract_x
 _atom_site_fract_y
 _atom_site_fract_z
 _atom_site_occupancy
  Li  Li0  1  0.482748  0.672496  0.810253  1
  Li  Li1  1  0.857684  0.671706  0.185977  1
  Li  Li2  1  0.142333  0.329980  0.812352  1
  Pr  Pr3  1  0.870892  0.871239  0.999653  1
  Pr  Pr4  1  0.133042  0.128505  0.004538  1
  Ho  Ho5  1  0.496279  0.999201  0.497079  1
  Zn  Zn6  1  0.520740  0.325811  0.194928  1
  Sn  Sn7  1  0.283858  0.789707  0.494151  1
  Sn  Sn8  1  0.712069  0.210476  0.501593  1
  Sn  Sn9  1  0.794755  0.500277  0.294478  1
  Sn  Sn10  1  0.205600  0.500602  0.704998  1
