# generated using pymatgen
data_NdSm3Tc4F28
_symmetry_space_group_name_H-M   'P 1'
_cell_length_a   5.69354716
_cell_length_b   9.11335518
_cell_length_c   12.25830156
_cell_angle_alpha   62.31284564
_cell_angle_beta   89.97612532
_cell_angle_gamma   90.00050423
_symmetry_Int_Tables_number   1
_chemical_formula_structural   NdSm3Tc4F28
_chemical_formula_sum   'Nd1 Sm3 Tc4 F28'
_cell_volume   563.22116617
_cell_formula_units_Z   1
loop_
 _symmetry_equiv_pos_site_id
 _symmetry_equiv_pos_as_xyz
  1  'x, y, z'
loop_
 _atom_site_type_symbol
 _atom_site_label
 _atom_site_symmetry_multiplicity
 _atom_site_fract_x
 _atom_site_fract_y
 _atom_site_fract_z
 _atom_site_occupancy
  Nd  Nd0  1  0.758845  0.812884  0.764689  1
  Sm  Sm1  1  0.258961  0.190051  0.735212  1
  Sm  Sm2  1  0.240973  0.187790  0.235483  1
  Sm  Sm3  1  0.741063  0.812721  0.264539  1
  Tc  Tc4  1  0.756688  0.271764  0.958137  1
  Tc  Tc5  1  0.256315  0.726502  0.541172  1
  Tc  Tc6  1  0.243467  0.726198  0.044328  1
  Tc  Tc7  1  0.742887  0.274596  0.456384  1
  F  F8  1  0.440848  0.707560  0.920334  1
  F  F9  1  0.942782  0.291545  0.580383  1
  F  F10  1  0.556265  0.290312  0.081344  1
  F  F11  1  0.056313  0.708744  0.417631  1
  F  F12  1  0.455432  0.280689  0.544535  1
  F  F13  1  0.955865  0.718292  0.957854  1
  F  F14  1  0.545401  0.720069  0.454380  1
  F  F15  1  0.044360  0.279013  0.045610  1
  F  F16  1  0.769432  0.514085  0.861419  1
  F  F17  1  0.269145  0.483588  0.638377  1
  F  F18  1  0.231548  0.482891  0.140149  1
  F  F19  1  0.730769  0.517429  0.360389  1
  F  F20  1  0.757762  0.029685  0.052986  1
  F  F21  1  0.257630  0.968670  0.446890  1
  F  F22  1  0.241834  0.968155  0.948324  1
  F  F23  1  0.742282  0.032598  0.550447  1
  F  F24  1  0.977265  0.728981  0.634232  1
  F  F25  1  0.477883  0.269327  0.864338  1
  F  F26  1  0.021761  0.269915  0.363230  1
  F  F27  1  0.523095  0.730441  0.136938  1
  F  F28  1  0.047882  0.744888  0.170229  1
  F  F29  1  0.546899  0.255751  0.330504  1
  F  F30  1  0.952362  0.254421  0.831486  1
  F  F31  1  0.448710  0.743339  0.668451  1
  F  F32  1  0.414948  0.970183  0.231448  1
  F  F33  1  0.915574  0.030382  0.268534  1
  F  F34  1  0.585299  0.034933  0.769154  1
  F  F35  1  0.091454  0.971610  0.730461  1
