# generated using pymatgen
data_LaTi2O5
_symmetry_space_group_name_H-M   'P 1'
_cell_length_a   5.87516200
_cell_length_b   7.88697800
_cell_length_c   8.86956800
_cell_angle_alpha   90.00000000
_cell_angle_beta   90.00000000
_cell_angle_gamma   90.00000000
_symmetry_Int_Tables_number   1
_chemical_formula_structural   LaTi2O5
_chemical_formula_sum   'La4 Ti8 O20'
_cell_volume   410.99159771
_cell_formula_units_Z   4
loop_
 _symmetry_equiv_pos_site_id
 _symmetry_equiv_pos_as_xyz
  1  'x, y, z'
loop_
 _atom_site_type_symbol
 _atom_site_label
 _atom_site_symmetry_multiplicity
 _atom_site_fract_x
 _atom_site_fract_y
 _atom_site_fract_z
 _atom_site_occupancy
  La  La0  1  0.000000  0.354242  0.672655  1
  La  La1  1  0.000000  0.645758  0.327345  1
  La  La2  1  0.000000  0.854242  0.827345  1
  La  La3  1  0.000000  0.145758  0.172655  1
  Ti  Ti4  1  0.500000  0.114392  0.859528  1
  Ti  Ti5  1  0.500000  0.885608  0.140472  1
  Ti  Ti6  1  0.500000  0.614392  0.640472  1
  Ti  Ti7  1  0.500000  0.385608  0.359528  1
  Ti  Ti8  1  0.256089  0.500000  0.000000  1
  Ti  Ti9  1  0.743911  0.000000  0.500000  1
  Ti  Ti10  1  0.743911  0.500000  0.000000  1
  Ti  Ti11  1  0.256089  0.000000  0.500000  1
  O  O12  1  0.258947  0.903174  0.288916  1
  O  O13  1  0.258947  0.096826  0.711084  1
  O  O14  1  0.741053  0.403174  0.211084  1
  O  O15  1  0.741053  0.596826  0.788916  1
  O  O16  1  0.741053  0.096826  0.711084  1
  O  O17  1  0.741053  0.903174  0.288916  1
  O  O18  1  0.258947  0.596826  0.788916  1
  O  O19  1  0.258947  0.403174  0.211084  1
  O  O20  1  0.500000  0.331823  0.926664  1
  O  O21  1  0.500000  0.668177  0.073336  1
  O  O22  1  0.500000  0.831823  0.573336  1
  O  O23  1  0.500000  0.168177  0.426664  1
  O  O24  1  0.282279  0.000000  0.000000  1
  O  O25  1  0.717721  0.500000  0.500000  1
  O  O26  1  0.717721  0.000000  0.000000  1
  O  O27  1  0.282279  0.500000  0.500000  1
  O  O28  1  0.000000  0.158897  0.448224  1
  O  O29  1  0.000000  0.841103  0.551776  1
  O  O30  1  0.000000  0.658897  0.051776  1
  O  O31  1  0.000000  0.341103  0.948224  1
