# generated using pymatgen
data_Ca2La6SiPd24
_symmetry_space_group_name_H-M   'P 1'
_cell_length_a   8.49823764
_cell_length_b   8.49823764
_cell_length_c   8.49823764
_cell_angle_alpha   90.03137333
_cell_angle_beta   90.03137333
_cell_angle_gamma   90.03137333
_symmetry_Int_Tables_number   1
_chemical_formula_structural   Ca2La6SiPd24
_chemical_formula_sum   'Ca2 La6 Si1 Pd24'
_cell_volume   613.74281093
_cell_formula_units_Z   1
loop_
 _symmetry_equiv_pos_site_id
 _symmetry_equiv_pos_as_xyz
  1  'x, y, z'
loop_
 _atom_site_type_symbol
 _atom_site_label
 _atom_site_symmetry_multiplicity
 _atom_site_fract_x
 _atom_site_fract_y
 _atom_site_fract_z
 _atom_site_occupancy
  Ca  Ca0  1  0.252617  0.252617  0.252617  1
  Ca  Ca1  1  0.747383  0.747383  0.747383  1
  La  La2  1  0.746434  0.746434  0.253535  1
  La  La3  1  0.746434  0.253535  0.746434  1
  La  La4  1  0.253566  0.253566  0.746465  1
  La  La5  1  0.253566  0.746465  0.253566  1
  La  La6  1  0.253535  0.746434  0.746434  1
  La  La7  1  0.746465  0.253566  0.253566  1
  Si  Si8  1  0.000000  0.000000  0.000000  1
  Pd  Pd9  1  0.258293  0.499362  0.000697  1
  Pd  Pd10  1  0.741707  0.500638  0.999303  1
  Pd  Pd11  1  0.000697  0.258293  0.499362  1
  Pd  Pd12  1  0.499362  0.258293  0.000697  1
  Pd  Pd13  1  0.999303  0.741707  0.500638  1
  Pd  Pd14  1  0.500638  0.741707  0.999303  1
  Pd  Pd15  1  0.499362  0.000697  0.258293  1
  Pd  Pd16  1  0.258293  0.000697  0.499362  1
  Pd  Pd17  1  0.500638  0.999303  0.741707  1
  Pd  Pd18  1  0.741707  0.999303  0.500638  1
  Pd  Pd19  1  0.000697  0.499362  0.258293  1
  Pd  Pd20  1  0.999303  0.500638  0.741707  1
  Pd  Pd21  1  0.252866  0.499198  0.499198  1
  Pd  Pd22  1  0.747134  0.500802  0.500802  1
  Pd  Pd23  1  0.499198  0.252866  0.499198  1
  Pd  Pd24  1  0.500802  0.747134  0.500802  1
  Pd  Pd25  1  0.499198  0.499198  0.252866  1
  Pd  Pd26  1  0.500802  0.500802  0.747134  1
  Pd  Pd27  1  0.282313  0.000988  0.000988  1
  Pd  Pd28  1  0.717687  0.999012  0.999012  1
  Pd  Pd29  1  0.000988  0.282313  0.000988  1
  Pd  Pd30  1  0.999012  0.717687  0.999012  1
  Pd  Pd31  1  0.000988  0.000988  0.282313  1
  Pd  Pd32  1  0.999012  0.999012  0.717687  1
