# generated using pymatgen
data_CaY3HoZn5
_symmetry_space_group_name_H-M   'P 1'
_cell_length_a   3.61536800
_cell_length_b   3.61536800
_cell_length_c   17.75368000
_cell_angle_alpha   90.00000000
_cell_angle_beta   90.00000000
_cell_angle_gamma   90.00000000
_symmetry_Int_Tables_number   1
_chemical_formula_structural   CaY3HoZn5
_chemical_formula_sum   'Ca1 Y3 Ho1 Zn5'
_cell_volume   232.05632337
_cell_formula_units_Z   1
loop_
 _symmetry_equiv_pos_site_id
 _symmetry_equiv_pos_as_xyz
  1  'x, y, z'
loop_
 _atom_site_type_symbol
 _atom_site_label
 _atom_site_symmetry_multiplicity
 _atom_site_fract_x
 _atom_site_fract_y
 _atom_site_fract_z
 _atom_site_occupancy
  Ca  Ca0  1  0.000000  0.000000  0.000137  1
  Y  Y1  1  0.000000  0.000000  0.399762  1
  Y  Y2  1  0.000000  0.000000  0.599922  1
  Y  Y3  1  0.000000  0.000000  0.798926  1
  Ho  Ho4  1  0.000000  0.000000  0.201159  1
  Zn  Zn5  1  0.500000  0.500000  0.107148  1
  Zn  Zn6  1  0.500000  0.500000  0.300727  1
  Zn  Zn7  1  0.500000  0.500000  0.500072  1
  Zn  Zn8  1  0.500000  0.500000  0.698645  1
  Zn  Zn9  1  0.500000  0.500000  0.893501  1
