# generated using pymatgen
data_Pr10IrOsI15
_symmetry_space_group_name_H-M   'P 1'
_cell_length_a   10.14164128
_cell_length_b   11.05641960
_cell_length_c   11.95238868
_cell_angle_alpha   92.51590581
_cell_angle_beta   114.04505906
_cell_angle_gamma   110.40078318
_symmetry_Int_Tables_number   1
_chemical_formula_structural   Pr10IrOsI15
_chemical_formula_sum   'Pr10 Ir1 Os1 I15'
_cell_volume   1119.76724591
_cell_formula_units_Z   1
loop_
 _symmetry_equiv_pos_site_id
 _symmetry_equiv_pos_as_xyz
  1  'x, y, z'
loop_
 _atom_site_type_symbol
 _atom_site_label
 _atom_site_symmetry_multiplicity
 _atom_site_fract_x
 _atom_site_fract_y
 _atom_site_fract_z
 _atom_site_occupancy
  Pr  Pr0  1  0.221504  0.574202  0.047401  1
  Pr  Pr1  1  0.777217  0.422976  0.950140  1
  Pr  Pr2  1  0.296831  0.900280  0.272603  1
  Pr  Pr3  1  0.707904  0.102219  0.729650  1
  Pr  Pr4  1  0.088382  0.544812  0.330865  1
  Pr  Pr5  1  0.910819  0.454883  0.667206  1
  Pr  Pr6  1  0.831705  0.750187  0.177244  1
  Pr  Pr7  1  0.164716  0.250703  0.823434  1
  Pr  Pr8  1  0.973747  0.792476  0.901348  1
  Pr  Pr9  1  0.026119  0.205980  0.098995  1
  Ir  Ir10  1  0.032206  0.672485  0.118883  1
  Os  Os11  1  0.967928  0.329099  0.882026  1
  I  I12  1  0.340564  0.444025  0.302243  1
  I  I13  1  0.659246  0.556102  0.697761  1
  I  I14  1  0.212237  0.739091  0.816225  1
  I  I15  1  0.787847  0.261380  0.183494  1
  I  I16  1  0.142978  0.385764  0.584488  1
  I  I17  1  0.856539  0.614977  0.414303  1
  I  I18  1  0.387545  0.800641  0.529888  1
  I  I19  1  0.610899  0.198282  0.469058  1
  I  I20  1  0.263531  0.087758  0.055167  1
  I  I21  1  0.736364  0.911464  0.944934  1
  I  I22  1  0.564833  0.845224  0.227864  1
  I  I23  1  0.438151  0.155937  0.773104  1
  I  I24  1  0.093471  0.037331  0.339001  1
  I  I25  1  0.907706  0.961366  0.662509  1
  I  I26  1  0.499013  0.500356  0.000167  1
