# generated using pymatgen
data_Tb3TaB4(Ru5W)2
_symmetry_space_group_name_H-M   'P 1'
_cell_length_a   9.59668598
_cell_length_b   9.59668631
_cell_length_c   3.09353700
_cell_angle_alpha   90.00000000
_cell_angle_beta   90.00000000
_cell_angle_gamma   90.30996629
_symmetry_Int_Tables_number   1
_chemical_formula_structural   Tb3TaB4(Ru5W)2
_chemical_formula_sum   'Tb3 Ta1 B4 Ru10 W2'
_cell_volume   284.89940521
_cell_formula_units_Z   1
loop_
 _symmetry_equiv_pos_site_id
 _symmetry_equiv_pos_as_xyz
  1  'x, y, z'
loop_
 _atom_site_type_symbol
 _atom_site_label
 _atom_site_symmetry_multiplicity
 _atom_site_fract_x
 _atom_site_fract_y
 _atom_site_fract_z
 _atom_site_occupancy
  Tb  Tb0  1  0.823935  0.675177  0.000000  1
  Tb  Tb1  1  0.175177  0.323935  0.000000  1
  Tb  Tb2  1  0.325418  0.825418  0.000000  1
  Ta  Ta3  1  0.676282  0.176282  0.000000  1
  B  B4  1  0.622893  0.882056  0.000000  1
  B  B5  1  0.382056  0.122893  0.000000  1
  B  B6  1  0.118086  0.618086  0.000000  1
  B  B7  1  0.876236  0.376236  0.000000  1
  Ru  Ru8  1  0.570032  0.719774  0.500000  1
  Ru  Ru9  1  0.441337  0.282555  0.500000  1
  Ru  Ru10  1  0.067981  0.782859  0.500000  1
  Ru  Ru11  1  0.916624  0.211414  0.500000  1
  Ru  Ru12  1  0.282859  0.567981  0.500000  1
  Ru  Ru13  1  0.711414  0.416624  0.500000  1
  Ru  Ru14  1  0.219774  0.070032  0.500000  1
  Ru  Ru15  1  0.782555  0.941337  0.500000  1
  Ru  Ru16  1  0.510524  0.010524  0.500000  1
  Ru  Ru17  1  0.995914  0.495914  0.500000  1
  W  W18  1  0.498065  0.502841  0.000000  1
  W  W19  1  0.002841  0.998065  0.000000  1
