# generated using pymatgen
data_Dy2Co3Si5P2Ru9
_symmetry_space_group_name_H-M   'P 1'
_cell_length_a   9.45336151
_cell_length_b   9.44958127
_cell_length_c   3.83364200
_cell_angle_alpha   90.00000000
_cell_angle_beta   90.00000000
_cell_angle_gamma   120.20710586
_symmetry_Int_Tables_number   1
_chemical_formula_structural   Dy2Co3Si5P2Ru9
_chemical_formula_sum   'Dy2 Co3 Si5 P2 Ru9'
_cell_volume   295.95854517
_cell_formula_units_Z   1
loop_
 _symmetry_equiv_pos_site_id
 _symmetry_equiv_pos_as_xyz
  1  'x, y, z'
loop_
 _atom_site_type_symbol
 _atom_site_label
 _atom_site_symmetry_multiplicity
 _atom_site_fract_x
 _atom_site_fract_y
 _atom_site_fract_z
 _atom_site_occupancy
  Dy  Dy0  1  0.333230  0.666334  0.000000  1
  Dy  Dy1  1  0.669195  0.336467  0.500000  1
  Co  Co2  1  0.150916  0.879007  0.000000  1
  Co  Co3  1  0.121673  0.270401  0.000000  1
  Co  Co4  1  0.725539  0.849166  0.000000  1
  Si  Si5  1  0.403132  0.108506  0.000000  1
  Si  Si6  1  0.894156  0.294080  0.000000  1
  Si  Si7  1  0.705343  0.599079  0.000000  1
  Si  Si8  1  0.107936  0.716033  0.500000  1
  Si  Si9  1  0.999190  0.997844  0.000000  1
  P  P10  1  0.284869  0.391437  0.500000  1
  P  P11  1  0.606870  0.892660  0.500000  1
  Ru  Ru12  1  0.424361  0.370459  0.000000  1
  Ru  Ru13  1  0.631673  0.055880  0.000000  1
  Ru  Ru14  1  0.943506  0.573071  0.000000  1
  Ru  Ru15  1  0.383134  0.943867  0.500000  1
  Ru  Ru16  1  0.061070  0.435303  0.500000  1
  Ru  Ru17  1  0.558203  0.621934  0.500000  1
  Ru  Ru18  1  0.207353  0.111960  0.500000  1
  Ru  Ru19  1  0.887440  0.092116  0.500000  1
  Ru  Ru20  1  0.901210  0.794395  0.500000  1
