# generated using pymatgen
data_HoTmNiOs3
_symmetry_space_group_name_H-M   'P 1'
_cell_length_a   5.23948465
_cell_length_b   5.23948508
_cell_length_c   5.29641416
_cell_angle_alpha   60.35493402
_cell_angle_beta   60.35493096
_cell_angle_gamma   60.00000542
_symmetry_Int_Tables_number   1
_chemical_formula_structural   HoTmNiOs3
_chemical_formula_sum   'Ho1 Tm1 Ni1 Os3'
_cell_volume   103.36019696
_cell_formula_units_Z   1
loop_
 _symmetry_equiv_pos_site_id
 _symmetry_equiv_pos_as_xyz
  1  'x, y, z'
loop_
 _atom_site_type_symbol
 _atom_site_label
 _atom_site_symmetry_multiplicity
 _atom_site_fract_x
 _atom_site_fract_y
 _atom_site_fract_z
 _atom_site_occupancy
  Ho  Ho0  1  0.998603  0.998603  0.004192  1
  Tm  Tm1  1  0.752334  0.752334  0.742997  1
  Ni  Ni2  1  0.374404  0.374404  0.876789  1
  Os  Os3  1  0.374941  0.874778  0.375340  1
  Os  Os4  1  0.374941  0.374941  0.375340  1
  Os  Os5  1  0.874778  0.374941  0.375340  1
