# generated using pymatgen
data_TbGd3Tm(SiB4)2
_symmetry_space_group_name_H-M   'P 1'
_cell_length_a   7.25572190
_cell_length_b   7.24459290
_cell_length_c   8.13403200
_cell_angle_alpha   90.00000000
_cell_angle_beta   90.00000000
_cell_angle_gamma   89.94294250
_symmetry_Int_Tables_number   1
_chemical_formula_structural   TbGd3Tm(SiB4)2
_chemical_formula_sum   'Tb2 Gd6 Tm2 Si4 B16'
_cell_volume   427.56315749
_cell_formula_units_Z   2
loop_
 _symmetry_equiv_pos_site_id
 _symmetry_equiv_pos_as_xyz
  1  'x, y, z'
loop_
 _atom_site_type_symbol
 _atom_site_label
 _atom_site_symmetry_multiplicity
 _atom_site_fract_x
 _atom_site_fract_y
 _atom_site_fract_z
 _atom_site_occupancy
  Tb  Tb0  1  0.180255  0.319721  0.775406  1
  Tb  Tb1  1  0.180255  0.319721  0.224594  1
  Gd  Gd2  1  0.680449  0.180583  0.226764  1
  Gd  Gd3  1  0.319437  0.819432  0.773198  1
  Gd  Gd4  1  0.319437  0.819432  0.226802  1
  Gd  Gd5  1  0.819559  0.680502  0.226435  1
  Gd  Gd6  1  0.819559  0.680502  0.773565  1
  Gd  Gd7  1  0.680449  0.180583  0.773236  1
  Tm  Tm8  1  0.000241  0.000163  0.500000  1
  Tm  Tm9  1  0.499868  0.499721  0.500000  1
  Si  Si10  1  0.115649  0.614537  0.500000  1
  Si  Si11  1  0.885572  0.384128  0.500000  1
  Si  Si12  1  0.383989  0.115896  0.500000  1
  Si  Si13  1  0.614939  0.885245  0.500000  1
  B  B14  1  0.172626  0.039257  0.000000  1
  B  B15  1  0.827585  0.961078  0.000000  1
  B  B16  1  0.960888  0.172388  0.000000  1
  B  B17  1  0.327592  0.539101  0.000000  1
  B  B18  1  0.039353  0.827771  0.000000  1
  B  B19  1  0.672302  0.460660  0.000000  1
  B  B20  1  0.538934  0.672435  0.000000  1
  B  B21  1  0.460728  0.327386  0.000000  1
  B  B22  1  0.089948  0.589854  0.000000  1
  B  B23  1  0.910190  0.410052  0.000000  1
  B  B24  1  0.410081  0.089956  0.000000  1
  B  B25  1  0.589797  0.910169  0.000000  1
  B  B26  1  0.000153  0.000010  0.160867  1
  B  B27  1  0.000153  0.000010  0.839133  1
  B  B28  1  0.500007  0.499854  0.839080  1
  B  B29  1  0.500007  0.499854  0.160920  1
