# generated using pymatgen
data_Li3Sm2DyPt3
_symmetry_space_group_name_H-M   'P 1'
_cell_length_a   7.22047366
_cell_length_b   7.23730184
_cell_length_c   4.06299700
_cell_angle_alpha   90.00000000
_cell_angle_beta   90.00000000
_cell_angle_gamma   120.07710586
_symmetry_Int_Tables_number   1
_chemical_formula_structural   Li3Sm2DyPt3
_chemical_formula_sum   'Li3 Sm2 Dy1 Pt3'
_cell_volume   183.73062341
_cell_formula_units_Z   1
loop_
 _symmetry_equiv_pos_site_id
 _symmetry_equiv_pos_as_xyz
  1  'x, y, z'
loop_
 _atom_site_type_symbol
 _atom_site_label
 _atom_site_symmetry_multiplicity
 _atom_site_fract_x
 _atom_site_fract_y
 _atom_site_fract_z
 _atom_site_occupancy
  Li  Li0  1  0.769542  0.767520  0.500000  1
  Li  Li1  1  0.230458  0.997978  0.500000  1
  Li  Li2  1  0.000000  0.232092  0.500000  1
  Sm  Sm3  1  0.411210  0.410461  0.000000  1
  Sm  Sm4  1  0.588790  0.999251  0.000000  1
  Dy  Dy5  1  0.000000  0.593905  0.000000  1
  Pt  Pt6  1  0.000000  0.995375  0.000000  1
  Pt  Pt7  1  0.674237  0.338826  0.500000  1
  Pt  Pt8  1  0.325763  0.664590  0.500000  1
