# generated using pymatgen
data_Hf7Ta5Al8(PdC)4
_symmetry_space_group_name_H-M   'P 1'
_cell_length_a   8.50165502
_cell_length_b   8.48834157
_cell_length_c   8.51953783
_cell_angle_alpha   59.95272257
_cell_angle_beta   59.91423472
_cell_angle_gamma   59.97690428
_symmetry_Int_Tables_number   1
_chemical_formula_structural   Hf7Ta5Al8(PdC)4
_chemical_formula_sum   'Hf7 Ta5 Al8 Pd4 C4'
_cell_volume   434.22433033
_cell_formula_units_Z   1
loop_
 _symmetry_equiv_pos_site_id
 _symmetry_equiv_pos_as_xyz
  1  'x, y, z'
loop_
 _atom_site_type_symbol
 _atom_site_label
 _atom_site_symmetry_multiplicity
 _atom_site_fract_x
 _atom_site_fract_y
 _atom_site_fract_z
 _atom_site_occupancy
  Hf  Hf0  1  0.565510  0.935781  0.562201  1
  Hf  Hf1  1  0.310502  0.687020  0.690131  1
  Hf  Hf2  1  0.692691  0.311555  0.311710  1
  Hf  Hf3  1  0.307978  0.692992  0.308863  1
  Hf  Hf4  1  0.693856  0.687725  0.308847  1
  Hf  Hf5  1  0.309854  0.310558  0.692643  1
  Hf  Hf6  1  0.564561  0.559066  0.937440  1
  Ta  Ta7  1  0.931967  0.565984  0.568529  1
  Ta  Ta8  1  0.572659  0.933347  0.931983  1
  Ta  Ta9  1  0.929212  0.930653  0.573299  1
  Ta  Ta10  1  0.688210  0.312955  0.684780  1
  Ta  Ta11  1  0.927651  0.574305  0.927788  1
  Al  Al12  1  0.916452  0.918758  0.915670  1
  Al  Al13  1  0.003966  0.330510  0.335343  1
  Al  Al14  1  0.331069  0.005488  0.330499  1
  Al  Al15  1  0.334319  0.329059  0.003970  1
  Al  Al16  1  0.918959  0.248904  0.915068  1
  Al  Al17  1  0.919928  0.915866  0.249238  1
  Al  Al18  1  0.248204  0.918522  0.918903  1
  Al  Al19  1  0.329459  0.332082  0.332776  1
  Pd  Pd20  1  0.124100  0.126453  0.125177  1
  Pd  Pd21  1  0.628407  0.124057  0.122253  1
  Pd  Pd22  1  0.123729  0.625436  0.124499  1
  Pd  Pd23  1  0.121974  0.124971  0.627177  1
  C  C24  1  0.629450  0.620859  0.625534  1
  C  C25  1  0.121720  0.626022  0.624747  1
  C  C26  1  0.627562  0.123157  0.628850  1
  C  C27  1  0.626053  0.627917  0.122083  1
