# generated using pymatgen
data_Tb2Nd2AsBr6
_symmetry_space_group_name_H-M   'P 1'
_cell_length_a   4.13599300
_cell_length_b   13.55836200
_cell_length_c   14.25449700
_cell_angle_alpha   90.00000000
_cell_angle_beta   90.00000000
_cell_angle_gamma   90.00000000
_symmetry_Int_Tables_number   1
_chemical_formula_structural   Tb2Nd2AsBr6
_chemical_formula_sum   'Tb4 Nd4 As2 Br12'
_cell_volume   799.35356668
_cell_formula_units_Z   2
loop_
 _symmetry_equiv_pos_site_id
 _symmetry_equiv_pos_as_xyz
  1  'x, y, z'
loop_
 _atom_site_type_symbol
 _atom_site_label
 _atom_site_symmetry_multiplicity
 _atom_site_fract_x
 _atom_site_fract_y
 _atom_site_fract_z
 _atom_site_occupancy
  Tb  Tb0  1  0.500000  0.117998  0.341625  1
  Tb  Tb1  1  0.500000  0.882002  0.658375  1
  Tb  Tb2  1  0.500000  0.617998  0.158375  1
  Tb  Tb3  1  0.500000  0.382002  0.841625  1
  Nd  Nd4  1  0.000000  0.120165  0.580417  1
  Nd  Nd5  1  0.000000  0.879835  0.419583  1
  Nd  Nd6  1  0.000000  0.620165  0.919583  1
  Nd  Nd7  1  0.000000  0.379835  0.080417  1
  As  As8  1  0.500000  0.000000  0.500000  1
  As  As9  1  0.500000  0.500000  0.000000  1
  Br  Br10  1  0.500000  0.237624  0.167457  1
  Br  Br11  1  0.500000  0.762376  0.832543  1
  Br  Br12  1  0.500000  0.737624  0.332543  1
  Br  Br13  1  0.500000  0.262376  0.667457  1
  Br  Br14  1  0.000000  0.252266  0.407020  1
  Br  Br15  1  0.000000  0.747734  0.592980  1
  Br  Br16  1  0.000000  0.752266  0.092980  1
  Br  Br17  1  0.000000  0.247734  0.907020  1
  Br  Br18  1  0.000000  0.007003  0.243762  1
  Br  Br19  1  0.000000  0.992997  0.756238  1
  Br  Br20  1  0.000000  0.507003  0.256238  1
  Br  Br21  1  0.000000  0.492997  0.743762  1
