# generated using pymatgen
data_NdEu3(PPt3)8
_symmetry_space_group_name_H-M   'P 1'
_cell_length_a   8.61515501
_cell_length_b   8.61515501
_cell_length_c   8.61515501
_cell_angle_alpha   89.99527799
_cell_angle_beta   89.99527799
_cell_angle_gamma   89.99527799
_symmetry_Int_Tables_number   1
_chemical_formula_structural   NdEu3(PPt3)8
_chemical_formula_sum   'Nd1 Eu3 P8 Pt24'
_cell_volume   639.42451721
_cell_formula_units_Z   1
loop_
 _symmetry_equiv_pos_site_id
 _symmetry_equiv_pos_as_xyz
  1  'x, y, z'
loop_
 _atom_site_type_symbol
 _atom_site_label
 _atom_site_symmetry_multiplicity
 _atom_site_fract_x
 _atom_site_fract_y
 _atom_site_fract_z
 _atom_site_occupancy
  Nd  Nd0  1  0.000000  0.000000  0.000000  1
  Eu  Eu1  1  0.500000  0.500000  0.000000  1
  Eu  Eu2  1  0.500000  0.000000  0.500000  1
  Eu  Eu3  1  0.000000  0.500000  0.500000  1
  P  P4  1  0.805590  0.305821  0.196404  1
  P  P5  1  0.196404  0.805590  0.305821  1
  P  P6  1  0.694858  0.694858  0.694858  1
  P  P7  1  0.305821  0.196404  0.805590  1
  P  P8  1  0.194410  0.694179  0.803596  1
  P  P9  1  0.803596  0.194410  0.694179  1
  P  P10  1  0.305142  0.305142  0.305142  1
  P  P11  1  0.694179  0.803596  0.194410  1
  Pt  Pt12  1  0.424279  0.842092  0.157371  1
  Pt  Pt13  1  0.576407  0.340975  0.343105  1
  Pt  Pt14  1  0.076932  0.156196  0.660844  1
  Pt  Pt15  1  0.922736  0.659421  0.844453  1
  Pt  Pt16  1  0.157371  0.424279  0.842092  1
  Pt  Pt17  1  0.343105  0.576407  0.340975  1
  Pt  Pt18  1  0.660844  0.076932  0.156196  1
  Pt  Pt19  1  0.844453  0.922736  0.659421  1
  Pt  Pt20  1  0.842092  0.157371  0.424279  1
  Pt  Pt21  1  0.340975  0.343105  0.576407  1
  Pt  Pt22  1  0.156196  0.660844  0.076932  1
  Pt  Pt23  1  0.659421  0.844453  0.922736  1
  Pt  Pt24  1  0.575721  0.157908  0.842629  1
  Pt  Pt25  1  0.423593  0.659025  0.656895  1
  Pt  Pt26  1  0.923068  0.843804  0.339156  1
  Pt  Pt27  1  0.077264  0.340579  0.155547  1
  Pt  Pt28  1  0.842629  0.575721  0.157908  1
  Pt  Pt29  1  0.656895  0.423593  0.659025  1
  Pt  Pt30  1  0.339156  0.923068  0.843804  1
  Pt  Pt31  1  0.155547  0.077264  0.340579  1
  Pt  Pt32  1  0.157908  0.842629  0.575721  1
  Pt  Pt33  1  0.659025  0.656895  0.423593  1
  Pt  Pt34  1  0.843804  0.339156  0.923068  1
  Pt  Pt35  1  0.340579  0.155547  0.077264  1
