# generated using pymatgen
data_Li3TbPr2CdSn4
_symmetry_space_group_name_H-M   'P 1'
_cell_length_a   8.89323735
_cell_length_b   8.83075669
_cell_length_c   8.83075540
_cell_angle_alpha   148.78922680
_cell_angle_beta   131.75838803
_cell_angle_gamma   58.51505721
_symmetry_Int_Tables_number   1
_chemical_formula_structural   Li3TbPr2CdSn4
_chemical_formula_sum   'Li3 Tb1 Pr2 Cd1 Sn4'
_cell_volume   266.05951489
_cell_formula_units_Z   1
loop_
 _symmetry_equiv_pos_site_id
 _symmetry_equiv_pos_as_xyz
  1  'x, y, z'
loop_
 _atom_site_type_symbol
 _atom_site_label
 _atom_site_symmetry_multiplicity
 _atom_site_fract_x
 _atom_site_fract_y
 _atom_site_fract_z
 _atom_site_occupancy
  Li  Li0  1  0.483590  0.672600  0.810991  1
  Li  Li1  1  0.856199  0.671876  0.184322  1
  Li  Li2  1  0.137069  0.329660  0.807407  1
  Tb  Tb3  1  0.497134  0.998499  0.498636  1
  Pr  Pr4  1  0.881824  0.872342  0.009481  1
  Pr  Pr5  1  0.128316  0.126713  0.001604  1
  Cd  Cd6  1  0.520659  0.327340  0.193317  1
  Sn  Sn7  1  0.265537  0.786200  0.479336  1
  Sn  Sn8  1  0.719010  0.208968  0.510041  1
  Sn  Sn9  1  0.805778  0.505028  0.300748  1
  Sn  Sn10  1  0.204887  0.500773  0.704114  1
