# generated using pymatgen
data_CeDy11(TcPd)2
_symmetry_space_group_name_H-M   'P 1'
_cell_length_a   6.34214400
_cell_length_b   7.27690309
_cell_length_c   9.37880000
_cell_angle_alpha   90.00000000
_cell_angle_beta   90.00000000
_cell_angle_gamma   91.40220849
_symmetry_Int_Tables_number   1
_chemical_formula_structural   CeDy11(TcPd)2
_chemical_formula_sum   'Ce1 Dy11 Tc2 Pd2'
_cell_volume   432.71295162
_cell_formula_units_Z   1
loop_
 _symmetry_equiv_pos_site_id
 _symmetry_equiv_pos_as_xyz
  1  'x, y, z'
loop_
 _atom_site_type_symbol
 _atom_site_label
 _atom_site_symmetry_multiplicity
 _atom_site_fract_x
 _atom_site_fract_y
 _atom_site_fract_z
 _atom_site_occupancy
  Ce  Ce0  1  0.854155  0.557793  0.250000  1
  Dy  Dy1  1  0.324286  0.674976  0.066624  1
  Dy  Dy2  1  0.172524  0.181689  0.431796  1
  Dy  Dy3  1  0.665129  0.319270  0.556349  1
  Dy  Dy4  1  0.835500  0.822750  0.942065  1
  Dy  Dy5  1  0.665129  0.319270  0.943651  1
  Dy  Dy6  1  0.835500  0.822750  0.557935  1
  Dy  Dy7  1  0.324286  0.674976  0.433376  1
  Dy  Dy8  1  0.172524  0.181689  0.068204  1
  Dy  Dy9  1  0.622021  0.032542  0.250000  1
  Dy  Dy10  1  0.135817  0.464512  0.750000  1
  Dy  Dy11  1  0.368593  0.968360  0.750000  1
  Tc  Tc12  1  0.024014  0.863413  0.250000  1
  Tc  Tc13  1  0.502824  0.389494  0.250000  1
  Pd  Pd14  1  0.941196  0.113130  0.750000  1
  Pd  Pd15  1  0.556501  0.613383  0.750000  1
