# generated using pymatgen
data_DyAgIr2O7
_symmetry_space_group_name_H-M   'P 1'
_cell_length_a   7.22956575
_cell_length_b   7.16245192
_cell_length_c   7.22956519
_cell_angle_alpha   60.30660595
_cell_angle_beta   61.31577384
_cell_angle_gamma   60.30661388
_symmetry_Int_Tables_number   1
_chemical_formula_structural   DyAgIr2O7
_chemical_formula_sum   'Dy2 Ag2 Ir4 O14'
_cell_volume   268.49869663
_cell_formula_units_Z   2
loop_
 _symmetry_equiv_pos_site_id
 _symmetry_equiv_pos_as_xyz
  1  'x, y, z'
loop_
 _atom_site_type_symbol
 _atom_site_label
 _atom_site_symmetry_multiplicity
 _atom_site_fract_x
 _atom_site_fract_y
 _atom_site_fract_z
 _atom_site_occupancy
  Dy  Dy0  1  0.625000  0.125000  0.125000  1
  Dy  Dy1  1  0.125000  0.125000  0.625000  1
  Ag  Ag2  1  0.125000  0.625000  0.125000  1
  Ag  Ag3  1  0.125000  0.125000  0.125000  1
  Ir  Ir4  1  0.125000  0.625000  0.625000  1
  Ir  Ir5  1  0.625000  0.125000  0.625000  1
  Ir  Ir6  1  0.625000  0.625000  0.125000  1
  Ir  Ir7  1  0.625000  0.625000  0.625000  1
  O  O8  1  0.694227  0.712895  0.299015  1
  O  O9  1  0.299015  0.293863  0.694227  1
  O  O10  1  0.712760  0.287240  0.712760  1
  O  O11  1  0.307582  0.692418  0.307582  1
  O  O12  1  0.299015  0.712895  0.694227  1
  O  O13  1  0.694227  0.293863  0.299015  1
  O  O14  1  0.555773  0.537105  0.950985  1
  O  O15  1  0.950985  0.956137  0.555773  1
  O  O16  1  0.537240  0.962760  0.537240  1
  O  O17  1  0.942418  0.557582  0.942418  1
  O  O18  1  0.950985  0.537105  0.555773  1
  O  O19  1  0.555773  0.956137  0.950985  1
  O  O20  1  0.245108  0.254892  0.245108  1
  O  O21  1  0.004892  0.995108  0.004892  1
