# generated using pymatgen
data_La3NdAl17GaIr6
_symmetry_space_group_name_H-M   'P 1'
_cell_length_a   7.64859636
_cell_length_b   7.64319816
_cell_length_c   9.67649800
_cell_angle_alpha   90.00000000
_cell_angle_beta   90.00000000
_cell_angle_gamma   119.25557183
_symmetry_Int_Tables_number   1
_chemical_formula_structural   La3NdAl17GaIr6
_chemical_formula_sum   'La3 Nd1 Al17 Ga1 Ir6'
_cell_volume   493.53148799
_cell_formula_units_Z   1
loop_
 _symmetry_equiv_pos_site_id
 _symmetry_equiv_pos_as_xyz
  1  'x, y, z'
loop_
 _atom_site_type_symbol
 _atom_site_label
 _atom_site_symmetry_multiplicity
 _atom_site_fract_x
 _atom_site_fract_y
 _atom_site_fract_z
 _atom_site_occupancy
  La  La0  1  0.994619  0.673792  0.250000  1
  La  La1  1  0.672551  0.994124  0.250000  1
  La  La2  1  0.328991  0.004230  0.750000  1
  Nd  Nd3  1  0.004163  0.328671  0.750000  1
  Al  Al4  1  0.867431  0.868805  0.750000  1
  Al  Al5  1  0.003806  0.336222  0.070124  1
  Al  Al6  1  0.996140  0.662579  0.926583  1
  Al  Al7  1  0.996140  0.662579  0.573417  1
  Al  Al8  1  0.336471  0.004490  0.428144  1
  Al  Al9  1  0.003806  0.336222  0.429876  1
  Al  Al10  1  0.665711  0.997632  0.573478  1
  Al  Al11  1  0.665711  0.997632  0.926522  1
  Al  Al12  1  0.336471  0.004490  0.071856  1
  Al  Al13  1  0.333350  0.334469  0.547531  1
  Al  Al14  1  0.664415  0.664399  0.457698  1
  Al  Al15  1  0.664415  0.664399  0.042302  1
  Al  Al16  1  0.333350  0.334469  0.952469  1
  Al  Al17  1  0.337982  0.544430  0.250000  1
  Al  Al18  1  0.662718  0.454935  0.750000  1
  Al  Al19  1  0.545111  0.338515  0.250000  1
  Al  Al20  1  0.452754  0.658632  0.750000  1
  Ga  Ga21  1  0.137044  0.137394  0.250000  1
  Ir  Ir22  1  0.670301  0.329103  0.999913  1
  Ir  Ir23  1  0.328888  0.669988  0.000044  1
  Ir  Ir24  1  0.328888  0.669988  0.499956  1
  Ir  Ir25  1  0.670301  0.329103  0.500087  1
  Ir  Ir26  1  0.999236  0.999354  0.997331  1
  Ir  Ir27  1  0.999236  0.999354  0.502669  1
