# generated using pymatgen
data_Er12TlCo2Cu3
_symmetry_space_group_name_H-M   'P 1'
_cell_length_a   8.29526036
_cell_length_b   8.29526026
_cell_length_c   8.29526000
_cell_angle_alpha   110.19026759
_cell_angle_beta   111.95673082
_cell_angle_gamma   106.31720520
_symmetry_Int_Tables_number   1
_chemical_formula_structural   Er12TlCo2Cu3
_chemical_formula_sum   'Er12 Tl1 Co2 Cu3'
_cell_volume   438.30599224
_cell_formula_units_Z   1
loop_
 _symmetry_equiv_pos_site_id
 _symmetry_equiv_pos_as_xyz
  1  'x, y, z'
loop_
 _atom_site_type_symbol
 _atom_site_label
 _atom_site_symmetry_multiplicity
 _atom_site_fract_x
 _atom_site_fract_y
 _atom_site_fract_z
 _atom_site_occupancy
  Er  Er0  1  0.289356  0.180743  0.470100  1
  Er  Er1  1  0.710644  0.819257  0.529900  1
  Er  Er2  1  0.289356  0.819257  0.108612  1
  Er  Er3  1  0.710644  0.180743  0.891388  1
  Er  Er4  1  0.618849  0.311313  0.307537  1
  Er  Er5  1  0.381151  0.688687  0.692463  1
  Er  Er6  1  0.003776  0.311313  0.692463  1
  Er  Er7  1  0.996224  0.688687  0.307537  1
  Er  Er8  1  0.229203  0.421325  0.192121  1
  Er  Er9  1  0.770797  0.578675  0.807879  1
  Er  Er10  1  0.229203  0.037082  0.807879  1
  Er  Er11  1  0.770797  0.962918  0.192121  1
  Tl  Tl12  1  0.500000  0.500000  0.000000  1
  Co  Co13  1  0.385959  0.885959  0.500000  1
  Co  Co14  1  0.614041  0.114041  0.500000  1
  Cu  Cu15  1  0.000000  0.359556  0.359556  1
  Cu  Cu16  1  0.000000  0.640444  0.640444  1
  Cu  Cu17  1  0.000000  0.000000  0.000000  1
