# generated using pymatgen
data_TbPr2Th3(Al3Ru)8
_symmetry_space_group_name_H-M   'P 1'
_cell_length_a   8.92403100
_cell_length_b   8.93958563
_cell_length_c   9.62336300
_cell_angle_alpha   90.00000000
_cell_angle_beta   90.00000000
_cell_angle_gamma   119.94246254
_symmetry_Int_Tables_number   1
_chemical_formula_structural   TbPr2Th3(Al3Ru)8
_chemical_formula_sum   'Tb1 Pr2 Th3 Al24 Ru8'
_cell_volume   665.25395422
_cell_formula_units_Z   1
loop_
 _symmetry_equiv_pos_site_id
 _symmetry_equiv_pos_as_xyz
  1  'x, y, z'
loop_
 _atom_site_type_symbol
 _atom_site_label
 _atom_site_symmetry_multiplicity
 _atom_site_fract_x
 _atom_site_fract_y
 _atom_site_fract_z
 _atom_site_occupancy
  Tb  Tb0  1  0.192332  0.384665  0.750000  1
  Pr  Pr1  1  0.615600  0.808212  0.750000  1
  Pr  Pr2  1  0.192612  0.808212  0.750000  1
  Th  Th3  1  0.392531  0.196003  0.250000  1
  Th  Th4  1  0.803473  0.196003  0.250000  1
  Th  Th5  1  0.803832  0.607664  0.250000  1
  Al  Al6  1  0.435090  0.870180  0.250000  1
  Al  Al7  1  0.129311  0.564204  0.250000  1
  Al  Al8  1  0.434893  0.564204  0.250000  1
  Al  Al9  1  0.562007  0.124015  0.750000  1
  Al  Al10  1  0.879436  0.438256  0.750000  1
  Al  Al11  1  0.558819  0.438256  0.750000  1
  Al  Al12  1  0.162832  0.836787  0.423441  1
  Al  Al13  1  0.162758  0.325518  0.425523  1
  Al  Al14  1  0.673955  0.836787  0.423441  1
  Al  Al15  1  0.839890  0.163949  0.579703  1
  Al  Al16  1  0.837598  0.675196  0.579347  1
  Al  Al17  1  0.324060  0.163949  0.579703  1
  Al  Al18  1  0.839890  0.163949  0.920297  1
  Al  Al19  1  0.837598  0.675196  0.920653  1
  Al  Al20  1  0.324060  0.163949  0.920297  1
  Al  Al21  1  0.162832  0.836787  0.076559  1
  Al  Al22  1  0.162758  0.325518  0.074477  1
  Al  Al23  1  0.673955  0.836787  0.076559  1
  Al  Al24  1  0.332566  0.665132  0.512973  1
  Al  Al25  1  0.666451  0.332901  0.493989  1
  Al  Al26  1  0.666451  0.332901  0.006011  1
  Al  Al27  1  0.332566  0.665132  0.987027  1
  Al  Al28  1  0.999921  0.999841  0.250000  1
  Al  Al29  1  0.001766  0.003532  0.750000  1
  Ru  Ru30  1  0.000071  0.000143  0.501070  1
  Ru  Ru31  1  0.000071  0.000143  0.998930  1
  Ru  Ru32  1  0.500735  0.001470  0.495990  1
  Ru  Ru33  1  0.998364  0.498272  0.496374  1
  Ru  Ru34  1  0.499908  0.498272  0.496374  1
  Ru  Ru35  1  0.500735  0.001470  0.004010  1
  Ru  Ru36  1  0.998364  0.498272  0.003626  1
  Ru  Ru37  1  0.499908  0.498272  0.003626  1
