# generated using pymatgen
data_NdUBiN2
_symmetry_space_group_name_H-M   'P 1'
_cell_length_a   7.09361950
_cell_length_b   7.09361894
_cell_length_c   7.09361906
_cell_angle_alpha   147.49276070
_cell_angle_beta   147.49275437
_cell_angle_gamma   46.63472199
_symmetry_Int_Tables_number   1
_chemical_formula_structural   NdUBiN2
_chemical_formula_sum   'Nd1 U1 Bi1 N2'
_cell_volume   102.71515215
_cell_formula_units_Z   1
loop_
 _symmetry_equiv_pos_site_id
 _symmetry_equiv_pos_as_xyz
  1  'x, y, z'
loop_
 _atom_site_type_symbol
 _atom_site_label
 _atom_site_symmetry_multiplicity
 _atom_site_fract_x
 _atom_site_fract_y
 _atom_site_fract_z
 _atom_site_occupancy
  Nd  Nd0  1  0.341996  0.341996  0.000000  1
  U  U1  1  0.670037  0.670037  0.000000  1
  Bi  Bi2  1  0.012791  0.012791  0.000000  1
  N  N3  1  0.237588  0.737588  0.500000  1
  N  N4  1  0.737588  0.237588  0.500000  1
