# generated using pymatgen
data_TmHf6(ZrSn2)3
_symmetry_space_group_name_H-M   'P 1'
_cell_length_a   8.56144752
_cell_length_b   8.56144771
_cell_length_c   5.79460400
_cell_angle_alpha   90.00000000
_cell_angle_beta   90.00000000
_cell_angle_gamma   120.82415000
_symmetry_Int_Tables_number   1
_chemical_formula_structural   TmHf6(ZrSn2)3
_chemical_formula_sum   'Tm1 Hf6 Zr3 Sn6'
_cell_volume   364.73873144
_cell_formula_units_Z   1
loop_
 _symmetry_equiv_pos_site_id
 _symmetry_equiv_pos_as_xyz
  1  'x, y, z'
loop_
 _atom_site_type_symbol
 _atom_site_label
 _atom_site_symmetry_multiplicity
 _atom_site_fract_x
 _atom_site_fract_y
 _atom_site_fract_z
 _atom_site_occupancy
  Tm  Tm0  1  0.766960  0.766960  0.750000  1
  Hf  Hf1  1  0.250645  0.001806  0.750000  1
  Hf  Hf2  1  0.001806  0.250645  0.750000  1
  Hf  Hf3  1  0.665023  0.332981  0.000147  1
  Hf  Hf4  1  0.332981  0.665023  0.000147  1
  Hf  Hf5  1  0.332981  0.665023  0.499853  1
  Hf  Hf6  1  0.665023  0.332981  0.499853  1
  Zr  Zr7  1  0.236604  0.236604  0.250000  1
  Zr  Zr8  1  0.750978  0.000236  0.250000  1
  Zr  Zr9  1  0.000236  0.750978  0.250000  1
  Sn  Sn10  1  0.391842  0.391842  0.750000  1
  Sn  Sn11  1  0.605840  0.002675  0.750000  1
  Sn  Sn12  1  0.002675  0.605840  0.750000  1
  Sn  Sn13  1  0.605193  0.605193  0.250000  1
  Sn  Sn14  1  0.391932  0.999285  0.250000  1
  Sn  Sn15  1  0.999285  0.391932  0.250000  1
