# generated using pymatgen
data_YbNp3(ReB6)2
_symmetry_space_group_name_H-M   'P 1'
_cell_length_a   3.62368800
_cell_length_b   9.25653675
_cell_length_c   11.32920670
_cell_angle_alpha   89.96078485
_cell_angle_beta   90.00000000
_cell_angle_gamma   90.00000000
_symmetry_Int_Tables_number   1
_chemical_formula_structural   YbNp3(ReB6)2
_chemical_formula_sum   'Yb2 Np6 Re4 B24'
_cell_volume   380.01323817
_cell_formula_units_Z   2
loop_
 _symmetry_equiv_pos_site_id
 _symmetry_equiv_pos_as_xyz
  1  'x, y, z'
loop_
 _atom_site_type_symbol
 _atom_site_label
 _atom_site_symmetry_multiplicity
 _atom_site_fract_x
 _atom_site_fract_y
 _atom_site_fract_z
 _atom_site_occupancy
  Yb  Yb0  1  0.000000  0.338454  0.408477  1
  Yb  Yb1  1  0.000000  0.661546  0.591523  1
  Np  Np2  1  0.000000  0.837049  0.093441  1
  Np  Np3  1  0.000000  0.162951  0.906559  1
  Np  Np4  1  0.000000  0.958567  0.400605  1
  Np  Np5  1  0.000000  0.041433  0.599395  1
  Np  Np6  1  0.000000  0.459071  0.099750  1
  Np  Np7  1  0.000000  0.540929  0.900250  1
  Re  Re8  1  0.000000  0.649077  0.315918  1
  Re  Re9  1  0.000000  0.350923  0.684082  1
  Re  Re10  1  0.000000  0.143939  0.179479  1
  Re  Re11  1  0.000000  0.856061  0.820521  1
  B  B12  1  0.500000  0.552911  0.430816  1
  B  B13  1  0.500000  0.447089  0.569184  1
  B  B14  1  0.500000  0.051917  0.068218  1
  B  B15  1  0.500000  0.948083  0.931782  1
  B  B16  1  0.500000  0.744316  0.422660  1
  B  B17  1  0.500000  0.255684  0.577340  1
  B  B18  1  0.500000  0.243692  0.076915  1
  B  B19  1  0.500000  0.756308  0.923085  1
  B  B20  1  0.500000  0.805317  0.274110  1
  B  B21  1  0.500000  0.194683  0.725890  1
  B  B22  1  0.500000  0.304076  0.225429  1
  B  B23  1  0.500000  0.695924  0.774571  1
  B  B24  1  0.500000  0.645271  0.187964  1
  B  B25  1  0.500000  0.354729  0.812036  1
  B  B26  1  0.500000  0.144440  0.311873  1
  B  B27  1  0.500000  0.855560  0.688127  1
  B  B28  1  0.500000  0.988441  0.220397  1
  B  B29  1  0.500000  0.011559  0.779603  1
  B  B30  1  0.500000  0.489407  0.280121  1
  B  B31  1  0.500000  0.510593  0.719879  1
  B  B32  1  0.500000  0.641845  0.038934  1
  B  B33  1  0.500000  0.358155  0.961066  1
  B  B34  1  0.500000  0.137757  0.461699  1
  B  B35  1  0.500000  0.862243  0.538301  1
