# generated using pymatgen
data_DyBiI18
_symmetry_space_group_name_H-M   'P 1'
_cell_length_a   10.43594280
_cell_length_b   10.46902995
_cell_length_c   10.41620531
_cell_angle_alpha   88.54124033
_cell_angle_beta   88.66309007
_cell_angle_gamma   88.41785667
_symmetry_Int_Tables_number   1
_chemical_formula_structural   DyBiI18
_chemical_formula_sum   'Dy1 Bi1 I18'
_cell_volume   1136.92002439
_cell_formula_units_Z   1
loop_
 _symmetry_equiv_pos_site_id
 _symmetry_equiv_pos_as_xyz
  1  'x, y, z'
loop_
 _atom_site_type_symbol
 _atom_site_label
 _atom_site_symmetry_multiplicity
 _atom_site_fract_x
 _atom_site_fract_y
 _atom_site_fract_z
 _atom_site_occupancy
  Dy  Dy0  1  0.500000  0.500000  0.500000  1
  Bi  Bi1  1  0.000000  0.000000  0.000000  1
  I  I2  1  0.790182  0.465661  0.501488  1
  I  I3  1  0.500066  0.789149  0.464741  1
  I  I4  1  0.465918  0.501395  0.790479  1
  I  I5  1  0.209818  0.534339  0.498512  1
  I  I6  1  0.499934  0.210851  0.535259  1
  I  I7  1  0.534082  0.498605  0.209521  1
  I  I8  1  0.897300  0.378571  0.749031  1
  I  I9  1  0.747020  0.895715  0.378808  1
  I  I10  1  0.379037  0.747914  0.897205  1
  I  I11  1  0.102700  0.621429  0.250969  1
  I  I12  1  0.252980  0.104285  0.621192  1
  I  I13  1  0.620963  0.252086  0.102795  1
  I  I14  1  0.015640  0.978988  0.700385  1
  I  I15  1  0.701185  0.015219  0.976842  1
  I  I16  1  0.976989  0.702057  0.012885  1
  I  I17  1  0.984360  0.021012  0.299615  1
  I  I18  1  0.298815  0.984781  0.023158  1
  I  I19  1  0.023011  0.297943  0.987115  1
