# generated using pymatgen
data_TbYb6Y(Cu2Sn5)2
_symmetry_space_group_name_H-M   'P 1'
_cell_length_a   4.44849100
_cell_length_b   8.82252200
_cell_length_c   14.10005900
_cell_angle_alpha   90.00000000
_cell_angle_beta   90.00000000
_cell_angle_gamma   90.00000000
_symmetry_Int_Tables_number   1
_chemical_formula_structural   TbYb6Y(Cu2Sn5)2
_chemical_formula_sum   'Tb1 Yb6 Y1 Cu4 Sn10'
_cell_volume   553.38374254
_cell_formula_units_Z   1
loop_
 _symmetry_equiv_pos_site_id
 _symmetry_equiv_pos_as_xyz
  1  'x, y, z'
loop_
 _atom_site_type_symbol
 _atom_site_label
 _atom_site_symmetry_multiplicity
 _atom_site_fract_x
 _atom_site_fract_y
 _atom_site_fract_z
 _atom_site_occupancy
  Tb  Tb0  1  0.000000  0.300726  0.500000  1
  Yb  Yb1  1  0.500000  0.792748  0.742352  1
  Yb  Yb2  1  0.000000  0.207245  0.757638  1
  Yb  Yb3  1  0.000000  0.207245  0.242362  1
  Yb  Yb4  1  0.500000  0.137140  0.000000  1
  Yb  Yb5  1  0.000000  0.862825  0.500000  1
  Yb  Yb6  1  0.500000  0.792748  0.257648  1
  Y  Y7  1  0.500000  0.699320  0.000000  1
  Cu  Cu8  1  0.500000  0.377840  0.644914  1
  Cu  Cu9  1  0.000000  0.622153  0.855075  1
  Cu  Cu10  1  0.000000  0.622153  0.144925  1
  Cu  Cu11  1  0.500000  0.377840  0.355086  1
  Sn  Sn12  1  0.500000  0.085427  0.395969  1
  Sn  Sn13  1  0.000000  0.554975  0.663809  1
  Sn  Sn14  1  0.000000  0.407027  0.000000  1
  Sn  Sn15  1  0.500000  0.445038  0.163791  1
  Sn  Sn16  1  0.500000  0.593003  0.500000  1
  Sn  Sn17  1  0.500000  0.445038  0.836209  1
  Sn  Sn18  1  0.000000  0.914552  0.895988  1
  Sn  Sn19  1  0.000000  0.554975  0.336191  1
  Sn  Sn20  1  0.500000  0.085427  0.604031  1
  Sn  Sn21  1  0.000000  0.914552  0.104012  1
