# generated using pymatgen
data_ZrScFe3Os
_symmetry_space_group_name_H-M   'P 1'
_cell_length_a   4.97212340
_cell_length_b   4.97212392
_cell_length_c   5.10641355
_cell_angle_alpha   60.86619408
_cell_angle_beta   60.86618766
_cell_angle_gamma   59.99999315
_symmetry_Int_Tables_number   1
_chemical_formula_structural   ZrScFe3Os
_chemical_formula_sum   'Zr1 Sc1 Fe3 Os1'
_cell_volume   90.41665072
_cell_formula_units_Z   1
loop_
 _symmetry_equiv_pos_site_id
 _symmetry_equiv_pos_as_xyz
  1  'x, y, z'
loop_
 _atom_site_type_symbol
 _atom_site_label
 _atom_site_symmetry_multiplicity
 _atom_site_fract_x
 _atom_site_fract_y
 _atom_site_fract_z
 _atom_site_occupancy
  Zr  Zr0  1  0.999747  0.999747  0.000760  1
  Sc  Sc1  1  0.249515  0.249515  0.251454  1
  Fe  Fe2  1  0.625292  0.125435  0.623982  1
  Fe  Fe3  1  0.125435  0.625292  0.623982  1
  Fe  Fe4  1  0.625292  0.625292  0.623982  1
  Os  Os5  1  0.624721  0.624721  0.125839  1
