# generated using pymatgen
data_Sr2Zr(S2O7)4
_symmetry_space_group_name_H-M   'P 1'
_cell_length_a   13.24635700
_cell_length_b   7.09495065
_cell_length_c   13.59632100
_cell_angle_alpha   65.86382484
_cell_angle_beta   90.00000000
_cell_angle_gamma   90.00000000
_symmetry_Int_Tables_number   1
_chemical_formula_structural   Sr2Zr(S2O7)4
_chemical_formula_sum   'Sr4 Zr2 S16 O56'
_cell_volume   1166.10155675
_cell_formula_units_Z   2
loop_
 _symmetry_equiv_pos_site_id
 _symmetry_equiv_pos_as_xyz
  1  'x, y, z'
loop_
 _atom_site_type_symbol
 _atom_site_label
 _atom_site_symmetry_multiplicity
 _atom_site_fract_x
 _atom_site_fract_y
 _atom_site_fract_z
 _atom_site_occupancy
  Sr  Sr0  1  0.867773  0.148092  0.155899  1
  Sr  Sr1  1  0.632227  0.148092  0.655899  1
  Sr  Sr2  1  0.132227  0.851908  0.844101  1
  Sr  Sr3  1  0.367773  0.851908  0.344101  1
  Zr  Zr4  1  0.500000  0.500000  0.000000  1
  Zr  Zr5  1  0.000000  0.500000  0.500000  1
  S  S6  1  0.660143  0.198392  0.937375  1
  S  S7  1  0.839857  0.198392  0.437375  1
  S  S8  1  0.339857  0.801608  0.062625  1
  S  S9  1  0.160143  0.801608  0.562625  1
  S  S10  1  0.970906  0.689647  0.102137  1
  S  S11  1  0.529094  0.689647  0.602137  1
  S  S12  1  0.029094  0.310353  0.897863  1
  S  S13  1  0.470906  0.310353  0.397863  1
  S  S14  1  0.736641  0.605445  0.903110  1
  S  S15  1  0.763359  0.605445  0.403110  1
  S  S16  1  0.263359  0.394555  0.096890  1
  S  S17  1  0.236641  0.394555  0.596890  1
  S  S18  1  0.589931  0.217041  0.243545  1
  S  S19  1  0.910069  0.217041  0.743545  1
  S  S20  1  0.410069  0.782959  0.756455  1
  S  S21  1  0.089931  0.782959  0.256455  1
  O  O22  1  0.632727  0.109968  0.863494  1
  O  O23  1  0.867273  0.109968  0.363494  1
  O  O24  1  0.367273  0.890032  0.136506  1
  O  O25  1  0.132727  0.890032  0.636506  1
  O  O26  1  0.586135  0.258911  0.348872  1
  O  O27  1  0.913865  0.258911  0.848872  1
  O  O28  1  0.413865  0.741089  0.651128  1
  O  O29  1  0.086135  0.741089  0.151128  1
  O  O30  1  0.537652  0.028399  0.259259  1
  O  O31  1  0.962348  0.028399  0.759259  1
  O  O32  1  0.462348  0.971601  0.740741  1
  O  O33  1  0.037652  0.971601  0.240741  1
  O  O34  1  0.567594  0.240273  0.990662  1
  O  O35  1  0.932406  0.240273  0.490662  1
  O  O36  1  0.432406  0.759727  0.009338  1
  O  O37  1  0.067594  0.759727  0.509338  1
  O  O38  1  0.896961  0.809293  0.130602  1
  O  O39  1  0.603039  0.809293  0.630602  1
  O  O40  1  0.103039  0.190707  0.869398  1
  O  O41  1  0.396961  0.190707  0.369398  1
  O  O42  1  0.698333  0.431826  0.857010  1
  O  O43  1  0.801667  0.431826  0.357010  1
  O  O44  1  0.301667  0.568174  0.142990  1
  O  O45  1  0.198333  0.568174  0.642990  1
  O  O46  1  0.533257  0.400719  0.162482  1
  O  O47  1  0.966743  0.400719  0.662482  1
  O  O48  1  0.466743  0.599281  0.837518  1
  O  O49  1  0.033257  0.599281  0.337518  1
  O  O50  1  0.737370  0.099731  0.015905  1
  O  O51  1  0.762630  0.099731  0.515905  1
  O  O52  1  0.262630  0.900269  0.984095  1
  O  O53  1  0.237370  0.900269  0.484095  1
  O  O54  1  0.643345  0.634229  0.959530  1
  O  O55  1  0.856655  0.634229  0.459530  1
  O  O56  1  0.356655  0.365771  0.040470  1
  O  O57  1  0.143345  0.365771  0.540470  1
  O  O58  1  0.756461  0.782759  0.805911  1
  O  O59  1  0.743539  0.782759  0.305911  1
  O  O60  1  0.243539  0.217241  0.194089  1
  O  O61  1  0.256461  0.217241  0.694089  1
  O  O62  1  0.816191  0.511979  0.979452  1
  O  O63  1  0.683809  0.511979  0.479452  1
  O  O64  1  0.183809  0.488021  0.020548  1
  O  O65  1  0.316191  0.488021  0.520548  1
  O  O66  1  0.960806  0.468091  0.159170  1
  O  O67  1  0.539194  0.468091  0.659170  1
  O  O68  1  0.039194  0.531909  0.840830  1
  O  O69  1  0.460806  0.531909  0.340830  1
  O  O70  1  0.997475  0.766132  0.989644  1
  O  O71  1  0.502525  0.766132  0.489644  1
  O  O72  1  0.002525  0.233868  0.010356  1
  O  O73  1  0.497475  0.233868  0.510356  1
  O  O74  1  0.695230  0.229760  0.215114  1
  O  O75  1  0.804770  0.229760  0.715114  1
  O  O76  1  0.304770  0.770240  0.784886  1
  O  O77  1  0.195230  0.770240  0.284886  1
