# generated using pymatgen
data_YbDy6(CCl5)2
_symmetry_space_group_name_H-M   'P 1'
_cell_length_a   10.09972820
_cell_length_b   10.09972796
_cell_length_c   12.63722901
_cell_angle_alpha   80.97923346
_cell_angle_beta   80.97923292
_cell_angle_gamma   21.73559864
_symmetry_Int_Tables_number   1
_chemical_formula_structural   YbDy6(CCl5)2
_chemical_formula_sum   'Yb1 Dy6 C2 Cl10'
_cell_volume   471.24438488
_cell_formula_units_Z   1
loop_
 _symmetry_equiv_pos_site_id
 _symmetry_equiv_pos_as_xyz
  1  'x, y, z'
loop_
 _atom_site_type_symbol
 _atom_site_label
 _atom_site_symmetry_multiplicity
 _atom_site_fract_x
 _atom_site_fract_y
 _atom_site_fract_z
 _atom_site_occupancy
  Yb  Yb0  1  0.000000  0.000000  0.000000  1
  Dy  Dy1  1  0.819763  0.819763  0.507701  1
  Dy  Dy2  1  0.180237  0.180237  0.492299  1
  Dy  Dy3  1  0.697432  0.697432  0.726708  1
  Dy  Dy4  1  0.302568  0.302568  0.273292  1
  Dy  Dy5  1  0.348194  0.348194  0.737330  1
  Dy  Dy6  1  0.651806  0.651806  0.262670  1
  C  C7  1  0.262283  0.262283  0.628703  1
  C  C8  1  0.737717  0.737717  0.371297  1
  Cl  Cl9  1  0.450479  0.450479  0.881608  1
  Cl  Cl10  1  0.549521  0.549521  0.118392  1
  Cl  Cl11  1  0.787221  0.787221  0.873006  1
  Cl  Cl12  1  0.212779  0.212779  0.126994  1
  Cl  Cl13  1  0.123812  0.123812  0.862774  1
  Cl  Cl14  1  0.073012  0.073012  0.369648  1
  Cl  Cl15  1  0.926988  0.926988  0.630352  1
  Cl  Cl16  1  0.404188  0.404188  0.387900  1
  Cl  Cl17  1  0.595812  0.595812  0.612100  1
  Cl  Cl18  1  0.876188  0.876188  0.137226  1
