# generated using pymatgen
data_Rb7NbIn3P5
_symmetry_space_group_name_H-M   'P 1'
_cell_length_a   8.50945196
_cell_length_b   9.42302278
_cell_length_c   14.25220004
_cell_angle_alpha   85.70278551
_cell_angle_beta   85.04343974
_cell_angle_gamma   86.73595015
_symmetry_Int_Tables_number   1
_chemical_formula_structural   Rb7NbIn3P5
_chemical_formula_sum   'Rb14 Nb2 In6 P10'
_cell_volume   1133.86936034
_cell_formula_units_Z   2
loop_
 _symmetry_equiv_pos_site_id
 _symmetry_equiv_pos_as_xyz
  1  'x, y, z'
loop_
 _atom_site_type_symbol
 _atom_site_label
 _atom_site_symmetry_multiplicity
 _atom_site_fract_x
 _atom_site_fract_y
 _atom_site_fract_z
 _atom_site_occupancy
  Rb  Rb0  1  0.819979  0.369618  0.642633  1
  Rb  Rb1  1  0.811940  0.811211  0.129462  1
  Rb  Rb2  1  0.243052  0.006198  0.466040  1
  Rb  Rb3  1  0.270285  0.255567  0.252067  1
  Rb  Rb4  1  0.741173  0.500928  0.972773  1
  Rb  Rb5  1  0.258827  0.499072  0.027227  1
  Rb  Rb6  1  0.688933  0.082664  0.886164  1
  Rb  Rb7  1  0.756948  0.993802  0.533960  1
  Rb  Rb8  1  0.729715  0.744433  0.747933  1
  Rb  Rb9  1  0.313753  0.338282  0.601694  1
  Rb  Rb10  1  0.180021  0.630382  0.357367  1
  Rb  Rb11  1  0.188060  0.188789  0.870538  1
  Rb  Rb12  1  0.311067  0.917336  0.113836  1
  Rb  Rb13  1  0.686247  0.661718  0.398306  1
  Nb  Nb14  1  0.355817  0.601718  0.772884  1
  Nb  Nb15  1  0.644183  0.398282  0.227116  1
  In  In16  1  0.063324  0.811428  0.869589  1
  In  In17  1  0.936676  0.188572  0.130411  1
  In  In18  1  0.367372  0.950575  0.703383  1
  In  In19  1  0.091633  0.720572  0.622795  1
  In  In20  1  0.908367  0.279428  0.377205  1
  In  In21  1  0.632628  0.049425  0.296617  1
  P  P22  1  0.920908  0.453054  0.211204  1
  P  P23  1  0.615831  0.203354  0.124690  1
  P  P24  1  0.079092  0.546946  0.788796  1
  P  P25  1  0.585280  0.298904  0.389888  1
  P  P26  1  0.414720  0.701096  0.610112  1
  P  P27  1  0.037569  0.989475  0.702245  1
  P  P28  1  0.514871  0.398572  0.809229  1
  P  P29  1  0.485129  0.601428  0.190771  1
  P  P30  1  0.384169  0.796646  0.875310  1
  P  P31  1  0.962431  0.010525  0.297755  1
