# generated using pymatgen
data_Nd2Cu17Si8Pd
_symmetry_space_group_name_H-M   'P 1'
_cell_length_a   8.17933845
_cell_length_b   8.17761290
_cell_length_c   8.16277956
_cell_angle_alpha   120.16056737
_cell_angle_beta   120.57857794
_cell_angle_gamma   89.49851143
_symmetry_Int_Tables_number   1
_chemical_formula_structural   Nd2Cu17Si8Pd
_chemical_formula_sum   'Nd2 Cu17 Si8 Pd1'
_cell_volume   383.42603456
_cell_formula_units_Z   1
loop_
 _symmetry_equiv_pos_site_id
 _symmetry_equiv_pos_as_xyz
  1  'x, y, z'
loop_
 _atom_site_type_symbol
 _atom_site_label
 _atom_site_symmetry_multiplicity
 _atom_site_fract_x
 _atom_site_fract_y
 _atom_site_fract_z
 _atom_site_occupancy
  Nd  Nd0  1  0.748049  0.750505  0.998510  1
  Nd  Nd1  1  0.248091  0.250480  0.998584  1
  Cu  Cu2  1  0.712082  0.558570  0.270706  1
  Cu  Cu3  1  0.293378  0.421215  0.714587  1
  Cu  Cu4  1  0.934244  0.798146  0.732404  1
  Cu  Cu5  1  0.565759  0.299807  0.865541  1
  Cu  Cu6  1  0.308027  0.559041  0.499624  1
  Cu  Cu7  1  0.058870  0.809366  0.504064  1
  Cu  Cu8  1  0.694637  0.445091  0.504011  1
  Cu  Cu9  1  0.940641  0.191655  0.499684  1
  Cu  Cu10  1  0.442401  0.942491  0.750740  1
  Cu  Cu11  1  0.186530  0.695905  0.252584  1
  Cu  Cu12  1  0.556897  0.065899  0.252578  1
  Cu  Cu13  1  0.200150  0.937639  0.137723  1
  Cu  Cu14  1  0.063853  0.201890  0.265679  1
  Cu  Cu15  1  0.003039  0.500729  0.503768  1
  Cu  Cu16  1  0.499274  0.005183  0.504479  1
  Cu  Cu17  1  0.808293  0.308320  0.750813  1
  Cu  Cu18  1  0.798328  0.064590  0.862900  1
  Si  Si19  1  0.293356  0.794038  0.851381  1
  Si  Si20  1  0.057312  0.558043  0.851311  1
  Si  Si21  1  0.557838  0.707700  0.499994  1
  Si  Si22  1  0.792271  0.942151  0.499986  1
  Si  Si23  1  0.442809  0.293275  0.497758  1
  Si  Si24  1  0.943799  0.440930  0.149886  1
  Si  Si25  1  0.708919  0.206023  0.149828  1
  Si  Si26  1  0.204467  0.054973  0.497763  1
  Pd  Pd27  1  0.436687  0.696347  0.133113  1
