# generated using pymatgen
data_HoFeP3Rh3W
_symmetry_space_group_name_H-M   'P 1'
_cell_length_a   3.84932900
_cell_length_b   10.74338300
_cell_length_c   12.39333800
_cell_angle_alpha   90.00000000
_cell_angle_beta   90.00000000
_cell_angle_gamma   90.00000000
_symmetry_Int_Tables_number   1
_chemical_formula_structural   HoFeP3Rh3W
_chemical_formula_sum   'Ho4 Fe4 P12 Rh12 W4'
_cell_volume   512.52420939
_cell_formula_units_Z   4
loop_
 _symmetry_equiv_pos_site_id
 _symmetry_equiv_pos_as_xyz
  1  'x, y, z'
loop_
 _atom_site_type_symbol
 _atom_site_label
 _atom_site_symmetry_multiplicity
 _atom_site_fract_x
 _atom_site_fract_y
 _atom_site_fract_z
 _atom_site_occupancy
  Ho  Ho0  1  0.250000  0.582913  0.708941  1
  Ho  Ho1  1  0.250000  0.917087  0.208941  1
  Ho  Ho2  1  0.750000  0.417087  0.291059  1
  Ho  Ho3  1  0.750000  0.082913  0.791059  1
  Fe  Fe4  1  0.250000  0.461907  0.936967  1
  Fe  Fe5  1  0.250000  0.038093  0.436967  1
  Fe  Fe6  1  0.750000  0.538093  0.063033  1
  Fe  Fe7  1  0.750000  0.961907  0.563033  1
  P  P8  1  0.250000  0.425309  0.107816  1
  P  P9  1  0.250000  0.074691  0.607816  1
  P  P10  1  0.750000  0.574691  0.892184  1
  P  P11  1  0.750000  0.925309  0.392184  1
  P  P12  1  0.250000  0.269993  0.871665  1
  P  P13  1  0.250000  0.230007  0.371665  1
  P  P14  1  0.750000  0.730007  0.128335  1
  P  P15  1  0.750000  0.769993  0.628335  1
  P  P16  1  0.250000  0.599704  0.391339  1
  P  P17  1  0.250000  0.900296  0.891339  1
  P  P18  1  0.750000  0.400296  0.608661  1
  P  P19  1  0.750000  0.099704  0.108661  1
  Rh  Rh20  1  0.250000  0.405130  0.485229  1
  Rh  Rh21  1  0.250000  0.094870  0.985229  1
  Rh  Rh22  1  0.750000  0.594870  0.514771  1
  Rh  Rh23  1  0.750000  0.905130  0.014771  1
  Rh  Rh24  1  0.250000  0.231275  0.179613  1
  Rh  Rh25  1  0.250000  0.268725  0.679613  1
  Rh  Rh26  1  0.750000  0.768725  0.820387  1
  Rh  Rh27  1  0.750000  0.731275  0.320387  1
  Rh  Rh28  1  0.250000  0.890075  0.701062  1
  Rh  Rh29  1  0.250000  0.609925  0.201062  1
  Rh  Rh30  1  0.750000  0.109925  0.298938  1
  Rh  Rh31  1  0.750000  0.390075  0.798938  1
  W  W32  1  0.250000  0.703453  0.987826  1
  W  W33  1  0.250000  0.796547  0.487826  1
  W  W34  1  0.750000  0.296547  0.012174  1
  W  W35  1  0.750000  0.203453  0.512174  1
