# generated using pymatgen
data_Y4ErSi6P6Ir19
_symmetry_space_group_name_H-M   'P 1'
_cell_length_a   12.80017306
_cell_length_b   12.80101063
_cell_length_c   3.95414400
_cell_angle_alpha   90.00000000
_cell_angle_beta   90.00000000
_cell_angle_gamma   119.98698648
_symmetry_Int_Tables_number   1
_chemical_formula_structural   Y4ErSi6P6Ir19
_chemical_formula_sum   'Y4 Er1 Si6 P6 Ir19'
_cell_volume   561.17736781
_cell_formula_units_Z   1
loop_
 _symmetry_equiv_pos_site_id
 _symmetry_equiv_pos_as_xyz
  1  'x, y, z'
loop_
 _atom_site_type_symbol
 _atom_site_label
 _atom_site_symmetry_multiplicity
 _atom_site_fract_x
 _atom_site_fract_y
 _atom_site_fract_z
 _atom_site_occupancy
  Y  Y0  1  0.666663  0.333318  0.000000  1
  Y  Y1  1  0.333331  0.666655  0.000000  1
  Y  Y2  1  0.816442  0.814812  0.500000  1
  Y  Y3  1  0.185210  0.001679  0.500000  1
  Er  Er4  1  0.998206  0.183400  0.500000  1
  Si  Si5  1  0.682046  0.162497  0.500000  1
  Si  Si6  1  0.837502  0.519510  0.500000  1
  Si  Si7  1  0.480372  0.317924  0.500000  1
  Si  Si8  1  0.636184  0.635308  0.000000  1
  Si  Si9  1  0.364687  0.000878  0.000000  1
  Si  Si10  1  0.999198  0.363448  0.000000  1
  P  P11  1  0.177569  0.693934  0.500000  1
  P  P12  1  0.516441  0.822465  0.500000  1
  P  P13  1  0.306047  0.483591  0.500000  1
  P  P14  1  0.176153  0.180472  0.000000  1
  P  P15  1  0.819896  0.996415  0.000000  1
  P  P16  1  0.003909  0.823673  0.000000  1
  Ir  Ir17  1  0.809359  0.175824  0.000000  1
  Ir  Ir18  1  0.824205  0.632766  0.000000  1
  Ir  Ir19  1  0.367196  0.191481  0.000000  1
  Ir  Ir20  1  0.182723  0.800903  0.000000  1
  Ir  Ir21  1  0.618196  0.817368  0.000000  1
  Ir  Ir22  1  0.198560  0.381329  0.000000  1
  Ir  Ir23  1  0.458003  0.443231  0.000000  1
  Ir  Ir24  1  0.556856  0.014858  0.000000  1
  Ir  Ir25  1  0.985190  0.541818  0.000000  1
  Ir  Ir26  1  0.277702  0.284458  0.500000  1
  Ir  Ir27  1  0.715711  0.993764  0.500000  1
  Ir  Ir28  1  0.006420  0.721841  0.500000  1
  Ir  Ir29  1  0.869246  0.353267  0.500000  1
  Ir  Ir30  1  0.646552  0.515718  0.500000  1
  Ir  Ir31  1  0.484232  0.130831  0.500000  1
  Ir  Ir32  1  0.368344  0.874074  0.500000  1
  Ir  Ir33  1  0.505749  0.631689  0.500000  1
  Ir  Ir34  1  0.125896  0.494154  0.500000  1
  Ir  Ir35  1  0.000004  0.000647  0.000000  1
