# generated using pymatgen
data_Th20C17O
_symmetry_space_group_name_H-M   'P 1'
_cell_length_a   7.53542428
_cell_length_b   9.97718656
_cell_length_c   11.91027536
_cell_angle_alpha   68.93922019
_cell_angle_beta   71.49624986
_cell_angle_gamma   67.86077521
_symmetry_Int_Tables_number   1
_chemical_formula_structural   Th20C17O
_chemical_formula_sum   'Th20 C17 O1'
_cell_volume   756.67679520
_cell_formula_units_Z   1
loop_
 _symmetry_equiv_pos_site_id
 _symmetry_equiv_pos_as_xyz
  1  'x, y, z'
loop_
 _atom_site_type_symbol
 _atom_site_label
 _atom_site_symmetry_multiplicity
 _atom_site_fract_x
 _atom_site_fract_y
 _atom_site_fract_z
 _atom_site_occupancy
  Th  Th0  1  0.997262  0.001757  0.001587  1
  Th  Th1  1  0.506790  0.996894  0.995356  1
  Th  Th2  1  0.147002  0.894885  0.300558  1
  Th  Th3  1  0.803318  0.803474  0.599039  1
  Th  Th4  1  0.446830  0.700200  0.907155  1
  Th  Th5  1  0.658486  0.895369  0.301708  1
  Th  Th6  1  0.100514  0.599786  0.200040  1
  Th  Th7  1  0.294116  0.802954  0.594776  1
  Th  Th8  1  0.751500  0.496678  0.494658  1
  Th  Th9  1  0.950163  0.696986  0.901248  1
  Th  Th10  1  0.598552  0.600535  0.201230  1
  Th  Th11  1  0.394866  0.395326  0.802080  1
  Th  Th12  1  0.250428  0.500101  0.499884  1
  Th  Th13  1  0.041070  0.306430  0.099230  1
  Th  Th14  1  0.699765  0.199648  0.399481  1
  Th  Th15  1  0.907673  0.395117  0.800500  1
  Th  Th16  1  0.352476  0.100609  0.698498  1
  Th  Th17  1  0.555367  0.306344  0.097868  1
  Th  Th18  1  0.198450  0.203157  0.405017  1
  Th  Th19  1  0.845469  0.102290  0.699679  1
  C  C20  1  0.799353  0.806432  0.095457  1
  C  C21  1  0.642562  0.902355  0.808112  1
  C  C22  1  0.445961  0.702528  0.405506  1
  C  C23  1  0.306631  0.798028  0.088973  1
  C  C24  1  0.103371  0.603600  0.700652  1
  C  C25  1  0.946040  0.714380  0.395844  1
  C  C26  1  0.753151  0.494380  0.000738  1
  C  C27  1  0.400427  0.395626  0.301038  1
  C  C28  1  0.055257  0.293683  0.594138  1
  C  C29  1  0.249141  0.502784  0.997457  1
  C  C30  1  0.895133  0.403547  0.307089  1
  C  C31  1  0.705404  0.198540  0.898707  1
  C  C32  1  0.551510  0.294208  0.603272  1
  C  C33  1  0.004316  0.984443  0.507220  1
  C  C34  1  0.192972  0.213522  0.894392  1
  C  C35  1  0.850237  0.098389  0.196734  1
  C  C36  1  0.497892  0.998442  0.502686  1
  O  O37  1  0.150540  0.896574  0.802392  1
