# generated using pymatgen
data_Ta11B8Mo
_symmetry_space_group_name_H-M   'P 1'
_cell_length_a   3.29892200
_cell_length_b   6.19040031
_cell_length_c   12.37721213
_cell_angle_alpha   89.99016831
_cell_angle_beta   90.00000000
_cell_angle_gamma   90.00000000
_symmetry_Int_Tables_number   1
_chemical_formula_structural   Ta11B8Mo
_chemical_formula_sum   'Ta11 B8 Mo1'
_cell_volume   252.76306254
_cell_formula_units_Z   1
loop_
 _symmetry_equiv_pos_site_id
 _symmetry_equiv_pos_as_xyz
  1  'x, y, z'
loop_
 _atom_site_type_symbol
 _atom_site_label
 _atom_site_symmetry_multiplicity
 _atom_site_fract_x
 _atom_site_fract_y
 _atom_site_fract_z
 _atom_site_occupancy
  Ta  Ta0  1  0.500000  0.820444  0.087304  1
  Ta  Ta1  1  0.500000  0.823235  0.588613  1
  Ta  Ta2  1  0.500000  0.179556  0.912696  1
  Ta  Ta3  1  0.500000  0.176765  0.411387  1
  Ta  Ta4  1  0.500000  0.675112  0.840584  1
  Ta  Ta5  1  0.500000  0.676980  0.337592  1
  Ta  Ta6  1  0.500000  0.324888  0.159416  1
  Ta  Ta7  1  0.500000  0.323020  0.662408  1
  Ta  Ta8  1  0.000000  0.500000  0.500000  1
  Ta  Ta9  1  0.000000  0.999868  0.750711  1
  Ta  Ta10  1  0.000000  0.000132  0.249289  1
  B  B11  1  0.000000  0.391317  0.805521  1
  B  B12  1  0.000000  0.391434  0.303316  1
  B  B13  1  0.000000  0.608683  0.194479  1
  B  B14  1  0.000000  0.608566  0.696684  1
  B  B15  1  0.000000  0.108961  0.054477  1
  B  B16  1  0.000000  0.108341  0.554246  1
  B  B17  1  0.000000  0.891039  0.945523  1
  B  B18  1  0.000000  0.891659  0.445754  1
  Mo  Mo19  1  0.000000  0.500000  0.000000  1
