# generated using pymatgen
data_Zr2(ScTc8)3
_symmetry_space_group_name_H-M   'P 1'
_cell_length_a   8.41504566
_cell_length_b   8.40117210
_cell_length_c   8.41504612
_cell_angle_alpha   109.47028236
_cell_angle_beta   109.53990624
_cell_angle_gamma   109.47027334
_symmetry_Int_Tables_number   1
_chemical_formula_structural   Zr2(ScTc8)3
_chemical_formula_sum   'Zr2 Sc3 Tc24'
_cell_volume   457.58550366
_cell_formula_units_Z   1
loop_
 _symmetry_equiv_pos_site_id
 _symmetry_equiv_pos_as_xyz
  1  'x, y, z'
loop_
 _atom_site_type_symbol
 _atom_site_label
 _atom_site_symmetry_multiplicity
 _atom_site_fract_x
 _atom_site_fract_y
 _atom_site_fract_z
 _atom_site_occupancy
  Zr  Zr0  1  0.373209  0.372919  0.373209  1
  Zr  Zr1  1  0.000290  0.627081  0.000290  1
  Sc  Sc2  1  0.626536  0.000000  0.000288  1
  Sc  Sc3  1  0.000288  0.000000  0.626536  1
  Sc  Sc4  1  0.997262  0.000000  0.997262  1
  Tc  Tc5  1  0.998390  0.392939  0.672724  1
  Tc  Tc6  1  0.279786  0.607061  0.605451  1
  Tc  Tc7  1  0.721235  0.327649  0.325884  1
  Tc  Tc8  1  0.326620  0.720539  0.326620  1
  Tc  Tc9  1  0.673725  0.000000  0.394268  1
  Tc  Tc10  1  0.998236  0.672351  0.393588  1
  Tc  Tc11  1  0.605451  0.607061  0.279786  1
  Tc  Tc12  1  0.807435  0.808351  0.182824  1
  Tc  Tc13  1  0.374472  0.191649  0.999083  1
  Tc  Tc14  1  0.193897  0.374497  0.999128  1
  Tc  Tc15  1  0.626491  0.818266  0.626491  1
  Tc  Tc16  1  0.376285  0.000000  0.194556  1
  Tc  Tc17  1  0.999128  0.374497  0.193897  1
  Tc  Tc18  1  0.819399  0.625503  0.624632  1
  Tc  Tc19  1  0.182824  0.808351  0.807435  1
  Tc  Tc20  1  0.808225  0.181734  0.808225  1
  Tc  Tc21  1  0.194556  0.000000  0.376285  1
  Tc  Tc22  1  0.999083  0.191649  0.374472  1
  Tc  Tc23  1  0.624632  0.625503  0.819399  1
  Tc  Tc24  1  0.394268  0.000000  0.673725  1
  Tc  Tc25  1  0.606080  0.279461  0.606080  1
  Tc  Tc26  1  0.672724  0.392939  0.998390  1
  Tc  Tc27  1  0.393588  0.672351  0.998236  1
  Tc  Tc28  1  0.325884  0.327649  0.721235  1
