# generated using pymatgen
data_Dy2Ho(CdGa)3
_symmetry_space_group_name_H-M   'P 1'
_cell_length_a   7.26545154
_cell_length_b   7.26545181
_cell_length_c   4.40677100
_cell_angle_alpha   90.00000000
_cell_angle_beta   90.00000000
_cell_angle_gamma   119.95565455
_symmetry_Int_Tables_number   1
_chemical_formula_structural   Dy2Ho(CdGa)3
_chemical_formula_sum   'Dy2 Ho1 Cd3 Ga3'
_cell_volume   201.54417207
_cell_formula_units_Z   1
loop_
 _symmetry_equiv_pos_site_id
 _symmetry_equiv_pos_as_xyz
  1  'x, y, z'
loop_
 _atom_site_type_symbol
 _atom_site_label
 _atom_site_symmetry_multiplicity
 _atom_site_fract_x
 _atom_site_fract_y
 _atom_site_fract_z
 _atom_site_occupancy
  Dy  Dy0  1  0.576506  0.999900  0.500000  1
  Dy  Dy1  1  0.999900  0.576506  0.500000  1
  Ho  Ho2  1  0.423374  0.423374  0.500000  1
  Cd  Cd3  1  0.751266  0.751266  0.000000  1
  Cd  Cd4  1  0.248584  0.000098  0.000000  1
  Cd  Cd5  1  0.000098  0.248584  0.000000  1
  Ga  Ga6  1  0.666511  0.333508  0.000000  1
  Ga  Ga7  1  0.333508  0.666511  0.000000  1
  Ga  Ga8  1  0.000252  0.000252  0.500000  1
