# generated using pymatgen
data_Dy3Zr(Al8Pt3)3
_symmetry_space_group_name_H-M   'P 1'
_cell_length_a   7.52384312
_cell_length_b   7.53108007
_cell_length_c   13.11748800
_cell_angle_alpha   84.54440309
_cell_angle_beta   79.02617848
_cell_angle_gamma   59.90175864
_symmetry_Int_Tables_number   1
_chemical_formula_structural   Dy3Zr(Al8Pt3)3
_chemical_formula_sum   'Dy3 Zr1 Al24 Pt9'
_cell_volume   631.29533293
_cell_formula_units_Z   1
loop_
 _symmetry_equiv_pos_site_id
 _symmetry_equiv_pos_as_xyz
  1  'x, y, z'
loop_
 _atom_site_type_symbol
 _atom_site_label
 _atom_site_symmetry_multiplicity
 _atom_site_fract_x
 _atom_site_fract_y
 _atom_site_fract_z
 _atom_site_occupancy
  Dy  Dy0  1  0.606474  0.831849  0.191888  1
  Dy  Dy1  1  0.733925  0.498691  0.807639  1
  Dy  Dy2  1  0.266546  0.501293  0.192094  1
  Zr  Zr3  1  0.393357  0.168140  0.809135  1
  Al  Al4  1  0.682047  0.836442  0.942019  1
  Al  Al5  1  0.316500  0.166431  0.053865  1
  Al  Al6  1  0.146474  0.832791  0.562356  1
  Al  Al7  1  0.853157  0.167167  0.438286  1
  Al  Al8  1  0.479902  0.166820  0.560671  1
  Al  Al9  1  0.519315  0.833818  0.441217  1
  Al  Al10  1  0.217104  0.165379  0.330162  1
  Al  Al11  1  0.779672  0.836998  0.672456  1
  Al  Al12  1  0.436181  0.504409  0.672809  1
  Al  Al13  1  0.562329  0.493616  0.329603  1
  Al  Al14  1  0.111401  0.159705  0.671739  1
  Al  Al15  1  0.890156  0.839806  0.330823  1
  Al  Al16  1  0.353828  0.496493  0.941995  1
  Al  Al17  1  0.647685  0.500147  0.055354  1
  Al  Al18  1  0.018654  0.167942  0.950623  1
  Al  Al19  1  0.984751  0.832709  0.046392  1
  Al  Al20  1  0.186715  0.499263  0.441242  1
  Al  Al21  1  0.813705  0.500413  0.558990  1
  Al  Al22  1  0.734028  0.163891  0.183656  1
  Al  Al23  1  0.265871  0.841381  0.816271  1
  Al  Al24  1  0.066347  0.626281  0.814952  1
  Al  Al25  1  0.939163  0.368292  0.184528  1
  Al  Al26  1  0.850631  0.041400  0.815565  1
  Al  Al27  1  0.144685  0.958697  0.183869  1
  Pt  Pt28  1  0.119747  0.491170  0.639180  1
  Pt  Pt29  1  0.879117  0.508341  0.361552  1
  Pt  Pt30  1  0.657673  0.171811  0.998878  1
  Pt  Pt31  1  0.343653  0.827814  0.999233  1
  Pt  Pt32  1  0.537499  0.166667  0.361934  1
  Pt  Pt33  1  0.463163  0.832647  0.639117  1
  Pt  Pt34  1  0.778382  0.176197  0.637822  1
  Pt  Pt35  1  0.220581  0.824771  0.363122  1
  Pt  Pt36  1  0.999582  0.500318  0.998961  1
