# generated using pymatgen
data_Zn7Pd9
_symmetry_space_group_name_H-M   'P 1'
_cell_length_a   6.77497996
_cell_length_b   6.77498041
_cell_length_c   6.77497943
_cell_angle_alpha   104.97674930
_cell_angle_beta   104.97674089
_cell_angle_gamma   118.89106757
_symmetry_Int_Tables_number   1
_chemical_formula_structural   Zn7Pd9
_chemical_formula_sum   'Zn7 Pd9'
_cell_volume   234.46441846
_cell_formula_units_Z   1
loop_
 _symmetry_equiv_pos_site_id
 _symmetry_equiv_pos_as_xyz
  1  'x, y, z'
loop_
 _atom_site_type_symbol
 _atom_site_label
 _atom_site_symmetry_multiplicity
 _atom_site_fract_x
 _atom_site_fract_y
 _atom_site_fract_z
 _atom_site_occupancy
  Zn  Zn0  1  0.500000  0.000000  0.500000  1
  Zn  Zn1  1  0.000000  0.500000  0.500000  1
  Zn  Zn2  1  0.500000  0.500000  0.000000  1
  Zn  Zn3  1  0.236500  0.236500  0.473002  1
  Zn  Zn4  1  0.763500  0.763500  0.526998  1
  Zn  Zn5  1  0.236500  0.763500  0.000000  1
  Zn  Zn6  1  0.763500  0.236500  0.000000  1
  Pd  Pd7  1  0.520266  0.267606  0.252659  1
  Pd  Pd8  1  0.479734  0.732394  0.747341  1
  Pd  Pd9  1  0.014946  0.267606  0.747341  1
  Pd  Pd10  1  0.267606  0.014946  0.747341  1
  Pd  Pd11  1  0.985054  0.732394  0.252659  1
  Pd  Pd12  1  0.732394  0.985054  0.252659  1
  Pd  Pd13  1  0.267606  0.520266  0.252659  1
  Pd  Pd14  1  0.732394  0.479734  0.747341  1
  Pd  Pd15  1  0.000000  0.000000  0.000000  1
