# generated using pymatgen
data_BaLiLa5Rh17
_symmetry_space_group_name_H-M   'P 1'
_cell_length_a   5.40961900
_cell_length_b   5.40961697
_cell_length_c   17.69962000
_cell_angle_alpha   90.00000000
_cell_angle_beta   90.00000000
_cell_angle_gamma   119.99999407
_symmetry_Int_Tables_number   1
_chemical_formula_structural   BaLiLa5Rh17
_chemical_formula_sum   'Ba1 Li1 La5 Rh17'
_cell_volume   448.56748976
_cell_formula_units_Z   1
loop_
 _symmetry_equiv_pos_site_id
 _symmetry_equiv_pos_as_xyz
  1  'x, y, z'
loop_
 _atom_site_type_symbol
 _atom_site_label
 _atom_site_symmetry_multiplicity
 _atom_site_fract_x
 _atom_site_fract_y
 _atom_site_fract_z
 _atom_site_occupancy
  Ba  Ba0  1  0.666667  0.333333  0.250000  1
  Li  Li1  1  0.000000  0.000000  0.250000  1
  La  La2  1  0.333333  0.666667  0.539603  1
  La  La3  1  0.666667  0.333333  0.044373  1
  La  La4  1  0.666667  0.333333  0.455627  1
  La  La5  1  0.333333  0.666667  0.960397  1
  La  La6  1  0.333333  0.666667  0.750000  1
  Rh  Rh7  1  0.167150  0.334299  0.124398  1
  Rh  Rh8  1  0.833160  0.666319  0.627418  1
  Rh  Rh9  1  0.665701  0.832850  0.124398  1
  Rh  Rh10  1  0.167150  0.832850  0.124398  1
  Rh  Rh11  1  0.833160  0.166840  0.627418  1
  Rh  Rh12  1  0.333681  0.166840  0.627418  1
  Rh  Rh13  1  0.833160  0.666319  0.872582  1
  Rh  Rh14  1  0.833160  0.166840  0.872582  1
  Rh  Rh15  1  0.333681  0.166840  0.872582  1
  Rh  Rh16  1  0.665701  0.832850  0.375602  1
  Rh  Rh17  1  0.167150  0.832850  0.375602  1
  Rh  Rh18  1  0.167150  0.334299  0.375602  1
  Rh  Rh19  1  0.000000  0.000000  0.750000  1
  Rh  Rh20  1  0.333333  0.666667  0.250000  1
  Rh  Rh21  1  0.666667  0.333333  0.750000  1
  Rh  Rh22  1  0.000000  0.000000  0.999604  1
  Rh  Rh23  1  0.000000  0.000000  0.500396  1
