# generated using pymatgen
data_In10AgHgIr4
_symmetry_space_group_name_H-M   'P 1'
_cell_length_a   7.17670076
_cell_length_b   7.14737162
_cell_length_c   7.16192000
_cell_angle_alpha   90.00000000
_cell_angle_beta   90.00000000
_cell_angle_gamma   89.78309942
_symmetry_Int_Tables_number   1
_chemical_formula_structural   In10AgHgIr4
_chemical_formula_sum   'In10 Ag1 Hg1 Ir4'
_cell_volume   367.36481258
_cell_formula_units_Z   1
loop_
 _symmetry_equiv_pos_site_id
 _symmetry_equiv_pos_as_xyz
  1  'x, y, z'
loop_
 _atom_site_type_symbol
 _atom_site_label
 _atom_site_symmetry_multiplicity
 _atom_site_fract_x
 _atom_site_fract_y
 _atom_site_fract_z
 _atom_site_occupancy
  In  In0  1  0.327208  0.352075  0.268316  1
  In  In1  1  0.145246  0.831986  0.758105  1
  In  In2  1  0.145246  0.831986  0.241895  1
  In  In3  1  0.854754  0.168014  0.241895  1
  In  In4  1  0.854754  0.168014  0.758105  1
  In  In5  1  0.500000  0.000000  0.000000  1
  In  In6  1  0.672792  0.647925  0.268316  1
  In  In7  1  0.672792  0.647925  0.731684  1
  In  In8  1  0.327208  0.352075  0.731684  1
  In  In9  1  0.500000  0.000000  0.500000  1
  Ag  Ag10  1  0.000000  0.500000  0.500000  1
  Hg  Hg11  1  0.000000  0.500000  0.000000  1
  Ir  Ir12  1  0.161365  0.146619  0.000000  1
  Ir  Ir13  1  0.643229  0.339479  0.500000  1
  Ir  Ir14  1  0.356771  0.660521  0.500000  1
  Ir  Ir15  1  0.838635  0.853381  0.000000  1
