# generated using pymatgen
data_NdCoB4Os3
_symmetry_space_group_name_H-M   'P 1'
_cell_length_a   3.98370300
_cell_length_b   7.58051715
_cell_length_c   7.39808316
_cell_angle_alpha   88.10963690
_cell_angle_beta   90.00000000
_cell_angle_gamma   90.00000000
_symmetry_Int_Tables_number   1
_chemical_formula_structural   NdCoB4Os3
_chemical_formula_sum   'Nd2 Co2 B8 Os6'
_cell_volume   223.28964284
_cell_formula_units_Z   2
loop_
 _symmetry_equiv_pos_site_id
 _symmetry_equiv_pos_as_xyz
  1  'x, y, z'
loop_
 _atom_site_type_symbol
 _atom_site_label
 _atom_site_symmetry_multiplicity
 _atom_site_fract_x
 _atom_site_fract_y
 _atom_site_fract_z
 _atom_site_occupancy
  Nd  Nd0  1  0.281616  0.250000  0.250000  1
  Nd  Nd1  1  0.830834  0.750000  0.750000  1
  Co  Co2  1  0.132834  0.381986  0.637878  1
  Co  Co3  1  0.132834  0.118014  0.862122  1
  B  B4  1  0.351523  0.923170  0.024197  1
  B  B5  1  0.351523  0.576830  0.475803  1
  B  B6  1  0.853494  0.528478  0.085969  1
  B  B7  1  0.853494  0.971522  0.414031  1
  B  B8  1  0.631931  0.090230  0.939972  1
  B  B9  1  0.631931  0.409770  0.560028  1
  B  B10  1  0.134038  0.454989  0.916863  1
  B  B11  1  0.134038  0.045011  0.583137  1
  Os  Os12  1  0.631462  0.133410  0.619526  1
  Os  Os13  1  0.631462  0.366590  0.880474  1
  Os  Os14  1  0.854076  0.597099  0.362222  1
  Os  Os15  1  0.854076  0.902901  0.137778  1
  Os  Os16  1  0.354420  0.853191  0.401513  1
  Os  Os17  1  0.354420  0.646809  0.098487  1
