# generated using pymatgen
data_Pr6DyMoO12
_symmetry_space_group_name_H-M   'P 1'
_cell_length_a   6.96447593
_cell_length_b   6.96447549
_cell_length_c   6.96447473
_cell_angle_alpha   93.28108969
_cell_angle_beta   93.28109665
_cell_angle_gamma   93.28110894
_symmetry_Int_Tables_number   1
_chemical_formula_structural   Pr6DyMoO12
_chemical_formula_sum   'Pr6 Dy1 Mo1 O12'
_cell_volume   336.07671280
_cell_formula_units_Z   1
loop_
 _symmetry_equiv_pos_site_id
 _symmetry_equiv_pos_as_xyz
  1  'x, y, z'
loop_
 _atom_site_type_symbol
 _atom_site_label
 _atom_site_symmetry_multiplicity
 _atom_site_fract_x
 _atom_site_fract_y
 _atom_site_fract_z
 _atom_site_occupancy
  Pr  Pr0  1  0.563390  0.072596  0.258533  1
  Pr  Pr1  1  0.072596  0.258533  0.563390  1
  Pr  Pr2  1  0.741467  0.436610  0.927404  1
  Pr  Pr3  1  0.258533  0.563390  0.072596  1
  Pr  Pr4  1  0.927404  0.741467  0.436610  1
  Pr  Pr5  1  0.436610  0.927404  0.741467  1
  Dy  Dy6  1  0.000000  0.000000  0.000000  1
  Mo  Mo7  1  0.500000  0.500000  0.500000  1
  O  O8  1  0.690122  0.087868  0.935716  1
  O  O9  1  0.912132  0.064284  0.309878  1
  O  O10  1  0.410059  0.198866  0.538002  1
  O  O11  1  0.064284  0.309878  0.912132  1
  O  O12  1  0.538002  0.410059  0.198866  1
  O  O13  1  0.801134  0.461998  0.589941  1
  O  O14  1  0.198866  0.538002  0.410059  1
  O  O15  1  0.461998  0.589941  0.801134  1
  O  O16  1  0.935716  0.690122  0.087868  1
  O  O17  1  0.589941  0.801134  0.461998  1
  O  O18  1  0.087868  0.935716  0.690122  1
  O  O19  1  0.309878  0.912132  0.064284  1
