# generated using pymatgen
data_Tm2Th3TcIr2
_symmetry_space_group_name_H-M   'P 1'
_cell_length_a   8.33890000
_cell_length_b   8.36541590
_cell_length_c   6.39305400
_cell_angle_alpha   90.00000000
_cell_angle_beta   90.00000000
_cell_angle_gamma   119.89520230
_symmetry_Int_Tables_number   1
_chemical_formula_structural   Tm2Th3TcIr2
_chemical_formula_sum   'Tm4 Th6 Tc2 Ir4'
_cell_volume   386.62769420
_cell_formula_units_Z   2
loop_
 _symmetry_equiv_pos_site_id
 _symmetry_equiv_pos_as_xyz
  1  'x, y, z'
loop_
 _atom_site_type_symbol
 _atom_site_label
 _atom_site_symmetry_multiplicity
 _atom_site_fract_x
 _atom_site_fract_y
 _atom_site_fract_z
 _atom_site_occupancy
  Tm  Tm0  1  0.333404  0.666809  0.000000  1
  Tm  Tm1  1  0.666596  0.333191  0.000000  1
  Tm  Tm2  1  0.666596  0.333191  0.500000  1
  Tm  Tm3  1  0.333404  0.666809  0.500000  1
  Th  Th4  1  0.257711  0.000000  0.250000  1
  Th  Th5  1  0.742289  0.000000  0.750000  1
  Th  Th6  1  0.994694  0.251664  0.250000  1
  Th  Th7  1  0.005306  0.748336  0.750000  1
  Th  Th8  1  0.743030  0.748336  0.250000  1
  Th  Th9  1  0.256970  0.251664  0.750000  1
  Tc  Tc10  1  0.619775  0.000000  0.250000  1
  Tc  Tc11  1  0.380225  0.000000  0.750000  1
  Ir  Ir12  1  0.995924  0.613186  0.250000  1
  Ir  Ir13  1  0.004076  0.386814  0.750000  1
  Ir  Ir14  1  0.382738  0.386814  0.250000  1
  Ir  Ir15  1  0.617262  0.613186  0.750000  1
