# generated using pymatgen
data_Y4ErP12Pd3Ru16
_symmetry_space_group_name_H-M   'P 1'
_cell_length_a   12.60986300
_cell_length_b   12.60986351
_cell_length_c   3.97308300
_cell_angle_alpha   90.00000000
_cell_angle_beta   90.00000000
_cell_angle_gamma   120.00000128
_symmetry_Int_Tables_number   1
_chemical_formula_structural   Y4ErP12Pd3Ru16
_chemical_formula_sum   'Y4 Er1 P12 Pd3 Ru16'
_cell_volume   547.11549912
_cell_formula_units_Z   1
loop_
 _symmetry_equiv_pos_site_id
 _symmetry_equiv_pos_as_xyz
  1  'x, y, z'
loop_
 _atom_site_type_symbol
 _atom_site_label
 _atom_site_symmetry_multiplicity
 _atom_site_fract_x
 _atom_site_fract_y
 _atom_site_fract_z
 _atom_site_occupancy
  Y  Y0  1  0.181328  0.181317  0.500000  1
  Y  Y1  1  0.818683  0.000011  0.500000  1
  Y  Y2  1  0.999989  0.818672  0.500000  1
  Y  Y3  1  0.333333  0.666667  0.000000  1
  Er  Er4  1  0.666667  0.333333  0.000000  1
  P  P5  1  0.814592  0.814531  0.000000  1
  P  P6  1  0.185469  0.000060  0.000000  1
  P  P7  1  0.999940  0.185408  0.000000  1
  P  P8  1  0.178591  0.479776  0.500000  1
  P  P9  1  0.520224  0.698813  0.500000  1
  P  P10  1  0.301187  0.821409  0.500000  1
  P  P11  1  0.698649  0.519606  0.500000  1
  P  P12  1  0.820956  0.301351  0.500000  1
  P  P13  1  0.480394  0.179044  0.500000  1
  P  P14  1  0.366676  0.366726  0.000000  1
  P  P15  1  0.633274  0.999950  0.000000  1
  P  P16  1  0.000050  0.633324  0.000000  1
  Pd  Pd17  1  0.553629  0.553614  0.000000  1
  Pd  Pd18  1  0.446386  0.000016  0.000000  1
  Pd  Pd19  1  0.999984  0.446371  0.000000  1
  Ru  Ru20  1  0.713220  0.713092  0.500000  1
  Ru  Ru21  1  0.286908  0.000128  0.500000  1
  Ru  Ru22  1  0.999872  0.286780  0.500000  1
  Ru  Ru23  1  0.185620  0.378412  0.000000  1
  Ru  Ru24  1  0.621588  0.807208  0.000000  1
  Ru  Ru25  1  0.192792  0.814380  0.000000  1
  Ru  Ru26  1  0.807023  0.621139  0.000000  1
  Ru  Ru27  1  0.814116  0.192977  0.000000  1
  Ru  Ru28  1  0.378861  0.185884  0.000000  1
  Ru  Ru29  1  0.368599  0.492585  0.500000  1
  Ru  Ru30  1  0.507415  0.876015  0.500000  1
  Ru  Ru31  1  0.123985  0.631401  0.500000  1
  Ru  Ru32  1  0.875319  0.506752  0.500000  1
  Ru  Ru33  1  0.631434  0.124681  0.500000  1
  Ru  Ru34  1  0.493248  0.368566  0.500000  1
  Ru  Ru35  1  0.000000  0.000000  0.000000  1
