# generated using pymatgen
data_Rb6Li4Zr2As5P
_symmetry_space_group_name_H-M   'P 1'
_cell_length_a   10.55608025
_cell_length_b   10.55122135
_cell_length_c   15.82265009
_cell_angle_alpha   89.95759019
_cell_angle_beta   90.05587524
_cell_angle_gamma   143.16189395
_symmetry_Int_Tables_number   1
_chemical_formula_structural   Rb6Li4Zr2As5P
_chemical_formula_sum   'Rb12 Li8 Zr4 As10 P2'
_cell_volume   1056.60873567
_cell_formula_units_Z   2
loop_
 _symmetry_equiv_pos_site_id
 _symmetry_equiv_pos_as_xyz
  1  'x, y, z'
loop_
 _atom_site_type_symbol
 _atom_site_label
 _atom_site_symmetry_multiplicity
 _atom_site_fract_x
 _atom_site_fract_y
 _atom_site_fract_z
 _atom_site_occupancy
  Rb  Rb0  1  0.949005  0.605687  0.825770  1
  Rb  Rb1  1  0.548587  0.890939  0.328542  1
  Rb  Rb2  1  0.394018  0.050766  0.173967  1
  Rb  Rb3  1  0.050579  0.394011  0.175548  1
  Rb  Rb4  1  0.894286  0.548961  0.327476  1
  Rb  Rb5  1  0.448552  0.105456  0.671607  1
  Rb  Rb6  1  0.605650  0.949333  0.825723  1
  Rb  Rb7  1  0.287655  0.290723  0.320051  1
  Rb  Rb8  1  0.787582  0.786595  0.184078  1
  Rb  Rb9  1  0.213463  0.213367  0.818035  1
  Rb  Rb10  1  0.713736  0.714439  0.680244  1
  Rb  Rb11  1  0.105626  0.448424  0.672484  1
  Li  Li12  1  0.917858  0.082341  0.000421  1
  Li  Li13  1  0.583345  0.421394  0.498872  1
  Li  Li14  1  0.082082  0.917585  0.000228  1
  Li  Li15  1  0.417015  0.582053  0.498396  1
  Li  Li16  1  0.751113  0.249437  0.000288  1
  Li  Li17  1  0.754934  0.252803  0.498701  1
  Li  Li18  1  0.249354  0.750866  0.000253  1
  Li  Li19  1  0.247669  0.744979  0.498850  1
  Zr  Zr20  1  0.587725  0.412284  0.000339  1
  Zr  Zr21  1  0.912612  0.088146  0.497638  1
  Zr  Zr22  1  0.412439  0.587920  0.000539  1
  Zr  Zr23  1  0.083899  0.910830  0.497858  1
  As  As24  1  0.898422  0.572284  0.089618  1
  As  As25  1  0.427714  0.101655  0.910934  1
  As  As26  1  0.600876  0.927138  0.587167  1
  As  As27  1  0.926655  0.601046  0.587395  1
  As  As28  1  0.101853  0.427937  0.911022  1
  As  As29  1  0.572695  0.898240  0.090370  1
  As  As30  1  0.396511  0.071727  0.409260  1
  As  As31  1  0.228986  0.229250  0.584538  1
  As  As32  1  0.728172  0.728405  0.914260  1
  As  As33  1  0.271670  0.271672  0.086580  1
  P  P34  1  0.070898  0.393407  0.414122  1
  P  P35  1  0.776765  0.777897  0.418826  1
