# generated using pymatgen
data_Lu8B24MoOs3
_symmetry_space_group_name_H-M   'P 1'
_cell_length_a   3.59548400
_cell_length_b   9.06233881
_cell_length_c   11.43362454
_cell_angle_alpha   89.90984689
_cell_angle_beta   90.00000000
_cell_angle_gamma   90.00000000
_symmetry_Int_Tables_number   1
_chemical_formula_structural   Lu8B24MoOs3
_chemical_formula_sum   'Lu8 B24 Mo1 Os3'
_cell_volume   372.54697736
_cell_formula_units_Z   1
loop_
 _symmetry_equiv_pos_site_id
 _symmetry_equiv_pos_as_xyz
  1  'x, y, z'
loop_
 _atom_site_type_symbol
 _atom_site_label
 _atom_site_symmetry_multiplicity
 _atom_site_fract_x
 _atom_site_fract_y
 _atom_site_fract_z
 _atom_site_occupancy
  Lu  Lu0  1  0.000000  0.321626  0.413111  1
  Lu  Lu1  1  0.000000  0.677894  0.584622  1
  Lu  Lu2  1  0.000000  0.819789  0.087638  1
  Lu  Lu3  1  0.000000  0.178357  0.914522  1
  Lu  Lu4  1  0.000000  0.945262  0.373046  1
  Lu  Lu5  1  0.000000  0.057127  0.627865  1
  Lu  Lu6  1  0.000000  0.443722  0.126642  1
  Lu  Lu7  1  0.000000  0.556417  0.871846  1
  B  B8  1  0.500000  0.550862  0.436231  1
  B  B9  1  0.500000  0.446366  0.567438  1
  B  B10  1  0.500000  0.053318  0.066211  1
  B  B11  1  0.500000  0.946587  0.933848  1
  B  B12  1  0.500000  0.751704  0.422432  1
  B  B13  1  0.500000  0.251093  0.580319  1
  B  B14  1  0.500000  0.249303  0.079533  1
  B  B15  1  0.500000  0.750490  0.919770  1
  B  B16  1  0.500000  0.795434  0.264255  1
  B  B17  1  0.500000  0.207516  0.734775  1
  B  B18  1  0.500000  0.291677  0.233278  1
  B  B19  1  0.500000  0.708110  0.765428  1
  B  B20  1  0.500000  0.631605  0.182437  1
  B  B21  1  0.500000  0.368281  0.815676  1
  B  B22  1  0.500000  0.131230  0.314585  1
  B  B23  1  0.500000  0.869451  0.684925  1
  B  B24  1  0.500000  0.982258  0.212695  1
  B  B25  1  0.500000  0.018385  0.787829  1
  B  B26  1  0.500000  0.477424  0.286563  1
  B  B27  1  0.500000  0.517681  0.713193  1
  B  B28  1  0.500000  0.604534  0.027551  1
  B  B29  1  0.500000  0.394980  0.970284  1
  B  B30  1  0.500000  0.105709  0.471203  1
  B  B31  1  0.500000  0.897226  0.530048  1
  Mo  Mo32  1  0.000000  0.637787  0.321360  1
  Os  Os33  1  0.000000  0.360824  0.680217  1
  Os  Os34  1  0.000000  0.137810  0.177502  1
  Os  Os35  1  0.000000  0.862159  0.821122  1
