# generated using pymatgen
data_Hg(NO3)2
_symmetry_space_group_name_H-M   'P 1'
_cell_length_a   7.97598500
_cell_length_b   7.97598500
_cell_length_c   7.97598500
_cell_angle_alpha   90.00000000
_cell_angle_beta   90.00000000
_cell_angle_gamma   90.00000000
_symmetry_Int_Tables_number   1
_chemical_formula_structural   Hg(NO3)2
_chemical_formula_sum   'Hg4 N8 O24'
_cell_volume   507.40294744
_cell_formula_units_Z   4
loop_
 _symmetry_equiv_pos_site_id
 _symmetry_equiv_pos_as_xyz
  1  'x, y, z'
loop_
 _atom_site_type_symbol
 _atom_site_label
 _atom_site_symmetry_multiplicity
 _atom_site_fract_x
 _atom_site_fract_y
 _atom_site_fract_z
 _atom_site_occupancy
  Hg  Hg0  1  0.000000  0.500000  0.500000  1
  Hg  Hg1  1  0.500000  0.500000  0.000000  1
  Hg  Hg2  1  0.500000  0.000000  0.500000  1
  Hg  Hg3  1  0.000000  0.000000  0.000000  1
  N  N4  1  0.336160  0.336160  0.336160  1
  N  N5  1  0.336160  0.163840  0.836160  1
  N  N6  1  0.163840  0.836160  0.336160  1
  N  N7  1  0.836160  0.336160  0.163840  1
  N  N8  1  0.663840  0.663840  0.663840  1
  N  N9  1  0.163840  0.663840  0.836160  1
  N  N10  1  0.836160  0.163840  0.663840  1
  N  N11  1  0.663840  0.836160  0.163840  1
  O  O12  1  0.739432  0.309908  0.040496  1
  O  O13  1  0.190092  0.959504  0.239432  1
  O  O14  1  0.260568  0.809908  0.459504  1
  O  O15  1  0.239432  0.190092  0.959504  1
  O  O16  1  0.239432  0.309908  0.459504  1
  O  O17  1  0.459504  0.239432  0.309908  1
  O  O18  1  0.309908  0.459504  0.239432  1
  O  O19  1  0.190092  0.540496  0.739432  1
  O  O20  1  0.959504  0.260568  0.690092  1
  O  O21  1  0.690092  0.959504  0.260568  1
  O  O22  1  0.040496  0.760568  0.809908  1
  O  O23  1  0.540496  0.739432  0.190092  1
  O  O24  1  0.809908  0.040496  0.760568  1
  O  O25  1  0.739432  0.190092  0.540496  1
  O  O26  1  0.760568  0.809908  0.040496  1
  O  O27  1  0.260568  0.690092  0.959504  1
  O  O28  1  0.760568  0.690092  0.540496  1
  O  O29  1  0.540496  0.760568  0.690092  1
  O  O30  1  0.690092  0.540496  0.760568  1
  O  O31  1  0.809908  0.459504  0.260568  1
  O  O32  1  0.040496  0.739432  0.309908  1
  O  O33  1  0.309908  0.040496  0.739432  1
  O  O34  1  0.959504  0.239432  0.190092  1
  O  O35  1  0.459504  0.260568  0.809908  1
