# generated using pymatgen
data_Hf5Co10CuB4
_symmetry_space_group_name_H-M   'P 1'
_cell_length_a   8.68104100
_cell_length_b   8.68104100
_cell_length_c   3.12193500
_cell_angle_alpha   90.00000000
_cell_angle_beta   90.00000000
_cell_angle_gamma   90.00000000
_symmetry_Int_Tables_number   1
_chemical_formula_structural   Hf5Co10CuB4
_chemical_formula_sum   'Hf5 Co10 Cu1 B4'
_cell_volume   235.27049779
_cell_formula_units_Z   1
loop_
 _symmetry_equiv_pos_site_id
 _symmetry_equiv_pos_as_xyz
  1  'x, y, z'
loop_
 _atom_site_type_symbol
 _atom_site_label
 _atom_site_symmetry_multiplicity
 _atom_site_fract_x
 _atom_site_fract_y
 _atom_site_fract_z
 _atom_site_occupancy
  Hf  Hf0  1  0.500000  0.500000  0.000000  1
  Hf  Hf1  1  0.830629  0.315868  0.000000  1
  Hf  Hf2  1  0.315868  0.169371  0.000000  1
  Hf  Hf3  1  0.684132  0.830629  0.000000  1
  Hf  Hf4  1  0.169371  0.684132  0.000000  1
  Co  Co5  1  0.500000  0.000000  0.500000  1
  Co  Co6  1  0.000000  0.500000  0.500000  1
  Co  Co7  1  0.067708  0.222475  0.500000  1
  Co  Co8  1  0.222475  0.932292  0.500000  1
  Co  Co9  1  0.777525  0.067708  0.500000  1
  Co  Co10  1  0.932292  0.777525  0.500000  1
  Co  Co11  1  0.429003  0.728467  0.500000  1
  Co  Co12  1  0.570997  0.271533  0.500000  1
  Co  Co13  1  0.728467  0.570997  0.500000  1
  Co  Co14  1  0.271533  0.429003  0.500000  1
  Cu  Cu15  1  0.000000  0.000000  0.000000  1
  B  B16  1  0.620745  0.117628  0.000000  1
  B  B17  1  0.117628  0.379255  0.000000  1
  B  B18  1  0.882372  0.620745  0.000000  1
  B  B19  1  0.379255  0.882372  0.000000  1
