# generated using pymatgen
data_Zr6Nb4Al12Tc3Ir4
_symmetry_space_group_name_H-M   'P 1'
_cell_length_a   8.90052717
_cell_length_b   8.85719704
_cell_length_c   8.87778949
_cell_angle_alpha   60.25769215
_cell_angle_beta   59.91524697
_cell_angle_gamma   59.83804779
_symmetry_Int_Tables_number   1
_chemical_formula_structural   Zr6Nb4Al12Tc3Ir4
_chemical_formula_sum   'Zr6 Nb4 Al12 Tc3 Ir4'
_cell_volume   494.90827030
_cell_formula_units_Z   1
loop_
 _symmetry_equiv_pos_site_id
 _symmetry_equiv_pos_as_xyz
  1  'x, y, z'
loop_
 _atom_site_type_symbol
 _atom_site_label
 _atom_site_symmetry_multiplicity
 _atom_site_fract_x
 _atom_site_fract_y
 _atom_site_fract_z
 _atom_site_occupancy
  Zr  Zr0  1  0.700423  0.704710  0.300227  1
  Zr  Zr1  1  0.294639  0.704710  0.300227  1
  Zr  Zr2  1  0.694451  0.301463  0.309635  1
  Zr  Zr3  1  0.303849  0.298012  0.697893  1
  Zr  Zr4  1  0.700246  0.298012  0.697893  1
  Zr  Zr5  1  0.306714  0.695572  0.690998  1
  Nb  Nb6  1  0.878199  0.881691  0.361910  1
  Nb  Nb7  1  0.879560  0.360630  0.880250  1
  Nb  Nb8  1  0.361657  0.880082  0.877159  1
  Nb  Nb9  1  0.881103  0.880082  0.877159  1
  Al  Al10  1  0.120840  0.119739  0.638581  1
  Al  Al11  1  0.120992  0.638733  0.119283  1
  Al  Al12  1  0.638215  0.120709  0.121399  1
  Al  Al13  1  0.119677  0.120709  0.121399  1
  Al  Al14  1  0.657836  0.659889  0.024438  1
  Al  Al15  1  0.662407  0.010845  0.664339  1
  Al  Al16  1  0.016540  0.659294  0.661696  1
  Al  Al17  1  0.662469  0.659294  0.661696  1
  Al  Al18  1  0.337827  0.337798  0.986550  1
  Al  Al19  1  0.333945  0.000013  0.332098  1
  Al  Al20  1  0.994967  0.335868  0.334742  1
  Al  Al21  1  0.334425  0.335868  0.334742  1
  Tc  Tc22  1  0.999969  0.001464  0.998596  1
  Tc  Tc23  1  0.998226  0.996924  0.503302  1
  Tc  Tc24  1  0.501549  0.996924  0.503302  1
  Ir  Ir25  1  0.998893  0.499895  0.502319  1
  Ir  Ir26  1  0.501957  0.500872  0.999690  1
  Ir  Ir27  1  0.997482  0.500872  0.999690  1
  Ir  Ir28  1  0.500943  0.999326  0.998787  1
