# generated using pymatgen
data_LaIn2NiIr8
_symmetry_space_group_name_H-M   'P 1'
_cell_length_a   5.26383900
_cell_length_b   8.79947000
_cell_length_c   8.79947000
_cell_angle_alpha   90.00000000
_cell_angle_beta   90.00000000
_cell_angle_gamma   90.00000000
_symmetry_Int_Tables_number   1
_chemical_formula_structural   LaIn2NiIr8
_chemical_formula_sum   'La2 In4 Ni2 Ir16'
_cell_volume   407.58259255
_cell_formula_units_Z   2
loop_
 _symmetry_equiv_pos_site_id
 _symmetry_equiv_pos_as_xyz
  1  'x, y, z'
loop_
 _atom_site_type_symbol
 _atom_site_label
 _atom_site_symmetry_multiplicity
 _atom_site_fract_x
 _atom_site_fract_y
 _atom_site_fract_z
 _atom_site_occupancy
  La  La0  1  0.000000  0.500000  0.500000  1
  La  La1  1  0.000000  0.000000  0.000000  1
  In  In2  1  0.000000  0.622527  0.122527  1
  In  In3  1  0.000000  0.377473  0.877473  1
  In  In4  1  0.000000  0.877473  0.622527  1
  In  In5  1  0.000000  0.122527  0.377473  1
  Ni  Ni6  1  0.500000  0.000000  0.500000  1
  Ni  Ni7  1  0.500000  0.500000  0.000000  1
  Ir  Ir8  1  0.757574  0.174513  0.674513  1
  Ir  Ir9  1  0.757574  0.825487  0.325487  1
  Ir  Ir10  1  0.757574  0.325487  0.174513  1
  Ir  Ir11  1  0.757574  0.674513  0.825487  1
  Ir  Ir12  1  0.242426  0.825487  0.325487  1
  Ir  Ir13  1  0.242426  0.174513  0.674513  1
  Ir  Ir14  1  0.242426  0.674513  0.825487  1
  Ir  Ir15  1  0.242426  0.325487  0.174513  1
  Ir  Ir16  1  0.500000  0.706497  0.564739  1
  Ir  Ir17  1  0.500000  0.293503  0.435261  1
  Ir  Ir18  1  0.500000  0.793503  0.064739  1
  Ir  Ir19  1  0.500000  0.206497  0.935261  1
  Ir  Ir20  1  0.500000  0.564739  0.293503  1
  Ir  Ir21  1  0.500000  0.435261  0.706497  1
  Ir  Ir22  1  0.500000  0.064739  0.206497  1
  Ir  Ir23  1  0.500000  0.935261  0.793503  1
