# generated using pymatgen
data_Nd2Ga5IrPd2
_symmetry_space_group_name_H-M   'P 1'
_cell_length_a   8.72704106
_cell_length_b   8.73847264
_cell_length_c   8.73847254
_cell_angle_alpha   140.99605365
_cell_angle_beta   108.06883481
_cell_angle_gamma   85.01067715
_symmetry_Int_Tables_number   1
_chemical_formula_structural   Nd2Ga5IrPd2
_chemical_formula_sum   'Nd4 Ga10 Ir2 Pd4'
_cell_volume   385.29084598
_cell_formula_units_Z   2
loop_
 _symmetry_equiv_pos_site_id
 _symmetry_equiv_pos_as_xyz
  1  'x, y, z'
loop_
 _atom_site_type_symbol
 _atom_site_label
 _atom_site_symmetry_multiplicity
 _atom_site_fract_x
 _atom_site_fract_y
 _atom_site_fract_z
 _atom_site_occupancy
  Nd  Nd0  1  0.862029  0.636320  0.225709  1
  Nd  Nd1  1  0.137971  0.363680  0.774291  1
  Nd  Nd2  1  0.413235  0.138974  0.274262  1
  Nd  Nd3  1  0.586765  0.861026  0.725738  1
  Ga  Ga4  1  0.500000  0.744062  0.244062  1
  Ga  Ga5  1  0.500000  0.255938  0.755938  1
  Ga  Ga6  1  0.210433  0.959817  0.751250  1
  Ga  Ga7  1  0.789567  0.540817  0.749384  1
  Ga  Ga8  1  0.789567  0.040183  0.248750  1
  Ga  Ga9  1  0.210433  0.459183  0.250616  1
  Ga  Ga10  1  0.073162  0.905840  0.167323  1
  Ga  Ga11  1  0.926838  0.094160  0.832677  1
  Ga  Ga12  1  0.734159  0.405872  0.328287  1
  Ga  Ga13  1  0.265841  0.594128  0.671713  1
  Ir  Ir14  1  0.447678  0.353595  0.094084  1
  Ir  Ir15  1  0.552322  0.646405  0.905916  1
  Pd  Pd16  1  0.000000  0.749301  0.749301  1
  Pd  Pd17  1  0.000000  0.250699  0.250699  1
  Pd  Pd18  1  0.258899  0.854852  0.404049  1
  Pd  Pd19  1  0.741101  0.145148  0.595951  1
