# generated using pymatgen
data_Yb3CeCoOs7
_symmetry_space_group_name_H-M   'P 1'
_cell_length_a   5.29056597
_cell_length_b   5.29056664
_cell_length_c   8.80957209
_cell_angle_alpha   89.98453127
_cell_angle_beta   90.01546927
_cell_angle_gamma   120.92005444
_symmetry_Int_Tables_number   1
_chemical_formula_structural   Yb3CeCoOs7
_chemical_formula_sum   'Yb3 Ce1 Co1 Os7'
_cell_volume   211.53792674
_cell_formula_units_Z   1
loop_
 _symmetry_equiv_pos_site_id
 _symmetry_equiv_pos_as_xyz
  1  'x, y, z'
loop_
 _atom_site_type_symbol
 _atom_site_label
 _atom_site_symmetry_multiplicity
 _atom_site_fract_x
 _atom_site_fract_y
 _atom_site_fract_z
 _atom_site_occupancy
  Yb  Yb0  1  0.669708  0.330292  0.566277  1
  Yb  Yb1  1  0.669732  0.330268  0.937649  1
  Yb  Yb2  1  0.333300  0.666700  0.063076  1
  Ce  Ce3  1  0.334745  0.665255  0.430441  1
  Co  Co4  1  0.821050  0.178950  0.250889  1
  Os  Os5  1  0.012188  0.987812  0.497945  1
  Os  Os6  1  0.009324  0.990676  0.004673  1
  Os  Os7  1  0.821338  0.662357  0.247279  1
  Os  Os8  1  0.337643  0.178662  0.247279  1
  Os  Os9  1  0.165766  0.834234  0.753004  1
  Os  Os10  1  0.170785  0.345577  0.750744  1
  Os  Os11  1  0.654423  0.829215  0.750744  1
