# generated using pymatgen
data_PuTaN2
_symmetry_space_group_name_H-M   'P 1'
_cell_length_a   3.28643300
_cell_length_b   5.68849700
_cell_length_c   10.95279200
_cell_angle_alpha   90.00000000
_cell_angle_beta   90.00000000
_cell_angle_gamma   90.00000000
_symmetry_Int_Tables_number   1
_chemical_formula_structural   PuTaN2
_chemical_formula_sum   'Pu4 Ta4 N8'
_cell_volume   204.76095972
_cell_formula_units_Z   4
loop_
 _symmetry_equiv_pos_site_id
 _symmetry_equiv_pos_as_xyz
  1  'x, y, z'
loop_
 _atom_site_type_symbol
 _atom_site_label
 _atom_site_symmetry_multiplicity
 _atom_site_fract_x
 _atom_site_fract_y
 _atom_site_fract_z
 _atom_site_occupancy
  Pu  Pu0  1  0.250000  0.581363  0.860705  1
  Pu  Pu1  1  0.750000  0.418637  0.139295  1
  Pu  Pu2  1  0.750000  0.918637  0.360705  1
  Pu  Pu3  1  0.250000  0.081363  0.639295  1
  Ta  Ta4  1  0.250000  0.919370  0.106213  1
  Ta  Ta5  1  0.750000  0.080630  0.893787  1
  Ta  Ta6  1  0.750000  0.580630  0.606213  1
  Ta  Ta7  1  0.250000  0.419370  0.393787  1
  N  N8  1  0.250000  0.660538  0.245031  1
  N  N9  1  0.750000  0.339462  0.754969  1
  N  N10  1  0.750000  0.839462  0.745031  1
  N  N11  1  0.250000  0.160538  0.254969  1
  N  N12  1  0.250000  0.746141  0.507311  1
  N  N13  1  0.750000  0.253859  0.492689  1
  N  N14  1  0.750000  0.753859  0.007311  1
  N  N15  1  0.250000  0.246141  0.992689  1
