# generated using pymatgen
data_Sm4(Ga8Pt3)3
_symmetry_space_group_name_H-M   'P 1'
_cell_length_a   7.56815549
_cell_length_b   7.62993155
_cell_length_c   13.42456493
_cell_angle_alpha   84.73513210
_cell_angle_beta   79.43749246
_cell_angle_gamma   60.13705989
_symmetry_Int_Tables_number   1
_chemical_formula_structural   Sm4(Ga8Pt3)3
_chemical_formula_sum   'Sm4 Ga24 Pt9'
_cell_volume   660.87247208
_cell_formula_units_Z   1
loop_
 _symmetry_equiv_pos_site_id
 _symmetry_equiv_pos_as_xyz
  1  'x, y, z'
loop_
 _atom_site_type_symbol
 _atom_site_label
 _atom_site_symmetry_multiplicity
 _atom_site_fract_x
 _atom_site_fract_y
 _atom_site_fract_z
 _atom_site_occupancy
  Sm  Sm0  1  0.392804  0.168737  0.811337  1
  Sm  Sm1  1  0.607196  0.831263  0.188663  1
  Sm  Sm2  1  0.732262  0.497334  0.811654  1
  Sm  Sm3  1  0.267738  0.502666  0.188346  1
  Ga  Ga4  1  0.686218  0.833664  0.939952  1
  Ga  Ga5  1  0.313782  0.166336  0.060048  1
  Ga  Ga6  1  0.146506  0.832344  0.558741  1
  Ga  Ga7  1  0.853494  0.167656  0.441259  1
  Ga  Ga8  1  0.478681  0.166809  0.556122  1
  Ga  Ga9  1  0.521319  0.833191  0.443878  1
  Ga  Ga10  1  0.219787  0.165342  0.325774  1
  Ga  Ga11  1  0.780213  0.834658  0.674226  1
  Ga  Ga12  1  0.437671  0.504162  0.672991  1
  Ga  Ga13  1  0.562329  0.495838  0.327009  1
  Ga  Ga14  1  0.107280  0.163251  0.672571  1
  Ga  Ga15  1  0.892720  0.836749  0.327429  1
  Ga  Ga16  1  0.355174  0.499335  0.940292  1
  Ga  Ga17  1  0.644826  0.500665  0.059708  1
  Ga  Ga18  1  0.018502  0.168215  0.946098  1
  Ga  Ga19  1  0.981498  0.831785  0.053902  1
  Ga  Ga20  1  0.186623  0.498844  0.443051  1
  Ga  Ga21  1  0.813377  0.501156  0.556949  1
  Ga  Ga22  1  0.735235  0.163928  0.182484  1
  Ga  Ga23  1  0.264765  0.836072  0.817516  1
  Ga  Ga24  1  0.061369  0.632183  0.816907  1
  Ga  Ga25  1  0.938631  0.367817  0.183093  1
  Ga  Ga26  1  0.857379  0.038993  0.816842  1
  Ga  Ga27  1  0.142621  0.961007  0.183159  1
  Pt  Pt28  1  0.118245  0.496665  0.637948  1
  Pt  Pt29  1  0.881755  0.503335  0.362052  1
  Pt  Pt30  1  0.659713  0.169919  0.999606  1
  Pt  Pt31  1  0.340287  0.830081  0.000394  1
  Pt  Pt32  1  0.540781  0.166774  0.361314  1
  Pt  Pt33  1  0.459219  0.833226  0.638686  1
  Pt  Pt34  1  0.780840  0.171196  0.636328  1
  Pt  Pt35  1  0.219160  0.828804  0.363672  1
  Pt  Pt36  1  0.000000  0.500000  0.000000  1
