# generated using pymatgen
data_Tb3Y3Tm10(CdPt)4
_symmetry_space_group_name_H-M   'P 1'
_cell_length_a   9.60648783
_cell_length_b   9.60731452
_cell_length_c   9.60848002
_cell_angle_alpha   59.99028932
_cell_angle_beta   59.99673874
_cell_angle_gamma   60.01087337
_symmetry_Int_Tables_number   1
_chemical_formula_structural   Tb3Y3Tm10(CdPt)4
_chemical_formula_sum   'Tb3 Y3 Tm10 Cd4 Pt4'
_cell_volume   627.04602977
_cell_formula_units_Z   1
loop_
 _symmetry_equiv_pos_site_id
 _symmetry_equiv_pos_as_xyz
  1  'x, y, z'
loop_
 _atom_site_type_symbol
 _atom_site_label
 _atom_site_symmetry_multiplicity
 _atom_site_fract_x
 _atom_site_fract_y
 _atom_site_fract_z
 _atom_site_occupancy
  Tb  Tb0  1  0.937011  0.562980  0.562932  1
  Tb  Tb1  1  0.562932  0.937077  0.937011  1
  Tb  Tb2  1  0.562965  0.937035  0.562965  1
  Y  Y3  1  0.937019  0.562981  0.937019  1
  Y  Y4  1  0.562966  0.563003  0.936998  1
  Y  Y5  1  0.936998  0.937034  0.562966  1
  Tm  Tm6  1  0.352009  0.351999  0.352063  1
  Tm  Tm7  1  0.352009  0.351978  0.943984  1
  Tm  Tm8  1  0.352063  0.943928  0.352009  1
  Tm  Tm9  1  0.943984  0.352027  0.352009  1
  Tm  Tm10  1  0.811500  0.188498  0.188504  1
  Tm  Tm11  1  0.188504  0.811498  0.811500  1
  Tm  Tm12  1  0.188479  0.811521  0.188479  1
  Tm  Tm13  1  0.811477  0.188523  0.811477  1
  Tm  Tm14  1  0.188511  0.188497  0.811509  1
  Tm  Tm15  1  0.811509  0.811483  0.188511  1
  Cd  Cd16  1  0.581373  0.581368  0.581465  1
  Cd  Cd17  1  0.581426  0.581331  0.255827  1
  Cd  Cd18  1  0.581465  0.255795  0.581373  1
  Cd  Cd19  1  0.255827  0.581417  0.581426  1
  Pt  Pt20  1  0.143178  0.143219  0.143194  1
  Pt  Pt21  1  0.143170  0.143186  0.570432  1
  Pt  Pt22  1  0.143194  0.570410  0.143178  1
  Pt  Pt23  1  0.570432  0.143212  0.143170  1
