# generated using pymatgen
data_Ho10In8CuIr3
_symmetry_space_group_name_H-M   'P 1'
_cell_length_a   3.61924600
_cell_length_b   8.07079248
_cell_length_c   18.15377102
_cell_angle_alpha   89.92013046
_cell_angle_beta   90.00000000
_cell_angle_gamma   90.00000000
_symmetry_Int_Tables_number   1
_chemical_formula_structural   Ho10In8CuIr3
_chemical_formula_sum   'Ho10 In8 Cu1 Ir3'
_cell_volume   530.27446534
_cell_formula_units_Z   1
loop_
 _symmetry_equiv_pos_site_id
 _symmetry_equiv_pos_as_xyz
  1  'x, y, z'
loop_
 _atom_site_type_symbol
 _atom_site_label
 _atom_site_symmetry_multiplicity
 _atom_site_fract_x
 _atom_site_fract_y
 _atom_site_fract_z
 _atom_site_occupancy
  Ho  Ho0  1  0.000000  0.498975  0.501072  1
  Ho  Ho1  1  0.000000  0.999919  0.999474  1
  Ho  Ho2  1  0.000000  0.727341  0.277683  1
  Ho  Ho3  1  0.000000  0.259116  0.722403  1
  Ho  Ho4  1  0.000000  0.758932  0.777222  1
  Ho  Ho5  1  0.000000  0.254980  0.219939  1
  Ho  Ho6  1  0.000000  0.614226  0.086860  1
  Ho  Ho7  1  0.000000  0.385208  0.910486  1
  Ho  Ho8  1  0.000000  0.886528  0.589190  1
  Ho  Ho9  1  0.000000  0.115965  0.415145  1
  In  In10  1  0.500000  0.708195  0.932103  1
  In  In11  1  0.500000  0.291284  0.067260  1
  In  In12  1  0.500000  0.792167  0.431995  1
  In  In13  1  0.500000  0.207904  0.568096  1
  In  In14  1  0.500000  0.573075  0.648744  1
  In  In15  1  0.500000  0.421356  0.351899  1
  In  In16  1  0.500000  0.923819  0.150831  1
  In  In17  1  0.500000  0.072467  0.850747  1
  Cu  Cu18  1  0.500000  0.018763  0.303046  1
  Ir  Ir19  1  0.500000  0.520228  0.195889  1
  Ir  Ir20  1  0.500000  0.484532  0.803725  1
  Ir  Ir21  1  0.500000  0.985020  0.696189  1
