# generated using pymatgen
data_Dy6Y2Sc12Si15Ge
_symmetry_space_group_name_H-M   'P 1'
_cell_length_a   7.10851640
_cell_length_b   7.39293004
_cell_length_c   14.01300411
_cell_angle_alpha   89.99927470
_cell_angle_beta   89.89980383
_cell_angle_gamma   90.03326537
_symmetry_Int_Tables_number   1
_chemical_formula_structural   Dy6Y2Sc12Si15Ge
_chemical_formula_sum   'Dy6 Y2 Sc12 Si15 Ge1'
_cell_volume   736.42085438
_cell_formula_units_Z   1
loop_
 _symmetry_equiv_pos_site_id
 _symmetry_equiv_pos_as_xyz
  1  'x, y, z'
loop_
 _atom_site_type_symbol
 _atom_site_label
 _atom_site_symmetry_multiplicity
 _atom_site_fract_x
 _atom_site_fract_y
 _atom_site_fract_z
 _atom_site_occupancy
  Dy  Dy0  1  0.487988  0.675250  0.902947  1
  Dy  Dy1  1  0.987122  0.825917  0.597155  1
  Dy  Dy2  1  0.512137  0.324870  0.097077  1
  Dy  Dy3  1  0.011306  0.174481  0.402460  1
  Dy  Dy4  1  0.512816  0.323972  0.402371  1
  Dy  Dy5  1  0.490088  0.676488  0.597369  1
  Y  Y6  1  0.012167  0.175143  0.096969  1
  Y  Y7  1  0.987931  0.824921  0.903016  1
  Sc  Sc8  1  0.160629  0.502506  0.751113  1
  Sc  Sc9  1  0.839274  0.497498  0.250078  1
  Sc  Sc10  1  0.339528  0.002384  0.250087  1
  Sc  Sc11  1  0.660599  0.997354  0.749986  1
  Sc  Sc12  1  0.332179  0.174491  0.625818  1
  Sc  Sc13  1  0.668865  0.823842  0.374695  1
  Sc  Sc14  1  0.168610  0.677332  0.374411  1
  Sc  Sc15  1  0.669206  0.823313  0.125099  1
  Sc  Sc16  1  0.829440  0.323347  0.625229  1
  Sc  Sc17  1  0.330773  0.176505  0.874814  1
  Sc  Sc18  1  0.830679  0.323367  0.874739  1
  Sc  Sc19  1  0.169268  0.676715  0.125166  1
  Si  Si20  1  0.033437  0.117919  0.749987  1
  Si  Si21  1  0.966512  0.882528  0.249828  1
  Si  Si22  1  0.466461  0.617690  0.249932  1
  Si  Si23  1  0.533021  0.382550  0.750016  1
  Si  Si24  1  0.285439  0.873670  0.750056  1
  Si  Si25  1  0.714546  0.125966  0.249907  1
  Si  Si26  1  0.214556  0.374061  0.250069  1
  Si  Si27  1  0.785660  0.625987  0.749896  1
  Si  Si28  1  0.838018  0.536299  0.459686  1
  Si  Si29  1  0.342106  0.964603  0.460498  1
  Si  Si30  1  0.842343  0.535318  0.039475  1
  Si  Si31  1  0.657733  0.035602  0.539495  1
  Si  Si32  1  0.157553  0.464682  0.960545  1
  Si  Si33  1  0.657347  0.035451  0.960535  1
  Si  Si34  1  0.342581  0.964544  0.039455  1
  Ge  Ge35  1  0.162086  0.463435  0.540021  1
