# generated using pymatgen
data_Y7Ho5(CoRh)2
_symmetry_space_group_name_H-M   'P 1'
_cell_length_a   6.26828209
_cell_length_b   7.10558160
_cell_length_c   9.41660046
_cell_angle_alpha   89.94500414
_cell_angle_beta   89.93868175
_cell_angle_gamma   90.59602627
_symmetry_Int_Tables_number   1
_chemical_formula_structural   Y7Ho5(CoRh)2
_chemical_formula_sum   'Y7 Ho5 Co2 Rh2'
_cell_volume   419.39027488
_cell_formula_units_Z   1
loop_
 _symmetry_equiv_pos_site_id
 _symmetry_equiv_pos_as_xyz
  1  'x, y, z'
loop_
 _atom_site_type_symbol
 _atom_site_label
 _atom_site_symmetry_multiplicity
 _atom_site_fract_x
 _atom_site_fract_y
 _atom_site_fract_z
 _atom_site_occupancy
  Y  Y0  1  0.628199  0.043641  0.248726  1
  Y  Y1  1  0.372641  0.956352  0.751735  1
  Y  Y2  1  0.142596  0.469985  0.751874  1
  Y  Y3  1  0.856926  0.530723  0.248677  1
  Y  Y4  1  0.175630  0.180650  0.435986  1
  Y  Y5  1  0.326369  0.671533  0.434552  1
  Y  Y6  1  0.673994  0.329318  0.565992  1
  Ho  Ho7  1  0.176225  0.180600  0.064501  1
  Ho  Ho8  1  0.823836  0.819030  0.935509  1
  Ho  Ho9  1  0.673159  0.329481  0.934112  1
  Ho  Ho10  1  0.823343  0.819519  0.565718  1
  Ho  Ho11  1  0.326684  0.670458  0.066051  1
  Co  Co12  1  0.446066  0.383849  0.245986  1
  Co  Co13  1  0.555951  0.617063  0.752087  1
  Rh  Rh14  1  0.945355  0.112340  0.752685  1
  Rh  Rh15  1  0.053027  0.885456  0.245808  1
