# generated using pymatgen
data_TbY2HfSn2Ir3
_symmetry_space_group_name_H-M   'P 1'
_cell_length_a   7.25979305
_cell_length_b   7.36722913
_cell_length_c   4.21336800
_cell_angle_alpha   90.00000000
_cell_angle_beta   90.00000000
_cell_angle_gamma   119.50550298
_symmetry_Int_Tables_number   1
_chemical_formula_structural   TbY2HfSn2Ir3
_chemical_formula_sum   'Tb1 Y2 Hf1 Sn2 Ir3'
_cell_volume   196.12410913
_cell_formula_units_Z   1
loop_
 _symmetry_equiv_pos_site_id
 _symmetry_equiv_pos_as_xyz
  1  'x, y, z'
loop_
 _atom_site_type_symbol
 _atom_site_label
 _atom_site_symmetry_multiplicity
 _atom_site_fract_x
 _atom_site_fract_y
 _atom_site_fract_z
 _atom_site_occupancy
  Tb  Tb0  1  0.411165  0.414912  0.000000  1
  Y  Y1  1  0.602907  0.000005  0.000000  1
  Y  Y2  1  0.996280  0.585165  0.000000  1
  Hf  Hf3  1  0.248916  0.999928  0.500000  1
  Sn  Sn4  1  0.001440  0.254575  0.500000  1
  Sn  Sn5  1  0.746951  0.745413  0.500000  1
  Ir  Ir6  1  0.326835  0.679706  0.500000  1
  Ir  Ir7  1  0.646995  0.320252  0.500000  1
  Ir  Ir8  1  0.018512  0.000044  0.000000  1
