# generated using pymatgen
data_Tm4Sc8Fe3Sn2
_symmetry_space_group_name_H-M   'P 1'
_cell_length_a   7.94613026
_cell_length_b   7.94612942
_cell_length_c   7.94613078
_cell_angle_alpha   108.32092447
_cell_angle_beta   108.32091130
_cell_angle_gamma   111.79717080
_symmetry_Int_Tables_number   1
_chemical_formula_structural   Tm4Sc8Fe3Sn2
_chemical_formula_sum   'Tm4 Sc8 Fe3 Sn2'
_cell_volume   385.74967421
_cell_formula_units_Z   1
loop_
 _symmetry_equiv_pos_site_id
 _symmetry_equiv_pos_as_xyz
  1  'x, y, z'
loop_
 _atom_site_type_symbol
 _atom_site_label
 _atom_site_symmetry_multiplicity
 _atom_site_fract_x
 _atom_site_fract_y
 _atom_site_fract_z
 _atom_site_occupancy
  Tm  Tm0  1  0.303033  0.303033  0.606064  1
  Tm  Tm1  1  0.696967  0.696967  0.393936  1
  Tm  Tm2  1  0.696967  0.303033  0.000000  1
  Tm  Tm3  1  0.303033  0.696967  0.000000  1
  Sc  Sc4  1  0.191744  0.423284  0.231540  1
  Sc  Sc5  1  0.808256  0.576716  0.768460  1
  Sc  Sc6  1  0.191744  0.960204  0.768460  1
  Sc  Sc7  1  0.960204  0.191744  0.768460  1
  Sc  Sc8  1  0.808256  0.039796  0.231540  1
  Sc  Sc9  1  0.039796  0.808256  0.231540  1
  Sc  Sc10  1  0.423284  0.191744  0.231540  1
  Sc  Sc11  1  0.576716  0.808256  0.768460  1
  Fe  Fe12  1  0.378565  0.378565  0.000000  1
  Fe  Fe13  1  0.621435  0.621435  0.000000  1
  Fe  Fe14  1  0.000000  0.000000  0.000000  1
  Sn  Sn15  1  0.000000  0.500000  0.500000  1
  Sn  Sn16  1  0.500000  0.000000  0.500000  1
