# generated using pymatgen
data_NaNpSe2O7
_symmetry_space_group_name_H-M   'P 1'
_cell_length_a   7.10915677
_cell_length_b   7.10915795
_cell_length_c   7.73421100
_cell_angle_alpha   90.00000000
_cell_angle_beta   90.00000000
_cell_angle_gamma   109.89957715
_symmetry_Int_Tables_number   1
_chemical_formula_structural   NaNpSe2O7
_chemical_formula_sum   'Na2 Np2 Se4 O14'
_cell_volume   367.54827074
_cell_formula_units_Z   2
loop_
 _symmetry_equiv_pos_site_id
 _symmetry_equiv_pos_as_xyz
  1  'x, y, z'
loop_
 _atom_site_type_symbol
 _atom_site_label
 _atom_site_symmetry_multiplicity
 _atom_site_fract_x
 _atom_site_fract_y
 _atom_site_fract_z
 _atom_site_occupancy
  Na  Na0  1  0.982186  0.982186  0.366112  1
  Na  Na1  1  0.017814  0.017814  0.866112  1
  Np  Np2  1  0.503526  0.503526  0.881255  1
  Np  Np3  1  0.496474  0.496474  0.381255  1
  Se  Se4  1  0.575213  0.975532  0.628148  1
  Se  Se5  1  0.975532  0.575213  0.628148  1
  Se  Se6  1  0.424787  0.024468  0.128148  1
  Se  Se7  1  0.024468  0.424787  0.128148  1
  O  O8  1  0.553718  0.812511  0.807896  1
  O  O9  1  0.812511  0.553718  0.807896  1
  O  O10  1  0.446282  0.187489  0.307896  1
  O  O11  1  0.187489  0.446282  0.307896  1
  O  O12  1  0.549732  0.806939  0.451672  1
  O  O13  1  0.806939  0.549732  0.451672  1
  O  O14  1  0.450268  0.193061  0.951672  1
  O  O15  1  0.193061  0.450268  0.951672  1
  O  O16  1  0.822500  0.096661  0.623703  1
  O  O17  1  0.096661  0.822500  0.623703  1
  O  O18  1  0.177500  0.903339  0.123703  1
  O  O19  1  0.903339  0.177500  0.123703  1
  O  O20  1  0.411130  0.411130  0.632733  1
  O  O21  1  0.588870  0.588870  0.132733  1
