# generated using pymatgen
data_Cs6In(PBr6)3
_symmetry_space_group_name_H-M   'P 1'
_cell_length_a   7.89719000
_cell_length_b   7.89719023
_cell_length_c   19.48670600
_cell_angle_alpha   90.00000000
_cell_angle_beta   90.00000000
_cell_angle_gamma   119.99999066
_symmetry_Int_Tables_number   1
_chemical_formula_structural   Cs6In(PBr6)3
_chemical_formula_sum   'Cs6 In1 P3 Br18'
_cell_volume   1052.48106647
_cell_formula_units_Z   1
loop_
 _symmetry_equiv_pos_site_id
 _symmetry_equiv_pos_as_xyz
  1  'x, y, z'
loop_
 _atom_site_type_symbol
 _atom_site_label
 _atom_site_symmetry_multiplicity
 _atom_site_fract_x
 _atom_site_fract_y
 _atom_site_fract_z
 _atom_site_occupancy
  Cs  Cs0  1  0.333333  0.666667  0.078116  1
  Cs  Cs1  1  0.666667  0.333333  0.917663  1
  Cs  Cs2  1  0.666667  0.333333  0.579204  1
  Cs  Cs3  1  0.333333  0.666667  0.406666  1
  Cs  Cs4  1  0.000000  0.000000  0.251854  1
  Cs  Cs5  1  0.000000  0.000000  0.760192  1
  In  In6  1  0.333333  0.666667  0.840685  1
  P  P7  1  0.333333  0.666667  0.650892  1
  P  P8  1  0.666667  0.333333  0.342485  1
  P  P9  1  0.666667  0.333333  0.156475  1
  Br  Br10  1  0.184162  0.368325  0.586728  1
  Br  Br11  1  0.817957  0.635913  0.411266  1
  Br  Br12  1  0.631675  0.815838  0.586728  1
  Br  Br13  1  0.816311  0.632622  0.090931  1
  Br  Br14  1  0.364087  0.182043  0.411266  1
  Br  Br15  1  0.169391  0.338782  0.913795  1
  Br  Br16  1  0.184162  0.815838  0.586728  1
  Br  Br17  1  0.367378  0.183689  0.090931  1
  Br  Br18  1  0.817957  0.182043  0.411266  1
  Br  Br19  1  0.661218  0.830609  0.913795  1
  Br  Br20  1  0.816311  0.183689  0.090931  1
  Br  Br21  1  0.169391  0.830609  0.913795  1
  Br  Br22  1  0.508051  0.016100  0.253008  1
  Br  Br23  1  0.492611  0.985220  0.749529  1
  Br  Br24  1  0.983900  0.491949  0.253008  1
  Br  Br25  1  0.014780  0.507389  0.749529  1
  Br  Br26  1  0.508051  0.491949  0.253008  1
  Br  Br27  1  0.492611  0.507389  0.749529  1
