# generated using pymatgen
data_ErZr(Al3Ir)3
_symmetry_space_group_name_H-M   'P 1'
_cell_length_a   7.50893062
_cell_length_b   7.52114515
_cell_length_c   9.34413600
_cell_angle_alpha   90.00000000
_cell_angle_beta   90.00000000
_cell_angle_gamma   119.72739007
_symmetry_Int_Tables_number   1
_chemical_formula_structural   ErZr(Al3Ir)3
_chemical_formula_sum   'Er2 Zr2 Al18 Ir6'
_cell_volume   458.26670778
_cell_formula_units_Z   2
loop_
 _symmetry_equiv_pos_site_id
 _symmetry_equiv_pos_as_xyz
  1  'x, y, z'
loop_
 _atom_site_type_symbol
 _atom_site_label
 _atom_site_symmetry_multiplicity
 _atom_site_fract_x
 _atom_site_fract_y
 _atom_site_fract_z
 _atom_site_occupancy
  Er  Er0  1  0.994130  0.671217  0.250000  1
  Er  Er1  1  0.005870  0.328783  0.750000  1
  Zr  Zr2  1  0.671259  0.994661  0.250000  1
  Zr  Zr3  1  0.328741  0.005339  0.750000  1
  Al  Al4  1  0.124660  0.126422  0.250000  1
  Al  Al5  1  0.875340  0.873578  0.750000  1
  Al  Al6  1  0.998352  0.332615  0.077668  1
  Al  Al7  1  0.001648  0.667385  0.922332  1
  Al  Al8  1  0.001648  0.667385  0.577668  1
  Al  Al9  1  0.336839  0.999840  0.424603  1
  Al  Al10  1  0.998352  0.332615  0.422332  1
  Al  Al11  1  0.663161  0.000160  0.575397  1
  Al  Al12  1  0.663161  0.000160  0.924603  1
  Al  Al13  1  0.336839  0.999840  0.075397  1
  Al  Al14  1  0.333547  0.331550  0.556786  1
  Al  Al15  1  0.666453  0.668450  0.443214  1
  Al  Al16  1  0.666453  0.668450  0.056786  1
  Al  Al17  1  0.333547  0.331550  0.943214  1
  Al  Al18  1  0.342410  0.553673  0.250000  1
  Al  Al19  1  0.657590  0.446327  0.750000  1
  Al  Al20  1  0.548652  0.335168  0.250000  1
  Al  Al21  1  0.451348  0.664832  0.750000  1
  Ir  Ir22  1  0.672783  0.327944  0.000452  1
  Ir  Ir23  1  0.327217  0.672056  0.999548  1
  Ir  Ir24  1  0.327217  0.672056  0.500452  1
  Ir  Ir25  1  0.672783  0.327944  0.499548  1
  Ir  Ir26  1  0.000000  0.000000  0.000000  1
  Ir  Ir27  1  0.000000  0.000000  0.500000  1
