# generated using pymatgen
data_YHoTa4(B2Ru5)2
_symmetry_space_group_name_H-M   'P 1'
_cell_length_a   9.55726554
_cell_length_b   9.55726555
_cell_length_c   3.09026900
_cell_angle_alpha   90.00000000
_cell_angle_beta   90.00000000
_cell_angle_gamma   90.63449160
_symmetry_Int_Tables_number   1
_chemical_formula_structural   YHoTa4(B2Ru5)2
_chemical_formula_sum   'Y1 Ho1 Ta4 B4 Ru10'
_cell_volume   282.25195643
_cell_formula_units_Z   1
loop_
 _symmetry_equiv_pos_site_id
 _symmetry_equiv_pos_as_xyz
  1  'x, y, z'
loop_
 _atom_site_type_symbol
 _atom_site_label
 _atom_site_symmetry_multiplicity
 _atom_site_fract_x
 _atom_site_fract_y
 _atom_site_fract_z
 _atom_site_occupancy
  Y  Y0  1  0.823521  0.676479  0.000000  1
  Ho  Ho1  1  0.176597  0.323403  0.000000  1
  Ta  Ta2  1  0.323960  0.824054  0.000000  1
  Ta  Ta3  1  0.675946  0.176040  0.000000  1
  Ta  Ta4  1  0.499697  0.499844  0.000000  1
  Ta  Ta5  1  0.000156  0.000303  0.000000  1
  B  B6  1  0.620021  0.879979  0.000000  1
  B  B7  1  0.379698  0.120302  0.000000  1
  B  B8  1  0.121365  0.621090  0.000000  1
  B  B9  1  0.878910  0.378635  0.000000  1
  Ru  Ru10  1  0.557973  0.723844  0.500000  1
  Ru  Ru11  1  0.440873  0.276575  0.500000  1
  Ru  Ru12  1  0.082587  0.785583  0.500000  1
  Ru  Ru13  1  0.918427  0.214448  0.500000  1
  Ru  Ru14  1  0.285552  0.581573  0.500000  1
  Ru  Ru15  1  0.714417  0.417413  0.500000  1
  Ru  Ru16  1  0.223425  0.059127  0.500000  1
  Ru  Ru17  1  0.776156  0.942027  0.500000  1
  Ru  Ru18  1  0.499764  0.000236  0.500000  1
  Ru  Ru19  1  0.000955  0.499045  0.500000  1
