# generated using pymatgen
data_SmEr19(FeBi5)2
_symmetry_space_group_name_H-M   'P 1'
_cell_length_a   8.02107784
_cell_length_b   9.37061800
_cell_length_c   12.09299800
_cell_angle_alpha   90.00000000
_cell_angle_beta   90.33589437
_cell_angle_gamma   90.00000000
_symmetry_Int_Tables_number   1
_chemical_formula_structural   SmEr19(FeBi5)2
_chemical_formula_sum   'Sm1 Er19 Fe2 Bi10'
_cell_volume   908.92381489
_cell_formula_units_Z   1
loop_
 _symmetry_equiv_pos_site_id
 _symmetry_equiv_pos_as_xyz
  1  'x, y, z'
loop_
 _atom_site_type_symbol
 _atom_site_label
 _atom_site_symmetry_multiplicity
 _atom_site_fract_x
 _atom_site_fract_y
 _atom_site_fract_z
 _atom_site_occupancy
  Sm  Sm0  1  0.577091  0.500000  0.774422  1
  Er  Er1  1  0.432280  0.177433  0.562650  1
  Er  Er2  1  0.567530  0.822761  0.062406  1
  Er  Er3  1  0.074665  0.731919  0.435982  1
  Er  Er4  1  0.923526  0.269243  0.936624  1
  Er  Er5  1  0.074665  0.268081  0.435982  1
  Er  Er6  1  0.923526  0.730757  0.936624  1
  Er  Er7  1  0.432280  0.822567  0.562650  1
  Er  Er8  1  0.567530  0.177239  0.062406  1
  Er  Er9  1  0.426977  0.500000  0.272330  1
  Er  Er10  1  0.905448  0.000000  0.201351  1
  Er  Er11  1  0.095602  0.000000  0.698723  1
  Er  Er12  1  0.255727  0.500000  0.993431  1
  Er  Er13  1  0.744305  0.500000  0.493570  1
  Er  Er14  1  0.190762  0.000000  0.996170  1
  Er  Er15  1  0.805898  0.000000  0.493003  1
  Er  Er16  1  0.089567  0.500000  0.718185  1
  Er  Er17  1  0.912200  0.500000  0.222000  1
  Er  Er18  1  0.369562  0.000000  0.309003  1
  Er  Er19  1  0.632352  0.000000  0.809404  1
  Fe  Fe20  1  0.177362  0.000000  0.487182  1
  Fe  Fe21  1  0.823300  0.000000  0.989776  1
  Bi  Bi22  1  0.819231  0.744030  0.669106  1
  Bi  Bi23  1  0.184491  0.259235  0.171513  1
  Bi  Bi24  1  0.678986  0.242124  0.325449  1
  Bi  Bi25  1  0.316878  0.759723  0.826433  1
  Bi  Bi26  1  0.678986  0.757876  0.325449  1
  Bi  Bi27  1  0.316878  0.240277  0.826433  1
  Bi  Bi28  1  0.819231  0.255970  0.669106  1
  Bi  Bi29  1  0.184491  0.740765  0.171513  1
  Bi  Bi30  1  0.346849  0.500000  0.526904  1
  Bi  Bi31  1  0.651829  0.500000  0.034224  1
