# generated using pymatgen
data_Th2ReTc2Os
_symmetry_space_group_name_H-M   'P 1'
_cell_length_a   5.36945049
_cell_length_b   5.26831917
_cell_length_c   9.54587900
_cell_angle_alpha   90.00000000
_cell_angle_beta   90.00000000
_cell_angle_gamma   119.37889444
_symmetry_Int_Tables_number   1
_chemical_formula_structural   Th2ReTc2Os
_chemical_formula_sum   'Th4 Re2 Tc4 Os2'
_cell_volume   235.30583732
_cell_formula_units_Z   2
loop_
 _symmetry_equiv_pos_site_id
 _symmetry_equiv_pos_as_xyz
  1  'x, y, z'
loop_
 _atom_site_type_symbol
 _atom_site_label
 _atom_site_symmetry_multiplicity
 _atom_site_fract_x
 _atom_site_fract_y
 _atom_site_fract_z
 _atom_site_occupancy
  Th  Th0  1  0.333035  0.666518  0.438049  1
  Th  Th1  1  0.664368  0.332183  0.563530  1
  Th  Th2  1  0.664368  0.332183  0.936470  1
  Th  Th3  1  0.333035  0.666518  0.061951  1
  Re  Re4  1  0.838895  0.171387  0.250000  1
  Re  Re5  1  0.838895  0.667509  0.250000  1
  Tc  Tc6  1  0.350233  0.175117  0.250000  1
  Tc  Tc7  1  0.167900  0.830353  0.750000  1
  Tc  Tc8  1  0.167900  0.337546  0.750000  1
  Tc  Tc9  1  0.662571  0.831285  0.750000  1
  Os  Os10  1  0.989400  0.994700  0.499541  1
  Os  Os11  1  0.989400  0.994700  0.000459  1
