# generated using pymatgen
data_Li32Cr5Ru11O48
_symmetry_space_group_name_H-M   'P 1'
_cell_length_a   5.13304003
_cell_length_b   5.13304007
_cell_length_c   39.30774800
_cell_angle_alpha   88.94932577
_cell_angle_beta   88.94932576
_cell_angle_gamma   119.80345421
_symmetry_Int_Tables_number   1
_chemical_formula_structural   Li32Cr5Ru11O48
_chemical_formula_sum   'Li32 Cr5 Ru11 O48'
_cell_volume   898.09920452
_cell_formula_units_Z   1
loop_
 _symmetry_equiv_pos_site_id
 _symmetry_equiv_pos_as_xyz
  1  'x, y, z'
loop_
 _atom_site_type_symbol
 _atom_site_label
 _atom_site_symmetry_multiplicity
 _atom_site_fract_x
 _atom_site_fract_y
 _atom_site_fract_z
 _atom_site_occupancy
  Li  Li0  1  0.913073  0.459104  0.937086  1
  Li  Li1  1  0.001439  0.878900  0.688825  1
  Li  Li2  1  0.937060  0.812161  0.874483  1
  Li  Li3  1  0.880432  0.758679  0.065488  1
  Li  Li4  1  0.812203  0.687103  0.249879  1
  Li  Li5  1  0.753835  0.625656  0.438824  1
  Li  Li6  1  0.687274  0.561960  0.624913  1
  Li  Li7  1  0.963964  0.160327  0.812227  1
  Li  Li8  1  0.622322  0.503843  0.812197  1
  Li  Li9  1  0.839673  0.036036  0.187773  1
  Li  Li10  1  0.716026  0.913757  0.561527  1
  Li  Li11  1  0.562718  0.437282  0.000000  1
  Li  Li12  1  0.496157  0.377678  0.187803  1
  Li  Li13  1  0.579822  0.781453  0.937313  1
  Li  Li14  1  0.463465  0.659985  0.311622  1
  Li  Li15  1  0.789058  0.340713  0.311527  1
  Li  Li16  1  0.659287  0.210942  0.688473  1
  Li  Li17  1  0.340015  0.536535  0.688378  1
  Li  Li18  1  0.218547  0.420178  0.062687  1
  Li  Li19  1  0.540896  0.086927  0.062914  1
  Li  Li20  1  0.411912  0.965019  0.438372  1
  Li  Li21  1  0.438040  0.312726  0.375087  1
  Li  Li22  1  0.287371  0.837100  0.812194  1
  Li  Li23  1  0.162900  0.712629  0.187806  1
  Li  Li24  1  0.374344  0.246165  0.561176  1
  Li  Li25  1  0.034981  0.588088  0.561628  1
  Li  Li26  1  0.312897  0.187797  0.750121  1
  Li  Li27  1  0.241321  0.119568  0.934512  1
  Li  Li28  1  0.187839  0.062940  0.125517  1
  Li  Li29  1  0.121100  0.998561  0.311175  1
  Li  Li30  1  0.062719  0.937281  0.500000  1
  Li  Li31  1  0.086243  0.283974  0.438473  1
  Cr  Cr32  1  0.979757  0.520678  0.749813  1
  Cr  Cr33  1  0.853877  0.394727  0.125569  1
  Cr  Cr34  1  0.395654  0.604346  0.500000  1
  Cr  Cr35  1  0.605273  0.146123  0.874431  1
  Cr  Cr36  1  0.479322  0.020243  0.250187  1
  Ru  Ru37  1  0.913640  0.086360  0.000000  1
  Ru  Ru38  1  0.772844  0.975866  0.375257  1
  Ru  Ru39  1  0.645893  0.854908  0.749790  1
  Ru  Ru40  1  0.519423  0.728882  0.125728  1
  Ru  Ru41  1  0.729693  0.270307  0.500000  1
  Ru  Ru42  1  0.271118  0.480577  0.874272  1
  Ru  Ru43  1  0.351132  0.897316  0.624749  1
  Ru  Ru44  1  0.211496  0.788504  0.000000  1
  Ru  Ru45  1  0.102684  0.648868  0.375251  1
  Ru  Ru46  1  0.145092  0.354107  0.250210  1
  Ru  Ru47  1  0.024134  0.227156  0.624743  1
  O  O48  1  0.900050  0.415953  0.027425  1
  O  O49  1  0.951820  0.472066  0.845740  1
  O  O50  1  0.914072  0.788806  0.966659  1
  O  O51  1  0.790004  0.664786  0.345074  1
  O  O52  1  0.949590  0.829056  0.778729  1
  O  O53  1  0.823306  0.703009  0.154676  1
  O  O54  1  0.703811  0.574005  0.528975  1
  O  O55  1  0.672223  0.551331  0.720666  1
  O  O56  1  0.548063  0.427730  0.096487  1
  O  O57  1  0.936024  0.160615  0.903116  1
  O  O58  1  0.572270  0.451937  0.903513  1
  O  O59  1  0.809332  0.032985  0.278977  1
  O  O60  1  0.680820  0.902066  0.653494  1
  O  O61  1  0.967015  0.190668  0.721023  1
  O  O62  1  0.839385  0.063976  0.096884  1
  O  O63  1  0.721666  0.950669  0.471364  1
  O  O64  1  0.777462  0.305539  0.404034  1
  O  O65  1  0.825989  0.345581  0.221711  1
  O  O66  1  0.694461  0.222538  0.595966  1
  O  O67  1  0.541029  0.774216  0.027403  1
  O  O68  1  0.431093  0.652249  0.404284  1
  O  O69  1  0.592431  0.815784  0.845865  1
  O  O70  1  0.465940  0.689170  0.221841  1
  O  O71  1  0.347751  0.568907  0.595716  1
  O  O72  1  0.654419  0.174011  0.778289  1
  O  O73  1  0.527934  0.048180  0.154260  1
  O  O74  1  0.408720  0.934724  0.528604  1
  O  O75  1  0.584047  0.099950  0.972575  1
  O  O76  1  0.444408  0.972457  0.346267  1
  O  O77  1  0.310830  0.534060  0.778159  1
  O  O78  1  0.184216  0.407569  0.154135  1
  O  O79  1  0.225784  0.458971  0.972597  1
  O  O80  1  0.280258  0.800375  0.903159  1
  O  O81  1  0.153162  0.673594  0.279006  1
  O  O82  1  0.027543  0.555592  0.653733  1
  O  O83  1  0.326406  0.846838  0.720994  1
  O  O84  1  0.199625  0.719742  0.096841  1
  O  O85  1  0.425995  0.296189  0.471025  1
  O  O86  1  0.065276  0.591280  0.471396  1
  O  O87  1  0.448669  0.327777  0.279334  1
  O  O88  1  0.335214  0.209996  0.654926  1
  O  O89  1  0.296991  0.176694  0.845324  1
  O  O90  1  0.170944  0.050410  0.221271  1
  O  O91  1  0.040157  0.914604  0.594539  1
  O  O92  1  0.211194  0.085928  0.033341  1
  O  O93  1  0.085396  0.959843  0.405461  1
  O  O94  1  0.049331  0.278334  0.528636  1
  O  O95  1  0.097934  0.319180  0.346506  1
