# generated using pymatgen
data_Dy3Lu5B24IrW3
_symmetry_space_group_name_H-M   'P 1'
_cell_length_a   3.58332500
_cell_length_b   9.19786806
_cell_length_c   11.59701276
_cell_angle_alpha   89.87911038
_cell_angle_beta   90.00000000
_cell_angle_gamma   90.00000000
_symmetry_Int_Tables_number   1
_chemical_formula_structural   Dy3Lu5B24IrW3
_chemical_formula_sum   'Dy3 Lu5 B24 Ir1 W3'
_cell_volume   382.22451937
_cell_formula_units_Z   1
loop_
 _symmetry_equiv_pos_site_id
 _symmetry_equiv_pos_as_xyz
  1  'x, y, z'
loop_
 _atom_site_type_symbol
 _atom_site_label
 _atom_site_symmetry_multiplicity
 _atom_site_fract_x
 _atom_site_fract_y
 _atom_site_fract_z
 _atom_site_occupancy
  Dy  Dy0  1  0.000000  0.320704  0.412857  1
  Dy  Dy1  1  0.000000  0.676503  0.583260  1
  Dy  Dy2  1  0.000000  0.820077  0.088220  1
  Lu  Lu3  1  0.000000  0.182402  0.914898  1
  Lu  Lu4  1  0.000000  0.944182  0.372712  1
  Lu  Lu5  1  0.000000  0.056357  0.628839  1
  Lu  Lu6  1  0.000000  0.445266  0.126570  1
  Lu  Lu7  1  0.000000  0.556644  0.871807  1
  B  B8  1  0.500000  0.551326  0.434814  1
  B  B9  1  0.500000  0.447809  0.566408  1
  B  B10  1  0.500000  0.051574  0.062267  1
  B  B11  1  0.500000  0.945474  0.932526  1
  B  B12  1  0.500000  0.752793  0.421678  1
  B  B13  1  0.500000  0.246314  0.580264  1
  B  B14  1  0.500000  0.253769  0.076575  1
  B  B15  1  0.500000  0.749695  0.919019  1
  B  B16  1  0.500000  0.795642  0.264437  1
  B  B17  1  0.500000  0.203057  0.738987  1
  B  B18  1  0.500000  0.294824  0.234531  1
  B  B19  1  0.500000  0.709020  0.765351  1
  B  B20  1  0.500000  0.630847  0.182117  1
  B  B21  1  0.500000  0.368979  0.819550  1
  B  B22  1  0.500000  0.129485  0.316271  1
  B  B23  1  0.500000  0.869731  0.684673  1
  B  B24  1  0.500000  0.978268  0.212875  1
  B  B25  1  0.500000  0.017707  0.788362  1
  B  B26  1  0.500000  0.478351  0.285281  1
  B  B27  1  0.500000  0.522265  0.713848  1
  B  B28  1  0.500000  0.602490  0.026127  1
  B  B29  1  0.500000  0.400808  0.971685  1
  B  B30  1  0.500000  0.099137  0.473613  1
  B  B31  1  0.500000  0.899549  0.529730  1
  Ir  Ir32  1  0.000000  0.861489  0.820317  1
  W  W33  1  0.000000  0.639172  0.319829  1
  W  W34  1  0.000000  0.359667  0.682237  1
  W  W35  1  0.000000  0.138628  0.177464  1
