# generated using pymatgen
data_Er20Sn7Pb9
_symmetry_space_group_name_H-M   'P 1'
_cell_length_a   8.09502200
_cell_length_b   8.15199200
_cell_length_c   15.46330000
_cell_angle_alpha   90.00000000
_cell_angle_beta   90.00000000
_cell_angle_gamma   89.99762073
_symmetry_Int_Tables_number   1
_chemical_formula_structural   Er20Sn7Pb9
_chemical_formula_sum   'Er20 Sn7 Pb9'
_cell_volume   1020.43174229
_cell_formula_units_Z   1
loop_
 _symmetry_equiv_pos_site_id
 _symmetry_equiv_pos_as_xyz
  1  'x, y, z'
loop_
 _atom_site_type_symbol
 _atom_site_label
 _atom_site_symmetry_multiplicity
 _atom_site_fract_x
 _atom_site_fract_y
 _atom_site_fract_z
 _atom_site_occupancy
  Er  Er0  1  0.380150  0.838554  0.876645  1
  Er  Er1  1  0.880434  0.660991  0.623470  1
  Er  Er2  1  0.619877  0.161075  0.377126  1
  Er  Er3  1  0.119678  0.337408  0.123003  1
  Er  Er4  1  0.619877  0.161075  0.122874  1
  Er  Er5  1  0.119678  0.337408  0.376997  1
  Er  Er6  1  0.380150  0.838554  0.623355  1
  Er  Er7  1  0.880434  0.660991  0.876530  1
  Er  Er8  1  0.537901  0.324902  0.895853  1
  Er  Er9  1  0.038399  0.174500  0.604363  1
  Er  Er10  1  0.464785  0.675132  0.397130  1
  Er  Er11  1  0.959971  0.827106  0.101589  1
  Er  Er12  1  0.464785  0.675132  0.102870  1
  Er  Er13  1  0.959971  0.827106  0.398411  1
  Er  Er14  1  0.537901  0.324902  0.604147  1
  Er  Er15  1  0.038399  0.174500  0.895637  1
  Er  Er16  1  0.210993  0.503484  0.750000  1
  Er  Er17  1  0.710942  0.996363  0.750000  1
  Er  Er18  1  0.787327  0.494773  0.250000  1
  Er  Er19  1  0.291272  0.006572  0.250000  1
  Sn  Sn20  1  0.575576  0.622768  0.750000  1
  Sn  Sn21  1  0.075923  0.876500  0.750000  1
  Sn  Sn22  1  0.424982  0.376313  0.250000  1
  Sn  Sn23  1  0.924023  0.121848  0.250000  1
  Sn  Sn24  1  0.345954  0.149428  0.750000  1
  Sn  Sn25  1  0.845885  0.350942  0.750000  1
  Sn  Sn26  1  0.655280  0.850387  0.250000  1
  Pb  Pb27  1  0.280216  0.031753  0.040890  1
  Pb  Pb28  1  0.781582  0.467491  0.459225  1
  Pb  Pb29  1  0.718389  0.968519  0.541956  1
  Pb  Pb30  1  0.218857  0.531342  0.958770  1
  Pb  Pb31  1  0.718389  0.968519  0.958044  1
  Pb  Pb32  1  0.218857  0.531342  0.541230  1
  Pb  Pb33  1  0.280216  0.031753  0.459110  1
  Pb  Pb34  1  0.781582  0.467491  0.040775  1
  Pb  Pb35  1  0.151361  0.653075  0.250000  1
