# generated using pymatgen
data_Pr4Tm(Lu5Bi4)3
_symmetry_space_group_name_H-M   'P 1'
_cell_length_a   8.15939053
_cell_length_b   9.39170100
_cell_length_c   11.85184400
_cell_angle_alpha   90.00000000
_cell_angle_beta   90.02070807
_cell_angle_gamma   90.00000000
_symmetry_Int_Tables_number   1
_chemical_formula_structural   Pr4Tm(Lu5Bi4)3
_chemical_formula_sum   'Pr4 Tm1 Lu15 Bi12'
_cell_volume   908.21333872
_cell_formula_units_Z   1
loop_
 _symmetry_equiv_pos_site_id
 _symmetry_equiv_pos_as_xyz
  1  'x, y, z'
loop_
 _atom_site_type_symbol
 _atom_site_label
 _atom_site_symmetry_multiplicity
 _atom_site_fract_x
 _atom_site_fract_y
 _atom_site_fract_z
 _atom_site_occupancy
  Pr  Pr0  1  0.315534  0.250000  0.219264  1
  Pr  Pr1  1  0.815590  0.250000  0.280740  1
  Pr  Pr2  1  0.684719  0.750000  0.780670  1
  Pr  Pr3  1  0.184462  0.750000  0.719190  1
  Tm  Tm4  1  0.352566  0.750000  0.218959  1
  Lu  Lu5  1  0.852276  0.750000  0.280739  1
  Lu  Lu6  1  0.647477  0.250000  0.780773  1
  Lu  Lu7  1  0.147391  0.250000  0.719337  1
  Lu  Lu8  1  0.691505  0.567294  0.060925  1
  Lu  Lu9  1  0.191394  0.932849  0.439303  1
  Lu  Lu10  1  0.308505  0.067222  0.938963  1
  Lu  Lu11  1  0.808552  0.432766  0.561041  1
  Lu  Lu12  1  0.308505  0.432778  0.938963  1
  Lu  Lu13  1  0.808552  0.067234  0.561041  1
  Lu  Lu14  1  0.691505  0.932706  0.060925  1
  Lu  Lu15  1  0.191394  0.567151  0.439303  1
  Lu  Lu16  1  0.478201  0.250000  0.489546  1
  Lu  Lu17  1  0.978144  0.250000  0.010438  1
  Lu  Lu18  1  0.522010  0.750000  0.510842  1
  Lu  Lu19  1  0.021928  0.750000  0.989399  1
  Bi  Bi20  1  0.400914  0.750000  0.963470  1
  Bi  Bi21  1  0.900759  0.750000  0.535611  1
  Bi  Bi22  1  0.599300  0.250000  0.035707  1
  Bi  Bi23  1  0.099313  0.250000  0.464383  1
  Bi  Bi24  1  0.565110  0.989879  0.328232  1
  Bi  Bi25  1  0.064452  0.510430  0.172048  1
  Bi  Bi26  1  0.435117  0.489472  0.672046  1
  Bi  Bi27  1  0.935073  0.010597  0.827908  1
  Bi  Bi28  1  0.435117  0.010528  0.672046  1
  Bi  Bi29  1  0.935073  0.489403  0.827908  1
  Bi  Bi30  1  0.565110  0.510121  0.328232  1
  Bi  Bi31  1  0.064452  0.989570  0.172048  1
