# generated using pymatgen
data_Ti4ZnSnRh10
_symmetry_space_group_name_H-M   'P 1'
_cell_length_a   4.01343800
_cell_length_b   5.45199118
_cell_length_c   10.80765642
_cell_angle_alpha   90.27858220
_cell_angle_beta   90.00000000
_cell_angle_gamma   90.00000000
_symmetry_Int_Tables_number   1
_chemical_formula_structural   Ti4ZnSnRh10
_chemical_formula_sum   'Ti4 Zn1 Sn1 Rh10'
_cell_volume   236.48200541
_cell_formula_units_Z   1
loop_
 _symmetry_equiv_pos_site_id
 _symmetry_equiv_pos_as_xyz
  1  'x, y, z'
loop_
 _atom_site_type_symbol
 _atom_site_label
 _atom_site_symmetry_multiplicity
 _atom_site_fract_x
 _atom_site_fract_y
 _atom_site_fract_z
 _atom_site_occupancy
  Ti  Ti0  1  0.500000  0.317307  0.146186  1
  Ti  Ti1  1  0.500000  0.682693  0.853814  1
  Ti  Ti2  1  0.500000  0.808264  0.367115  1
  Ti  Ti3  1  0.500000  0.191736  0.632885  1
  Zn  Zn4  1  0.000000  0.500000  0.500000  1
  Sn  Sn5  1  0.000000  0.000000  0.000000  1
  Rh  Rh6  1  0.000000  0.000000  0.500000  1
  Rh  Rh7  1  0.000000  0.500000  0.000000  1
  Rh  Rh8  1  0.000000  0.055423  0.252279  1
  Rh  Rh9  1  0.000000  0.944577  0.747721  1
  Rh  Rh10  1  0.000000  0.553252  0.253686  1
  Rh  Rh11  1  0.000000  0.446748  0.746314  1
  Rh  Rh12  1  0.500000  0.293147  0.385769  1
  Rh  Rh13  1  0.500000  0.706853  0.614231  1
  Rh  Rh14  1  0.500000  0.787080  0.122121  1
  Rh  Rh15  1  0.500000  0.212920  0.877879  1
