# generated using pymatgen
data_Tb6Zr2Ti3Si16Tc9
_symmetry_space_group_name_H-M   'P 1'
_cell_length_a   6.75950532
_cell_length_b   6.76645445
_cell_length_c   12.92602101
_cell_angle_alpha   90.10431325
_cell_angle_beta   90.24896945
_cell_angle_gamma   89.27430575
_symmetry_Int_Tables_number   1
_chemical_formula_structural   Tb6Zr2Ti3Si16Tc9
_chemical_formula_sum   'Tb6 Zr2 Ti3 Si16 Tc9'
_cell_volume   591.15493731
_cell_formula_units_Z   1
loop_
 _symmetry_equiv_pos_site_id
 _symmetry_equiv_pos_as_xyz
  1  'x, y, z'
loop_
 _atom_site_type_symbol
 _atom_site_label
 _atom_site_symmetry_multiplicity
 _atom_site_fract_x
 _atom_site_fract_y
 _atom_site_fract_z
 _atom_site_occupancy
  Tb  Tb0  1  0.488352  0.179701  0.217225  1
  Tb  Tb1  1  0.823486  0.509281  0.284871  1
  Tb  Tb2  1  0.181840  0.490784  0.781071  1
  Tb  Tb3  1  0.663006  0.998540  0.971694  1
  Tb  Tb4  1  0.005660  0.334295  0.529598  1
  Tb  Tb5  1  0.998149  0.662229  0.028004  1
  Zr  Zr6  1  0.342644  0.993017  0.469673  1
  Zr  Zr7  1  0.521800  0.832388  0.711515  1
  Ti  Ti8  1  0.156002  0.845336  0.249999  1
  Ti  Ti9  1  0.843548  0.153540  0.749200  1
  Ti  Ti10  1  0.661243  0.671137  0.498949  1
  Si  Si11  1  0.218390  0.110507  0.677428  1
  Si  Si12  1  0.397874  0.681805  0.938787  1
  Si  Si13  1  0.602524  0.305162  0.440027  1
  Si  Si14  1  0.681757  0.398291  0.058808  1
  Si  Si15  1  0.309894  0.617412  0.565399  1
  Si  Si16  1  0.787901  0.884422  0.183105  1
  Si  Si17  1  0.120507  0.208810  0.322817  1
  Si  Si18  1  0.879118  0.785785  0.817455  1
  Si  Si19  1  0.262308  0.985448  0.054688  1
  Si  Si20  1  0.525198  0.804850  0.315612  1
  Si  Si21  1  0.469299  0.193461  0.814341  1
  Si  Si22  1  0.798195  0.529999  0.685359  1
  Si  Si23  1  0.198014  0.471039  0.185041  1
  Si  Si24  1  0.725639  0.024513  0.559429  1
  Si  Si25  1  0.986185  0.262011  0.943450  1
  Si  Si26  1  0.025171  0.734418  0.443913  1
  Tc  Tc27  1  0.333559  0.334427  0.999835  1
  Tc  Tc28  1  0.184992  0.977337  0.862812  1
  Tc  Tc29  1  0.472365  0.693962  0.133032  1
  Tc  Tc30  1  0.520821  0.314433  0.633388  1
  Tc  Tc31  1  0.688311  0.470986  0.866255  1
  Tc  Tc32  1  0.316075  0.526527  0.368842  1
  Tc  Tc33  1  0.816422  0.012259  0.367083  1
  Tc  Tc34  1  0.983381  0.182512  0.135913  1
  Tc  Tc35  1  0.010371  0.819377  0.635381  1
