# generated using pymatgen
data_Dy3ErSbRh3O14
_symmetry_space_group_name_H-M   'P 1'
_cell_length_a   7.30451400
_cell_length_b   7.30768074
_cell_length_c   7.30768114
_cell_angle_alpha   59.13676120
_cell_angle_beta   59.15669012
_cell_angle_gamma   59.15669693
_symmetry_Int_Tables_number   1
_chemical_formula_structural   Dy3ErSbRh3O14
_chemical_formula_sum   'Dy3 Er1 Sb1 Rh3 O14'
_cell_volume   270.48321121
_cell_formula_units_Z   1
loop_
 _symmetry_equiv_pos_site_id
 _symmetry_equiv_pos_as_xyz
  1  'x, y, z'
loop_
 _atom_site_type_symbol
 _atom_site_label
 _atom_site_symmetry_multiplicity
 _atom_site_fract_x
 _atom_site_fract_y
 _atom_site_fract_z
 _atom_site_occupancy
  Dy  Dy0  1  0.125000  0.625000  0.125000  1
  Dy  Dy1  1  0.125000  0.125000  0.625000  1
  Dy  Dy2  1  0.125000  0.125000  0.125000  1
  Er  Er3  1  0.625000  0.125000  0.125000  1
  Sb  Sb4  1  0.625000  0.625000  0.625000  1
  Rh  Rh5  1  0.125000  0.625000  0.625000  1
  Rh  Rh6  1  0.625000  0.125000  0.625000  1
  Rh  Rh7  1  0.625000  0.625000  0.125000  1
  O  O8  1  0.289474  0.712049  0.712049  1
  O  O9  1  0.542582  0.963840  0.963840  1
  O  O10  1  0.711118  0.289420  0.713104  1
  O  O11  1  0.286560  0.286192  0.708417  1
  O  O12  1  0.711118  0.713104  0.289420  1
  O  O13  1  0.997760  0.001606  0.001606  1
  O  O14  1  0.286560  0.708417  0.286192  1
  O  O15  1  0.963440  0.541583  0.963808  1
  O  O16  1  0.963440  0.963808  0.541583  1
  O  O17  1  0.538882  0.536896  0.960580  1
  O  O18  1  0.252240  0.248394  0.248394  1
  O  O19  1  0.538882  0.960580  0.536896  1
  O  O20  1  0.707418  0.286160  0.286160  1
  O  O21  1  0.960526  0.537951  0.537951  1
