# generated using pymatgen
data_TmZr2Al6Cu2Ag
_symmetry_space_group_name_H-M   'P 1'
_cell_length_a   8.79477059
_cell_length_b   8.79477127
_cell_length_c   8.79476968
_cell_angle_alpha   35.66166312
_cell_angle_beta   35.66165841
_cell_angle_gamma   35.66166075
_symmetry_Int_Tables_number   1
_chemical_formula_structural   TmZr2Al6Cu2Ag
_chemical_formula_sum   'Tm1 Zr2 Al6 Cu2 Ag1'
_cell_volume   206.67872115
_cell_formula_units_Z   1
loop_
 _symmetry_equiv_pos_site_id
 _symmetry_equiv_pos_as_xyz
  1  'x, y, z'
loop_
 _atom_site_type_symbol
 _atom_site_label
 _atom_site_symmetry_multiplicity
 _atom_site_fract_x
 _atom_site_fract_y
 _atom_site_fract_z
 _atom_site_occupancy
  Tm  Tm0  1  0.000000  0.000000  0.000000  1
  Zr  Zr1  1  0.857670  0.857670  0.857670  1
  Zr  Zr2  1  0.142330  0.142330  0.142330  1
  Al  Al3  1  0.413910  0.413910  0.924897  1
  Al  Al4  1  0.924897  0.413910  0.413910  1
  Al  Al5  1  0.413910  0.924897  0.413910  1
  Al  Al6  1  0.586090  0.075103  0.586090  1
  Al  Al7  1  0.075103  0.586090  0.586090  1
  Al  Al8  1  0.586090  0.586090  0.075103  1
  Cu  Cu9  1  0.665202  0.665202  0.665202  1
  Cu  Cu10  1  0.334798  0.334798  0.334798  1
  Ag  Ag11  1  0.500000  0.500000  0.500000  1
