# generated using pymatgen
data_Mn7Nb12Cr(FeN)4
_symmetry_space_group_name_H-M   'P 1'
_cell_length_a   8.04781954
_cell_length_b   8.04782114
_cell_length_c   8.04781989
_cell_angle_alpha   60.09069056
_cell_angle_beta   60.09069251
_cell_angle_gamma   60.09069648
_symmetry_Int_Tables_number   1
_chemical_formula_structural   Mn7Nb12Cr(FeN)4
_chemical_formula_sum   'Mn7 Nb12 Cr1 Fe4 N4'
_cell_volume   369.32727540
_cell_formula_units_Z   1
loop_
 _symmetry_equiv_pos_site_id
 _symmetry_equiv_pos_as_xyz
  1  'x, y, z'
loop_
 _atom_site_type_symbol
 _atom_site_label
 _atom_site_symmetry_multiplicity
 _atom_site_fract_x
 _atom_site_fract_y
 _atom_site_fract_z
 _atom_site_occupancy
  Mn  Mn0  1  0.123850  0.625417  0.625417  1
  Mn  Mn1  1  0.625417  0.123850  0.625417  1
  Mn  Mn2  1  0.625417  0.625417  0.123850  1
  Mn  Mn3  1  0.731009  0.423561  0.423561  1
  Mn  Mn4  1  0.423561  0.731009  0.423561  1
  Mn  Mn5  1  0.423561  0.423561  0.731009  1
  Mn  Mn6  1  0.424034  0.424034  0.424034  1
  Nb  Nb7  1  0.803973  0.803973  0.194981  1
  Nb  Nb8  1  0.197881  0.197881  0.802454  1
  Nb  Nb9  1  0.803973  0.194981  0.803973  1
  Nb  Nb10  1  0.197881  0.802454  0.197881  1
  Nb  Nb11  1  0.194981  0.803973  0.803973  1
  Nb  Nb12  1  0.802454  0.197881  0.197881  1
  Nb  Nb13  1  0.445784  0.445784  0.055159  1
  Nb  Nb14  1  0.052385  0.052385  0.447222  1
  Nb  Nb15  1  0.445784  0.055159  0.445784  1
  Nb  Nb16  1  0.052385  0.447222  0.052385  1
  Nb  Nb17  1  0.055159  0.445784  0.445784  1
  Nb  Nb18  1  0.447222  0.052385  0.052385  1
  Cr  Cr19  1  0.625221  0.625221  0.625221  1
  Fe  Fe20  1  0.523086  0.825095  0.825095  1
  Fe  Fe21  1  0.825095  0.523086  0.825095  1
  Fe  Fe22  1  0.825095  0.825095  0.523086  1
  Fe  Fe23  1  0.824752  0.824752  0.824752  1
  N  N24  1  0.624864  0.125060  0.125060  1
  N  N25  1  0.125060  0.624864  0.125060  1
  N  N26  1  0.125060  0.125060  0.624864  1
  N  N27  1  0.125051  0.125051  0.125051  1
