# generated using pymatgen
data_Tb5HoAl24Os7Pd
_symmetry_space_group_name_H-M   'P 1'
_cell_length_a   8.83730635
_cell_length_b   8.83730678
_cell_length_c   9.56260417
_cell_angle_alpha   89.69673347
_cell_angle_beta   90.30326781
_cell_angle_gamma   119.76405206
_symmetry_Int_Tables_number   1
_chemical_formula_structural   Tb5HoAl24Os7Pd
_chemical_formula_sum   'Tb5 Ho1 Al24 Os7 Pd1'
_cell_volume   648.28531492
_cell_formula_units_Z   1
loop_
 _symmetry_equiv_pos_site_id
 _symmetry_equiv_pos_as_xyz
  1  'x, y, z'
loop_
 _atom_site_type_symbol
 _atom_site_label
 _atom_site_symmetry_multiplicity
 _atom_site_fract_x
 _atom_site_fract_y
 _atom_site_fract_z
 _atom_site_occupancy
  Tb  Tb0  1  0.189433  0.385625  0.251826  1
  Tb  Tb1  1  0.810530  0.614304  0.748157  1
  Tb  Tb2  1  0.614375  0.810567  0.251826  1
  Tb  Tb3  1  0.385696  0.189470  0.748157  1
  Tb  Tb4  1  0.194023  0.805977  0.252576  1
  Ho  Ho5  1  0.805661  0.194339  0.747364  1
  Al  Al6  1  0.331087  0.668913  0.019170  1
  Al  Al7  1  0.669044  0.330956  0.980668  1
  Al  Al8  1  0.666595  0.333405  0.516313  1
  Al  Al9  1  0.333523  0.666477  0.483841  1
  Al  Al10  1  0.163402  0.325613  0.576824  1
  Al  Al11  1  0.836423  0.674282  0.423294  1
  Al  Al12  1  0.674387  0.836598  0.576824  1
  Al  Al13  1  0.843279  0.676465  0.078632  1
  Al  Al14  1  0.325718  0.163577  0.423294  1
  Al  Al15  1  0.156469  0.323437  0.921263  1
  Al  Al16  1  0.163323  0.836677  0.575444  1
  Al  Al17  1  0.323535  0.156721  0.078632  1
  Al  Al18  1  0.836669  0.163331  0.424794  1
  Al  Al19  1  0.676563  0.843531  0.921263  1
  Al  Al20  1  0.836696  0.163304  0.074870  1
  Al  Al21  1  0.163286  0.836714  0.924873  1
  Al  Al22  1  0.560654  0.122266  0.249276  1
  Al  Al23  1  0.439761  0.878051  0.750717  1
  Al  Al24  1  0.877734  0.439346  0.249276  1
  Al  Al25  1  0.121949  0.560239  0.750717  1
  Al  Al26  1  0.561462  0.438538  0.252311  1
  Al  Al27  1  0.438518  0.561482  0.747698  1
  Al  Al28  1  0.999486  0.000514  0.250206  1
  Al  Al29  1  0.000336  0.999664  0.749814  1
  Os  Os30  1  0.500254  0.000138  0.999815  1
  Os  Os31  1  0.999862  0.499746  0.999815  1
  Os  Os32  1  0.500315  0.000178  0.500209  1
  Os  Os33  1  0.999822  0.499685  0.500209  1
  Os  Os34  1  0.500084  0.499916  0.500025  1
  Os  Os35  1  0.999997  0.000003  0.999874  1
  Os  Os36  1  0.000004  0.999996  0.500149  1
  Pd  Pd37  1  0.500046  0.499954  0.999987  1
