# generated using pymatgen
data_Ho16In3HgPd4
_symmetry_space_group_name_H-M   'P 1'
_cell_length_a   9.67886131
_cell_length_b   9.67886180
_cell_length_c   9.67886100
_cell_angle_alpha   60.00789506
_cell_angle_beta   60.00789431
_cell_angle_gamma   60.00789359
_symmetry_Int_Tables_number   1
_chemical_formula_structural   Ho16In3HgPd4
_chemical_formula_sum   'Ho16 In3 Hg1 Pd4'
_cell_volume   641.26203896
_cell_formula_units_Z   1
loop_
 _symmetry_equiv_pos_site_id
 _symmetry_equiv_pos_as_xyz
  1  'x, y, z'
loop_
 _atom_site_type_symbol
 _atom_site_label
 _atom_site_symmetry_multiplicity
 _atom_site_fract_x
 _atom_site_fract_y
 _atom_site_fract_z
 _atom_site_occupancy
  Ho  Ho0  1  0.185970  0.185970  0.813597  1
  Ho  Ho1  1  0.603400  0.603400  0.189432  1
  Ho  Ho2  1  0.440509  0.060201  0.440509  1
  Ho  Ho3  1  0.440509  0.440509  0.060201  1
  Ho  Ho4  1  0.815273  0.182353  0.815273  1
  Ho  Ho5  1  0.185970  0.813597  0.185970  1
  Ho  Ho6  1  0.440083  0.059545  0.059545  1
  Ho  Ho7  1  0.182353  0.815273  0.815273  1
  Ho  Ho8  1  0.059545  0.440083  0.059545  1
  Ho  Ho9  1  0.815273  0.815273  0.182353  1
  Ho  Ho10  1  0.189432  0.603400  0.603400  1
  Ho  Ho11  1  0.060201  0.440509  0.440509  1
  Ho  Ho12  1  0.059545  0.059545  0.440083  1
  Ho  Ho13  1  0.813597  0.185970  0.185970  1
  Ho  Ho14  1  0.603400  0.189432  0.603400  1
  Ho  Ho15  1  0.601026  0.601026  0.601026  1
  In  In16  1  0.832366  0.832366  0.502751  1
  In  In17  1  0.502751  0.832366  0.832366  1
  In  In18  1  0.832366  0.502751  0.832366  1
  Hg  Hg19  1  0.837145  0.837145  0.837145  1
  Pd  Pd20  1  0.392734  0.819128  0.392734  1
  Pd  Pd21  1  0.394690  0.394690  0.394690  1
  Pd  Pd22  1  0.819128  0.392734  0.392734  1
  Pd  Pd23  1  0.392734  0.392734  0.819128  1
