# generated using pymatgen
data_Y2Al5Co(Si2Os)2
_symmetry_space_group_name_H-M   'P 1'
_cell_length_a   7.36285106
_cell_length_b   7.36285427
_cell_length_c   9.35855900
_cell_angle_alpha   90.00000000
_cell_angle_beta   90.00000000
_cell_angle_gamma   120.16490761
_symmetry_Int_Tables_number   1
_chemical_formula_structural   Y2Al5Co(Si2Os)2
_chemical_formula_sum   'Y4 Al10 Co2 Si8 Os4'
_cell_volume   438.63952053
_cell_formula_units_Z   2
loop_
 _symmetry_equiv_pos_site_id
 _symmetry_equiv_pos_as_xyz
  1  'x, y, z'
loop_
 _atom_site_type_symbol
 _atom_site_label
 _atom_site_symmetry_multiplicity
 _atom_site_fract_x
 _atom_site_fract_y
 _atom_site_fract_z
 _atom_site_occupancy
  Y  Y0  1  0.002229  0.663205  0.250000  1
  Y  Y1  1  0.997771  0.336795  0.750000  1
  Y  Y2  1  0.663205  0.002229  0.250000  1
  Y  Y3  1  0.336795  0.997771  0.750000  1
  Al  Al4  1  0.117313  0.117313  0.250000  1
  Al  Al5  1  0.882687  0.882687  0.750000  1
  Al  Al6  1  0.331124  0.331124  0.559499  1
  Al  Al7  1  0.668876  0.668876  0.440501  1
  Al  Al8  1  0.668876  0.668876  0.059499  1
  Al  Al9  1  0.331124  0.331124  0.940501  1
  Al  Al10  1  0.337466  0.543501  0.250000  1
  Al  Al11  1  0.662534  0.456499  0.750000  1
  Al  Al12  1  0.543501  0.337466  0.250000  1
  Al  Al13  1  0.456499  0.662534  0.750000  1
  Co  Co14  1  0.000000  0.000000  0.000000  1
  Co  Co15  1  0.000000  0.000000  0.500000  1
  Si  Si16  1  0.007478  0.327154  0.067802  1
  Si  Si17  1  0.992522  0.672846  0.932198  1
  Si  Si18  1  0.992522  0.672846  0.567802  1
  Si  Si19  1  0.327154  0.007478  0.432198  1
  Si  Si20  1  0.007478  0.327154  0.432198  1
  Si  Si21  1  0.672846  0.992522  0.567802  1
  Si  Si22  1  0.672846  0.992522  0.932198  1
  Si  Si23  1  0.327154  0.007478  0.067802  1
  Os  Os24  1  0.680434  0.319566  0.000000  1
  Os  Os25  1  0.319566  0.680434  0.000000  1
  Os  Os26  1  0.319566  0.680434  0.500000  1
  Os  Os27  1  0.680434  0.319566  0.500000  1
