# generated using pymatgen
data_Cu2Bi3(SeO2)2
_symmetry_space_group_name_H-M   'P 1'
_cell_length_a   12.94496471
_cell_length_b   3.95600088
_cell_length_c   3.95600100
_cell_angle_alpha   90.00000000
_cell_angle_beta   98.78926775
_cell_angle_gamma   98.78926979
_symmetry_Int_Tables_number   1
_chemical_formula_structural   Cu2Bi3(SeO2)2
_chemical_formula_sum   'Cu2 Bi3 Se2 O4'
_cell_volume   197.80138133
_cell_formula_units_Z   1
loop_
 _symmetry_equiv_pos_site_id
 _symmetry_equiv_pos_as_xyz
  1  'x, y, z'
loop_
 _atom_site_type_symbol
 _atom_site_label
 _atom_site_symmetry_multiplicity
 _atom_site_fract_x
 _atom_site_fract_y
 _atom_site_fract_z
 _atom_site_occupancy
  Cu  Cu0  1  0.500000  0.750000  0.250000  1
  Cu  Cu1  1  0.500000  0.250000  0.750000  1
  Bi  Bi2  1  0.794411  0.397205  0.397205  1
  Bi  Bi3  1  0.205590  0.602794  0.602794  1
  Bi  Bi4  1  0.000000  0.000000  0.000000  1
  Se  Se5  1  0.381814  0.190907  0.190907  1
  Se  Se6  1  0.618186  0.809092  0.809092  1
  O  O7  1  0.118409  0.559204  0.059205  1
  O  O8  1  0.881591  0.940795  0.440795  1
  O  O9  1  0.118409  0.059205  0.559204  1
  O  O10  1  0.881591  0.440795  0.940795  1
