# generated using pymatgen
data_Tb4InB4Ir9
_symmetry_space_group_name_H-M   'P 1'
_cell_length_a   10.99178585
_cell_length_b   10.99178516
_cell_length_c   10.99178670
_cell_angle_alpha   29.28533515
_cell_angle_beta   29.28532904
_cell_angle_gamma   29.28533404
_symmetry_Int_Tables_number   1
_chemical_formula_structural   Tb4InB4Ir9
_chemical_formula_sum   'Tb4 In1 B4 Ir9'
_cell_volume   281.17524990
_cell_formula_units_Z   1
loop_
 _symmetry_equiv_pos_site_id
 _symmetry_equiv_pos_as_xyz
  1  'x, y, z'
loop_
 _atom_site_type_symbol
 _atom_site_label
 _atom_site_symmetry_multiplicity
 _atom_site_fract_x
 _atom_site_fract_y
 _atom_site_fract_z
 _atom_site_occupancy
  Tb  Tb0  1  0.148823  0.148823  0.148823  1
  Tb  Tb1  1  0.950913  0.950913  0.950913  1
  Tb  Tb2  1  0.851177  0.851177  0.851177  1
  Tb  Tb3  1  0.049087  0.049087  0.049087  1
  In  In4  1  0.500000  0.500000  0.500000  1
  B  B5  1  0.616612  0.616612  0.616612  1
  B  B6  1  0.716602  0.716602  0.716602  1
  B  B7  1  0.383388  0.383388  0.383388  1
  B  B8  1  0.283398  0.283398  0.283398  1
  Ir  Ir9  1  0.403519  0.906878  0.403519  1
  Ir  Ir10  1  0.906878  0.403519  0.403519  1
  Ir  Ir11  1  0.500000  0.500000  0.000000  1
  Ir  Ir12  1  0.500000  0.000000  0.500000  1
  Ir  Ir13  1  0.000000  0.500000  0.500000  1
  Ir  Ir14  1  0.596481  0.093122  0.596481  1
  Ir  Ir15  1  0.596481  0.596481  0.093122  1
  Ir  Ir16  1  0.093122  0.596481  0.596481  1
  Ir  Ir17  1  0.403519  0.403519  0.906878  1
