# generated using pymatgen
data_Na4CuSb2Au
_symmetry_space_group_name_H-M   'P 1'
_cell_length_a   6.05159743
_cell_length_b   6.05159785
_cell_length_c   5.69806797
_cell_angle_alpha   90.70490706
_cell_angle_beta   90.70490547
_cell_angle_gamma   101.92886929
_symmetry_Int_Tables_number   1
_chemical_formula_structural   Na4CuSb2Au
_chemical_formula_sum   'Na4 Cu1 Sb2 Au1'
_cell_volume   204.12842586
_cell_formula_units_Z   1
loop_
 _symmetry_equiv_pos_site_id
 _symmetry_equiv_pos_as_xyz
  1  'x, y, z'
loop_
 _atom_site_type_symbol
 _atom_site_label
 _atom_site_symmetry_multiplicity
 _atom_site_fract_x
 _atom_site_fract_y
 _atom_site_fract_z
 _atom_site_occupancy
  Na  Na0  1  0.015529  0.660847  0.247158  1
  Na  Na1  1  0.984471  0.339153  0.752842  1
  Na  Na2  1  0.660847  0.015529  0.247158  1
  Na  Na3  1  0.339153  0.984471  0.752842  1
  Cu  Cu4  1  0.500000  0.500000  0.500000  1
  Sb  Sb5  1  0.788250  0.788250  0.733576  1
  Sb  Sb6  1  0.211750  0.211750  0.266424  1
  Au  Au7  1  0.500000  0.500000  0.000000  1
