# generated using pymatgen
data_Sr8Eu7Ho5Pt16
_symmetry_space_group_name_H-M   'P 1'
_cell_length_a   7.88053125
_cell_length_b   8.00966323
_cell_length_c   15.23228000
_cell_angle_alpha   90.04410030
_cell_angle_beta   90.04325976
_cell_angle_gamma   90.06308055
_symmetry_Int_Tables_number   1
_chemical_formula_structural   Sr8Eu7Ho5Pt16
_chemical_formula_sum   'Sr8 Eu7 Ho5 Pt16'
_cell_volume   961.46648523
_cell_formula_units_Z   1
loop_
 _symmetry_equiv_pos_site_id
 _symmetry_equiv_pos_as_xyz
  1  'x, y, z'
loop_
 _atom_site_type_symbol
 _atom_site_label
 _atom_site_symmetry_multiplicity
 _atom_site_fract_x
 _atom_site_fract_y
 _atom_site_fract_z
 _atom_site_occupancy
  Sr  Sr0  1  0.494859  0.324019  0.904917  1
  Sr  Sr1  1  0.994429  0.176684  0.596598  1
  Sr  Sr2  1  0.505835  0.677353  0.403263  1
  Sr  Sr3  1  0.005400  0.822922  0.095564  1
  Sr  Sr4  1  0.502286  0.676317  0.094824  1
  Sr  Sr5  1  0.002380  0.821764  0.405436  1
  Sr  Sr6  1  0.498017  0.321998  0.594841  1
  Sr  Sr7  1  0.996982  0.177548  0.905615  1
  Eu  Eu8  1  0.162070  0.332423  0.378636  1
  Eu  Eu9  1  0.339378  0.832321  0.621105  1
  Eu  Eu10  1  0.837326  0.667994  0.881259  1
  Eu  Eu11  1  0.176717  0.491036  0.750680  1
  Eu  Eu12  1  0.678570  0.009711  0.750550  1
  Eu  Eu13  1  0.822936  0.509547  0.249625  1
  Eu  Eu14  1  0.321045  0.990362  0.248939  1
  Ho  Ho15  1  0.339122  0.834598  0.876868  1
  Ho  Ho16  1  0.837479  0.668099  0.624394  1
  Ho  Ho17  1  0.661738  0.167349  0.374696  1
  Ho  Ho18  1  0.161691  0.332502  0.122300  1
  Ho  Ho19  1  0.661210  0.167730  0.123146  1
  Pt  Pt20  1  0.335917  0.048177  0.043372  1
  Pt  Pt21  1  0.824311  0.455372  0.459765  1
  Pt  Pt22  1  0.676194  0.955694  0.539154  1
  Pt  Pt23  1  0.172469  0.545071  0.960223  1
  Pt  Pt24  1  0.651233  0.967563  0.959526  1
  Pt  Pt25  1  0.145224  0.538878  0.546903  1
  Pt  Pt26  1  0.354102  0.037698  0.452991  1
  Pt  Pt27  1  0.843356  0.447551  0.047732  1
  Pt  Pt28  1  0.546154  0.635613  0.752280  1
  Pt  Pt29  1  0.046973  0.865369  0.750184  1
  Pt  Pt30  1  0.458173  0.360285  0.244816  1
  Pt  Pt31  1  0.947678  0.137486  0.244424  1
  Pt  Pt32  1  0.297345  0.115714  0.755649  1
  Pt  Pt33  1  0.794731  0.385322  0.745685  1
  Pt  Pt34  1  0.700150  0.889183  0.249475  1
  Pt  Pt35  1  0.206523  0.612745  0.244568  1
