# generated using pymatgen
data_CeGdTe4O11
_symmetry_space_group_name_H-M   'P 1'
_cell_length_a   5.26749402
_cell_length_b   6.87075854
_cell_length_c   16.26222161
_cell_angle_alpha   93.16548127
_cell_angle_beta   99.32038810
_cell_angle_gamma   112.53991775
_symmetry_Int_Tables_number   1
_chemical_formula_structural   CeGdTe4O11
_chemical_formula_sum   'Ce2 Gd2 Te8 O22'
_cell_volume   531.96103825
_cell_formula_units_Z   2
loop_
 _symmetry_equiv_pos_site_id
 _symmetry_equiv_pos_as_xyz
  1  'x, y, z'
loop_
 _atom_site_type_symbol
 _atom_site_label
 _atom_site_symmetry_multiplicity
 _atom_site_fract_x
 _atom_site_fract_y
 _atom_site_fract_z
 _atom_site_occupancy
  Ce  Ce0  1  0.666167  0.799053  0.036888  1
  Ce  Ce1  1  0.330226  0.700946  0.463112  1
  Gd  Gd2  1  0.670468  0.300656  0.538867  1
  Gd  Gd3  1  0.330945  0.199343  0.961133  1
  Te  Te4  1  0.973451  0.384183  0.125951  1
  Te  Te5  1  0.356550  0.960196  0.200908  1
  Te  Te6  1  0.695445  0.539803  0.299092  1
  Te  Te7  1  0.963316  0.115818  0.374049  1
  Te  Te8  1  0.039507  0.888305  0.627829  1
  Te  Te9  1  0.304968  0.458389  0.700572  1
  Te  Te10  1  0.646006  0.041610  0.799428  1
  Te  Te11  1  0.023372  0.611694  0.872171  1
  O  O12  1  0.010310  0.190034  0.045770  1
  O  O13  1  0.717330  0.463338  0.052990  1
  O  O14  1  0.489680  0.050943  0.100459  1
  O  O15  1  0.310858  0.632189  0.129163  1
  O  O16  1  0.967845  0.872428  0.170223  1
  O  O17  1  0.392047  0.250001  0.250000  1
  O  O18  1  0.425194  0.627573  0.329777  1
  O  O19  1  0.049506  0.867812  0.370837  1
  O  O20  1  0.838279  0.449058  0.399540  1
  O  O21  1  0.701002  0.036663  0.447010  1
  O  O22  1  0.274507  0.309967  0.454230  1
  O  O23  1  0.736572  0.687843  0.546786  1
  O  O24  1  0.306163  0.973445  0.556522  1
  O  O25  1  0.155194  0.546736  0.600643  1
  O  O26  1  0.943277  0.131511  0.629537  1
  O  O27  1  0.575214  0.373616  0.668583  1
  O  O28  1  0.605402  0.750000  0.750000  1
  O  O29  1  0.033013  0.126383  0.831417  1
  O  O30  1  0.682230  0.368489  0.870463  1
  O  O31  1  0.507814  0.953264  0.899357  1
  O  O32  1  0.276196  0.526555  0.943478  1
  O  O33  1  0.001942  0.812156  0.953214  1
