# generated using pymatgen
data_Pr(Al5Rh)2
_symmetry_space_group_name_H-M   'P 1'
_cell_length_a   6.89162714
_cell_length_b   6.89162677
_cell_length_c   9.21681500
_cell_angle_alpha   90.00000000
_cell_angle_beta   90.00000000
_cell_angle_gamma   97.21327536
_symmetry_Int_Tables_number   1
_chemical_formula_structural   Pr(Al5Rh)2
_chemical_formula_sum   'Pr2 Al20 Rh4'
_cell_volume   434.28372460
_cell_formula_units_Z   2
loop_
 _symmetry_equiv_pos_site_id
 _symmetry_equiv_pos_as_xyz
  1  'x, y, z'
loop_
 _atom_site_type_symbol
 _atom_site_label
 _atom_site_symmetry_multiplicity
 _atom_site_fract_x
 _atom_site_fract_y
 _atom_site_fract_z
 _atom_site_occupancy
  Pr  Pr0  1  0.874212  0.125788  0.750000  1
  Pr  Pr1  1  0.125788  0.874212  0.250000  1
  Al  Al2  1  0.620875  0.379125  0.549602  1
  Al  Al3  1  0.379125  0.620875  0.450398  1
  Al  Al4  1  0.379125  0.620875  0.049602  1
  Al  Al5  1  0.620875  0.379125  0.950398  1
  Al  Al6  1  0.223926  0.223926  0.500000  1
  Al  Al7  1  0.776074  0.776074  0.500000  1
  Al  Al8  1  0.776074  0.776074  0.000000  1
  Al  Al9  1  0.223926  0.223926  0.000000  1
  Al  Al10  1  0.842581  0.157419  0.103940  1
  Al  Al11  1  0.157419  0.842581  0.896060  1
  Al  Al12  1  0.157419  0.842581  0.603940  1
  Al  Al13  1  0.842581  0.157419  0.396060  1
  Al  Al14  1  0.859122  0.595567  0.750000  1
  Al  Al15  1  0.140878  0.404433  0.250000  1
  Al  Al16  1  0.404433  0.140878  0.750000  1
  Al  Al17  1  0.595567  0.859122  0.250000  1
  Al  Al18  1  0.226990  0.481172  0.750000  1
  Al  Al19  1  0.773010  0.518828  0.250000  1
  Al  Al20  1  0.518828  0.773010  0.750000  1
  Al  Al21  1  0.481172  0.226990  0.250000  1
  Rh  Rh22  1  0.000000  0.500000  0.500000  1
  Rh  Rh23  1  0.000000  0.500000  0.000000  1
  Rh  Rh24  1  0.500000  0.000000  0.000000  1
  Rh  Rh25  1  0.500000  0.000000  0.500000  1
