# generated using pymatgen
data_NdEuEr4(RuO7)2
_symmetry_space_group_name_H-M   'P 1'
_cell_length_a   6.40737730
_cell_length_b   6.40737658
_cell_length_c   7.46156890
_cell_angle_alpha   90.05545662
_cell_angle_beta   90.05546542
_cell_angle_gamma   109.65565096
_symmetry_Int_Tables_number   1
_chemical_formula_structural   NdEuEr4(RuO7)2
_chemical_formula_sum   'Nd1 Eu1 Er4 Ru2 O14'
_cell_volume   288.48088449
_cell_formula_units_Z   1
loop_
 _symmetry_equiv_pos_site_id
 _symmetry_equiv_pos_as_xyz
  1  'x, y, z'
loop_
 _atom_site_type_symbol
 _atom_site_label
 _atom_site_symmetry_multiplicity
 _atom_site_fract_x
 _atom_site_fract_y
 _atom_site_fract_z
 _atom_site_occupancy
  Nd  Nd0  1  0.000000  0.000000  0.500000  1
  Eu  Eu1  1  0.000000  0.000000  0.000000  1
  Er  Er2  1  0.483301  0.935574  0.751838  1
  Er  Er3  1  0.516699  0.064426  0.248162  1
  Er  Er4  1  0.935574  0.483301  0.751838  1
  Er  Er5  1  0.064426  0.516699  0.248162  1
  Ru  Ru6  1  0.500000  0.500000  0.500000  1
  Ru  Ru7  1  0.500000  0.500000  0.000000  1
  O  O8  1  0.586157  0.586157  0.750088  1
  O  O9  1  0.413843  0.413843  0.249912  1
  O  O10  1  0.838511  0.118318  0.752188  1
  O  O11  1  0.161489  0.881682  0.247812  1
  O  O12  1  0.118318  0.838511  0.752188  1
  O  O13  1  0.881682  0.161489  0.247812  1
  O  O14  1  0.441458  0.180285  0.963728  1
  O  O15  1  0.559345  0.820165  0.464277  1
  O  O16  1  0.180285  0.441458  0.963728  1
  O  O17  1  0.820165  0.559345  0.464277  1
  O  O18  1  0.440655  0.179835  0.535723  1
  O  O19  1  0.558542  0.819715  0.036272  1
  O  O20  1  0.819715  0.558542  0.036272  1
  O  O21  1  0.179835  0.440655  0.535723  1
