# generated using pymatgen
data_Pr2B4IrOs3
_symmetry_space_group_name_H-M   'P 1'
_cell_length_a   6.90628714
_cell_length_b   6.07501664
_cell_length_c   5.63710649
_cell_angle_alpha   72.15727726
_cell_angle_beta   56.85884809
_cell_angle_gamma   51.11548046
_symmetry_Int_Tables_number   1
_chemical_formula_structural   Pr2B4IrOs3
_chemical_formula_sum   'Pr2 B4 Ir1 Os3'
_cell_volume   153.90761121
_cell_formula_units_Z   1
loop_
 _symmetry_equiv_pos_site_id
 _symmetry_equiv_pos_as_xyz
  1  'x, y, z'
loop_
 _atom_site_type_symbol
 _atom_site_label
 _atom_site_symmetry_multiplicity
 _atom_site_fract_x
 _atom_site_fract_y
 _atom_site_fract_z
 _atom_site_occupancy
  Pr  Pr0  1  0.500016  0.500016  0.499984  1
  Pr  Pr1  1  0.748166  0.748166  0.751834  1
  B  B2  1  0.178152  0.819403  0.180409  1
  B  B3  1  0.071293  0.434106  0.059234  1
  B  B4  1  0.819403  0.178152  0.822036  1
  B  B5  1  0.434106  0.071293  0.435367  1
  Ir  Ir6  1  0.115008  0.115008  0.384992  1
  Os  Os7  1  0.864155  0.864155  0.135845  1
  Os  Os8  1  0.135077  0.135077  0.864923  1
  Os  Os9  1  0.384624  0.384624  0.115376  1
