# generated using pymatgen
data_Nd2Al20RuRh3
_symmetry_space_group_name_H-M   'P 1'
_cell_length_a   6.88117759
_cell_length_b   6.87840663
_cell_length_c   9.19869713
_cell_angle_alpha   90.09035996
_cell_angle_beta   90.06631651
_cell_angle_gamma   97.37389552
_symmetry_Int_Tables_number   1
_chemical_formula_structural   Nd2Al20RuRh3
_chemical_formula_sum   'Nd2 Al20 Ru1 Rh3'
_cell_volume   431.78676034
_cell_formula_units_Z   1
loop_
 _symmetry_equiv_pos_site_id
 _symmetry_equiv_pos_as_xyz
  1  'x, y, z'
loop_
 _atom_site_type_symbol
 _atom_site_label
 _atom_site_symmetry_multiplicity
 _atom_site_fract_x
 _atom_site_fract_y
 _atom_site_fract_z
 _atom_site_occupancy
  Nd  Nd0  1  0.871580  0.126489  0.750276  1
  Nd  Nd1  1  0.128420  0.873511  0.249724  1
  Al  Al2  1  0.620907  0.376187  0.547750  1
  Al  Al3  1  0.379093  0.623813  0.452250  1
  Al  Al4  1  0.378442  0.622146  0.049050  1
  Al  Al5  1  0.621558  0.377854  0.950950  1
  Al  Al6  1  0.224058  0.222411  0.499373  1
  Al  Al7  1  0.775942  0.777589  0.500627  1
  Al  Al8  1  0.775379  0.775783  0.999970  1
  Al  Al9  1  0.224621  0.224217  0.000030  1
  Al  Al10  1  0.842950  0.157384  0.104099  1
  Al  Al11  1  0.157050  0.842616  0.895901  1
  Al  Al12  1  0.157751  0.843929  0.602941  1
  Al  Al13  1  0.842249  0.156071  0.397059  1
  Al  Al14  1  0.857777  0.591467  0.749498  1
  Al  Al15  1  0.142223  0.408533  0.250502  1
  Al  Al16  1  0.408890  0.141570  0.749001  1
  Al  Al17  1  0.591110  0.858430  0.250999  1
  Al  Al18  1  0.225792  0.481614  0.749940  1
  Al  Al19  1  0.774208  0.518386  0.250060  1
  Al  Al20  1  0.517850  0.775691  0.747167  1
  Al  Al21  1  0.482150  0.224309  0.252833  1
  Ru  Ru22  1  0.500000  0.000000  0.500000  1
  Rh  Rh23  1  0.000000  0.500000  0.500000  1
  Rh  Rh24  1  0.000000  0.500000  0.000000  1
  Rh  Rh25  1  0.500000  0.000000  0.000000  1
