# generated using pymatgen
data_Li3Ca4AlPt4
_symmetry_space_group_name_H-M   'P 1'
_cell_length_a   4.14586700
_cell_length_b   7.21629500
_cell_length_c   8.22556720
_cell_angle_alpha   90.01152900
_cell_angle_beta   90.00000000
_cell_angle_gamma   90.00000000
_symmetry_Int_Tables_number   1
_chemical_formula_structural   Li3Ca4AlPt4
_chemical_formula_sum   'Li3 Ca4 Al1 Pt4'
_cell_volume   246.09086373
_cell_formula_units_Z   1
loop_
 _symmetry_equiv_pos_site_id
 _symmetry_equiv_pos_as_xyz
  1  'x, y, z'
loop_
 _atom_site_type_symbol
 _atom_site_label
 _atom_site_symmetry_multiplicity
 _atom_site_fract_x
 _atom_site_fract_y
 _atom_site_fract_z
 _atom_site_occupancy
  Li  Li0  1  0.250000  0.141102  0.062127  1
  Li  Li1  1  0.250000  0.640182  0.433964  1
  Li  Li2  1  0.750000  0.861021  0.937208  1
  Ca  Ca3  1  0.250000  0.018692  0.686865  1
  Ca  Ca4  1  0.250000  0.530597  0.820104  1
  Ca  Ca5  1  0.750000  0.971434  0.318322  1
  Ca  Ca6  1  0.750000  0.475183  0.181806  1
  Al  Al7  1  0.750000  0.362111  0.565043  1
  Pt  Pt8  1  0.250000  0.275206  0.403353  1
  Pt  Pt9  1  0.250000  0.771532  0.116370  1
  Pt  Pt10  1  0.750000  0.712717  0.613898  1
  Pt  Pt11  1  0.750000  0.240223  0.860940  1
