# generated using pymatgen
data_Lu4Sn(PbO6)2
_symmetry_space_group_name_H-M   'P 1'
_cell_length_a   6.34357924
_cell_length_b   6.40377271
_cell_length_c   6.53765366
_cell_angle_alpha   100.23612767
_cell_angle_beta   98.40463102
_cell_angle_gamma   99.28468808
_symmetry_Int_Tables_number   1
_chemical_formula_structural   Lu4Sn(PbO6)2
_chemical_formula_sum   'Lu4 Sn1 Pb2 O12'
_cell_volume   253.71328152
_cell_formula_units_Z   1
loop_
 _symmetry_equiv_pos_site_id
 _symmetry_equiv_pos_as_xyz
  1  'x, y, z'
loop_
 _atom_site_type_symbol
 _atom_site_label
 _atom_site_symmetry_multiplicity
 _atom_site_fract_x
 _atom_site_fract_y
 _atom_site_fract_z
 _atom_site_occupancy
  Lu  Lu0  1  0.396366  0.703580  0.864196  1
  Lu  Lu1  1  0.694241  0.869155  0.387857  1
  Lu  Lu2  1  0.603634  0.296420  0.135804  1
  Lu  Lu3  1  0.305759  0.130845  0.612143  1
  Sn  Sn4  1  0.000000  0.000000  0.000000  1
  Pb  Pb5  1  0.854650  0.396206  0.683270  1
  Pb  Pb6  1  0.145350  0.603794  0.316730  1
  O  O7  1  0.048510  0.685313  0.903361  1
  O  O8  1  0.685868  0.929601  0.057094  1
  O  O9  1  0.921010  0.059562  0.689289  1
  O  O10  1  0.951490  0.314687  0.096639  1
  O  O11  1  0.314132  0.070399  0.942906  1
  O  O12  1  0.078990  0.940438  0.310711  1
  O  O13  1  0.576231  0.181472  0.426258  1
  O  O14  1  0.178548  0.423934  0.586166  1
  O  O15  1  0.426839  0.586092  0.173983  1
  O  O16  1  0.423769  0.818528  0.573742  1
  O  O17  1  0.821452  0.576066  0.413834  1
  O  O18  1  0.573161  0.413908  0.826017  1
