# generated using pymatgen
data_Tb(NdGa)2
_symmetry_space_group_name_H-M   'P 1'
_cell_length_a   7.72209500
_cell_length_b   7.72209500
_cell_length_c   4.58004700
_cell_angle_alpha   90.00000000
_cell_angle_beta   90.00000000
_cell_angle_gamma   90.00000000
_symmetry_Int_Tables_number   1
_chemical_formula_structural   Tb(NdGa)2
_chemical_formula_sum   'Tb2 Nd4 Ga4'
_cell_volume   273.11164309
_cell_formula_units_Z   2
loop_
 _symmetry_equiv_pos_site_id
 _symmetry_equiv_pos_as_xyz
  1  'x, y, z'
loop_
 _atom_site_type_symbol
 _atom_site_label
 _atom_site_symmetry_multiplicity
 _atom_site_fract_x
 _atom_site_fract_y
 _atom_site_fract_z
 _atom_site_occupancy
  Tb  Tb0  1  0.000000  0.000000  0.000000  1
  Tb  Tb1  1  0.500000  0.500000  0.000000  1
  Nd  Nd2  1  0.326184  0.173815  0.500000  1
  Nd  Nd3  1  0.826184  0.326184  0.500000  1
  Nd  Nd4  1  0.173815  0.673815  0.500000  1
  Nd  Nd5  1  0.673815  0.826184  0.500000  1
  Ga  Ga6  1  0.619930  0.119930  0.000000  1
  Ga  Ga7  1  0.119930  0.380069  0.000000  1
  Ga  Ga8  1  0.880070  0.619930  0.000000  1
  Ga  Ga9  1  0.380069  0.880070  0.000000  1
