# generated using pymatgen
data_Tb3Sc5PtAu3
_symmetry_space_group_name_H-M   'P 1'
_cell_length_a   4.70259000
_cell_length_b   6.98730805
_cell_length_c   8.49306392
_cell_angle_alpha   90.35167350
_cell_angle_beta   90.00000000
_cell_angle_gamma   90.00000000
_symmetry_Int_Tables_number   1
_chemical_formula_structural   Tb3Sc5PtAu3
_chemical_formula_sum   'Tb3 Sc5 Pt1 Au3'
_cell_volume   279.06361656
_cell_formula_units_Z   1
loop_
 _symmetry_equiv_pos_site_id
 _symmetry_equiv_pos_as_xyz
  1  'x, y, z'
loop_
 _atom_site_type_symbol
 _atom_site_label
 _atom_site_symmetry_multiplicity
 _atom_site_fract_x
 _atom_site_fract_y
 _atom_site_fract_z
 _atom_site_occupancy
  Tb  Tb0  1  0.250000  0.979840  0.323464  1
  Tb  Tb1  1  0.750000  0.011023  0.679266  1
  Tb  Tb2  1  0.250000  0.484892  0.179808  1
  Sc  Sc3  1  0.750000  0.516683  0.821443  1
  Sc  Sc4  1  0.750000  0.646101  0.433266  1
  Sc  Sc5  1  0.250000  0.368230  0.584739  1
  Sc  Sc6  1  0.750000  0.147175  0.073174  1
  Sc  Sc7  1  0.250000  0.845174  0.916956  1
  Pt  Pt8  1  0.250000  0.746924  0.596823  1
  Au  Au9  1  0.250000  0.246867  0.896420  1
  Au  Au10  1  0.750000  0.750860  0.096525  1
  Au  Au11  1  0.750000  0.256232  0.398116  1
