# generated using pymatgen
data_Li4Y3TmSi8
_symmetry_space_group_name_H-M   'P 1'
_cell_length_a   3.78589600
_cell_length_b   7.58429729
_cell_length_c   10.15751003
_cell_angle_alpha   90.02941470
_cell_angle_beta   90.00000000
_cell_angle_gamma   90.00000000
_symmetry_Int_Tables_number   1
_chemical_formula_structural   Li4Y3TmSi8
_chemical_formula_sum   'Li4 Y3 Tm1 Si8'
_cell_volume   291.65621168
_cell_formula_units_Z   1
loop_
 _symmetry_equiv_pos_site_id
 _symmetry_equiv_pos_as_xyz
  1  'x, y, z'
loop_
 _atom_site_type_symbol
 _atom_site_label
 _atom_site_symmetry_multiplicity
 _atom_site_fract_x
 _atom_site_fract_y
 _atom_site_fract_z
 _atom_site_occupancy
  Li  Li0  1  0.250000  0.990112  0.391913  1
  Li  Li1  1  0.750000  0.010702  0.607824  1
  Li  Li2  1  0.250000  0.489762  0.108756  1
  Li  Li3  1  0.750000  0.509060  0.892031  1
  Y  Y4  1  0.250000  0.139654  0.863746  1
  Y  Y5  1  0.750000  0.859785  0.136399  1
  Y  Y6  1  0.250000  0.639769  0.635847  1
  Tm  Tm7  1  0.750000  0.362058  0.363697  1
  Si  Si8  1  0.750000  0.268643  0.069640  1
  Si  Si9  1  0.250000  0.731156  0.931852  1
  Si  Si10  1  0.750000  0.767472  0.431757  1
  Si  Si11  1  0.250000  0.233665  0.565559  1
  Si  Si12  1  0.750000  0.842738  0.820220  1
  Si  Si13  1  0.250000  0.157424  0.181400  1
  Si  Si14  1  0.750000  0.343885  0.678548  1
  Si  Si15  1  0.250000  0.654113  0.320810  1
