# generated using pymatgen
data_Y6Ti2Fe3Co13P12
_symmetry_space_group_name_H-M   'P 1'
_cell_length_a   3.71758500
_cell_length_b   10.65358710
_cell_length_c   12.23496812
_cell_angle_alpha   89.98403311
_cell_angle_beta   90.00000000
_cell_angle_gamma   90.00000000
_symmetry_Int_Tables_number   1
_chemical_formula_structural   Y6Ti2Fe3Co13P12
_chemical_formula_sum   'Y6 Ti2 Fe3 Co13 P12'
_cell_volume   484.57342552
_cell_formula_units_Z   1
loop_
 _symmetry_equiv_pos_site_id
 _symmetry_equiv_pos_as_xyz
  1  'x, y, z'
loop_
 _atom_site_type_symbol
 _atom_site_label
 _atom_site_symmetry_multiplicity
 _atom_site_fract_x
 _atom_site_fract_y
 _atom_site_fract_z
 _atom_site_occupancy
  Y  Y0  1  0.000000  0.500107  0.525119  1
  Y  Y1  1  0.500000  0.000359  0.474705  1
  Y  Y2  1  0.500000  0.821814  0.204540  1
  Y  Y3  1  0.500000  0.178540  0.204397  1
  Y  Y4  1  0.000000  0.677637  0.795523  1
  Y  Y5  1  0.000000  0.321317  0.795720  1
  Ti  Ti6  1  0.500000  0.499214  0.152424  1
  Ti  Ti7  1  0.000000  0.999876  0.846794  1
  Fe  Fe8  1  0.000000  0.502186  0.988944  1
  Fe  Fe9  1  0.500000  0.999030  0.010782  1
  Fe  Fe10  1  0.500000  0.329853  0.997543  1
  Co  Co11  1  0.500000  0.500411  0.704483  1
  Co  Co12  1  0.000000  0.000297  0.295827  1
  Co  Co13  1  0.500000  0.670581  0.995682  1
  Co  Co14  1  0.000000  0.167884  0.003803  1
  Co  Co15  1  0.000000  0.830242  0.004270  1
  Co  Co16  1  0.500000  0.296223  0.432085  1
  Co  Co17  1  0.500000  0.704264  0.432077  1
  Co  Co18  1  0.000000  0.203995  0.568128  1
  Co  Co19  1  0.000000  0.796052  0.568101  1
  Co  Co20  1  0.500000  0.879068  0.705358  1
  Co  Co21  1  0.500000  0.120699  0.705702  1
  Co  Co22  1  0.000000  0.621219  0.294449  1
  Co  Co23  1  0.000000  0.379658  0.294010  1
  P  P24  1  0.500000  0.498254  0.889338  1
  P  P25  1  0.000000  0.999617  0.111945  1
  P  P26  1  0.500000  0.499979  0.352346  1
  P  P27  1  0.000000  0.000263  0.647241  1
  P  P28  1  0.500000  0.309233  0.616667  1
  P  P29  1  0.500000  0.690888  0.616385  1
  P  P30  1  0.000000  0.191515  0.383770  1
  P  P31  1  0.000000  0.809283  0.383808  1
  P  P32  1  0.500000  0.843574  0.892891  1
  P  P33  1  0.500000  0.156950  0.894247  1
  P  P34  1  0.000000  0.656642  0.106853  1
  P  P35  1  0.000000  0.343278  0.104045  1
