# generated using pymatgen
data_Nd8Y2Ir5Ru
_symmetry_space_group_name_H-M   'P 1'
_cell_length_a   11.18642900
_cell_length_b   11.18642900
_cell_length_c   6.53988900
_cell_angle_alpha   90.00000000
_cell_angle_beta   90.00000000
_cell_angle_gamma   90.00000000
_symmetry_Int_Tables_number   1
_chemical_formula_structural   Nd8Y2Ir5Ru
_chemical_formula_sum   'Nd16 Y4 Ir10 Ru2'
_cell_volume   818.37681715
_cell_formula_units_Z   2
loop_
 _symmetry_equiv_pos_site_id
 _symmetry_equiv_pos_as_xyz
  1  'x, y, z'
loop_
 _atom_site_type_symbol
 _atom_site_label
 _atom_site_symmetry_multiplicity
 _atom_site_fract_x
 _atom_site_fract_y
 _atom_site_fract_z
 _atom_site_occupancy
  Nd  Nd0  1  0.292303  0.086235  0.381350  1
  Nd  Nd1  1  0.292303  0.913765  0.881350  1
  Nd  Nd2  1  0.707697  0.086235  0.881350  1
  Nd  Nd3  1  0.707697  0.913765  0.381350  1
  Nd  Nd4  1  0.586235  0.792303  0.881350  1
  Nd  Nd5  1  0.586235  0.207697  0.381350  1
  Nd  Nd6  1  0.413765  0.792303  0.381350  1
  Nd  Nd7  1  0.413765  0.207697  0.881350  1
  Nd  Nd8  1  0.210845  0.412116  0.619358  1
  Nd  Nd9  1  0.210845  0.587884  0.119358  1
  Nd  Nd10  1  0.789155  0.412116  0.119358  1
  Nd  Nd11  1  0.789155  0.587884  0.619358  1
  Nd  Nd12  1  0.912116  0.710845  0.119358  1
  Nd  Nd13  1  0.912116  0.289155  0.619358  1
  Nd  Nd14  1  0.087884  0.710845  0.619358  1
  Nd  Nd15  1  0.087884  0.289155  0.119358  1
  Y  Y16  1  0.000000  0.000000  0.498333  1
  Y  Y17  1  0.000000  0.000000  0.998333  1
  Y  Y18  1  0.500000  0.500000  0.998333  1
  Y  Y19  1  0.500000  0.500000  0.498333  1
  Ir  Ir20  1  0.850669  0.150642  0.249486  1
  Ir  Ir21  1  0.850669  0.849358  0.749486  1
  Ir  Ir22  1  0.149331  0.150642  0.749486  1
  Ir  Ir23  1  0.149331  0.849358  0.249486  1
  Ir  Ir24  1  0.650642  0.350669  0.749486  1
  Ir  Ir25  1  0.650642  0.649331  0.249486  1
  Ir  Ir26  1  0.349358  0.350669  0.249486  1
  Ir  Ir27  1  0.349358  0.649331  0.749486  1
  Ir  Ir28  1  0.000000  0.500000  0.880760  1
  Ir  Ir29  1  0.000000  0.500000  0.380760  1
  Ru  Ru30  1  0.500000  0.000000  0.121799  1
  Ru  Ru31  1  0.500000  0.000000  0.621799  1
