# generated using pymatgen
data_Cs7Ta(MoO4)6
_symmetry_space_group_name_H-M   'P 1'
_cell_length_a   10.77234600
_cell_length_b   10.77234517
_cell_length_c   10.77234500
_cell_angle_alpha   109.65691479
_cell_angle_beta   109.65691886
_cell_angle_gamma   109.65690292
_symmetry_Int_Tables_number   1
_chemical_formula_structural   Cs7Ta(MoO4)6
_chemical_formula_sum   'Cs7 Ta1 Mo6 O24'
_cell_volume   955.62344943
_cell_formula_units_Z   1
loop_
 _symmetry_equiv_pos_site_id
 _symmetry_equiv_pos_as_xyz
  1  'x, y, z'
loop_
 _atom_site_type_symbol
 _atom_site_label
 _atom_site_symmetry_multiplicity
 _atom_site_fract_x
 _atom_site_fract_y
 _atom_site_fract_z
 _atom_site_occupancy
  Cs  Cs0  1  0.500000  0.500000  0.500000  1
  Cs  Cs1  1  0.676059  0.170621  0.340249  1
  Cs  Cs2  1  0.340249  0.676059  0.170621  1
  Cs  Cs3  1  0.170621  0.340249  0.676059  1
  Cs  Cs4  1  0.323941  0.829379  0.659751  1
  Cs  Cs5  1  0.659751  0.323941  0.829379  1
  Cs  Cs6  1  0.829379  0.659751  0.323941  1
  Ta  Ta7  1  0.000000  0.000000  0.000000  1
  Mo  Mo8  1  0.244568  0.029097  0.368008  1
  Mo  Mo9  1  0.368008  0.244568  0.029097  1
  Mo  Mo10  1  0.029097  0.368008  0.244568  1
  Mo  Mo11  1  0.755432  0.970903  0.631992  1
  Mo  Mo12  1  0.631992  0.755432  0.970903  1
  Mo  Mo13  1  0.970903  0.631992  0.755432  1
  O  O14  1  0.104856  0.585148  0.844401  1
  O  O15  1  0.844401  0.104856  0.585148  1
  O  O16  1  0.585148  0.844401  0.104856  1
  O  O17  1  0.895144  0.414852  0.155599  1
  O  O18  1  0.155599  0.895144  0.414852  1
  O  O19  1  0.414852  0.155599  0.895144  1
  O  O20  1  0.012084  0.682994  0.628098  1
  O  O21  1  0.628098  0.012084  0.682994  1
  O  O22  1  0.682994  0.628098  0.012084  1
  O  O23  1  0.987916  0.317006  0.371902  1
  O  O24  1  0.371902  0.987916  0.317006  1
  O  O25  1  0.317006  0.371902  0.987916  1
  O  O26  1  0.021428  0.205022  0.097116  1
  O  O27  1  0.097116  0.021428  0.205022  1
  O  O28  1  0.531165  0.351561  0.216509  1
  O  O29  1  0.351561  0.216509  0.531165  1
  O  O30  1  0.216509  0.531165  0.351561  1
  O  O31  1  0.468835  0.648439  0.783491  1
  O  O32  1  0.648439  0.783491  0.468835  1
  O  O33  1  0.783491  0.468835  0.648439  1
  O  O34  1  0.794978  0.902884  0.978572  1
  O  O35  1  0.902884  0.978572  0.794978  1
  O  O36  1  0.978572  0.794978  0.902884  1
  O  O37  1  0.205022  0.097116  0.021428  1
