# generated using pymatgen
data_Dy20Co3NiSb8
_symmetry_space_group_name_H-M   'P 1'
_cell_length_a   7.92138401
_cell_length_b   8.76956100
_cell_length_c   12.21228940
_cell_angle_alpha   90.00000000
_cell_angle_beta   89.99401844
_cell_angle_gamma   90.00000000
_symmetry_Int_Tables_number   1
_chemical_formula_structural   Dy20Co3NiSb8
_chemical_formula_sum   'Dy20 Co3 Ni1 Sb8'
_cell_volume   848.35183918
_cell_formula_units_Z   1
loop_
 _symmetry_equiv_pos_site_id
 _symmetry_equiv_pos_as_xyz
  1  'x, y, z'
loop_
 _atom_site_type_symbol
 _atom_site_label
 _atom_site_symmetry_multiplicity
 _atom_site_fract_x
 _atom_site_fract_y
 _atom_site_fract_z
 _atom_site_occupancy
  Dy  Dy0  1  0.154566  0.750000  0.202776  1
  Dy  Dy1  1  0.342328  0.750000  0.706907  1
  Dy  Dy2  1  0.846185  0.250000  0.798051  1
  Dy  Dy3  1  0.655327  0.250000  0.296302  1
  Dy  Dy4  1  0.454908  0.750000  0.999023  1
  Dy  Dy5  1  0.043983  0.750000  0.498578  1
  Dy  Dy6  1  0.545399  0.250000  0.001550  1
  Dy  Dy7  1  0.953469  0.250000  0.501530  1
  Dy  Dy8  1  0.625241  0.750000  0.303405  1
  Dy  Dy9  1  0.877178  0.750000  0.805994  1
  Dy  Dy10  1  0.377547  0.250000  0.693821  1
  Dy  Dy11  1  0.122801  0.250000  0.193710  1
  Dy  Dy12  1  0.822294  0.535991  0.064509  1
  Dy  Dy13  1  0.678543  0.965751  0.565508  1
  Dy  Dy14  1  0.178797  0.036102  0.935041  1
  Dy  Dy15  1  0.320457  0.458109  0.434341  1
  Dy  Dy16  1  0.178797  0.463898  0.935041  1
  Dy  Dy17  1  0.320457  0.041891  0.434341  1
  Dy  Dy18  1  0.822294  0.964009  0.064509  1
  Dy  Dy19  1  0.678543  0.534249  0.565508  1
  Co  Co20  1  0.065521  0.750000  0.990333  1
  Co  Co21  1  0.567204  0.250000  0.509532  1
  Co  Co22  1  0.935843  0.250000  0.009777  1
  Ni  Ni23  1  0.432080  0.750000  0.489728  1
  Sb  Sb24  1  0.928600  0.508251  0.327017  1
  Sb  Sb25  1  0.571138  0.991787  0.826908  1
  Sb  Sb26  1  0.071432  0.008301  0.672797  1
  Sb  Sb27  1  0.428950  0.491900  0.173371  1
  Sb  Sb28  1  0.071432  0.491699  0.672797  1
  Sb  Sb29  1  0.428950  0.008100  0.173371  1
  Sb  Sb30  1  0.928600  0.991749  0.327017  1
  Sb  Sb31  1  0.571138  0.508213  0.826908  1
