# generated using pymatgen
data_Yb3Al12(OsPd)2
_symmetry_space_group_name_H-M   'P 1'
_cell_length_a   8.85279100
_cell_length_b   8.92954335
_cell_length_c   9.57537700
_cell_angle_alpha   90.00000000
_cell_angle_beta   90.00000000
_cell_angle_gamma   119.71607753
_symmetry_Int_Tables_number   1
_chemical_formula_structural   Yb3Al12(OsPd)2
_chemical_formula_sum   'Yb6 Al24 Os4 Pd4'
_cell_volume   657.40256113
_cell_formula_units_Z   2
loop_
 _symmetry_equiv_pos_site_id
 _symmetry_equiv_pos_as_xyz
  1  'x, y, z'
loop_
 _atom_site_type_symbol
 _atom_site_label
 _atom_site_symmetry_multiplicity
 _atom_site_fract_x
 _atom_site_fract_y
 _atom_site_fract_z
 _atom_site_occupancy
  Yb  Yb0  1  0.189908  0.379816  0.250000  1
  Yb  Yb1  1  0.810092  0.620184  0.750000  1
  Yb  Yb2  1  0.611153  0.809306  0.250000  1
  Yb  Yb3  1  0.388847  0.190694  0.750000  1
  Yb  Yb4  1  0.198153  0.809306  0.250000  1
  Yb  Yb5  1  0.801847  0.190694  0.750000  1
  Al  Al6  1  0.336299  0.672598  0.008040  1
  Al  Al7  1  0.663701  0.327402  0.991960  1
  Al  Al8  1  0.663701  0.327402  0.508040  1
  Al  Al9  1  0.336299  0.672598  0.491960  1
  Al  Al10  1  0.159811  0.319621  0.581976  1
  Al  Al11  1  0.840189  0.680379  0.418024  1
  Al  Al12  1  0.677169  0.844120  0.579417  1
  Al  Al13  1  0.840189  0.680379  0.081976  1
  Al  Al14  1  0.322831  0.155880  0.420583  1
  Al  Al15  1  0.159811  0.319621  0.918024  1
  Al  Al16  1  0.166950  0.844120  0.579417  1
  Al  Al17  1  0.322831  0.155880  0.079417  1
  Al  Al18  1  0.833050  0.155880  0.420583  1
  Al  Al19  1  0.677169  0.844120  0.920583  1
  Al  Al20  1  0.833050  0.155880  0.079417  1
  Al  Al21  1  0.166950  0.844120  0.920583  1
  Al  Al22  1  0.560292  0.120584  0.250000  1
  Al  Al23  1  0.439708  0.879416  0.750000  1
  Al  Al24  1  0.873505  0.434549  0.250000  1
  Al  Al25  1  0.126495  0.565451  0.750000  1
  Al  Al26  1  0.561044  0.434549  0.250000  1
  Al  Al27  1  0.438956  0.565451  0.750000  1
  Al  Al28  1  0.000111  0.000223  0.250000  1
  Al  Al29  1  0.999889  0.999777  0.750000  1
  Os  Os30  1  0.500000  0.000000  0.000000  1
  Os  Os31  1  0.500000  0.000000  0.500000  1
  Os  Os32  1  0.000000  0.000000  0.000000  1
  Os  Os33  1  0.000000  0.000000  0.500000  1
  Pd  Pd34  1  0.000000  0.500000  0.000000  1
  Pd  Pd35  1  0.500000  0.500000  0.000000  1
  Pd  Pd36  1  0.000000  0.500000  0.500000  1
  Pd  Pd37  1  0.500000  0.500000  0.500000  1
