# generated using pymatgen
data_Ta3Co4Si2P2W
_symmetry_space_group_name_H-M   'P 1'
_cell_length_a   6.12040260
_cell_length_b   3.61235800
_cell_length_c   6.97157865
_cell_angle_alpha   90.00000000
_cell_angle_beta   89.68247315
_cell_angle_gamma   90.00000000
_symmetry_Int_Tables_number   1
_chemical_formula_structural   Ta3Co4Si2P2W
_chemical_formula_sum   'Ta3 Co4 Si2 P2 W1'
_cell_volume   154.13286001
_cell_formula_units_Z   1
loop_
 _symmetry_equiv_pos_site_id
 _symmetry_equiv_pos_as_xyz
  1  'x, y, z'
loop_
 _atom_site_type_symbol
 _atom_site_label
 _atom_site_symmetry_multiplicity
 _atom_site_fract_x
 _atom_site_fract_y
 _atom_site_fract_z
 _atom_site_occupancy
  Ta  Ta0  1  0.524405  0.250000  0.672569  1
  Ta  Ta1  1  0.977740  0.750000  0.173903  1
  Ta  Ta2  1  0.475654  0.750000  0.324726  1
  Co  Co3  1  0.142780  0.250000  0.430225  1
  Co  Co4  1  0.644949  0.250000  0.067501  1
  Co  Co5  1  0.852398  0.750000  0.556689  1
  Co  Co6  1  0.354980  0.750000  0.943223  1
  Si  Si7  1  0.217693  0.750000  0.626061  1
  Si  Si8  1  0.727549  0.750000  0.875143  1
  P  P9  1  0.776455  0.250000  0.379508  1
  P  P10  1  0.277320  0.250000  0.116081  1
  W  W11  1  0.028078  0.250000  0.834371  1
