# generated using pymatgen
data_Nb2V10Si9As
_symmetry_space_group_name_H-M   'P 1'
_cell_length_a   9.22469977
_cell_length_b   9.22469967
_cell_length_c   7.60083827
_cell_angle_alpha   65.81002616
_cell_angle_beta   65.81002660
_cell_angle_gamma   30.63946866
_symmetry_Int_Tables_number   1
_chemical_formula_structural   Nb2V10Si9As
_chemical_formula_sum   'Nb2 V10 Si9 As1'
_cell_volume   298.39902054
_cell_formula_units_Z   1
loop_
 _symmetry_equiv_pos_site_id
 _symmetry_equiv_pos_as_xyz
  1  'x, y, z'
loop_
 _atom_site_type_symbol
 _atom_site_label
 _atom_site_symmetry_multiplicity
 _atom_site_fract_x
 _atom_site_fract_y
 _atom_site_fract_z
 _atom_site_occupancy
  Nb  Nb0  1  0.640704  0.640704  0.750075  1
  Nb  Nb1  1  0.359066  0.359066  0.251256  1
  V  V2  1  0.558666  0.061754  0.690505  1
  V  V3  1  0.941424  0.437597  0.311136  1
  V  V4  1  0.437597  0.941424  0.311136  1
  V  V5  1  0.061754  0.558666  0.690505  1
  V  V6  1  0.938337  0.938337  0.314710  1
  V  V7  1  0.062573  0.062573  0.683192  1
  V  V8  1  0.564554  0.564554  0.188470  1
  V  V9  1  0.435781  0.435781  0.809920  1
  V  V10  1  0.858450  0.858450  0.015891  1
  V  V11  1  0.141751  0.141751  0.981027  1
  Si  Si12  1  0.209355  0.209355  0.596747  1
  Si  Si13  1  0.714969  0.714969  0.993588  1
  Si  Si14  1  0.285210  0.285210  0.006957  1
  Si  Si15  1  0.246621  0.753273  0.999495  1
  Si  Si16  1  0.753273  0.246621  0.999495  1
  Si  Si17  1  0.562891  0.562891  0.521069  1
  Si  Si18  1  0.437375  0.437375  0.478118  1
  Si  Si19  1  0.935949  0.935949  0.651146  1
  Si  Si20  1  0.064280  0.064280  0.347723  1
  As  As21  1  0.789421  0.789421  0.407841  1
