# generated using pymatgen
data_Cs2CdAs2O7
_symmetry_space_group_name_H-M   'P 1'
_cell_length_a   8.00504481
_cell_length_b   8.00504595
_cell_length_c   10.91486396
_cell_angle_alpha   79.19390310
_cell_angle_beta   79.19390629
_cell_angle_gamma   119.93587395
_symmetry_Int_Tables_number   1
_chemical_formula_structural   Cs2CdAs2O7
_chemical_formula_sum   'Cs4 Cd2 As4 O14'
_cell_volume   561.98187207
_cell_formula_units_Z   2
loop_
 _symmetry_equiv_pos_site_id
 _symmetry_equiv_pos_as_xyz
  1  'x, y, z'
loop_
 _atom_site_type_symbol
 _atom_site_label
 _atom_site_symmetry_multiplicity
 _atom_site_fract_x
 _atom_site_fract_y
 _atom_site_fract_z
 _atom_site_occupancy
  Cs  Cs0  1  0.365590  0.465350  0.132222  1
  Cs  Cs1  1  0.465350  0.365590  0.632222  1
  Cs  Cs2  1  0.601799  0.011759  0.321524  1
  Cs  Cs3  1  0.011759  0.601799  0.821524  1
  Cd  Cd4  1  0.044704  0.810911  0.300015  1
  Cd  Cd5  1  0.810911  0.044704  0.800015  1
  As  As6  1  0.407794  0.987287  0.993741  1
  As  As7  1  0.987287  0.407794  0.493741  1
  As  As8  1  0.011099  0.013313  0.999246  1
  As  As9  1  0.013313  0.011099  0.499246  1
  O  O10  1  0.234130  0.064607  0.393333  1
  O  O11  1  0.064607  0.234130  0.893333  1
  O  O12  1  0.981687  0.211814  0.428546  1
  O  O13  1  0.211814  0.981687  0.928546  1
  O  O14  1  0.584036  0.230696  0.975497  1
  O  O15  1  0.230696  0.584036  0.475497  1
  O  O16  1  0.004193  0.019557  0.155709  1
  O  O17  1  0.019557  0.004193  0.655709  1
  O  O18  1  0.800120  0.813996  0.986030  1
  O  O19  1  0.813996  0.800120  0.486030  1
  O  O20  1  0.476333  0.872119  0.895582  1
  O  O21  1  0.872119  0.476333  0.395582  1
  O  O22  1  0.290729  0.823155  0.153505  1
  O  O23  1  0.823155  0.290729  0.653505  1
