# generated using pymatgen
data_CaPa2(SnIr)3
_symmetry_space_group_name_H-M   'P 1'
_cell_length_a   7.51850721
_cell_length_b   7.51850724
_cell_length_c   4.02113800
_cell_angle_alpha   90.00000000
_cell_angle_beta   90.00000000
_cell_angle_gamma   120.91047286
_symmetry_Int_Tables_number   1
_chemical_formula_structural   CaPa2(SnIr)3
_chemical_formula_sum   'Ca1 Pa2 Sn3 Ir3'
_cell_volume   195.02255452
_cell_formula_units_Z   1
loop_
 _symmetry_equiv_pos_site_id
 _symmetry_equiv_pos_as_xyz
  1  'x, y, z'
loop_
 _atom_site_type_symbol
 _atom_site_label
 _atom_site_symmetry_multiplicity
 _atom_site_fract_x
 _atom_site_fract_y
 _atom_site_fract_z
 _atom_site_occupancy
  Ca  Ca0  1  0.407235  0.407235  0.500000  1
  Pa  Pa1  1  0.588555  0.002399  0.500000  1
  Pa  Pa2  1  0.002399  0.588555  0.500000  1
  Sn  Sn3  1  0.730401  0.730401  0.000000  1
  Sn  Sn4  1  0.254824  0.014257  0.000000  1
  Sn  Sn5  1  0.014257  0.254824  0.000000  1
  Ir  Ir6  1  0.693578  0.329622  0.000000  1
  Ir  Ir7  1  0.329622  0.693578  0.000000  1
  Ir  Ir8  1  0.979127  0.979127  0.500000  1
