# generated using pymatgen
data_NaLi3Dy4(P3Ir4)4
_symmetry_space_group_name_H-M   'P 1'
_cell_length_a   12.70024467
_cell_length_b   12.75010490
_cell_length_c   3.95623900
_cell_angle_alpha   90.00000000
_cell_angle_beta   90.00000000
_cell_angle_gamma   120.12995294
_symmetry_Int_Tables_number   1
_chemical_formula_structural   NaLi3Dy4(P3Ir4)4
_chemical_formula_sum   'Na1 Li3 Dy4 P12 Ir16'
_cell_volume   554.07531379
_cell_formula_units_Z   1
loop_
 _symmetry_equiv_pos_site_id
 _symmetry_equiv_pos_as_xyz
  1  'x, y, z'
loop_
 _atom_site_type_symbol
 _atom_site_label
 _atom_site_symmetry_multiplicity
 _atom_site_fract_x
 _atom_site_fract_y
 _atom_site_fract_z
 _atom_site_occupancy
  Na  Na0  1  0.000000  0.811718  0.000000  1
  Li  Li1  1  0.000000  0.441651  0.500000  1
  Li  Li2  1  0.557830  0.558849  0.500000  1
  Li  Li3  1  0.442170  0.001019  0.500000  1
  Dy  Dy4  1  0.334228  0.666154  0.500000  1
  Dy  Dy5  1  0.665772  0.331925  0.500000  1
  Dy  Dy6  1  0.189828  0.190194  0.000000  1
  Dy  Dy7  1  0.810172  0.000366  0.000000  1
  P  P8  1  0.000000  0.630418  0.500000  1
  P  P9  1  0.369126  0.368947  0.500000  1
  P  P10  1  0.630874  0.999821  0.500000  1
  P  P11  1  0.518136  0.688642  0.000000  1
  P  P12  1  0.310364  0.828505  0.000000  1
  P  P13  1  0.171221  0.483242  0.000000  1
  P  P14  1  0.481864  0.170506  0.000000  1
  P  P15  1  0.689636  0.518140  0.000000  1
  P  P16  1  0.828779  0.312021  0.000000  1
  P  P17  1  0.000000  0.179291  0.500000  1
  P  P18  1  0.820825  0.820583  0.500000  1
  P  P19  1  0.179175  0.999758  0.500000  1
  Ir  Ir20  1  0.507849  0.868500  0.000000  1
  Ir  Ir21  1  0.131130  0.639625  0.000000  1
  Ir  Ir22  1  0.359997  0.490668  0.000000  1
  Ir  Ir23  1  0.492151  0.360650  0.000000  1
  Ir  Ir24  1  0.868870  0.508494  0.000000  1
  Ir  Ir25  1  0.640003  0.130670  0.000000  1
  Ir  Ir26  1  0.000000  0.280242  0.000000  1
  Ir  Ir27  1  0.721132  0.720855  0.000000  1
  Ir  Ir28  1  0.278868  0.999723  0.000000  1
  Ir  Ir29  1  0.626945  0.807354  0.500000  1
  Ir  Ir30  1  0.196928  0.819435  0.500000  1
  Ir  Ir31  1  0.180047  0.373467  0.500000  1
  Ir  Ir32  1  0.373055  0.180409  0.500000  1
  Ir  Ir33  1  0.803072  0.622507  0.500000  1
  Ir  Ir34  1  0.819953  0.193419  0.500000  1
  Ir  Ir35  1  0.000000  0.002231  0.500000  1
