# generated using pymatgen
data_Ca2La13Pr(CdCo)4
_symmetry_space_group_name_H-M   'P 1'
_cell_length_a   9.94508542
_cell_length_b   9.96651220
_cell_length_c   9.94420000
_cell_angle_alpha   60.07402855
_cell_angle_beta   60.00294508
_cell_angle_gamma   60.27548032
_symmetry_Int_Tables_number   1
_chemical_formula_structural   Ca2La13Pr(CdCo)4
_chemical_formula_sum   'Ca2 La13 Pr1 Cd4 Co4'
_cell_volume   698.80454251
_cell_formula_units_Z   1
loop_
 _symmetry_equiv_pos_site_id
 _symmetry_equiv_pos_as_xyz
  1  'x, y, z'
loop_
 _atom_site_type_symbol
 _atom_site_label
 _atom_site_symmetry_multiplicity
 _atom_site_fract_x
 _atom_site_fract_y
 _atom_site_fract_z
 _atom_site_occupancy
  Ca  Ca0  1  0.562763  0.937065  0.562669  1
  Ca  Ca1  1  0.562763  0.937065  0.937504  1
  La  La2  1  0.692586  0.690608  0.308403  1
  La  La3  1  0.154152  0.155278  0.535231  1
  La  La4  1  0.313131  0.689151  0.688102  1
  La  La5  1  0.154152  0.155278  0.155338  1
  La  La6  1  0.536301  0.154478  0.154610  1
  La  La7  1  0.313131  0.689151  0.309616  1
  La  La8  1  0.315309  0.305036  0.689827  1
  La  La9  1  0.691634  0.307696  0.687136  1
  La  La10  1  0.940461  0.561427  0.560322  1
  La  La11  1  0.555703  0.562408  0.940945  1
  La  La12  1  0.153721  0.535316  0.155482  1
  La  La13  1  0.691634  0.307696  0.313533  1
  La  La14  1  0.940461  0.561427  0.937790  1
  Pr  Pr15  1  0.936962  0.937398  0.562820  1
  Cd  Cd16  1  0.235753  0.920737  0.921755  1
  Cd  Cd17  1  0.921313  0.921418  0.919988  1
  Cd  Cd18  1  0.921313  0.921418  0.237280  1
  Cd  Cd19  1  0.921728  0.238029  0.920121  1
  Co  Co20  1  0.918355  0.362007  0.359819  1
  Co  Co21  1  0.356639  0.365841  0.917599  1
  Co  Co22  1  0.353394  0.918229  0.364189  1
  Co  Co23  1  0.356639  0.365841  0.359919  1
