# generated using pymatgen
data_Ho3Tl2InAg2Rh
_symmetry_space_group_name_H-M   'P 1'
_cell_length_a   8.00220336
_cell_length_b   8.02063236
_cell_length_c   3.73281400
_cell_angle_alpha   90.00000000
_cell_angle_beta   90.00000000
_cell_angle_gamma   119.85658182
_symmetry_Int_Tables_number   1
_chemical_formula_structural   Ho3Tl2InAg2Rh
_chemical_formula_sum   'Ho3 Tl2 In1 Ag2 Rh1'
_cell_volume   207.78347066
_cell_formula_units_Z   1
loop_
 _symmetry_equiv_pos_site_id
 _symmetry_equiv_pos_as_xyz
  1  'x, y, z'
loop_
 _atom_site_type_symbol
 _atom_site_label
 _atom_site_symmetry_multiplicity
 _atom_site_fract_x
 _atom_site_fract_y
 _atom_site_fract_z
 _atom_site_occupancy
  Ho  Ho0  1  0.968290  0.386860  0.500000  1
  Ho  Ho1  1  0.613096  0.578627  0.500000  1
  Ho  Ho2  1  0.417343  0.032536  0.500000  1
  Tl  Tl3  1  0.269494  0.280308  0.000000  1
  Tl  Tl4  1  0.007647  0.728502  0.000000  1
  In  In5  1  0.722051  0.992794  0.000000  1
  Ag  Ag6  1  0.341042  0.673028  0.000000  1
  Ag  Ag7  1  0.993062  0.999634  0.500000  1
  Rh  Rh8  1  0.667974  0.327711  0.000000  1
