# generated using pymatgen
data_KCaO6
_symmetry_space_group_name_H-M   'P 1'
_cell_length_a   6.82701960
_cell_length_b   6.82702029
_cell_length_c   6.82702076
_cell_angle_alpha   103.83384491
_cell_angle_beta   103.83383094
_cell_angle_gamma   121.45213630
_symmetry_Int_Tables_number   1
_chemical_formula_structural   KCaO6
_chemical_formula_sum   'K2 Ca2 O12'
_cell_volume   236.77905150
_cell_formula_units_Z   2
loop_
 _symmetry_equiv_pos_site_id
 _symmetry_equiv_pos_as_xyz
  1  'x, y, z'
loop_
 _atom_site_type_symbol
 _atom_site_label
 _atom_site_symmetry_multiplicity
 _atom_site_fract_x
 _atom_site_fract_y
 _atom_site_fract_z
 _atom_site_occupancy
  K  K0  1  0.250000  0.250000  0.000000  1
  K  K1  1  0.750000  0.750000  0.000000  1
  Ca  Ca2  1  0.750000  0.250000  0.500000  1
  Ca  Ca3  1  0.250000  0.750000  0.500000  1
  O  O4  1  0.779519  0.528063  0.307582  1
  O  O5  1  0.471937  0.779519  0.251457  1
  O  O6  1  0.528063  0.220481  0.748543  1
  O  O7  1  0.220481  0.471937  0.692418  1
  O  O8  1  0.195432  0.304568  0.500000  1
  O  O9  1  0.304568  0.804568  0.109134  1
  O  O10  1  0.695432  0.195432  0.890866  1
  O  O11  1  0.804568  0.695432  0.500000  1
  O  O12  1  0.028063  0.279519  0.307582  1
  O  O13  1  0.279519  0.971937  0.251457  1
  O  O14  1  0.720481  0.028063  0.748543  1
  O  O15  1  0.971937  0.720481  0.692418  1
