# generated using pymatgen
data_Lu9Th7(InCo)4
_symmetry_space_group_name_H-M   'P 1'
_cell_length_a   9.53752843
_cell_length_b   9.56111936
_cell_length_c   9.61527997
_cell_angle_alpha   59.64986166
_cell_angle_beta   60.22161445
_cell_angle_gamma   60.45734468
_symmetry_Int_Tables_number   1
_chemical_formula_structural   Lu9Th7(InCo)4
_chemical_formula_sum   'Lu9 Th7 In4 Co4'
_cell_volume   621.47456008
_cell_formula_units_Z   1
loop_
 _symmetry_equiv_pos_site_id
 _symmetry_equiv_pos_as_xyz
  1  'x, y, z'
loop_
 _atom_site_type_symbol
 _atom_site_label
 _atom_site_symmetry_multiplicity
 _atom_site_fract_x
 _atom_site_fract_y
 _atom_site_fract_z
 _atom_site_occupancy
  Lu  Lu0  1  0.060911  0.439089  0.060911  1
  Lu  Lu1  1  0.438860  0.442170  0.057609  1
  Lu  Lu2  1  0.057609  0.061360  0.438860  1
  Lu  Lu3  1  0.181790  0.812824  0.819407  1
  Lu  Lu4  1  0.819407  0.185979  0.181790  1
  Lu  Lu5  1  0.815366  0.184634  0.815366  1
  Lu  Lu6  1  0.185416  0.814584  0.185416  1
  Lu  Lu7  1  0.816830  0.812051  0.183973  1
  Lu  Lu8  1  0.183973  0.187145  0.816830  1
  Th  Th9  1  0.592775  0.595251  0.598943  1
  Th  Th10  1  0.598561  0.592560  0.211531  1
  Th  Th11  1  0.598943  0.213032  0.592775  1
  Th  Th12  1  0.211531  0.597349  0.598561  1
  Th  Th13  1  0.064229  0.435199  0.431815  1
  Th  Th14  1  0.431815  0.068757  0.064229  1
  Th  Th15  1  0.436933  0.063067  0.436933  1
  In  In16  1  0.835593  0.833582  0.834766  1
  In  In17  1  0.836616  0.834041  0.496276  1
  In  In18  1  0.834766  0.496059  0.835593  1
  In  In19  1  0.496276  0.833067  0.836616  1
  Co  Co20  1  0.384290  0.389522  0.397703  1
  Co  Co21  1  0.394941  0.382739  0.824863  1
  Co  Co22  1  0.397703  0.828484  0.384290  1
  Co  Co23  1  0.824863  0.397455  0.394941  1
