# generated using pymatgen
data_La2SmTaO7
_symmetry_space_group_name_H-M   'P 1'
_cell_length_a   6.71310072
_cell_length_b   6.71310044
_cell_length_c   7.78445900
_cell_angle_alpha   90.00000000
_cell_angle_beta   90.00000000
_cell_angle_gamma   109.21439716
_symmetry_Int_Tables_number   1
_chemical_formula_structural   La2SmTaO7
_chemical_formula_sum   'La4 Sm2 Ta2 O14'
_cell_volume   331.26979410
_cell_formula_units_Z   2
loop_
 _symmetry_equiv_pos_site_id
 _symmetry_equiv_pos_as_xyz
  1  'x, y, z'
loop_
 _atom_site_type_symbol
 _atom_site_label
 _atom_site_symmetry_multiplicity
 _atom_site_fract_x
 _atom_site_fract_y
 _atom_site_fract_z
 _atom_site_occupancy
  La  La0  1  0.481456  0.481456  0.500000  1
  La  La1  1  0.481456  0.481456  0.000000  1
  La  La2  1  0.529953  0.995954  0.750000  1
  La  La3  1  0.995954  0.529953  0.250000  1
  Sm  Sm4  1  0.464304  0.997953  0.250000  1
  Sm  Sm5  1  0.997953  0.464304  0.750000  1
  Ta  Ta6  1  0.997999  0.997999  0.500000  1
  Ta  Ta7  1  0.997999  0.997999  0.000000  1
  O  O8  1  0.695539  0.944426  0.462062  1
  O  O9  1  0.944426  0.695539  0.537938  1
  O  O10  1  0.695539  0.944426  0.037938  1
  O  O11  1  0.944426  0.695539  0.962062  1
  O  O12  1  0.318798  0.074034  0.520852  1
  O  O13  1  0.074034  0.318798  0.479148  1
  O  O14  1  0.318798  0.074034  0.979148  1
  O  O15  1  0.074034  0.318798  0.020852  1
  O  O16  1  0.945669  0.055810  0.750000  1
  O  O17  1  0.055810  0.945669  0.250000  1
  O  O18  1  0.362810  0.623748  0.750000  1
  O  O19  1  0.623748  0.362810  0.250000  1
  O  O20  1  0.637572  0.361725  0.750000  1
  O  O21  1  0.361725  0.637572  0.250000  1
