# generated using pymatgen
data_Hf20Si15P
_symmetry_space_group_name_H-M   'P 1'
_cell_length_a   7.06709330
_cell_length_b   7.06916117
_cell_length_c   12.86722678
_cell_angle_alpha   90.07404587
_cell_angle_beta   89.95293806
_cell_angle_gamma   89.86785952
_symmetry_Int_Tables_number   1
_chemical_formula_structural   Hf20Si15P
_chemical_formula_sum   'Hf20 Si15 P1'
_cell_volume   642.82387494
_cell_formula_units_Z   1
loop_
 _symmetry_equiv_pos_site_id
 _symmetry_equiv_pos_as_xyz
  1  'x, y, z'
loop_
 _atom_site_type_symbol
 _atom_site_label
 _atom_site_symmetry_multiplicity
 _atom_site_fract_x
 _atom_site_fract_y
 _atom_site_fract_z
 _atom_site_occupancy
  Hf  Hf0  1  0.676290  0.324028  0.750354  1
  Hf  Hf1  1  0.324226  0.675536  0.249819  1
  Hf  Hf2  1  0.823907  0.823942  0.499882  1
  Hf  Hf3  1  0.175381  0.176983  0.000602  1
  Hf  Hf4  1  0.496476  0.151738  0.533500  1
  Hf  Hf5  1  0.502953  0.849083  0.033634  1
  Hf  Hf6  1  0.651060  0.001731  0.284592  1
  Hf  Hf7  1  0.347646  0.995709  0.783496  1
  Hf  Hf8  1  0.848029  0.500121  0.966838  1
  Hf  Hf9  1  0.152175  0.496086  0.466526  1
  Hf  Hf10  1  0.002876  0.651777  0.716274  1
  Hf  Hf11  1  0.996652  0.347621  0.215630  1
  Hf  Hf12  1  0.503753  0.350045  0.126048  1
  Hf  Hf13  1  0.500614  0.646066  0.626778  1
  Hf  Hf14  1  0.852399  0.002860  0.878282  1
  Hf  Hf15  1  0.145531  0.000073  0.376387  1
  Hf  Hf16  1  0.646774  0.499750  0.372864  1
  Hf  Hf17  1  0.353510  0.500622  0.873678  1
  Hf  Hf18  1  0.998024  0.857167  0.123603  1
  Hf  Hf19  1  0.999491  0.145405  0.623386  1
  Si  Si20  1  0.204141  0.853142  0.572485  1
  Si  Si21  1  0.647629  0.704037  0.823274  1
  Si  Si22  1  0.353249  0.296289  0.322225  1
  Si  Si23  1  0.852706  0.203816  0.427490  1
  Si  Si24  1  0.145750  0.796968  0.927642  1
  Si  Si25  1  0.703061  0.646932  0.177141  1
  Si  Si26  1  0.295860  0.353511  0.677037  1
  Si  Si27  1  0.545035  0.198562  0.933683  1
  Si  Si28  1  0.450473  0.800728  0.436099  1
  Si  Si29  1  0.698605  0.950790  0.686624  1
  Si  Si30  1  0.301483  0.048983  0.186353  1
  Si  Si31  1  0.801636  0.450868  0.563738  1
  Si  Si32  1  0.199715  0.550369  0.064414  1
  Si  Si33  1  0.951146  0.698179  0.313742  1
  Si  Si34  1  0.049969  0.301009  0.813482  1
  P  P35  1  0.801776  0.149471  0.072394  1
