# generated using pymatgen
data_Nb12Sn3Os
_symmetry_space_group_name_H-M   'P 1'
_cell_length_a   5.28726100
_cell_length_b   5.29199000
_cell_length_c   10.59803100
_cell_angle_alpha   90.00000000
_cell_angle_beta   90.00000000
_cell_angle_gamma   90.00000000
_symmetry_Int_Tables_number   1
_chemical_formula_structural   Nb12Sn3Os
_chemical_formula_sum   'Nb12 Sn3 Os1'
_cell_volume   296.53430992
_cell_formula_units_Z   1
loop_
 _symmetry_equiv_pos_site_id
 _symmetry_equiv_pos_as_xyz
  1  'x, y, z'
loop_
 _atom_site_type_symbol
 _atom_site_label
 _atom_site_symmetry_multiplicity
 _atom_site_fract_x
 _atom_site_fract_y
 _atom_site_fract_z
 _atom_site_occupancy
  Nb  Nb0  1  0.000000  0.500000  0.382752  1
  Nb  Nb1  1  0.000000  0.500000  0.870276  1
  Nb  Nb2  1  0.500000  0.253348  0.000000  1
  Nb  Nb3  1  0.500000  0.243584  0.500000  1
  Nb  Nb4  1  0.755783  0.000000  0.259353  1
  Nb  Nb5  1  0.755783  0.000000  0.740647  1
  Nb  Nb6  1  0.000000  0.500000  0.129724  1
  Nb  Nb7  1  0.000000  0.500000  0.617248  1
  Nb  Nb8  1  0.500000  0.746652  0.000000  1
  Nb  Nb9  1  0.500000  0.756416  0.500000  1
  Nb  Nb10  1  0.244217  0.000000  0.259353  1
  Nb  Nb11  1  0.244217  0.000000  0.740647  1
  Sn  Sn12  1  0.500000  0.500000  0.248781  1
  Sn  Sn13  1  0.500000  0.500000  0.751219  1
  Sn  Sn14  1  0.000000  0.000000  0.000000  1
  Os  Os15  1  0.000000  0.000000  0.500000  1
