# generated using pymatgen
data_Dy4Al6TcIr
_symmetry_space_group_name_H-M   'P 1'
_cell_length_a   5.50838400
_cell_length_b   5.50838395
_cell_length_c   8.86176200
_cell_angle_alpha   90.00000000
_cell_angle_beta   90.00000000
_cell_angle_gamma   119.99998828
_symmetry_Int_Tables_number   1
_chemical_formula_structural   Dy4Al6TcIr
_chemical_formula_sum   'Dy4 Al6 Tc1 Ir1'
_cell_volume   232.86229723
_cell_formula_units_Z   1
loop_
 _symmetry_equiv_pos_site_id
 _symmetry_equiv_pos_as_xyz
  1  'x, y, z'
loop_
 _atom_site_type_symbol
 _atom_site_label
 _atom_site_symmetry_multiplicity
 _atom_site_fract_x
 _atom_site_fract_y
 _atom_site_fract_z
 _atom_site_occupancy
  Dy  Dy0  1  0.666667  0.333332  0.054492  1
  Dy  Dy1  1  0.666667  0.333332  0.447914  1
  Dy  Dy2  1  0.333334  0.666667  0.552086  1
  Dy  Dy3  1  0.333334  0.666667  0.945508  1
  Al  Al4  1  0.162640  0.325279  0.251806  1
  Al  Al5  1  0.162639  0.837360  0.251806  1
  Al  Al6  1  0.674720  0.837360  0.251806  1
  Al  Al7  1  0.325280  0.162640  0.748194  1
  Al  Al8  1  0.837361  0.162640  0.748194  1
  Al  Al9  1  0.837361  0.674720  0.748194  1
  Tc  Tc10  1  0.000000  0.000000  0.000000  1
  Ir  Ir11  1  0.000000  0.000000  0.500000  1
