# generated using pymatgen
data_Nd10In8PdPt3
_symmetry_space_group_name_H-M   'P 1'
_cell_length_a   3.79042800
_cell_length_b   8.31173854
_cell_length_c   18.74839904
_cell_angle_alpha   90.07245961
_cell_angle_beta   90.00000000
_cell_angle_gamma   90.00000000
_symmetry_Int_Tables_number   1
_chemical_formula_structural   Nd10In8PdPt3
_chemical_formula_sum   'Nd10 In8 Pd1 Pt3'
_cell_volume   590.66871083
_cell_formula_units_Z   1
loop_
 _symmetry_equiv_pos_site_id
 _symmetry_equiv_pos_as_xyz
  1  'x, y, z'
loop_
 _atom_site_type_symbol
 _atom_site_label
 _atom_site_symmetry_multiplicity
 _atom_site_fract_x
 _atom_site_fract_y
 _atom_site_fract_z
 _atom_site_occupancy
  Nd  Nd0  1  0.000000  0.119249  0.416238  1
  Nd  Nd1  1  0.000000  0.881081  0.584833  1
  Nd  Nd2  1  0.000000  0.381760  0.915146  1
  Nd  Nd3  1  0.000000  0.619076  0.084507  1
  Nd  Nd4  1  0.000000  0.245727  0.219306  1
  Nd  Nd5  1  0.000000  0.757526  0.780167  1
  Nd  Nd6  1  0.000000  0.258341  0.719710  1
  Nd  Nd7  1  0.000000  0.738038  0.280182  1
  Nd  Nd8  1  0.000000  0.998869  0.999996  1
  Nd  Nd9  1  0.000000  0.500007  0.500143  1
  In  In10  1  0.500000  0.423525  0.350326  1
  In  In11  1  0.500000  0.574312  0.649564  1
  In  In12  1  0.500000  0.074662  0.850305  1
  In  In13  1  0.500000  0.927865  0.150862  1
  In  In14  1  0.500000  0.292144  0.068192  1
  In  In15  1  0.500000  0.707402  0.931615  1
  In  In16  1  0.500000  0.207342  0.568276  1
  In  In17  1  0.500000  0.792763  0.430445  1
  Pd  Pd18  1  0.500000  0.021524  0.303566  1
  Pt  Pt19  1  0.500000  0.978324  0.696543  1
  Pt  Pt20  1  0.500000  0.478039  0.803326  1
  Pt  Pt21  1  0.500000  0.522426  0.196750  1
