# generated using pymatgen
data_Tb9Pr8Ho3Sn16
_symmetry_space_group_name_H-M   'P 1'
_cell_length_a   8.10183800
_cell_length_b   8.33499373
_cell_length_c   15.72679500
_cell_angle_alpha   90.00000000
_cell_angle_beta   90.00000000
_cell_angle_gamma   89.96312032
_symmetry_Int_Tables_number   1
_chemical_formula_structural   Tb9Pr8Ho3Sn16
_chemical_formula_sum   'Tb9 Pr8 Ho3 Sn16'
_cell_volume   1062.01088516
_cell_formula_units_Z   1
loop_
 _symmetry_equiv_pos_site_id
 _symmetry_equiv_pos_as_xyz
  1  'x, y, z'
loop_
 _atom_site_type_symbol
 _atom_site_label
 _atom_site_symmetry_multiplicity
 _atom_site_fract_x
 _atom_site_fract_y
 _atom_site_fract_z
 _atom_site_occupancy
  Tb  Tb0  1  0.349096  0.835106  0.875808  1
  Tb  Tb1  1  0.848639  0.664981  0.624112  1
  Tb  Tb2  1  0.651103  0.164869  0.375670  1
  Tb  Tb3  1  0.151352  0.335283  0.124489  1
  Tb  Tb4  1  0.651103  0.164869  0.124330  1
  Tb  Tb5  1  0.151352  0.335283  0.375511  1
  Tb  Tb6  1  0.349096  0.835106  0.624192  1
  Tb  Tb7  1  0.848639  0.664981  0.875888  1
  Tb  Tb8  1  0.181793  0.500652  0.750000  1
  Pr  Pr9  1  0.507983  0.323088  0.903850  1
  Pr  Pr10  1  0.007471  0.176568  0.596140  1
  Pr  Pr11  1  0.492071  0.676629  0.403585  1
  Pr  Pr12  1  0.992313  0.823298  0.096320  1
  Pr  Pr13  1  0.492071  0.676629  0.096415  1
  Pr  Pr14  1  0.992313  0.823298  0.403680  1
  Pr  Pr15  1  0.507983  0.323088  0.596150  1
  Pr  Pr16  1  0.007471  0.176568  0.903860  1
  Ho  Ho17  1  0.681928  0.998844  0.750000  1
  Ho  Ho18  1  0.818203  0.499060  0.250000  1
  Ho  Ho19  1  0.318329  0.001027  0.250000  1
  Sn  Sn20  1  0.313457  0.040582  0.042106  1
  Sn  Sn21  1  0.813514  0.459484  0.457874  1
  Sn  Sn22  1  0.686279  0.959433  0.541948  1
  Sn  Sn23  1  0.186445  0.541008  0.958573  1
  Sn  Sn24  1  0.686279  0.959433  0.958052  1
  Sn  Sn25  1  0.186445  0.541008  0.541427  1
  Sn  Sn26  1  0.313457  0.040582  0.457894  1
  Sn  Sn27  1  0.813514  0.459484  0.042126  1
  Sn  Sn28  1  0.547447  0.622614  0.750000  1
  Sn  Sn29  1  0.046175  0.878265  0.750000  1
  Sn  Sn30  1  0.453863  0.377941  0.250000  1
  Sn  Sn31  1  0.953740  0.121978  0.250000  1
  Sn  Sn32  1  0.314924  0.143777  0.750000  1
  Sn  Sn33  1  0.814354  0.354856  0.750000  1
  Sn  Sn34  1  0.684971  0.855016  0.250000  1
  Sn  Sn35  1  0.184820  0.645314  0.250000  1
