# generated using pymatgen
data_Dy7Ho2Sc(SiB4)4
_symmetry_space_group_name_H-M   'P 1'
_cell_length_a   7.19573401
_cell_length_b   7.19600301
_cell_length_c   8.00988300
_cell_angle_alpha   89.99794999
_cell_angle_beta   89.99958557
_cell_angle_gamma   90.00433150
_symmetry_Int_Tables_number   1
_chemical_formula_structural   Dy7Ho2Sc(SiB4)4
_chemical_formula_sum   'Dy7 Ho2 Sc1 Si4 B16'
_cell_volume   414.75593379
_cell_formula_units_Z   1
loop_
 _symmetry_equiv_pos_site_id
 _symmetry_equiv_pos_as_xyz
  1  'x, y, z'
loop_
 _atom_site_type_symbol
 _atom_site_label
 _atom_site_symmetry_multiplicity
 _atom_site_fract_x
 _atom_site_fract_y
 _atom_site_fract_z
 _atom_site_occupancy
  Dy  Dy0  1  0.680930  0.179602  0.226241  1
  Dy  Dy1  1  0.319081  0.820449  0.773753  1
  Dy  Dy2  1  0.319060  0.820402  0.226239  1
  Dy  Dy3  1  0.820367  0.680974  0.226194  1
  Dy  Dy4  1  0.820344  0.680984  0.773821  1
  Dy  Dy5  1  0.680892  0.179587  0.773764  1
  Dy  Dy6  1  0.179666  0.318996  0.773880  1
  Ho  Ho7  1  0.179635  0.319010  0.225540  1
  Ho  Ho8  1  0.499908  0.499950  0.499930  1
  Sc  Sc9  1  0.000056  0.000095  0.499922  1
  Si  Si10  1  0.111151  0.621548  0.499875  1
  Si  Si11  1  0.889107  0.378237  0.499821  1
  Si  Si12  1  0.378185  0.111194  0.499809  1
  Si  Si13  1  0.621620  0.888996  0.499969  1
  B  B14  1  0.172687  0.039113  0.000096  1
  B  B15  1  0.827395  0.961057  0.000037  1
  B  B16  1  0.961181  0.172719  0.000122  1
  B  B17  1  0.327488  0.539101  0.000122  1
  B  B18  1  0.038959  0.827383  0.000057  1
  B  B19  1  0.672408  0.460755  0.000055  1
  B  B20  1  0.539226  0.672403  0.000046  1
  B  B21  1  0.460602  0.327511  0.000084  1
  B  B22  1  0.089644  0.589396  0.000145  1
  B  B23  1  0.910511  0.410451  0.000151  1
  B  B24  1  0.410400  0.089715  0.000024  1
  B  B25  1  0.589574  0.910312  0.000020  1
  B  B26  1  0.000114  0.000193  0.164817  1
  B  B27  1  0.000032  0.000021  0.835325  1
  B  B28  1  0.499993  0.499956  0.836305  1
  B  B29  1  0.499783  0.499890  0.163835  1
