# generated using pymatgen
data_HoLu5Th2(MgRu)2
_symmetry_space_group_name_H-M   'P 1'
_cell_length_a   9.64357479
_cell_length_b   9.64357315
_cell_length_c   9.63505700
_cell_angle_alpha   60.02920467
_cell_angle_beta   60.02921030
_cell_angle_gamma   59.94157696
_symmetry_Int_Tables_number   1
_chemical_formula_structural   HoLu5Th2(MgRu)2
_chemical_formula_sum   'Ho2 Lu10 Th4 Mg4 Ru4'
_cell_volume   633.59919831
_cell_formula_units_Z   2
loop_
 _symmetry_equiv_pos_site_id
 _symmetry_equiv_pos_as_xyz
  1  'x, y, z'
loop_
 _atom_site_type_symbol
 _atom_site_label
 _atom_site_symmetry_multiplicity
 _atom_site_fract_x
 _atom_site_fract_y
 _atom_site_fract_z
 _atom_site_occupancy
  Ho  Ho0  1  0.565705  0.565705  0.934295  1
  Ho  Ho1  1  0.934295  0.934295  0.565705  1
  Lu  Lu2  1  0.814217  0.185783  0.185783  1
  Lu  Lu3  1  0.185783  0.814217  0.814217  1
  Lu  Lu4  1  0.185783  0.814217  0.185783  1
  Lu  Lu5  1  0.814217  0.185783  0.814217  1
  Lu  Lu6  1  0.185918  0.185918  0.814082  1
  Lu  Lu7  1  0.814082  0.814082  0.185918  1
  Lu  Lu8  1  0.935110  0.564890  0.564890  1
  Lu  Lu9  1  0.564890  0.935110  0.935110  1
  Lu  Lu10  1  0.564890  0.935110  0.564890  1
  Lu  Lu11  1  0.935110  0.564890  0.935110  1
  Th  Th12  1  0.347426  0.347426  0.347096  1
  Th  Th13  1  0.347426  0.347426  0.958052  1
  Th  Th14  1  0.347096  0.958052  0.347426  1
  Th  Th15  1  0.958052  0.347096  0.347426  1
  Mg  Mg16  1  0.580740  0.580740  0.579950  1
  Mg  Mg17  1  0.580740  0.580740  0.258570  1
  Mg  Mg18  1  0.579950  0.258570  0.580740  1
  Mg  Mg19  1  0.258570  0.579950  0.580740  1
  Ru  Ru20  1  0.142891  0.142891  0.142224  1
  Ru  Ru21  1  0.142891  0.142891  0.571994  1
  Ru  Ru22  1  0.142224  0.571994  0.142891  1
  Ru  Ru23  1  0.571994  0.142224  0.142891  1
