# generated using pymatgen
data_TbGd3F12
_symmetry_space_group_name_H-M   'P 1'
_cell_length_a   4.48681447
_cell_length_b   6.54261605
_cell_length_c   7.04325200
_cell_angle_alpha   90.00000000
_cell_angle_beta   90.00000000
_cell_angle_gamma   89.85753864
_symmetry_Int_Tables_number   1
_chemical_formula_structural   TbGd3F12
_chemical_formula_sum   'Tb1 Gd3 F12'
_cell_volume   206.75757578
_cell_formula_units_Z   1
loop_
 _symmetry_equiv_pos_site_id
 _symmetry_equiv_pos_as_xyz
  1  'x, y, z'
loop_
 _atom_site_type_symbol
 _atom_site_label
 _atom_site_symmetry_multiplicity
 _atom_site_fract_x
 _atom_site_fract_y
 _atom_site_fract_z
 _atom_site_occupancy
  Tb  Tb0  1  0.061385  0.368585  0.250000  1
  Gd  Gd1  1  0.939240  0.630905  0.750000  1
  Gd  Gd2  1  0.438862  0.868505  0.250000  1
  Gd  Gd3  1  0.561102  0.132237  0.750000  1
  F  F4  1  0.376202  0.166222  0.435650  1
  F  F5  1  0.879546  0.335520  0.560912  1
  F  F6  1  0.121228  0.662183  0.064690  1
  F  F7  1  0.621315  0.835578  0.936958  1
  F  F8  1  0.589735  0.520292  0.250000  1
  F  F9  1  0.087867  0.977624  0.750000  1
  F  F10  1  0.912795  0.025206  0.250000  1
  F  F11  1  0.412431  0.477640  0.750000  1
  F  F12  1  0.376202  0.166222  0.064350  1
  F  F13  1  0.879546  0.335520  0.939088  1
  F  F14  1  0.121228  0.662183  0.435310  1
  F  F15  1  0.621315  0.835578  0.563042  1
