# generated using pymatgen
data_CaAc2(Al3Pd2)3
_symmetry_space_group_name_H-M   'P 1'
_cell_length_a   4.28163900
_cell_length_b   9.47802188
_cell_length_c   9.48940400
_cell_angle_alpha   119.96035323
_cell_angle_beta   90.00000000
_cell_angle_gamma   90.00000000
_symmetry_Int_Tables_number   1
_chemical_formula_structural   CaAc2(Al3Pd2)3
_chemical_formula_sum   'Ca1 Ac2 Al9 Pd6'
_cell_volume   333.63429635
_cell_formula_units_Z   1
loop_
 _symmetry_equiv_pos_site_id
 _symmetry_equiv_pos_as_xyz
  1  'x, y, z'
loop_
 _atom_site_type_symbol
 _atom_site_label
 _atom_site_symmetry_multiplicity
 _atom_site_fract_x
 _atom_site_fract_y
 _atom_site_fract_z
 _atom_site_occupancy
  Ca  Ca0  1  0.000000  0.999796  0.000000  1
  Ac  Ac1  1  0.500000  0.333832  0.667539  1
  Ac  Ac2  1  0.500000  0.666295  0.332461  1
  Al  Al3  1  0.500000  0.297778  0.000000  1
  Al  Al4  1  0.500000  0.703533  0.703426  1
  Al  Al5  1  0.500000  0.000106  0.296574  1
  Al  Al6  1  0.500000  0.702319  0.000000  1
  Al  Al7  1  0.500000  0.296510  0.296601  1
  Al  Al8  1  0.500000  0.999909  0.703399  1
  Al  Al9  1  0.000000  0.499991  0.000000  1
  Al  Al10  1  0.000000  0.499934  0.499973  1
  Al  Al11  1  0.000000  0.999960  0.500027  1
  Pd  Pd12  1  0.000000  0.181014  0.362172  1
  Pd  Pd13  1  0.000000  0.180940  0.818936  1
  Pd  Pd14  1  0.000000  0.638063  0.818988  1
  Pd  Pd15  1  0.000000  0.818842  0.637828  1
  Pd  Pd16  1  0.000000  0.362004  0.181064  1
  Pd  Pd17  1  0.000000  0.819077  0.181012  1
