# generated using pymatgen
data_Pm(MnGe)2
_symmetry_space_group_name_H-M   'P 1'
_cell_length_a   6.16872109
_cell_length_b   6.16872130
_cell_length_c   6.16872096
_cell_angle_alpha   142.26012294
_cell_angle_beta   142.26013955
_cell_angle_gamma   54.43714699
_symmetry_Int_Tables_number   1
_chemical_formula_structural   Pm(MnGe)2
_chemical_formula_sum   'Pm1 Mn2 Ge2'
_cell_volume   87.34023538
_cell_formula_units_Z   1
loop_
 _symmetry_equiv_pos_site_id
 _symmetry_equiv_pos_as_xyz
  1  'x, y, z'
loop_
 _atom_site_type_symbol
 _atom_site_label
 _atom_site_symmetry_multiplicity
 _atom_site_fract_x
 _atom_site_fract_y
 _atom_site_fract_z
 _atom_site_occupancy
  Pm  Pm0  1  0.000000  0.000000  0.000000  1
  Mn  Mn1  1  0.750000  0.250000  0.500000  1
  Mn  Mn2  1  0.250000  0.750000  0.500000  1
  Ge  Ge3  1  0.378050  0.378050  0.000000  1
  Ge  Ge4  1  0.621949  0.621949  0.000000  1
