# generated using pymatgen
data_Y9Ho11Cd6CoRu
_symmetry_space_group_name_H-M   'P 1'
_cell_length_a   9.58262900
_cell_length_b   9.58262912
_cell_length_c   9.78617700
_cell_angle_alpha   90.00000000
_cell_angle_beta   90.00000000
_cell_angle_gamma   120.00000303
_symmetry_Int_Tables_number   1
_chemical_formula_structural   Y9Ho11Cd6CoRu
_chemical_formula_sum   'Y9 Ho11 Cd6 Co1 Ru1'
_cell_volume   778.23908645
_cell_formula_units_Z   1
loop_
 _symmetry_equiv_pos_site_id
 _symmetry_equiv_pos_as_xyz
  1  'x, y, z'
loop_
 _atom_site_type_symbol
 _atom_site_label
 _atom_site_symmetry_multiplicity
 _atom_site_fract_x
 _atom_site_fract_y
 _atom_site_fract_z
 _atom_site_occupancy
  Y  Y0  1  0.211370  0.788630  0.063722  1
  Y  Y1  1  0.211370  0.422741  0.063722  1
  Y  Y2  1  0.577259  0.788630  0.063722  1
  Y  Y3  1  0.541746  0.458254  0.250402  1
  Y  Y4  1  0.541746  0.083493  0.250402  1
  Y  Y5  1  0.916507  0.458254  0.250402  1
  Y  Y6  1  0.458602  0.541398  0.749469  1
  Y  Y7  1  0.458602  0.917206  0.749469  1
  Y  Y8  1  0.082794  0.541398  0.749469  1
  Ho  Ho9  1  0.000000  0.000000  0.499920  1
  Ho  Ho10  1  0.000000  0.000000  0.999821  1
  Ho  Ho11  1  0.212153  0.787847  0.436087  1
  Ho  Ho12  1  0.212153  0.424308  0.436087  1
  Ho  Ho13  1  0.575692  0.787847  0.436087  1
  Ho  Ho14  1  0.790628  0.209372  0.560186  1
  Ho  Ho15  1  0.790628  0.581256  0.560186  1
  Ho  Ho16  1  0.418744  0.209372  0.560186  1
  Ho  Ho17  1  0.790492  0.209508  0.939613  1
  Ho  Ho18  1  0.790492  0.580984  0.939613  1
  Ho  Ho19  1  0.419016  0.209508  0.939613  1
  Cd  Cd20  1  0.885373  0.114627  0.249988  1
  Cd  Cd21  1  0.885373  0.770747  0.249988  1
  Cd  Cd22  1  0.229253  0.114627  0.249988  1
  Cd  Cd23  1  0.114516  0.885484  0.750001  1
  Cd  Cd24  1  0.114516  0.229031  0.750001  1
  Cd  Cd25  1  0.770969  0.885484  0.750001  1
  Co  Co26  1  0.333333  0.666667  0.252084  1
  Ru  Ru27  1  0.666667  0.333333  0.749774  1
