# generated using pymatgen
data_Tb3DyTm4(B6Os)4
_symmetry_space_group_name_H-M   'P 1'
_cell_length_a   3.63630100
_cell_length_b   9.11810400
_cell_length_c   11.50894800
_cell_angle_alpha   90.00048901
_cell_angle_beta   90.00000000
_cell_angle_gamma   90.00000000
_symmetry_Int_Tables_number   1
_chemical_formula_structural   Tb3DyTm4(B6Os)4
_chemical_formula_sum   'Tb3 Dy1 Tm4 B24 Os4'
_cell_volume   381.59264438
_cell_formula_units_Z   1
loop_
 _symmetry_equiv_pos_site_id
 _symmetry_equiv_pos_as_xyz
  1  'x, y, z'
loop_
 _atom_site_type_symbol
 _atom_site_label
 _atom_site_symmetry_multiplicity
 _atom_site_fract_x
 _atom_site_fract_y
 _atom_site_fract_z
 _atom_site_occupancy
  Tb  Tb0  1  0.000000  0.321874  0.413867  1
  Tb  Tb1  1  0.000000  0.678125  0.586153  1
  Tb  Tb2  1  0.000000  0.821901  0.086107  1
  Dy  Dy3  1  0.000000  0.178217  0.913918  1
  Tm  Tm4  1  0.000000  0.944188  0.372964  1
  Tm  Tm5  1  0.000000  0.055859  0.627062  1
  Tm  Tm6  1  0.000000  0.444099  0.126929  1
  Tm  Tm7  1  0.000000  0.555768  0.873011  1
  B  B8  1  0.500000  0.554368  0.432687  1
  B  B9  1  0.500000  0.445593  0.567356  1
  B  B10  1  0.500000  0.054450  0.067104  1
  B  B11  1  0.500000  0.945863  0.932725  1
  B  B12  1  0.500000  0.749025  0.419491  1
  B  B13  1  0.500000  0.250975  0.580573  1
  B  B14  1  0.500000  0.248940  0.080248  1
  B  B15  1  0.500000  0.751057  0.919475  1
  B  B16  1  0.500000  0.791666  0.266459  1
  B  B17  1  0.500000  0.208229  0.733737  1
  B  B18  1  0.500000  0.291632  0.233441  1
  B  B19  1  0.500000  0.708385  0.766498  1
  B  B20  1  0.500000  0.631075  0.184939  1
  B  B21  1  0.500000  0.368697  0.815187  1
  B  B22  1  0.500000  0.131113  0.315004  1
  B  B23  1  0.500000  0.868960  0.685011  1
  B  B24  1  0.500000  0.983068  0.213574  1
  B  B25  1  0.500000  0.017230  0.786493  1
  B  B26  1  0.500000  0.483005  0.286341  1
  B  B27  1  0.500000  0.516897  0.713691  1
  B  B28  1  0.500000  0.605196  0.029051  1
  B  B29  1  0.500000  0.394411  0.970840  1
  B  B30  1  0.500000  0.105164  0.470967  1
  B  B31  1  0.500000  0.894857  0.529054  1
  Os  Os32  1  0.000000  0.638000  0.320585  1
  Os  Os33  1  0.000000  0.361876  0.679533  1
  Os  Os34  1  0.000000  0.137999  0.179222  1
  Os  Os35  1  0.000000  0.862238  0.820704  1
