# generated using pymatgen
data_Tm4PdPb2Au3
_symmetry_space_group_name_H-M   'P 1'
_cell_length_a   8.11104237
_cell_length_b   8.11104237
_cell_length_c   3.55568600
_cell_angle_alpha   90.00000000
_cell_angle_beta   90.00000000
_cell_angle_gamma   90.16463185
_symmetry_Int_Tables_number   1
_chemical_formula_structural   Tm4PdPb2Au3
_chemical_formula_sum   'Tm4 Pd1 Pb2 Au3'
_cell_volume   233.92409024
_cell_formula_units_Z   1
loop_
 _symmetry_equiv_pos_site_id
 _symmetry_equiv_pos_as_xyz
  1  'x, y, z'
loop_
 _atom_site_type_symbol
 _atom_site_label
 _atom_site_symmetry_multiplicity
 _atom_site_fract_x
 _atom_site_fract_y
 _atom_site_fract_z
 _atom_site_occupancy
  Tm  Tm0  1  0.327023  0.827023  0.500000  1
  Tm  Tm1  1  0.665441  0.165441  0.500000  1
  Tm  Tm2  1  0.167524  0.342722  0.500000  1
  Tm  Tm3  1  0.842722  0.667524  0.500000  1
  Pd  Pd4  1  0.126936  0.626936  0.000000  1
  Pb  Pb5  1  0.495405  0.502653  0.000000  1
  Pb  Pb6  1  0.002653  0.995405  0.000000  1
  Au  Au7  1  0.874262  0.374262  0.000000  1
  Au  Au8  1  0.626417  0.871617  0.000000  1
  Au  Au9  1  0.371617  0.126417  0.000000  1
