# generated using pymatgen
data_Ho2Al20Fe2IrRu
_symmetry_space_group_name_H-M   'P 1'
_cell_length_a   6.79612129
_cell_length_b   6.79844177
_cell_length_c   9.05773623
_cell_angle_alpha   89.99740797
_cell_angle_beta   89.98791737
_cell_angle_gamma   96.80853312
_symmetry_Int_Tables_number   1
_chemical_formula_structural   Ho2Al20Fe2IrRu
_chemical_formula_sum   'Ho2 Al20 Fe2 Ir1 Ru1'
_cell_volume   415.54360947
_cell_formula_units_Z   1
loop_
 _symmetry_equiv_pos_site_id
 _symmetry_equiv_pos_as_xyz
  1  'x, y, z'
loop_
 _atom_site_type_symbol
 _atom_site_label
 _atom_site_symmetry_multiplicity
 _atom_site_fract_x
 _atom_site_fract_y
 _atom_site_fract_z
 _atom_site_occupancy
  Ho  Ho0  1  0.871390  0.126947  0.750027  1
  Ho  Ho1  1  0.128610  0.873053  0.249973  1
  Al  Al2  1  0.619368  0.372791  0.550137  1
  Al  Al3  1  0.380632  0.627209  0.449863  1
  Al  Al4  1  0.373899  0.622009  0.049565  1
  Al  Al5  1  0.626101  0.377991  0.950435  1
  Al  Al6  1  0.229826  0.220693  0.495799  1
  Al  Al7  1  0.770174  0.779307  0.504201  1
  Al  Al8  1  0.777192  0.771754  0.003386  1
  Al  Al9  1  0.222808  0.228246  0.996614  1
  Al  Al10  1  0.846626  0.160621  0.098681  1
  Al  Al11  1  0.153374  0.839379  0.901319  1
  Al  Al12  1  0.161732  0.847623  0.600338  1
  Al  Al13  1  0.838268  0.152377  0.399662  1
  Al  Al14  1  0.859946  0.586577  0.754917  1
  Al  Al15  1  0.140054  0.413423  0.245083  1
  Al  Al16  1  0.414250  0.139579  0.747106  1
  Al  Al17  1  0.585750  0.860421  0.252894  1
  Al  Al18  1  0.220595  0.480279  0.754796  1
  Al  Al19  1  0.779405  0.519721  0.245204  1
  Al  Al20  1  0.519585  0.780179  0.747540  1
  Al  Al21  1  0.480415  0.219821  0.252460  1
  Fe  Fe22  1  0.000000  0.500000  0.000000  1
  Fe  Fe23  1  0.500000  0.000000  0.500000  1
  Ir  Ir24  1  0.000000  0.500000  0.500000  1
  Ru  Ru25  1  0.500000  0.000000  0.000000  1
