# generated using pymatgen
data_AcSmAg2SnPb
_symmetry_space_group_name_H-M   'P 1'
_cell_length_a   4.89771200
_cell_length_b   4.89771199
_cell_length_c   8.04690500
_cell_angle_alpha   90.00000000
_cell_angle_beta   90.00000000
_cell_angle_gamma   120.00000007
_symmetry_Int_Tables_number   1
_chemical_formula_structural   AcSmAg2SnPb
_chemical_formula_sum   'Ac1 Sm1 Ag2 Sn1 Pb1'
_cell_volume   167.16524611
_cell_formula_units_Z   1
loop_
 _symmetry_equiv_pos_site_id
 _symmetry_equiv_pos_as_xyz
  1  'x, y, z'
loop_
 _atom_site_type_symbol
 _atom_site_label
 _atom_site_symmetry_multiplicity
 _atom_site_fract_x
 _atom_site_fract_y
 _atom_site_fract_z
 _atom_site_occupancy
  Ac  Ac0  1  0.000000  0.000000  0.004491  1
  Sm  Sm1  1  0.000000  0.000000  0.507624  1
  Ag  Ag2  1  0.333333  0.666667  0.758593  1
  Ag  Ag3  1  0.666667  0.333333  0.336762  1
  Sn  Sn4  1  0.666667  0.333333  0.713288  1
  Pb  Pb5  1  0.333333  0.666667  0.245241  1
