# generated using pymatgen
data_Ca4CdO5
_symmetry_space_group_name_H-M   'P 1'
_cell_length_a   5.90588423
_cell_length_b   5.90588491
_cell_length_c   5.90588501
_cell_angle_alpha   99.59156809
_cell_angle_beta   99.59156765
_cell_angle_gamma   131.81692561
_symmetry_Int_Tables_number   1
_chemical_formula_structural   Ca4CdO5
_chemical_formula_sum   'Ca4 Cd1 O5'
_cell_volume   140.15042450
_cell_formula_units_Z   1
loop_
 _symmetry_equiv_pos_site_id
 _symmetry_equiv_pos_as_xyz
  1  'x, y, z'
loop_
 _atom_site_type_symbol
 _atom_site_label
 _atom_site_symmetry_multiplicity
 _atom_site_fract_x
 _atom_site_fract_y
 _atom_site_fract_z
 _atom_site_occupancy
  Ca  Ca0  1  0.397402  0.798975  0.196375  1
  Ca  Ca1  1  0.798975  0.602598  0.401573  1
  Ca  Ca2  1  0.201025  0.397402  0.598427  1
  Ca  Ca3  1  0.602598  0.201025  0.803625  1
  Cd  Cd4  1  0.000000  0.000000  0.000000  1
  O  O5  1  0.303402  0.102206  0.405607  1
  O  O6  1  0.102206  0.696598  0.798804  1
  O  O7  1  0.500000  0.500000  0.000000  1
  O  O8  1  0.696598  0.897794  0.594393  1
  O  O9  1  0.897794  0.303402  0.201196  1
