# generated using pymatgen
data_Ce4Er12Cd4Ir3Ru
_symmetry_space_group_name_H-M   'P 1'
_cell_length_a   9.61374381
_cell_length_b   9.61374288
_cell_length_c   9.61374349
_cell_angle_alpha   59.94782669
_cell_angle_beta   59.94782983
_cell_angle_gamma   59.94782497
_symmetry_Int_Tables_number   1
_chemical_formula_structural   Ce4Er12Cd4Ir3Ru
_chemical_formula_sum   'Ce4 Er12 Cd4 Ir3 Ru1'
_cell_volume   627.55007459
_cell_formula_units_Z   1
loop_
 _symmetry_equiv_pos_site_id
 _symmetry_equiv_pos_as_xyz
  1  'x, y, z'
loop_
 _atom_site_type_symbol
 _atom_site_label
 _atom_site_symmetry_multiplicity
 _atom_site_fract_x
 _atom_site_fract_y
 _atom_site_fract_z
 _atom_site_occupancy
  Ce  Ce0  1  0.599788  0.599788  0.599788  1
  Ce  Ce1  1  0.597330  0.597330  0.203299  1
  Ce  Ce2  1  0.597330  0.203299  0.597330  1
  Ce  Ce3  1  0.203299  0.597330  0.597330  1
  Er  Er4  1  0.063139  0.437625  0.437625  1
  Er  Er5  1  0.439032  0.061339  0.061339  1
  Er  Er6  1  0.437625  0.063139  0.437625  1
  Er  Er7  1  0.061339  0.439032  0.061339  1
  Er  Er8  1  0.437625  0.437625  0.063139  1
  Er  Er9  1  0.061339  0.061339  0.439032  1
  Er  Er10  1  0.186834  0.812654  0.812654  1
  Er  Er11  1  0.813373  0.186385  0.186385  1
  Er  Er12  1  0.812654  0.186834  0.812654  1
  Er  Er13  1  0.186385  0.813373  0.186385  1
  Er  Er14  1  0.812654  0.812654  0.186834  1
  Er  Er15  1  0.186385  0.186385  0.813373  1
  Cd  Cd16  1  0.831707  0.831707  0.831707  1
  Cd  Cd17  1  0.832197  0.832197  0.503783  1
  Cd  Cd18  1  0.832197  0.503783  0.832197  1
  Cd  Cd19  1  0.503783  0.832197  0.832197  1
  Ir  Ir20  1  0.393104  0.393104  0.821966  1
  Ir  Ir21  1  0.393104  0.821966  0.393104  1
  Ir  Ir22  1  0.821966  0.393104  0.393104  1
  Ru  Ru23  1  0.395808  0.395808  0.395808  1
