# generated using pymatgen
data_Pr10TlSi4Ag
_symmetry_space_group_name_H-M   'P 1'
_cell_length_a   7.80533836
_cell_length_b   7.80533992
_cell_length_c   9.38723000
_cell_angle_alpha   114.56608774
_cell_angle_beta   114.56607683
_cell_angle_gamma   89.99999255
_symmetry_Int_Tables_number   1
_chemical_formula_structural   Pr10TlSi4Ag
_chemical_formula_sum   'Pr10 Tl1 Si4 Ag1'
_cell_volume   462.60990686
_cell_formula_units_Z   1
loop_
 _symmetry_equiv_pos_site_id
 _symmetry_equiv_pos_as_xyz
  1  'x, y, z'
loop_
 _atom_site_type_symbol
 _atom_site_label
 _atom_site_symmetry_multiplicity
 _atom_site_fract_x
 _atom_site_fract_y
 _atom_site_fract_z
 _atom_site_occupancy
  Pr  Pr0  1  0.476890  0.476890  0.953781  1
  Pr  Pr1  1  0.023110  0.023110  0.046219  1
  Pr  Pr2  1  0.951113  0.803173  0.274758  1
  Pr  Pr3  1  0.323647  0.471585  0.274758  1
  Pr  Pr4  1  0.803173  0.323647  0.274758  1
  Pr  Pr5  1  0.471585  0.951113  0.274758  1
  Pr  Pr6  1  0.028415  0.176353  0.725242  1
  Pr  Pr7  1  0.696827  0.548887  0.725242  1
  Pr  Pr8  1  0.176353  0.696827  0.725242  1
  Pr  Pr9  1  0.548887  0.028415  0.725242  1
  Tl  Tl10  1  0.250000  0.250000  0.500000  1
  Si  Si11  1  0.615305  0.884695  0.000000  1
  Si  Si12  1  0.384695  0.115305  0.000000  1
  Si  Si13  1  0.884695  0.384695  0.000000  1
  Si  Si14  1  0.115305  0.615305  0.000000  1
  Ag  Ag15  1  0.750000  0.750000  0.500000  1
