# generated using pymatgen
data_PmAgPF
_symmetry_space_group_name_H-M   'P 1'
_cell_length_a   5.60815800
_cell_length_b   5.60815800
_cell_length_c   8.91493400
_cell_angle_alpha   90.00000000
_cell_angle_beta   90.00000000
_cell_angle_gamma   90.00000000
_symmetry_Int_Tables_number   1
_chemical_formula_structural   PmAgPF
_chemical_formula_sum   'Pm4 Ag4 P4 F4'
_cell_volume   280.38747751
_cell_formula_units_Z   4
loop_
 _symmetry_equiv_pos_site_id
 _symmetry_equiv_pos_as_xyz
  1  'x, y, z'
loop_
 _atom_site_type_symbol
 _atom_site_label
 _atom_site_symmetry_multiplicity
 _atom_site_fract_x
 _atom_site_fract_y
 _atom_site_fract_z
 _atom_site_occupancy
  Pm  Pm0  1  0.500000  0.000000  0.177870  1
  Pm  Pm1  1  0.000000  0.500000  0.177870  1
  Pm  Pm2  1  0.000000  0.000000  0.822229  1
  Pm  Pm3  1  0.500000  0.500000  0.822229  1
  Ag  Ag4  1  0.742480  0.242480  0.499863  1
  Ag  Ag5  1  0.242480  0.257522  0.499863  1
  Ag  Ag6  1  0.757521  0.742480  0.499863  1
  Ag  Ag7  1  0.257522  0.757521  0.499863  1
  P  P8  1  0.000000  0.000000  0.295568  1
  P  P9  1  0.500000  0.500000  0.295568  1
  P  P10  1  0.500000  0.000000  0.704335  1
  P  P11  1  0.000000  0.500000  0.704335  1
  F  F12  1  0.749699  0.249699  0.000135  1
  F  F13  1  0.249699  0.250300  0.000135  1
  F  F14  1  0.750300  0.749699  0.000135  1
  F  F15  1  0.250300  0.750300  0.000135  1
