# generated using pymatgen
data_HfZr4Ta3P4
_symmetry_space_group_name_H-M   'P 1'
_cell_length_a   3.57137200
_cell_length_b   6.93996355
_cell_length_c   8.44168264
_cell_angle_alpha   89.75581702
_cell_angle_beta   90.00000000
_cell_angle_gamma   90.00000000
_symmetry_Int_Tables_number   1
_chemical_formula_structural   HfZr4Ta3P4
_chemical_formula_sum   'Hf1 Zr4 Ta3 P4'
_cell_volume   209.22682086
_cell_formula_units_Z   1
loop_
 _symmetry_equiv_pos_site_id
 _symmetry_equiv_pos_as_xyz
  1  'x, y, z'
loop_
 _atom_site_type_symbol
 _atom_site_label
 _atom_site_symmetry_multiplicity
 _atom_site_fract_x
 _atom_site_fract_y
 _atom_site_fract_z
 _atom_site_occupancy
  Hf  Hf0  1  0.250000  0.141850  0.061156  1
  Zr  Zr1  1  0.250000  0.530004  0.829244  1
  Zr  Zr2  1  0.750000  0.969901  0.332380  1
  Zr  Zr3  1  0.250000  0.027823  0.667421  1
  Zr  Zr4  1  0.750000  0.476436  0.174309  1
  Ta  Ta5  1  0.750000  0.853057  0.937761  1
  Ta  Ta6  1  0.250000  0.642441  0.440611  1
  Ta  Ta7  1  0.750000  0.361995  0.560216  1
  P  P8  1  0.750000  0.733290  0.643139  1
  P  P9  1  0.250000  0.765294  0.141950  1
  P  P10  1  0.750000  0.230869  0.850373  1
  P  P11  1  0.250000  0.267040  0.361443  1
