# generated using pymatgen
data_Ca2Y2As6Rh7
_symmetry_space_group_name_H-M   'P 1'
_cell_length_a   7.29216355
_cell_length_b   7.29216321
_cell_length_c   7.29803990
_cell_angle_alpha   109.49736884
_cell_angle_beta   109.49737838
_cell_angle_gamma   109.38625349
_symmetry_Int_Tables_number   1
_chemical_formula_structural   Ca2Y2As6Rh7
_chemical_formula_sum   'Ca2 Y2 As6 Rh7'
_cell_volume   298.86265380
_cell_formula_units_Z   1
loop_
 _symmetry_equiv_pos_site_id
 _symmetry_equiv_pos_as_xyz
  1  'x, y, z'
loop_
 _atom_site_type_symbol
 _atom_site_label
 _atom_site_symmetry_multiplicity
 _atom_site_fract_x
 _atom_site_fract_y
 _atom_site_fract_z
 _atom_site_occupancy
  Ca  Ca0  1  0.500000  0.500000  0.500000  1
  Ca  Ca1  1  0.000000  0.000000  0.500000  1
  Y  Y2  1  0.000000  0.500000  0.000000  1
  Y  Y3  1  0.500000  0.000000  0.000000  1
  As  As4  1  0.677837  0.998473  0.676310  1
  As  As5  1  0.677533  0.677533  0.000000  1
  As  As6  1  0.322467  0.322467  0.000000  1
  As  As7  1  0.998473  0.677837  0.676310  1
  As  As8  1  0.001527  0.322163  0.323690  1
  As  As9  1  0.322163  0.001527  0.323690  1
  Rh  Rh10  1  0.497779  0.750048  0.247827  1
  Rh  Rh11  1  0.750000  0.250000  0.500000  1
  Rh  Rh12  1  0.250000  0.750000  0.500000  1
  Rh  Rh13  1  0.249952  0.502221  0.752173  1
  Rh  Rh14  1  0.000000  0.000000  0.000000  1
  Rh  Rh15  1  0.502221  0.249952  0.752173  1
  Rh  Rh16  1  0.750048  0.497779  0.247827  1
