# generated using pymatgen
data_Yb3DyAlOs7
_symmetry_space_group_name_H-M   'P 1'
_cell_length_a   5.32307700
_cell_length_b   5.32307633
_cell_length_c   8.70848100
_cell_angle_alpha   90.00000000
_cell_angle_beta   90.00000000
_cell_angle_gamma   119.99998552
_symmetry_Int_Tables_number   1
_chemical_formula_structural   Yb3DyAlOs7
_chemical_formula_sum   'Yb3 Dy1 Al1 Os7'
_cell_volume   213.69705929
_cell_formula_units_Z   1
loop_
 _symmetry_equiv_pos_site_id
 _symmetry_equiv_pos_as_xyz
  1  'x, y, z'
loop_
 _atom_site_type_symbol
 _atom_site_label
 _atom_site_symmetry_multiplicity
 _atom_site_fract_x
 _atom_site_fract_y
 _atom_site_fract_z
 _atom_site_occupancy
  Yb  Yb0  1  0.666667  0.333333  0.571467  1
  Yb  Yb1  1  0.666667  0.333333  0.935339  1
  Yb  Yb2  1  0.333333  0.666667  0.060257  1
  Dy  Dy3  1  0.333333  0.666667  0.429557  1
  Al  Al4  1  0.000000  0.000000  0.500761  1
  Os  Os5  1  0.000000  0.000000  0.001427  1
  Os  Os6  1  0.828804  0.171196  0.250845  1
  Os  Os7  1  0.828804  0.657609  0.250845  1
  Os  Os8  1  0.342391  0.171196  0.250845  1
  Os  Os9  1  0.171271  0.828729  0.749552  1
  Os  Os10  1  0.171271  0.342542  0.749552  1
  Os  Os11  1  0.657458  0.828729  0.749552  1
