# generated using pymatgen
data_TbHo2P4Pd7
_symmetry_space_group_name_H-M   'P 1'
_cell_length_a   7.93951235
_cell_length_b   7.93951240
_cell_length_c   9.43185342
_cell_angle_alpha   55.84668526
_cell_angle_beta   55.84668395
_cell_angle_gamma   29.18420864
_symmetry_Int_Tables_number   1
_chemical_formula_structural   TbHo2P4Pd7
_chemical_formula_sum   'Tb1 Ho2 P4 Pd7'
_cell_volume   236.14150844
_cell_formula_units_Z   1
loop_
 _symmetry_equiv_pos_site_id
 _symmetry_equiv_pos_as_xyz
  1  'x, y, z'
loop_
 _atom_site_type_symbol
 _atom_site_label
 _atom_site_symmetry_multiplicity
 _atom_site_fract_x
 _atom_site_fract_y
 _atom_site_fract_z
 _atom_site_occupancy
  Tb  Tb0  1  0.000000  0.000000  0.000000  1
  Ho  Ho1  1  0.679766  0.679766  0.323833  1
  Ho  Ho2  1  0.320234  0.320234  0.676167  1
  P  P3  1  0.340312  0.340312  0.253783  1
  P  P4  1  0.659688  0.659688  0.746217  1
  P  P5  1  0.893722  0.893722  0.819653  1
  P  P6  1  0.106278  0.106278  0.180347  1
  Pd  Pd7  1  0.304474  0.304474  0.030628  1
  Pd  Pd8  1  0.695526  0.695526  0.969372  1
  Pd  Pd9  1  0.509541  0.509541  0.714508  1
  Pd  Pd10  1  0.830839  0.830839  0.423261  1
  Pd  Pd11  1  0.490459  0.490459  0.285492  1
  Pd  Pd12  1  0.169161  0.169161  0.576739  1
  Pd  Pd13  1  0.000000  0.000000  0.500000  1
