# generated using pymatgen
data_TbGa4Os
_symmetry_space_group_name_H-M   'P 1'
_cell_length_a   7.62493500
_cell_length_b   8.75845200
_cell_length_c   9.59740200
_cell_angle_alpha   90.00000000
_cell_angle_beta   90.00000000
_cell_angle_gamma   90.00000000
_symmetry_Int_Tables_number   1
_chemical_formula_structural   TbGa4Os
_chemical_formula_sum   'Tb6 Ga24 Os6'
_cell_volume   640.93971986
_cell_formula_units_Z   6
loop_
 _symmetry_equiv_pos_site_id
 _symmetry_equiv_pos_as_xyz
  1  'x, y, z'
loop_
 _atom_site_type_symbol
 _atom_site_label
 _atom_site_symmetry_multiplicity
 _atom_site_fract_x
 _atom_site_fract_y
 _atom_site_fract_z
 _atom_site_occupancy
  Tb  Tb0  1  0.320009  0.500000  0.750000  1
  Tb  Tb1  1  0.679991  0.500000  0.250000  1
  Tb  Tb2  1  0.839120  0.245783  0.750000  1
  Tb  Tb3  1  0.160880  0.754217  0.250000  1
  Tb  Tb4  1  0.839120  0.754217  0.750000  1
  Tb  Tb5  1  0.160880  0.245783  0.250000  1
  Ga  Ga6  1  0.175469  0.241362  0.577214  1
  Ga  Ga7  1  0.824531  0.758638  0.422786  1
  Ga  Ga8  1  0.175469  0.758638  0.922786  1
  Ga  Ga9  1  0.824531  0.241362  0.422786  1
  Ga  Ga10  1  0.824531  0.241362  0.077214  1
  Ga  Ga11  1  0.175469  0.758638  0.577214  1
  Ga  Ga12  1  0.824531  0.758638  0.077214  1
  Ga  Ga13  1  0.175469  0.241362  0.922786  1
  Ga  Ga14  1  0.129086  0.000000  0.750000  1
  Ga  Ga15  1  0.870914  0.000000  0.250000  1
  Ga  Ga16  1  0.336800  0.000000  0.064140  1
  Ga  Ga17  1  0.663200  0.000000  0.935860  1
  Ga  Ga18  1  0.336800  0.000000  0.435860  1
  Ga  Ga19  1  0.663200  0.000000  0.564140  1
  Ga  Ga20  1  0.454408  0.158192  0.750000  1
  Ga  Ga21  1  0.545592  0.841808  0.250000  1
  Ga  Ga22  1  0.454408  0.841808  0.750000  1
  Ga  Ga23  1  0.545592  0.158192  0.250000  1
  Ga  Ga24  1  0.660972  0.500000  0.593368  1
  Ga  Ga25  1  0.339028  0.500000  0.406632  1
  Ga  Ga26  1  0.660972  0.500000  0.906632  1
  Ga  Ga27  1  0.339028  0.500000  0.093368  1
  Ga  Ga28  1  0.000000  0.500000  0.500000  1
  Ga  Ga29  1  0.000000  0.500000  0.000000  1
  Os  Os30  1  0.500000  0.263984  0.500000  1
  Os  Os31  1  0.500000  0.736016  0.500000  1
  Os  Os32  1  0.500000  0.736016  0.000000  1
  Os  Os33  1  0.500000  0.263984  0.000000  1
  Os  Os34  1  0.000000  0.000000  0.500000  1
  Os  Os35  1  0.000000  0.000000  0.000000  1
