# generated using pymatgen
data_Y2Tm(Ir2Rh)3
_symmetry_space_group_name_H-M   'P 1'
_cell_length_a   5.30182245
_cell_length_b   5.29865766
_cell_length_c   17.44170059
_cell_angle_alpha   89.99993179
_cell_angle_beta   90.02576513
_cell_angle_gamma   119.98044192
_symmetry_Int_Tables_number   1
_chemical_formula_structural   Y2Tm(Ir2Rh)3
_chemical_formula_sum   'Y4 Tm2 Ir12 Rh6'
_cell_volume   424.42015331
_cell_formula_units_Z   2
loop_
 _symmetry_equiv_pos_site_id
 _symmetry_equiv_pos_as_xyz
  1  'x, y, z'
loop_
 _atom_site_type_symbol
 _atom_site_label
 _atom_site_symmetry_multiplicity
 _atom_site_fract_x
 _atom_site_fract_y
 _atom_site_fract_z
 _atom_site_occupancy
  Y  Y0  1  0.666827  0.333413  0.458838  1
  Y  Y1  1  0.333041  0.666520  0.541119  1
  Y  Y2  1  0.333068  0.666534  0.750901  1
  Y  Y3  1  0.666683  0.333341  0.249449  1
  Tm  Tm4  1  0.333266  0.666633  0.959522  1
  Tm  Tm5  1  0.668272  0.334136  0.040607  1
  Ir  Ir6  1  0.167567  0.832326  0.373616  1
  Ir  Ir7  1  0.167567  0.335241  0.373616  1
  Ir  Ir8  1  0.665347  0.832674  0.373423  1
  Ir  Ir9  1  0.832792  0.167788  0.626294  1
  Ir  Ir10  1  0.832791  0.665004  0.626294  1
  Ir  Ir11  1  0.335247  0.167624  0.626113  1
  Ir  Ir12  1  0.831284  0.167360  0.875482  1
  Ir  Ir13  1  0.831284  0.663924  0.875482  1
  Ir  Ir14  1  0.335870  0.167935  0.875901  1
  Ir  Ir15  1  0.165452  0.830413  0.124445  1
  Ir  Ir16  1  0.165453  0.335039  0.124445  1
  Ir  Ir17  1  0.004299  0.002150  0.000218  1
  Rh  Rh18  1  0.663135  0.831567  0.124263  1
  Rh  Rh19  1  0.333470  0.666736  0.249876  1
  Rh  Rh20  1  0.666606  0.333302  0.750099  1
  Rh  Rh21  1  0.001294  0.000646  0.249484  1
  Rh  Rh22  1  0.000180  0.000091  0.750581  1
  Rh  Rh23  1  0.999203  0.999604  0.499932  1
