# generated using pymatgen
data_HfZrBIr5Ru
_symmetry_space_group_name_H-M   'P 1'
_cell_length_a   5.74033677
_cell_length_b   5.74033662
_cell_length_c   5.71815600
_cell_angle_alpha   60.12773773
_cell_angle_beta   60.12773863
_cell_angle_gamma   59.72154132
_symmetry_Int_Tables_number   1
_chemical_formula_structural   HfZrBIr5Ru
_chemical_formula_sum   'Hf1 Zr1 B1 Ir5 Ru1'
_cell_volume   133.20661000
_cell_formula_units_Z   1
loop_
 _symmetry_equiv_pos_site_id
 _symmetry_equiv_pos_as_xyz
  1  'x, y, z'
loop_
 _atom_site_type_symbol
 _atom_site_label
 _atom_site_symmetry_multiplicity
 _atom_site_fract_x
 _atom_site_fract_y
 _atom_site_fract_z
 _atom_site_occupancy
  Hf  Hf0  1  0.750014  0.750014  0.749986  1
  Zr  Zr1  1  0.250017  0.250017  0.249983  1
  B  B2  1  0.998131  0.998131  0.001869  1
  Ir  Ir3  1  0.258806  0.741668  0.258327  1
  Ir  Ir4  1  0.741668  0.258806  0.258327  1
  Ir  Ir5  1  0.257897  0.257897  0.742103  1
  Ir  Ir6  1  0.741668  0.258806  0.741199  1
  Ir  Ir7  1  0.258806  0.741668  0.741199  1
  Ru  Ru8  1  0.742995  0.742995  0.257005  1
