# generated using pymatgen
data_LuZr4Sn3
_symmetry_space_group_name_H-M   'P 1'
_cell_length_a   8.59251853
_cell_length_b   8.63705025
_cell_length_c   5.89821300
_cell_angle_alpha   90.00000000
_cell_angle_beta   90.00000000
_cell_angle_gamma   120.17158954
_symmetry_Int_Tables_number   1
_chemical_formula_structural   LuZr4Sn3
_chemical_formula_sum   'Lu2 Zr8 Sn6'
_cell_volume   378.42819894
_cell_formula_units_Z   2
loop_
 _symmetry_equiv_pos_site_id
 _symmetry_equiv_pos_as_xyz
  1  'x, y, z'
loop_
 _atom_site_type_symbol
 _atom_site_label
 _atom_site_symmetry_multiplicity
 _atom_site_fract_x
 _atom_site_fract_y
 _atom_site_fract_z
 _atom_site_occupancy
  Lu  Lu0  1  0.760151  0.998820  0.250000  1
  Lu  Lu1  1  0.239849  0.238669  0.250000  1
  Zr  Zr2  1  0.667095  0.335044  0.999306  1
  Zr  Zr3  1  0.332904  0.667949  0.999306  1
  Zr  Zr4  1  0.000000  0.750731  0.250000  1
  Zr  Zr5  1  0.667095  0.335044  0.500694  1
  Zr  Zr6  1  0.332904  0.667949  0.500694  1
  Zr  Zr7  1  0.243222  0.999709  0.750000  1
  Zr  Zr8  1  0.000000  0.247946  0.750000  1
  Zr  Zr9  1  0.756778  0.756487  0.750000  1
  Sn  Sn10  1  0.393849  0.998345  0.250000  1
  Sn  Sn11  1  0.000000  0.396874  0.250000  1
  Sn  Sn12  1  0.606150  0.604495  0.250000  1
  Sn  Sn13  1  0.608265  0.000383  0.750000  1
  Sn  Sn14  1  0.391734  0.392117  0.750000  1
  Sn  Sn15  1  0.000000  0.609436  0.750000  1
