# generated using pymatgen
data_LiB5(PbO5)2
_symmetry_space_group_name_H-M   'P 1'
_cell_length_a   14.29181000
_cell_length_b   4.41660880
_cell_length_c   6.71290718
_cell_angle_alpha   76.37961719
_cell_angle_beta   90.00000000
_cell_angle_gamma   90.00000000
_symmetry_Int_Tables_number   1
_chemical_formula_structural   LiB5(PbO5)2
_chemical_formula_sum   'Li2 B10 Pb4 O20'
_cell_volume   411.81128398
_cell_formula_units_Z   2
loop_
 _symmetry_equiv_pos_site_id
 _symmetry_equiv_pos_as_xyz
  1  'x, y, z'
loop_
 _atom_site_type_symbol
 _atom_site_label
 _atom_site_symmetry_multiplicity
 _atom_site_fract_x
 _atom_site_fract_y
 _atom_site_fract_z
 _atom_site_occupancy
  Li  Li0  1  0.750000  0.990836  0.532209  1
  Li  Li1  1  0.250000  0.009164  0.467791  1
  B  B2  1  0.162444  0.439065  0.681975  1
  B  B3  1  0.662444  0.560935  0.318025  1
  B  B4  1  0.837556  0.560935  0.318025  1
  B  B5  1  0.337556  0.439065  0.681975  1
  B  B6  1  0.750000  0.778392  0.993295  1
  B  B7  1  0.250000  0.221608  0.006705  1
  B  B8  1  0.922295  0.050677  0.314542  1
  B  B9  1  0.422295  0.949323  0.685458  1
  B  B10  1  0.077705  0.949323  0.685458  1
  B  B11  1  0.577705  0.050677  0.314542  1
  Pb  Pb12  1  0.920128  0.321363  0.815828  1
  Pb  Pb13  1  0.420128  0.678637  0.184172  1
  Pb  Pb14  1  0.079872  0.678637  0.184172  1
  Pb  Pb15  1  0.579872  0.321363  0.815828  1
  O  O16  1  0.918841  0.725020  0.388026  1
  O  O17  1  0.418841  0.274980  0.611974  1
  O  O18  1  0.081159  0.274980  0.611974  1
  O  O19  1  0.581159  0.725020  0.388026  1
  O  O20  1  0.750000  0.629910  0.410498  1
  O  O21  1  0.250000  0.370090  0.589502  1
  O  O22  1  0.750000  0.988415  0.811867  1
  O  O23  1  0.250000  0.011585  0.188133  1
  O  O24  1  0.510095  0.172659  0.174026  1
  O  O25  1  0.010095  0.827341  0.825974  1
  O  O26  1  0.489905  0.827341  0.825974  1
  O  O27  1  0.989905  0.172659  0.174026  1
  O  O28  1  0.643131  0.221855  0.389865  1
  O  O29  1  0.143131  0.778145  0.610135  1
  O  O30  1  0.356869  0.778145  0.610135  1
  O  O31  1  0.856869  0.221855  0.389865  1
  O  O32  1  0.666025  0.664433  0.091210  1
  O  O33  1  0.166025  0.335567  0.908790  1
  O  O34  1  0.333975  0.335567  0.908790  1
  O  O35  1  0.833975  0.664433  0.091210  1
