# generated using pymatgen
data_Nd3YAl18(NiRh2)2
_symmetry_space_group_name_H-M   'P 1'
_cell_length_a   7.58427824
_cell_length_b   7.58977077
_cell_length_c   9.53716200
_cell_angle_alpha   90.00000000
_cell_angle_beta   90.00000000
_cell_angle_gamma   119.68963657
_symmetry_Int_Tables_number   1
_chemical_formula_structural   Nd3YAl18(NiRh2)2
_chemical_formula_sum   'Nd3 Y1 Al18 Ni2 Rh4'
_cell_volume   476.91661712
_cell_formula_units_Z   1
loop_
 _symmetry_equiv_pos_site_id
 _symmetry_equiv_pos_as_xyz
  1  'x, y, z'
loop_
 _atom_site_type_symbol
 _atom_site_label
 _atom_site_symmetry_multiplicity
 _atom_site_fract_x
 _atom_site_fract_y
 _atom_site_fract_z
 _atom_site_occupancy
  Nd  Nd0  1  0.994208  0.669264  0.250000  1
  Nd  Nd1  1  0.005665  0.330835  0.750000  1
  Nd  Nd2  1  0.669266  0.993912  0.250000  1
  Y  Y3  1  0.330983  0.005432  0.750000  1
  Al  Al4  1  0.127068  0.126087  0.250000  1
  Al  Al5  1  0.876371  0.874943  0.750000  1
  Al  Al6  1  0.001771  0.332293  0.072505  1
  Al  Al7  1  0.000136  0.669467  0.925475  1
  Al  Al8  1  0.000136  0.669467  0.574525  1
  Al  Al9  1  0.332176  0.001362  0.429439  1
  Al  Al10  1  0.001771  0.332293  0.427495  1
  Al  Al11  1  0.665798  0.998576  0.574571  1
  Al  Al12  1  0.665798  0.998576  0.925429  1
  Al  Al13  1  0.332176  0.001362  0.070561  1
  Al  Al14  1  0.332389  0.331110  0.548579  1
  Al  Al15  1  0.667403  0.667392  0.456008  1
  Al  Al16  1  0.667403  0.667392  0.043992  1
  Al  Al17  1  0.332389  0.331110  0.951421  1
  Al  Al18  1  0.338920  0.545104  0.250000  1
  Al  Al19  1  0.659271  0.452094  0.750000  1
  Al  Al20  1  0.544822  0.337726  0.250000  1
  Al  Al21  1  0.454282  0.663529  0.750000  1
  Ni  Ni22  1  0.001029  0.001044  0.998075  1
  Ni  Ni23  1  0.001029  0.001044  0.501925  1
  Rh  Rh24  1  0.670377  0.327914  0.998565  1
  Rh  Rh25  1  0.328492  0.671379  0.998919  1
  Rh  Rh26  1  0.328492  0.671379  0.501081  1
  Rh  Rh27  1  0.670377  0.327914  0.501435  1
