# generated using pymatgen
data_LaPrDy2B4I5
_symmetry_space_group_name_H-M   'P 1'
_cell_length_a   9.83961721
_cell_length_b   9.83961656
_cell_length_c   9.73532708
_cell_angle_alpha   75.61232995
_cell_angle_beta   75.61233085
_cell_angle_gamma   25.31418574
_symmetry_Int_Tables_number   1
_chemical_formula_structural   LaPrDy2B4I5
_chemical_formula_sum   'La1 Pr1 Dy2 B4 I5'
_cell_volume   389.73109663
_cell_formula_units_Z   1
loop_
 _symmetry_equiv_pos_site_id
 _symmetry_equiv_pos_as_xyz
  1  'x, y, z'
loop_
 _atom_site_type_symbol
 _atom_site_label
 _atom_site_symmetry_multiplicity
 _atom_site_fract_x
 _atom_site_fract_y
 _atom_site_fract_z
 _atom_site_occupancy
  La  La0  1  0.866855  0.866855  0.067753  1
  Pr  Pr1  1  0.133975  0.133975  0.930981  1
  Dy  Dy2  1  0.503472  0.503472  0.753211  1
  Dy  Dy3  1  0.499554  0.499554  0.245140  1
  B  B4  1  0.315922  0.686345  0.999384  1
  B  B5  1  0.686345  0.315922  0.999384  1
  B  B6  1  0.000784  0.000784  0.097623  1
  B  B7  1  0.000781  0.000781  0.901474  1
  I  I8  1  0.669745  0.669745  0.666681  1
  I  I9  1  0.332496  0.332496  0.334602  1
  I  I10  1  0.331461  0.331461  0.831265  1
  I  I11  1  0.670808  0.670808  0.163934  1
  I  I12  1  0.002102  0.002102  0.498767  1
