# generated using pymatgen
data_Ho2Er7Mg(BiAu2)2
_symmetry_space_group_name_H-M   'P 1'
_cell_length_a   8.69324186
_cell_length_b   8.69324223
_cell_length_c   8.69182371
_cell_angle_alpha   125.64810646
_cell_angle_beta   125.65235896
_cell_angle_gamma   80.47482570
_symmetry_Int_Tables_number   1
_chemical_formula_structural   Ho2Er7Mg(BiAu2)2
_chemical_formula_sum   'Ho2 Er7 Mg1 Bi2 Au4'
_cell_volume   418.35912327
_cell_formula_units_Z   1
loop_
 _symmetry_equiv_pos_site_id
 _symmetry_equiv_pos_as_xyz
  1  'x, y, z'
loop_
 _atom_site_type_symbol
 _atom_site_label
 _atom_site_symmetry_multiplicity
 _atom_site_fract_x
 _atom_site_fract_y
 _atom_site_fract_z
 _atom_site_occupancy
  Ho  Ho0  1  0.477081  0.288936  0.485272  1
  Ho  Ho1  1  0.803665  0.991809  0.514728  1
  Er  Er2  1  0.499942  0.499942  0.000000  1
  Er  Er3  1  0.008311  0.523032  0.811701  1
  Er  Er4  1  0.711332  0.196610  0.188299  1
  Er  Er5  1  0.522944  0.711323  0.514732  1
  Er  Er6  1  0.196591  0.008212  0.485268  1
  Er  Er7  1  0.991776  0.477112  0.188314  1
  Er  Er8  1  0.288797  0.803462  0.811686  1
  Mg  Mg9  1  0.999967  0.999967  0.000000  1
  Bi  Bi10  1  0.746009  0.746009  0.000000  1
  Bi  Bi11  1  0.254043  0.254043  0.000000  1
  Au  Au12  1  0.635008  0.141588  0.776882  1
  Au  Au13  1  0.364704  0.858124  0.223118  1
  Au  Au14  1  0.141452  0.364976  0.506597  1
  Au  Au15  1  0.858379  0.634855  0.493403  1
