# generated using pymatgen
data_Tb7Th(ZnCo)2
_symmetry_space_group_name_H-M   'P 1'
_cell_length_a   9.41072649
_cell_length_b   9.41077025
_cell_length_c   9.42615908
_cell_angle_alpha   59.88255608
_cell_angle_beta   59.88474495
_cell_angle_gamma   59.98219485
_symmetry_Int_Tables_number   1
_chemical_formula_structural   Tb7Th(ZnCo)2
_chemical_formula_sum   'Tb14 Th2 Zn4 Co4'
_cell_volume   589.17433409
_cell_formula_units_Z   2
loop_
 _symmetry_equiv_pos_site_id
 _symmetry_equiv_pos_as_xyz
  1  'x, y, z'
loop_
 _atom_site_type_symbol
 _atom_site_label
 _atom_site_symmetry_multiplicity
 _atom_site_fract_x
 _atom_site_fract_y
 _atom_site_fract_z
 _atom_site_occupancy
  Tb  Tb0  1  0.353153  0.943943  0.352117  1
  Tb  Tb1  1  0.943954  0.353131  0.352121  1
  Tb  Tb2  1  0.809688  0.191744  0.189913  1
  Tb  Tb3  1  0.190964  0.811104  0.809406  1
  Tb  Tb4  1  0.191755  0.809701  0.189909  1
  Tb  Tb5  1  0.811086  0.190953  0.809425  1
  Tb  Tb6  1  0.189064  0.189036  0.811352  1
  Tb  Tb7  1  0.810337  0.810343  0.188933  1
  Tb  Tb8  1  0.939942  0.564871  0.564320  1
  Tb  Tb9  1  0.562642  0.938852  0.935465  1
  Tb  Tb10  1  0.564861  0.939964  0.564285  1
  Tb  Tb11  1  0.938826  0.562656  0.935442  1
  Tb  Tb12  1  0.564376  0.564350  0.938014  1
  Tb  Tb13  1  0.939640  0.939624  0.560181  1
  Th  Th14  1  0.343062  0.343060  0.348722  1
  Th  Th15  1  0.345953  0.345941  0.958612  1
  Zn  Zn16  1  0.577213  0.577188  0.576652  1
  Zn  Zn17  1  0.577724  0.577701  0.264657  1
  Zn  Zn18  1  0.578136  0.261725  0.578336  1
  Zn  Zn19  1  0.261730  0.578126  0.578338  1
  Co  Co20  1  0.144594  0.144589  0.141168  1
  Co  Co21  1  0.143813  0.143807  0.571126  1
  Co  Co22  1  0.148178  0.569348  0.140759  1
  Co  Co23  1  0.569309  0.148244  0.140745  1
