# generated using pymatgen
data_Th3Mg2CdGa2Ag
_symmetry_space_group_name_H-M   'P 1'
_cell_length_a   4.61115700
_cell_length_b   7.38341876
_cell_length_c   7.38341818
_cell_angle_alpha   119.86240310
_cell_angle_beta   90.00000000
_cell_angle_gamma   90.00000000
_symmetry_Int_Tables_number   1
_chemical_formula_structural   Th3Mg2CdGa2Ag
_chemical_formula_sum   'Th3 Mg2 Cd1 Ga2 Ag1'
_cell_volume   217.99975077
_cell_formula_units_Z   1
loop_
 _symmetry_equiv_pos_site_id
 _symmetry_equiv_pos_as_xyz
  1  'x, y, z'
loop_
 _atom_site_type_symbol
 _atom_site_label
 _atom_site_symmetry_multiplicity
 _atom_site_fract_x
 _atom_site_fract_y
 _atom_site_fract_z
 _atom_site_occupancy
  Th  Th0  1  0.000000  0.432602  0.432602  1
  Th  Th1  1  0.000000  0.997922  0.571936  1
  Th  Th2  1  0.000000  0.571936  0.997922  1
  Mg  Mg3  1  0.500000  0.998433  0.236381  1
  Mg  Mg4  1  0.500000  0.236381  0.998433  1
  Cd  Cd5  1  0.500000  0.758350  0.758350  1
  Ga  Ga6  1  0.500000  0.666118  0.328949  1
  Ga  Ga7  1  0.500000  0.328949  0.666118  1
  Ag  Ag8  1  0.000000  0.009307  0.009307  1
