# generated using pymatgen
data_Yb6ReSbO12
_symmetry_space_group_name_H-M   'P 1'
_cell_length_a   5.83391648
_cell_length_b   5.50792289
_cell_length_c   9.65474546
_cell_angle_alpha   55.54756083
_cell_angle_beta   89.73412671
_cell_angle_gamma   89.98295576
_symmetry_Int_Tables_number   1
_chemical_formula_structural   Yb6ReSbO12
_chemical_formula_sum   'Yb6 Re1 Sb1 O12'
_cell_volume   255.81366764
_cell_formula_units_Z   1
loop_
 _symmetry_equiv_pos_site_id
 _symmetry_equiv_pos_as_xyz
  1  'x, y, z'
loop_
 _atom_site_type_symbol
 _atom_site_label
 _atom_site_symmetry_multiplicity
 _atom_site_fract_x
 _atom_site_fract_y
 _atom_site_fract_z
 _atom_site_occupancy
  Yb  Yb0  1  0.565968  0.232270  0.245418  1
  Yb  Yb1  1  0.061353  0.784146  0.233129  1
  Yb  Yb2  1  0.500000  0.000000  0.000000  1
  Yb  Yb3  1  0.000000  0.000000  0.500000  1
  Yb  Yb4  1  0.938647  0.215854  0.766871  1
  Yb  Yb5  1  0.434032  0.767730  0.754582  1
  Re  Re6  1  0.500000  0.500000  0.500000  1
  Sb  Sb7  1  0.000000  0.500000  0.000000  1
  O  O8  1  0.550767  0.393957  0.722214  1
  O  O9  1  0.059121  0.609676  0.764889  1
  O  O10  1  0.449233  0.606043  0.277786  1
  O  O11  1  0.940879  0.390324  0.235111  1
  O  O12  1  0.774102  0.733846  0.428968  1
  O  O13  1  0.285796  0.249987  0.074604  1
  O  O14  1  0.225898  0.266154  0.571032  1
  O  O15  1  0.714204  0.750013  0.925396  1
  O  O16  1  0.183832  0.849055  0.944572  1
  O  O17  1  0.669894  0.164970  0.551163  1
  O  O18  1  0.816168  0.150945  0.055428  1
  O  O19  1  0.330106  0.835030  0.448837  1
