# generated using pymatgen
data_Nd3Er2Tm3(CdIr)2
_symmetry_space_group_name_H-M   'P 1'
_cell_length_a   9.67912240
_cell_length_b   9.67912285
_cell_length_c   9.67912200
_cell_angle_alpha   60.00000289
_cell_angle_beta   60.00000137
_cell_angle_gamma   60.00000243
_symmetry_Int_Tables_number   1
_chemical_formula_structural   Nd3Er2Tm3(CdIr)2
_chemical_formula_sum   'Nd6 Er4 Tm6 Cd4 Ir4'
_cell_volume   641.19919993
_cell_formula_units_Z   2
loop_
 _symmetry_equiv_pos_site_id
 _symmetry_equiv_pos_as_xyz
  1  'x, y, z'
loop_
 _atom_site_type_symbol
 _atom_site_label
 _atom_site_symmetry_multiplicity
 _atom_site_fract_x
 _atom_site_fract_y
 _atom_site_fract_z
 _atom_site_occupancy
  Nd  Nd0  1  0.940848  0.559152  0.559152  1
  Nd  Nd1  1  0.559152  0.940848  0.940848  1
  Nd  Nd2  1  0.559152  0.940848  0.559152  1
  Nd  Nd3  1  0.940848  0.559152  0.940848  1
  Nd  Nd4  1  0.559152  0.559152  0.940848  1
  Nd  Nd5  1  0.940848  0.940848  0.559152  1
  Er  Er6  1  0.347117  0.347117  0.347117  1
  Er  Er7  1  0.347117  0.347117  0.958651  1
  Er  Er8  1  0.347117  0.958651  0.347117  1
  Er  Er9  1  0.958651  0.347117  0.347117  1
  Tm  Tm10  1  0.813742  0.186258  0.186258  1
  Tm  Tm11  1  0.186258  0.813742  0.813742  1
  Tm  Tm12  1  0.186258  0.813742  0.186258  1
  Tm  Tm13  1  0.813742  0.186258  0.813742  1
  Tm  Tm14  1  0.186258  0.186258  0.813742  1
  Tm  Tm15  1  0.813742  0.813742  0.186258  1
  Cd  Cd16  1  0.579263  0.579263  0.579263  1
  Cd  Cd17  1  0.579263  0.579263  0.262210  1
  Cd  Cd18  1  0.579263  0.262210  0.579263  1
  Cd  Cd19  1  0.262210  0.579263  0.579263  1
  Ir  Ir20  1  0.141093  0.141093  0.141093  1
  Ir  Ir21  1  0.141093  0.141093  0.576722  1
  Ir  Ir22  1  0.141093  0.576722  0.141093  1
  Ir  Ir23  1  0.576722  0.141093  0.141093  1
