# generated using pymatgen
data_Tm7Lu3(RuRh)2
_symmetry_space_group_name_H-M   'P 1'
_cell_length_a   6.27780317
_cell_length_b   7.20571610
_cell_length_c   8.34827035
_cell_angle_alpha   96.78221936
_cell_angle_beta   112.39604213
_cell_angle_gamma   90.01417865
_symmetry_Int_Tables_number   1
_chemical_formula_structural   Tm7Lu3(RuRh)2
_chemical_formula_sum   'Tm7 Lu3 Ru2 Rh2'
_cell_volume   346.29363375
_cell_formula_units_Z   1
loop_
 _symmetry_equiv_pos_site_id
 _symmetry_equiv_pos_as_xyz
  1  'x, y, z'
loop_
 _atom_site_type_symbol
 _atom_site_label
 _atom_site_symmetry_multiplicity
 _atom_site_fract_x
 _atom_site_fract_y
 _atom_site_fract_z
 _atom_site_occupancy
  Tm  Tm0  1  0.523921  0.081632  0.815900  1
  Tm  Tm1  1  0.475815  0.918144  0.184048  1
  Tm  Tm2  1  0.710621  0.415894  0.187603  1
  Tm  Tm3  1  0.289562  0.584320  0.812373  1
  Tm  Tm4  1  0.290424  0.312382  0.435392  1
  Tm  Tm5  1  0.709490  0.687662  0.564539  1
  Tm  Tm6  1  0.858502  0.182665  0.562548  1
  Lu  Lu7  1  0.141375  0.817349  0.437211  1
  Lu  Lu8  1  0.079219  0.247688  0.999384  1
  Lu  Lu9  1  0.920902  0.752421  0.000936  1
  Ru  Ru10  1  0.105595  0.923162  0.782484  1
  Ru  Ru11  1  0.894708  0.076466  0.217359  1
  Rh  Rh12  1  0.323676  0.575536  0.222495  1
  Rh  Rh13  1  0.676189  0.424678  0.777728  1
