# generated using pymatgen
data_Ta11TiGa8(FeC)4
_symmetry_space_group_name_H-M   'P 1'
_cell_length_a   8.18260684
_cell_length_b   8.16608614
_cell_length_c   8.18229384
_cell_angle_alpha   60.06494524
_cell_angle_beta   59.94406265
_cell_angle_gamma   60.06626384
_symmetry_Int_Tables_number   1
_chemical_formula_structural   Ta11TiGa8(FeC)4
_chemical_formula_sum   'Ta11 Ti1 Ga8 Fe4 C4'
_cell_volume   386.82217339
_cell_formula_units_Z   1
loop_
 _symmetry_equiv_pos_site_id
 _symmetry_equiv_pos_as_xyz
  1  'x, y, z'
loop_
 _atom_site_type_symbol
 _atom_site_label
 _atom_site_symmetry_multiplicity
 _atom_site_fract_x
 _atom_site_fract_y
 _atom_site_fract_z
 _atom_site_occupancy
  Ta  Ta0  1  0.306937  0.695170  0.693464  1
  Ta  Ta1  1  0.693454  0.304420  0.306941  1
  Ta  Ta2  1  0.304955  0.695033  0.304960  1
  Ta  Ta3  1  0.693467  0.695176  0.306937  1
  Ta  Ta4  1  0.306942  0.304429  0.693451  1
  Ta  Ta5  1  0.556252  0.554241  0.944114  1
  Ta  Ta6  1  0.944118  0.554240  0.556254  1
  Ta  Ta7  1  0.556261  0.945396  0.944113  1
  Ta  Ta8  1  0.944115  0.945392  0.556264  1
  Ta  Ta9  1  0.694548  0.305457  0.694544  1
  Ta  Ta10  1  0.943472  0.556541  0.943466  1
  Ti  Ti11  1  0.557098  0.942894  0.557118  1
  Ga  Ga12  1  0.917027  0.916110  0.916989  1
  Ga  Ga13  1  0.998443  0.334248  0.333040  1
  Ga  Ga14  1  0.334354  0.999833  0.334388  1
  Ga  Ga15  1  0.333022  0.334262  0.998432  1
  Ga  Ga16  1  0.917033  0.249870  0.916993  1
  Ga  Ga17  1  0.912561  0.916975  0.253512  1
  Ga  Ga18  1  0.253494  0.916992  0.912543  1
  Ga  Ga19  1  0.334359  0.331403  0.334391  1
  Fe  Fe20  1  0.125610  0.123500  0.125608  1
  Fe  Fe21  1  0.624830  0.126064  0.123038  1
  Fe  Fe22  1  0.125609  0.625286  0.125609  1
  Fe  Fe23  1  0.123028  0.126069  0.624828  1
  C  C24  1  0.624594  0.628497  0.624593  1
  C  C25  1  0.125608  0.625091  0.624213  1
  C  C26  1  0.624592  0.122322  0.624591  1
  C  C27  1  0.624216  0.625091  0.125607  1
