# generated using pymatgen
data_HoPaInCo2
_symmetry_space_group_name_H-M   'P 1'
_cell_length_a   7.50056100
_cell_length_b   7.29532300
_cell_length_c   3.53757000
_cell_angle_alpha   90.00000000
_cell_angle_beta   90.00000000
_cell_angle_gamma   90.00000000
_symmetry_Int_Tables_number   1
_chemical_formula_structural   HoPaInCo2
_chemical_formula_sum   'Ho2 Pa2 In2 Co4'
_cell_volume   193.57234652
_cell_formula_units_Z   2
loop_
 _symmetry_equiv_pos_site_id
 _symmetry_equiv_pos_as_xyz
  1  'x, y, z'
loop_
 _atom_site_type_symbol
 _atom_site_label
 _atom_site_symmetry_multiplicity
 _atom_site_fract_x
 _atom_site_fract_y
 _atom_site_fract_z
 _atom_site_occupancy
  Ho  Ho0  1  0.832899  0.664718  0.500000  1
  Ho  Ho1  1  0.332899  0.835282  0.500000  1
  Pa  Pa2  1  0.678454  0.163411  0.500000  1
  Pa  Pa3  1  0.178454  0.336589  0.500000  1
  In  In4  1  0.008680  0.987799  0.000000  1
  In  In5  1  0.508680  0.512201  0.000000  1
  Co  Co6  1  0.353497  0.156400  0.000000  1
  Co  Co7  1  0.126470  0.579880  0.000000  1
  Co  Co8  1  0.626470  0.920120  0.000000  1
  Co  Co9  1  0.853497  0.343600  0.000000  1
