# generated using pymatgen
data_CsCaUF7
_symmetry_space_group_name_H-M   'P 1'
_cell_length_a   6.95653878
_cell_length_b   6.95653859
_cell_length_c   8.98624900
_cell_angle_alpha   90.00000000
_cell_angle_beta   90.00000000
_cell_angle_gamma   117.35100570
_symmetry_Int_Tables_number   1
_chemical_formula_structural   CsCaUF7
_chemical_formula_sum   'Cs2 Ca2 U2 F14'
_cell_volume   386.26007699
_cell_formula_units_Z   2
loop_
 _symmetry_equiv_pos_site_id
 _symmetry_equiv_pos_as_xyz
  1  'x, y, z'
loop_
 _atom_site_type_symbol
 _atom_site_label
 _atom_site_symmetry_multiplicity
 _atom_site_fract_x
 _atom_site_fract_y
 _atom_site_fract_z
 _atom_site_occupancy
  Cs  Cs0  1  0.000000  0.000000  0.000000  1
  Cs  Cs1  1  0.000000  0.000000  0.500000  1
  Ca  Ca2  1  0.309164  0.690836  0.750000  1
  Ca  Ca3  1  0.690836  0.309164  0.250000  1
  U  U4  1  0.691242  0.308758  0.750000  1
  U  U5  1  0.308758  0.691242  0.250000  1
  F  F6  1  0.503243  0.496757  0.750000  1
  F  F7  1  0.496757  0.503243  0.250000  1
  F  F8  1  0.699764  0.300236  0.994263  1
  F  F9  1  0.300236  0.699764  0.005737  1
  F  F10  1  0.300236  0.699764  0.494263  1
  F  F11  1  0.699764  0.300236  0.505737  1
  F  F12  1  0.664736  0.967635  0.750000  1
  F  F13  1  0.335264  0.032365  0.250000  1
  F  F14  1  0.032365  0.335264  0.750000  1
  F  F15  1  0.967635  0.664736  0.250000  1
  F  F16  1  0.340873  0.050426  0.750000  1
  F  F17  1  0.659127  0.949574  0.250000  1
  F  F18  1  0.949574  0.659127  0.750000  1
  F  F19  1  0.050426  0.340873  0.250000  1
