# generated using pymatgen
data_MnPb(S2O7)2
_symmetry_space_group_name_H-M   'P 1'
_cell_length_a   5.30351337
_cell_length_b   7.71963310
_cell_length_c   9.02455971
_cell_angle_alpha   92.25981306
_cell_angle_beta   93.58548854
_cell_angle_gamma   107.04455609
_symmetry_Int_Tables_number   1
_chemical_formula_structural   MnPb(S2O7)2
_chemical_formula_sum   'Mn1 Pb1 S4 O14'
_cell_volume   351.90965546
_cell_formula_units_Z   1
loop_
 _symmetry_equiv_pos_site_id
 _symmetry_equiv_pos_as_xyz
  1  'x, y, z'
loop_
 _atom_site_type_symbol
 _atom_site_label
 _atom_site_symmetry_multiplicity
 _atom_site_fract_x
 _atom_site_fract_y
 _atom_site_fract_z
 _atom_site_occupancy
  Mn  Mn0  1  0.000000  0.500000  0.000000  1
  Pb  Pb1  1  0.500000  0.000000  0.500000  1
  S  S2  1  0.509609  0.634091  0.781598  1
  S  S3  1  0.490391  0.365909  0.218402  1
  S  S4  1  0.146820  0.271374  0.702529  1
  S  S5  1  0.853180  0.728626  0.297471  1
  O  O6  1  0.716892  0.556673  0.832097  1
  O  O7  1  0.283108  0.443327  0.167903  1
  O  O8  1  0.344668  0.666535  0.897058  1
  O  O9  1  0.655332  0.333465  0.102942  1
  O  O10  1  0.599094  0.785126  0.687538  1
  O  O11  1  0.400906  0.214874  0.312462  1
  O  O12  1  0.307774  0.480229  0.659824  1
  O  O13  1  0.692226  0.519771  0.340176  1
  O  O14  1  0.950976  0.219219  0.575525  1
  O  O15  1  0.049024  0.780781  0.424475  1
  O  O16  1  0.338893  0.169534  0.707389  1
  O  O17  1  0.661107  0.830466  0.292611  1
  O  O18  1  0.040129  0.287268  0.846077  1
  O  O19  1  0.959871  0.712732  0.153923  1
