# generated using pymatgen
data_DyY(Al3Ir)3
_symmetry_space_group_name_H-M   'P 1'
_cell_length_a   7.55638950
_cell_length_b   7.55691338
_cell_length_c   9.49037500
_cell_angle_alpha   90.00000563
_cell_angle_beta   90.00017545
_cell_angle_gamma   119.59272553
_symmetry_Int_Tables_number   1
_chemical_formula_structural   DyY(Al3Ir)3
_chemical_formula_sum   'Dy2 Y2 Al18 Ir6'
_cell_volume   471.23824142
_cell_formula_units_Z   2
loop_
 _symmetry_equiv_pos_site_id
 _symmetry_equiv_pos_as_xyz
  1  'x, y, z'
loop_
 _atom_site_type_symbol
 _atom_site_label
 _atom_site_symmetry_multiplicity
 _atom_site_fract_x
 _atom_site_fract_y
 _atom_site_fract_z
 _atom_site_occupancy
  Dy  Dy0  1  0.670348  0.994854  0.749998  1
  Dy  Dy1  1  0.329652  0.005146  0.250002  1
  Y  Y2  1  0.994724  0.670255  0.750000  1
  Y  Y3  1  0.005276  0.329745  0.250000  1
  Al  Al4  1  0.128027  0.128224  0.749999  1
  Al  Al5  1  0.871973  0.871776  0.250001  1
  Al  Al6  1  0.000957  0.334753  0.573431  1
  Al  Al7  1  0.999043  0.665247  0.426569  1
  Al  Al8  1  0.999043  0.665246  0.073431  1
  Al  Al9  1  0.334939  0.001071  0.926699  1
  Al  Al10  1  0.000957  0.334754  0.926569  1
  Al  Al11  1  0.665061  0.998929  0.073301  1
  Al  Al12  1  0.665062  0.998930  0.426699  1
  Al  Al13  1  0.334938  0.001070  0.573301  1
  Al  Al14  1  0.333600  0.333499  0.052078  1
  Al  Al15  1  0.666400  0.666501  0.947922  1
  Al  Al16  1  0.666401  0.666502  0.552078  1
  Al  Al17  1  0.333599  0.333498  0.447922  1
  Al  Al18  1  0.339142  0.547618  0.750000  1
  Al  Al19  1  0.660858  0.452382  0.250000  1
  Al  Al20  1  0.547388  0.338686  0.750000  1
  Al  Al21  1  0.452612  0.661314  0.250000  1
  Ir  Ir22  1  0.671814  0.327940  0.500025  1
  Ir  Ir23  1  0.328186  0.672060  0.499975  1
  Ir  Ir24  1  0.328185  0.672060  0.000024  1
  Ir  Ir25  1  0.671815  0.327940  0.999976  1
  Ir  Ir26  1  0.000000  0.000000  0.500000  1
  Ir  Ir27  1  0.000000  0.000000  0.000000  1
