# generated using pymatgen
data_Sc5Zn6AsRh12
_symmetry_space_group_name_H-M   'P 1'
_cell_length_a   4.39945900
_cell_length_b   6.24392000
_cell_length_c   13.17415300
_cell_angle_alpha   90.00000000
_cell_angle_beta   89.99840534
_cell_angle_gamma   90.00000000
_symmetry_Int_Tables_number   1
_chemical_formula_structural   Sc5Zn6AsRh12
_chemical_formula_sum   'Sc5 Zn6 As1 Rh12'
_cell_volume   361.89227072
_cell_formula_units_Z   1
loop_
 _symmetry_equiv_pos_site_id
 _symmetry_equiv_pos_as_xyz
  1  'x, y, z'
loop_
 _atom_site_type_symbol
 _atom_site_label
 _atom_site_symmetry_multiplicity
 _atom_site_fract_x
 _atom_site_fract_y
 _atom_site_fract_z
 _atom_site_occupancy
  Sc  Sc0  1  0.499924  0.000000  0.163817  1
  Sc  Sc1  1  0.999894  0.500000  0.334274  1
  Sc  Sc2  1  0.499999  0.000000  0.500000  1
  Sc  Sc3  1  0.000105  0.500000  0.665725  1
  Sc  Sc4  1  0.500077  0.000000  0.836182  1
  Zn  Zn5  1  0.000000  0.000000  0.000000  1
  Zn  Zn6  1  0.499904  0.500000  0.175953  1
  Zn  Zn7  1  0.999907  0.000000  0.326991  1
  Zn  Zn8  1  0.499999  0.500000  0.500000  1
  Zn  Zn9  1  0.000094  0.000000  0.673009  1
  Zn  Zn10  1  0.500097  0.500000  0.824047  1
  As  As11  1  0.000000  0.500000  0.000000  1
  Rh  Rh12  1  0.499999  0.271389  0.000000  1
  Rh  Rh13  1  0.499999  0.728610  0.000000  1
  Rh  Rh14  1  0.999924  0.263909  0.155865  1
  Rh  Rh15  1  0.999924  0.736091  0.155865  1
  Rh  Rh16  1  0.499913  0.245711  0.332702  1
  Rh  Rh17  1  0.499913  0.754288  0.332702  1
  Rh  Rh18  1  0.000000  0.249916  0.500000  1
  Rh  Rh19  1  0.000000  0.750083  0.500000  1
  Rh  Rh20  1  0.500085  0.245711  0.667297  1
  Rh  Rh21  1  0.500085  0.754288  0.667297  1
  Rh  Rh22  1  0.000076  0.263909  0.844135  1
  Rh  Rh23  1  0.000076  0.736091  0.844135  1
