# generated using pymatgen
data_LaSm7(Tm3Sn4)4
_symmetry_space_group_name_H-M   'P 1'
_cell_length_a   8.04210664
_cell_length_b   8.19551616
_cell_length_c   15.45427256
_cell_angle_alpha   90.00706675
_cell_angle_beta   89.81313013
_cell_angle_gamma   90.22058683
_symmetry_Int_Tables_number   1
_chemical_formula_structural   LaSm7(Tm3Sn4)4
_chemical_formula_sum   'La1 Sm7 Tm12 Sn16'
_cell_volume   1018.56599898
_cell_formula_units_Z   1
loop_
 _symmetry_equiv_pos_site_id
 _symmetry_equiv_pos_as_xyz
  1  'x, y, z'
loop_
 _atom_site_type_symbol
 _atom_site_label
 _atom_site_symmetry_multiplicity
 _atom_site_fract_x
 _atom_site_fract_y
 _atom_site_fract_z
 _atom_site_occupancy
  La  La0  1  0.514539  0.321637  0.904776  1
  Sm  Sm1  1  0.017144  0.177972  0.595543  1
  Sm  Sm2  1  0.482498  0.678785  0.403092  1
  Sm  Sm3  1  0.982612  0.821620  0.097353  1
  Sm  Sm4  1  0.483756  0.679618  0.097268  1
  Sm  Sm5  1  0.982582  0.821573  0.403061  1
  Sm  Sm6  1  0.518031  0.320980  0.596876  1
  Sm  Sm7  1  0.017424  0.177106  0.903298  1
  Tm  Tm8  1  0.361630  0.837253  0.876824  1
  Tm  Tm9  1  0.863433  0.663144  0.622782  1
  Tm  Tm10  1  0.636847  0.163264  0.377045  1
  Tm  Tm11  1  0.138593  0.335886  0.124366  1
  Tm  Tm12  1  0.638752  0.162694  0.123559  1
  Tm  Tm13  1  0.136750  0.336899  0.376638  1
  Tm  Tm14  1  0.362778  0.836845  0.621960  1
  Tm  Tm15  1  0.861755  0.663893  0.875966  1
  Tm  Tm16  1  0.194735  0.504471  0.749072  1
  Tm  Tm17  1  0.695263  0.996278  0.749128  1
  Tm  Tm18  1  0.805626  0.496061  0.250592  1
  Tm  Tm19  1  0.304929  0.003556  0.250347  1
  Sn  Sn20  1  0.299467  0.038804  0.042709  1
  Sn  Sn21  1  0.799780  0.460620  0.458008  1
  Sn  Sn22  1  0.700535  0.959478  0.541562  1
  Sn  Sn23  1  0.193773  0.543520  0.959525  1
  Sn  Sn24  1  0.700517  0.957436  0.958547  1
  Sn  Sn25  1  0.200717  0.538600  0.541799  1
  Sn  Sn26  1  0.299465  0.040414  0.457664  1
  Sn  Sn27  1  0.805643  0.462016  0.043520  1
  Sn  Sn28  1  0.560047  0.625492  0.749193  1
  Sn  Sn29  1  0.060158  0.876555  0.749574  1
  Sn  Sn30  1  0.439948  0.377161  0.250111  1
  Sn  Sn31  1  0.939047  0.121877  0.250635  1
  Sn  Sn32  1  0.323823  0.144135  0.748291  1
  Sn  Sn33  1  0.828544  0.354128  0.749124  1
  Sn  Sn34  1  0.674514  0.854891  0.250125  1
  Sn  Sn35  1  0.174346  0.645339  0.250069  1
