# generated using pymatgen
data_Rb6HoInSb4
_symmetry_space_group_name_H-M   'P 1'
_cell_length_a   10.19092423
_cell_length_b   10.19092376
_cell_length_c   10.19092482
_cell_angle_alpha   128.36192465
_cell_angle_beta   69.23377766
_cell_angle_gamma   137.21678867
_symmetry_Int_Tables_number   1
_chemical_formula_structural   Rb6HoInSb4
_chemical_formula_sum   'Rb6 Ho1 In1 Sb4'
_cell_volume   553.46007999
_cell_formula_units_Z   1
loop_
 _symmetry_equiv_pos_site_id
 _symmetry_equiv_pos_as_xyz
  1  'x, y, z'
loop_
 _atom_site_type_symbol
 _atom_site_label
 _atom_site_symmetry_multiplicity
 _atom_site_fract_x
 _atom_site_fract_y
 _atom_site_fract_z
 _atom_site_occupancy
  Rb  Rb0  1  0.250000  0.250000  0.000000  1
  Rb  Rb1  1  0.750000  0.750000  0.000000  1
  Rb  Rb2  1  0.809096  0.296541  0.122089  1
  Rb  Rb3  1  0.690903  0.812993  0.487444  1
  Rb  Rb4  1  0.325547  0.203459  0.512556  1
  Rb  Rb5  1  0.174452  0.687008  0.877911  1
  Ho  Ho6  1  0.250000  0.750000  0.500000  1
  In  In7  1  0.750000  0.250000  0.500000  1
  Sb  Sb8  1  0.406144  0.815160  0.209372  1
  Sb  Sb9  1  0.093856  0.303228  0.409016  1
  Sb  Sb10  1  0.894212  0.684840  0.590985  1
  Sb  Sb11  1  0.605788  0.196772  0.790628  1
