# generated using pymatgen
data_CeDy(SnIr)2
_symmetry_space_group_name_H-M   'P 1'
_cell_length_a   7.47849700
_cell_length_b   7.47849692
_cell_length_c   8.09062200
_cell_angle_alpha   90.00000000
_cell_angle_beta   90.00000000
_cell_angle_gamma   120.00000479
_symmetry_Int_Tables_number   1
_chemical_formula_structural   CeDy(SnIr)2
_chemical_formula_sum   'Ce3 Dy3 Sn6 Ir6'
_cell_volume   391.86923093
_cell_formula_units_Z   3
loop_
 _symmetry_equiv_pos_site_id
 _symmetry_equiv_pos_as_xyz
  1  'x, y, z'
loop_
 _atom_site_type_symbol
 _atom_site_label
 _atom_site_symmetry_multiplicity
 _atom_site_fract_x
 _atom_site_fract_y
 _atom_site_fract_z
 _atom_site_occupancy
  Ce  Ce0  1  0.588336  0.588664  0.750000  1
  Ce  Ce1  1  0.000328  0.411664  0.750000  1
  Ce  Ce2  1  0.411336  0.999672  0.750000  1
  Dy  Dy3  1  0.407796  0.000241  0.250000  1
  Dy  Dy4  1  0.592445  0.592204  0.250000  1
  Dy  Dy5  1  0.999759  0.407555  0.250000  1
  Sn  Sn6  1  0.255496  0.255456  0.496688  1
  Sn  Sn7  1  0.255496  0.255456  0.003312  1
  Sn  Sn8  1  0.744544  0.000041  0.003312  1
  Sn  Sn9  1  0.999959  0.744504  0.496688  1
  Sn  Sn10  1  0.744544  0.000041  0.496688  1
  Sn  Sn11  1  0.999959  0.744504  0.003312  1
  Ir  Ir12  1  0.666667  0.333333  0.504473  1
  Ir  Ir13  1  0.666667  0.333333  0.995527  1
  Ir  Ir14  1  0.333333  0.666667  0.996404  1
  Ir  Ir15  1  0.333333  0.666667  0.503596  1
  Ir  Ir16  1  0.000000  0.000000  0.750000  1
  Ir  Ir17  1  0.000000  0.000000  0.250000  1
