# generated using pymatgen
data_Ca6Sb7Pd16Au
_symmetry_space_group_name_H-M   'P 1'
_cell_length_a   9.40559457
_cell_length_b   9.40559398
_cell_length_c   9.40559400
_cell_angle_alpha   59.99999992
_cell_angle_beta   60.00000201
_cell_angle_gamma   59.99999519
_symmetry_Int_Tables_number   1
_chemical_formula_structural   Ca6Sb7Pd16Au
_chemical_formula_sum   'Ca6 Sb7 Pd16 Au1'
_cell_volume   588.36076277
_cell_formula_units_Z   1
loop_
 _symmetry_equiv_pos_site_id
 _symmetry_equiv_pos_as_xyz
  1  'x, y, z'
loop_
 _atom_site_type_symbol
 _atom_site_label
 _atom_site_symmetry_multiplicity
 _atom_site_fract_x
 _atom_site_fract_y
 _atom_site_fract_z
 _atom_site_occupancy
  Ca  Ca0  1  0.721678  0.278322  0.278322  1
  Ca  Ca1  1  0.278322  0.721678  0.721678  1
  Ca  Ca2  1  0.278322  0.721678  0.278322  1
  Ca  Ca3  1  0.721678  0.278322  0.721678  1
  Ca  Ca4  1  0.278322  0.278322  0.721678  1
  Ca  Ca5  1  0.721678  0.721678  0.278322  1
  Sb  Sb6  1  0.000000  0.000000  0.000000  1
  Sb  Sb7  1  0.500000  0.000000  0.000000  1
  Sb  Sb8  1  0.000000  0.500000  0.500000  1
  Sb  Sb9  1  0.000000  0.500000  0.000000  1
  Sb  Sb10  1  0.500000  0.000000  0.500000  1
  Sb  Sb11  1  0.000000  0.000000  0.500000  1
  Sb  Sb12  1  0.500000  0.500000  0.000000  1
  Pd  Pd13  1  0.119572  0.119572  0.119572  1
  Pd  Pd14  1  0.880428  0.880428  0.880428  1
  Pd  Pd15  1  0.119572  0.119572  0.641283  1
  Pd  Pd16  1  0.119572  0.641283  0.119572  1
  Pd  Pd17  1  0.880428  0.880428  0.358717  1
  Pd  Pd18  1  0.880428  0.358717  0.880428  1
  Pd  Pd19  1  0.641283  0.119572  0.119572  1
  Pd  Pd20  1  0.358717  0.880428  0.880428  1
  Pd  Pd21  1  0.331760  0.331760  0.331760  1
  Pd  Pd22  1  0.668240  0.668240  0.668240  1
  Pd  Pd23  1  0.331760  0.331760  0.004720  1
  Pd  Pd24  1  0.331760  0.004720  0.331760  1
  Pd  Pd25  1  0.668240  0.668240  0.995280  1
  Pd  Pd26  1  0.668240  0.995280  0.668240  1
  Pd  Pd27  1  0.004720  0.331760  0.331760  1
  Pd  Pd28  1  0.995280  0.668240  0.668240  1
  Au  Au29  1  0.500000  0.500000  0.500000  1
