# generated using pymatgen
data_Tb2VFe11P7
_symmetry_space_group_name_H-M   'P 1'
_cell_length_a   9.03581950
_cell_length_b   9.06926143
_cell_length_c   3.64100300
_cell_angle_alpha   90.00000000
_cell_angle_beta   90.00000000
_cell_angle_gamma   120.44484527
_symmetry_Int_Tables_number   1
_chemical_formula_structural   Tb2VFe11P7
_chemical_formula_sum   'Tb2 V1 Fe11 P7'
_cell_volume   257.23311789
_cell_formula_units_Z   1
loop_
 _symmetry_equiv_pos_site_id
 _symmetry_equiv_pos_as_xyz
  1  'x, y, z'
loop_
 _atom_site_type_symbol
 _atom_site_label
 _atom_site_symmetry_multiplicity
 _atom_site_fract_x
 _atom_site_fract_y
 _atom_site_fract_z
 _atom_site_occupancy
  Tb  Tb0  1  0.670631  0.331532  0.000000  1
  Tb  Tb1  1  0.332403  0.668587  0.500000  1
  V  V2  1  0.111095  0.215095  0.500000  1
  Fe  Fe3  1  0.055257  0.630983  0.000000  1
  Fe  Fe4  1  0.573031  0.945366  0.000000  1
  Fe  Fe5  1  0.380621  0.430974  0.000000  1
  Fe  Fe6  1  0.274331  0.118804  0.000000  1
  Fe  Fe7  1  0.841965  0.722779  0.000000  1
  Fe  Fe8  1  0.880213  0.150451  0.000000  1
  Fe  Fe9  1  0.432847  0.047324  0.500000  1
  Fe  Fe10  1  0.612651  0.567096  0.500000  1
  Fe  Fe11  1  0.951464  0.384188  0.500000  1
  Fe  Fe12  1  0.094367  0.880774  0.500000  1
  Fe  Fe13  1  0.781665  0.902646  0.500000  1
  P  P14  1  0.296807  0.888278  0.000000  1
  P  P15  1  0.594673  0.713198  0.000000  1
  P  P16  1  0.108579  0.412680  0.000000  1
  P  P17  1  0.406941  0.283482  0.500000  1
  P  P18  1  0.891552  0.600428  0.500000  1
  P  P19  1  0.711794  0.111152  0.500000  1
  P  P20  1  0.997111  0.994182  0.000000  1
