# generated using pymatgen
data_Lu12TlSi4Hg
_symmetry_space_group_name_H-M   'P 1'
_cell_length_a   8.32563402
_cell_length_b   8.32563408
_cell_length_c   8.32563400
_cell_angle_alpha   112.59282745
_cell_angle_beta   111.35739031
_cell_angle_gamma   104.57434358
_symmetry_Int_Tables_number   1
_chemical_formula_structural   Lu12TlSi4Hg
_chemical_formula_sum   'Lu12 Tl1 Si4 Hg1'
_cell_volume   441.79012707
_cell_formula_units_Z   1
loop_
 _symmetry_equiv_pos_site_id
 _symmetry_equiv_pos_as_xyz
  1  'x, y, z'
loop_
 _atom_site_type_symbol
 _atom_site_label
 _atom_site_symmetry_multiplicity
 _atom_site_fract_x
 _atom_site_fract_y
 _atom_site_fract_z
 _atom_site_occupancy
  Lu  Lu0  1  0.440118  0.237421  0.202698  1
  Lu  Lu1  1  0.559882  0.762579  0.797302  1
  Lu  Lu2  1  0.034725  0.237421  0.797302  1
  Lu  Lu3  1  0.965275  0.762579  0.202698  1
  Lu  Lu4  1  0.185952  0.277622  0.463573  1
  Lu  Lu5  1  0.814048  0.722378  0.536427  1
  Lu  Lu6  1  0.185952  0.722378  0.908331  1
  Lu  Lu7  1  0.814048  0.277622  0.091669  1
  Lu  Lu8  1  0.321004  0.617613  0.296610  1
  Lu  Lu9  1  0.678996  0.382387  0.703390  1
  Lu  Lu10  1  0.321004  0.024393  0.703390  1
  Lu  Lu11  1  0.678996  0.975607  0.296610  1
  Tl  Tl12  1  0.500000  0.500000  0.000000  1
  Si  Si13  1  0.365060  0.000000  0.365060  1
  Si  Si14  1  0.634940  0.000000  0.634940  1
  Si  Si15  1  0.118045  0.618045  0.500000  1
  Si  Si16  1  0.881955  0.381955  0.500000  1
  Hg  Hg17  1  0.000000  0.000000  0.000000  1
