# generated using pymatgen
data_Ca21Ga8Si6I
_symmetry_space_group_name_H-M   'P 1'
_cell_length_a   11.17132317
_cell_length_b   11.17132378
_cell_length_c   11.17132400
_cell_angle_alpha   60.00000527
_cell_angle_beta   60.00000347
_cell_angle_gamma   60.00000069
_symmetry_Int_Tables_number   1
_chemical_formula_structural   Ca21Ga8Si6I
_chemical_formula_sum   'Ca21 Ga8 Si6 I1'
_cell_volume   985.82297562
_cell_formula_units_Z   1
loop_
 _symmetry_equiv_pos_site_id
 _symmetry_equiv_pos_as_xyz
  1  'x, y, z'
loop_
 _atom_site_type_symbol
 _atom_site_label
 _atom_site_symmetry_multiplicity
 _atom_site_fract_x
 _atom_site_fract_y
 _atom_site_fract_z
 _atom_site_occupancy
  Ca  Ca0  1  0.874059  0.874059  0.377822  1
  Ca  Ca1  1  0.622178  0.125941  0.125941  1
  Ca  Ca2  1  0.874059  0.377822  0.874059  1
  Ca  Ca3  1  0.125941  0.125941  0.125941  1
  Ca  Ca4  1  0.377822  0.874059  0.874059  1
  Ca  Ca5  1  0.874059  0.874059  0.874059  1
  Ca  Ca6  1  0.169230  0.830770  0.500000  1
  Ca  Ca7  1  0.830770  0.500000  0.500000  1
  Ca  Ca8  1  0.125941  0.125941  0.622178  1
  Ca  Ca9  1  0.830770  0.169230  0.500000  1
  Ca  Ca10  1  0.169230  0.500000  0.500000  1
  Ca  Ca11  1  0.125941  0.622178  0.125941  1
  Ca  Ca12  1  0.500000  0.500000  0.169230  1
  Ca  Ca13  1  0.500000  0.169230  0.830770  1
  Ca  Ca14  1  0.500000  0.830770  0.169230  1
  Ca  Ca15  1  0.500000  0.500000  0.830770  1
  Ca  Ca16  1  0.500000  0.169230  0.500000  1
  Ca  Ca17  1  0.169230  0.500000  0.830770  1
  Ca  Ca18  1  0.000000  0.000000  0.000000  1
  Ca  Ca19  1  0.500000  0.830770  0.500000  1
  Ca  Ca20  1  0.830770  0.500000  0.169230  1
  Ga  Ga21  1  0.690438  0.928687  0.690438  1
  Ga  Ga22  1  0.690438  0.690438  0.928687  1
  Ga  Ga23  1  0.690438  0.690438  0.690438  1
  Ga  Ga24  1  0.309562  0.071313  0.309562  1
  Ga  Ga25  1  0.928687  0.690438  0.690438  1
  Ga  Ga26  1  0.309562  0.309562  0.071313  1
  Ga  Ga27  1  0.071313  0.309562  0.309562  1
  Ga  Ga28  1  0.309562  0.309562  0.309562  1
  Si  Si29  1  0.784090  0.215910  0.784090  1
  Si  Si30  1  0.784090  0.215910  0.215910  1
  Si  Si31  1  0.215910  0.784090  0.215910  1
  Si  Si32  1  0.215910  0.784090  0.784090  1
  Si  Si33  1  0.784090  0.784090  0.215910  1
  Si  Si34  1  0.215910  0.215910  0.784090  1
  I  I35  1  0.500000  0.500000  0.500000  1
