# generated using pymatgen
data_Tb7Y3(In3S)2
_symmetry_space_group_name_H-M   'P 1'
_cell_length_a   9.22120500
_cell_length_b   9.22120544
_cell_length_c   6.58733300
_cell_angle_alpha   90.00000000
_cell_angle_beta   90.00000000
_cell_angle_gamma   120.00000202
_symmetry_Int_Tables_number   1
_chemical_formula_structural   Tb7Y3(In3S)2
_chemical_formula_sum   'Tb7 Y3 In6 S2'
_cell_volume   485.08250978
_cell_formula_units_Z   1
loop_
 _symmetry_equiv_pos_site_id
 _symmetry_equiv_pos_as_xyz
  1  'x, y, z'
loop_
 _atom_site_type_symbol
 _atom_site_label
 _atom_site_symmetry_multiplicity
 _atom_site_fract_x
 _atom_site_fract_y
 _atom_site_fract_z
 _atom_site_occupancy
  Tb  Tb0  1  0.666667  0.333333  0.000000  1
  Tb  Tb1  1  0.756888  0.756933  0.250023  1
  Tb  Tb2  1  0.243067  0.999956  0.250023  1
  Tb  Tb3  1  0.000044  0.243112  0.250023  1
  Tb  Tb4  1  0.243067  0.243112  0.749977  1
  Tb  Tb5  1  0.756888  0.999956  0.749977  1
  Tb  Tb6  1  0.000044  0.756933  0.749977  1
  Y  Y7  1  0.666667  0.333333  0.500000  1
  Y  Y8  1  0.333333  0.666667  0.500000  1
  Y  Y9  1  0.333333  0.666667  0.000000  1
  In  In10  1  0.399353  0.399729  0.249971  1
  In  In11  1  0.600271  0.999624  0.249971  1
  In  In12  1  0.000376  0.600647  0.249971  1
  In  In13  1  0.600271  0.600647  0.750029  1
  In  In14  1  0.399353  0.999624  0.750029  1
  In  In15  1  0.000376  0.399729  0.750029  1
  S  S16  1  0.000000  0.000000  0.500000  1
  S  S17  1  0.000000  0.000000  0.000000  1
