# generated using pymatgen
data_MgTa8NiS16
_symmetry_space_group_name_H-M   'P 1'
_cell_length_a   6.66202200
_cell_length_b   6.66202311
_cell_length_c   12.54219600
_cell_angle_alpha   90.00000000
_cell_angle_beta   90.00000000
_cell_angle_gamma   120.00000441
_symmetry_Int_Tables_number   1
_chemical_formula_structural   MgTa8NiS16
_chemical_formula_sum   'Mg1 Ta8 Ni1 S16'
_cell_volume   482.07697961
_cell_formula_units_Z   1
loop_
 _symmetry_equiv_pos_site_id
 _symmetry_equiv_pos_as_xyz
  1  'x, y, z'
loop_
 _atom_site_type_symbol
 _atom_site_label
 _atom_site_symmetry_multiplicity
 _atom_site_fract_x
 _atom_site_fract_y
 _atom_site_fract_z
 _atom_site_occupancy
  Mg  Mg0  1  0.000000  0.000000  0.000000  1
  Ta  Ta1  1  0.000000  0.000000  0.263500  1
  Ta  Ta2  1  0.000000  0.000000  0.736500  1
  Ta  Ta3  1  0.504522  0.009045  0.262916  1
  Ta  Ta4  1  0.495478  0.990955  0.737084  1
  Ta  Ta5  1  0.990955  0.495478  0.262916  1
  Ta  Ta6  1  0.009045  0.504522  0.737084  1
  Ta  Ta7  1  0.504522  0.495478  0.262916  1
  Ta  Ta8  1  0.495478  0.504522  0.737084  1
  Ni  Ni9  1  0.000000  0.000000  0.500000  1
  S  S10  1  0.333333  0.666667  0.611077  1
  S  S11  1  0.666667  0.333333  0.388923  1
  S  S12  1  0.666667  0.333333  0.134689  1
  S  S13  1  0.333333  0.666667  0.865311  1
  S  S14  1  0.167270  0.334539  0.137686  1
  S  S15  1  0.832730  0.665461  0.862314  1
  S  S16  1  0.665461  0.832730  0.137686  1
  S  S17  1  0.831935  0.663868  0.613873  1
  S  S18  1  0.334539  0.167270  0.862314  1
  S  S19  1  0.168065  0.336132  0.386127  1
  S  S20  1  0.167270  0.832730  0.137686  1
  S  S21  1  0.336132  0.168065  0.613873  1
  S  S22  1  0.832730  0.167270  0.862314  1
  S  S23  1  0.663868  0.831935  0.386127  1
  S  S24  1  0.831935  0.168065  0.613873  1
  S  S25  1  0.168065  0.831935  0.386127  1
