# generated using pymatgen
data_ScAlGa(Ni10B3)2
_symmetry_space_group_name_H-M   'P 1'
_cell_length_a   7.45015519
_cell_length_b   7.45015564
_cell_length_c   7.45015600
_cell_angle_alpha   60.00000729
_cell_angle_beta   60.00000528
_cell_angle_gamma   60.00000297
_symmetry_Int_Tables_number   1
_chemical_formula_structural   ScAlGa(Ni10B3)2
_chemical_formula_sum   'Sc1 Al1 Ga1 Ni20 B6'
_cell_volume   292.40250233
_cell_formula_units_Z   1
loop_
 _symmetry_equiv_pos_site_id
 _symmetry_equiv_pos_as_xyz
  1  'x, y, z'
loop_
 _atom_site_type_symbol
 _atom_site_label
 _atom_site_symmetry_multiplicity
 _atom_site_fract_x
 _atom_site_fract_y
 _atom_site_fract_z
 _atom_site_occupancy
  Sc  Sc0  1  0.250000  0.250000  0.250000  1
  Al  Al1  1  0.000000  0.000000  0.000000  1
  Ga  Ga2  1  0.750000  0.750000  0.750000  1
  Ni  Ni3  1  0.337507  0.000332  0.000332  1
  Ni  Ni4  1  0.000332  0.337507  0.661829  1
  Ni  Ni5  1  0.661829  0.000332  0.000332  1
  Ni  Ni6  1  0.000332  0.661829  0.337507  1
  Ni  Ni7  1  0.000332  0.337507  0.000332  1
  Ni  Ni8  1  0.000332  0.000332  0.337507  1
  Ni  Ni9  1  0.337507  0.000332  0.661829  1
  Ni  Ni10  1  0.337507  0.661829  0.000332  1
  Ni  Ni11  1  0.661829  0.000332  0.337507  1
  Ni  Ni12  1  0.000332  0.000332  0.661829  1
  Ni  Ni13  1  0.000332  0.661829  0.000332  1
  Ni  Ni14  1  0.661829  0.337507  0.000332  1
  Ni  Ni15  1  0.387772  0.387772  0.387772  1
  Ni  Ni16  1  0.387772  0.387772  0.836683  1
  Ni  Ni17  1  0.836683  0.387772  0.387772  1
  Ni  Ni18  1  0.387772  0.836683  0.387772  1
  Ni  Ni19  1  0.619539  0.619539  0.619539  1
  Ni  Ni20  1  0.619539  0.619539  0.141384  1
  Ni  Ni21  1  0.619539  0.141384  0.619539  1
  Ni  Ni22  1  0.141384  0.619539  0.619539  1
  B  B23  1  0.727365  0.727365  0.272635  1
  B  B24  1  0.272635  0.272635  0.727365  1
  B  B25  1  0.272635  0.727365  0.727365  1
  B  B26  1  0.727365  0.272635  0.727365  1
  B  B27  1  0.727365  0.272635  0.272635  1
  B  B28  1  0.272635  0.727365  0.272635  1
