# generated using pymatgen
data_MgBe4Pt5
_symmetry_space_group_name_H-M   'P 1'
_cell_length_a   2.83654600
_cell_length_b   2.83654600
_cell_length_c   15.46310300
_cell_angle_alpha   90.00000000
_cell_angle_beta   90.00000000
_cell_angle_gamma   90.00000000
_symmetry_Int_Tables_number   1
_chemical_formula_structural   MgBe4Pt5
_chemical_formula_sum   'Mg1 Be4 Pt5'
_cell_volume   124.41602175
_cell_formula_units_Z   1
loop_
 _symmetry_equiv_pos_site_id
 _symmetry_equiv_pos_as_xyz
  1  'x, y, z'
loop_
 _atom_site_type_symbol
 _atom_site_label
 _atom_site_symmetry_multiplicity
 _atom_site_fract_x
 _atom_site_fract_y
 _atom_site_fract_z
 _atom_site_occupancy
  Mg  Mg0  1  0.000000  0.000000  0.000000  1
  Be  Be1  1  0.000000  0.000000  0.213858  1
  Be  Be2  1  0.000000  0.000000  0.404617  1
  Be  Be3  1  0.000000  0.000000  0.595383  1
  Be  Be4  1  0.000000  0.000000  0.786142  1
  Pt  Pt5  1  0.500000  0.500000  0.128597  1
  Pt  Pt6  1  0.500000  0.500000  0.315420  1
  Pt  Pt7  1  0.500000  0.500000  0.500000  1
  Pt  Pt8  1  0.500000  0.500000  0.684580  1
  Pt  Pt9  1  0.500000  0.500000  0.871403  1
