# generated using pymatgen
data_ZnGe2Mo12Rh5N4
_symmetry_space_group_name_H-M   'P 1'
_cell_length_a   6.83963094
_cell_length_b   6.83207784
_cell_length_c   6.83850919
_cell_angle_alpha   89.68338779
_cell_angle_beta   89.74862913
_cell_angle_gamma   90.22511872
_symmetry_Int_Tables_number   1
_chemical_formula_structural   ZnGe2Mo12Rh5N4
_chemical_formula_sum   'Zn1 Ge2 Mo12 Rh5 N4'
_cell_volume   319.54549865
_cell_formula_units_Z   1
loop_
 _symmetry_equiv_pos_site_id
 _symmetry_equiv_pos_as_xyz
  1  'x, y, z'
loop_
 _atom_site_type_symbol
 _atom_site_label
 _atom_site_symmetry_multiplicity
 _atom_site_fract_x
 _atom_site_fract_y
 _atom_site_fract_z
 _atom_site_occupancy
  Zn  Zn0  1  0.818648  0.684511  0.570660  1
  Ge  Ge1  1  0.685126  0.178332  0.931991  1
  Ge  Ge2  1  0.182915  0.822223  0.063807  1
  Mo  Mo3  1  0.619753  0.046097  0.542573  1
  Mo  Mo4  1  0.121368  0.961067  0.451422  1
  Mo  Mo5  1  0.869884  0.534589  0.946170  1
  Mo  Mo6  1  0.368278  0.463778  0.056910  1
  Mo  Mo7  1  0.204957  0.619641  0.699375  1
  Mo  Mo8  1  0.301040  0.126488  0.784030  1
  Mo  Mo9  1  0.801905  0.871529  0.215298  1
  Mo  Mo10  1  0.695487  0.373012  0.293416  1
  Mo  Mo11  1  0.047338  0.207169  0.130431  1
  Mo  Mo12  1  0.963592  0.301444  0.624688  1
  Mo  Mo13  1  0.539184  0.798477  0.873342  1
  Mo  Mo14  1  0.461390  0.693759  0.380430  1
  Rh  Rh15  1  0.313309  0.314256  0.434255  1
  Rh  Rh16  1  0.061848  0.573025  0.306646  1
  Rh  Rh17  1  0.437827  0.060545  0.176346  1
  Rh  Rh18  1  0.567449  0.433431  0.694744  1
  Rh  Rh19  1  0.932579  0.933477  0.825152  1
  N  N20  1  0.373371  0.873015  0.619696  1
  N  N21  1  0.874289  0.130022  0.378477  1
  N  N22  1  0.130400  0.374219  0.876181  1
  N  N23  1  0.628063  0.625894  0.123960  1
