# generated using pymatgen
data_YEr9(Tl3Ir)2
_symmetry_space_group_name_H-M   'P 1'
_cell_length_a   9.16385700
_cell_length_b   9.16385765
_cell_length_c   6.80826100
_cell_angle_alpha   90.00000000
_cell_angle_beta   90.00000000
_cell_angle_gamma   119.99999404
_symmetry_Int_Tables_number   1
_chemical_formula_structural   YEr9(Tl3Ir)2
_chemical_formula_sum   'Y1 Er9 Tl6 Ir2'
_cell_volume   495.13484650
_cell_formula_units_Z   1
loop_
 _symmetry_equiv_pos_site_id
 _symmetry_equiv_pos_as_xyz
  1  'x, y, z'
loop_
 _atom_site_type_symbol
 _atom_site_label
 _atom_site_symmetry_multiplicity
 _atom_site_fract_x
 _atom_site_fract_y
 _atom_site_fract_z
 _atom_site_occupancy
  Y  Y0  1  0.333333  0.666667  0.500000  1
  Er  Er1  1  0.999778  0.763299  0.750075  1
  Er  Er2  1  0.236701  0.000222  0.249925  1
  Er  Er3  1  0.763521  0.000222  0.750075  1
  Er  Er4  1  0.999778  0.236479  0.249925  1
  Er  Er5  1  0.666667  0.333333  0.500000  1
  Er  Er6  1  0.763521  0.763299  0.249925  1
  Er  Er7  1  0.236701  0.236479  0.750075  1
  Er  Er8  1  0.333333  0.666667  0.000000  1
  Er  Er9  1  0.666667  0.333333  0.000000  1
  Tl  Tl10  1  0.406253  0.405737  0.249583  1
  Tl  Tl11  1  0.999484  0.405737  0.750417  1
  Tl  Tl12  1  0.999484  0.593747  0.249583  1
  Tl  Tl13  1  0.594263  0.000516  0.249583  1
  Tl  Tl14  1  0.406253  0.000516  0.750417  1
  Tl  Tl15  1  0.594263  0.593747  0.750417  1
  Ir  Ir16  1  0.000000  0.000000  0.000000  1
  Ir  Ir17  1  0.000000  0.000000  0.500000  1
