# generated using pymatgen
data_ErTm3InPt11
_symmetry_space_group_name_H-M   'P 1'
_cell_length_a   4.16498000
_cell_length_b   5.80952921
_cell_length_c   11.61356825
_cell_angle_alpha   87.91318716
_cell_angle_beta   90.00000000
_cell_angle_gamma   90.00000000
_symmetry_Int_Tables_number   1
_chemical_formula_structural   ErTm3InPt11
_chemical_formula_sum   'Er1 Tm3 In1 Pt11'
_cell_volume   280.82218716
_cell_formula_units_Z   1
loop_
 _symmetry_equiv_pos_site_id
 _symmetry_equiv_pos_as_xyz
  1  'x, y, z'
loop_
 _atom_site_type_symbol
 _atom_site_label
 _atom_site_symmetry_multiplicity
 _atom_site_fract_x
 _atom_site_fract_y
 _atom_site_fract_z
 _atom_site_occupancy
  Er  Er0  1  0.500000  0.753948  0.375890  1
  Tm  Tm1  1  0.500000  0.719657  0.862251  1
  Tm  Tm2  1  0.500000  0.280366  0.137708  1
  Tm  Tm3  1  0.500000  0.245954  0.624116  1
  In  In4  1  0.000000  0.000031  0.999956  1
  Pt  Pt5  1  0.000000  0.013352  0.249340  1
  Pt  Pt6  1  0.000000  0.987090  0.750473  1
  Pt  Pt7  1  0.000000  0.499963  0.999937  1
  Pt  Pt8  1  0.000000  0.499639  0.500270  1
  Pt  Pt9  1  0.000000  0.514761  0.249906  1
  Pt  Pt10  1  0.000000  0.484892  0.749918  1
  Pt  Pt11  1  0.500000  0.252532  0.377694  1
  Pt  Pt12  1  0.500000  0.230983  0.879866  1
  Pt  Pt13  1  0.500000  0.769068  0.119841  1
  Pt  Pt14  1  0.500000  0.747482  0.622603  1
  Pt  Pt15  1  0.000000  0.000282  0.500232  1
