# generated using pymatgen
data_DyGa2Ni2Ru
_symmetry_space_group_name_H-M   'P 1'
_cell_length_a   9.13256600
_cell_length_b   9.13256586
_cell_length_c   3.92054500
_cell_angle_alpha   90.00000000
_cell_angle_beta   90.00000000
_cell_angle_gamma   120.00000049
_symmetry_Int_Tables_number   1
_chemical_formula_structural   DyGa2Ni2Ru
_chemical_formula_sum   'Dy3 Ga6 Ni6 Ru3'
_cell_volume   283.18008323
_cell_formula_units_Z   3
loop_
 _symmetry_equiv_pos_site_id
 _symmetry_equiv_pos_as_xyz
  1  'x, y, z'
loop_
 _atom_site_type_symbol
 _atom_site_label
 _atom_site_symmetry_multiplicity
 _atom_site_fract_x
 _atom_site_fract_y
 _atom_site_fract_z
 _atom_site_occupancy
  Dy  Dy0  1  0.000000  0.000000  0.000000  1
  Dy  Dy1  1  0.333333  0.666667  0.500000  1
  Dy  Dy2  1  0.666667  0.333333  0.500000  1
  Ga  Ga3  1  0.313208  0.313208  0.500000  1
  Ga  Ga4  1  0.686792  0.000000  0.500000  1
  Ga  Ga5  1  0.686792  0.686792  0.500000  1
  Ga  Ga6  1  0.000000  0.313208  0.500000  1
  Ga  Ga7  1  0.000000  0.686792  0.500000  1
  Ga  Ga8  1  0.313208  0.000000  0.500000  1
  Ni  Ni9  1  0.175802  0.351604  0.000000  1
  Ni  Ni10  1  0.824198  0.648396  0.000000  1
  Ni  Ni11  1  0.175802  0.824198  0.000000  1
  Ni  Ni12  1  0.648396  0.824198  0.000000  1
  Ni  Ni13  1  0.351604  0.175802  0.000000  1
  Ni  Ni14  1  0.824198  0.175802  0.000000  1
  Ru  Ru15  1  0.500000  0.000000  0.000000  1
  Ru  Ru16  1  0.000000  0.500000  0.000000  1
  Ru  Ru17  1  0.500000  0.500000  0.000000  1
