# generated using pymatgen
data_Ho4GaMoRu6
_symmetry_space_group_name_H-M   'P 1'
_cell_length_a   5.54584299
_cell_length_b   5.19359307
_cell_length_c   8.94058600
_cell_angle_alpha   90.00000000
_cell_angle_beta   90.00000000
_cell_angle_gamma   122.22635570
_symmetry_Int_Tables_number   1
_chemical_formula_structural   Ho4GaMoRu6
_chemical_formula_sum   'Ho4 Ga1 Mo1 Ru6'
_cell_volume   217.84375788
_cell_formula_units_Z   1
loop_
 _symmetry_equiv_pos_site_id
 _symmetry_equiv_pos_as_xyz
  1  'x, y, z'
loop_
 _atom_site_type_symbol
 _atom_site_label
 _atom_site_symmetry_multiplicity
 _atom_site_fract_x
 _atom_site_fract_y
 _atom_site_fract_z
 _atom_site_occupancy
  Ho  Ho0  1  0.674628  0.349413  0.564901  1
  Ho  Ho1  1  0.332535  0.664942  0.433078  1
  Ho  Ho2  1  0.332535  0.664942  0.066922  1
  Ho  Ho3  1  0.674628  0.349413  0.935099  1
  Ga  Ga4  1  0.832830  0.665561  0.250000  1
  Mo  Mo5  1  0.152605  0.305567  0.750000  1
  Ru  Ru6  1  0.011697  0.022735  0.498391  1
  Ru  Ru7  1  0.011697  0.022735  0.001609  1
  Ru  Ru8  1  0.175062  0.817312  0.750000  1
  Ru  Ru9  1  0.641106  0.816524  0.750000  1
  Ru  Ru10  1  0.817631  0.160601  0.250000  1
  Ru  Ru11  1  0.343045  0.160257  0.250000  1
