# generated using pymatgen
data_TbSmYGa8Ag3
_symmetry_space_group_name_H-M   'P 1'
_cell_length_a   4.35930921
_cell_length_b   8.39699098
_cell_length_c   8.39699156
_cell_angle_alpha   69.42135585
_cell_angle_beta   74.95510208
_cell_angle_gamma   74.95511784
_symmetry_Int_Tables_number   1
_chemical_formula_structural   TbSmYGa8Ag3
_chemical_formula_sum   'Tb1 Sm1 Y1 Ga8 Ag3'
_cell_volume   273.03621375
_cell_formula_units_Z   1
loop_
 _symmetry_equiv_pos_site_id
 _symmetry_equiv_pos_as_xyz
  1  'x, y, z'
loop_
 _atom_site_type_symbol
 _atom_site_label
 _atom_site_symmetry_multiplicity
 _atom_site_fract_x
 _atom_site_fract_y
 _atom_site_fract_z
 _atom_site_occupancy
  Tb  Tb0  1  0.300086  0.699914  0.699914  1
  Sm  Sm1  1  0.999899  0.000101  0.000101  1
  Y  Y2  1  0.699920  0.300080  0.300080  1
  Ga  Ga3  1  0.340319  0.291528  0.027834  1
  Ga  Ga4  1  0.659678  0.708510  0.972135  1
  Ga  Ga5  1  0.340319  0.027834  0.291528  1
  Ga  Ga6  1  0.659678  0.972135  0.708510  1
  Ga  Ga7  1  0.143297  0.574772  0.138635  1
  Ga  Ga8  1  0.856675  0.425413  0.861237  1
  Ga  Ga9  1  0.143297  0.138635  0.574772  1
  Ga  Ga10  1  0.856675  0.861237  0.425413  1
  Ag  Ag11  1  0.500037  0.305388  0.694537  1
  Ag  Ag12  1  0.500037  0.694537  0.305388  1
  Ag  Ag13  1  0.000083  0.499917  0.499917  1
