# generated using pymatgen
data_Ho2Er(InAu)3
_symmetry_space_group_name_H-M   'P 1'
_cell_length_a   7.75541704
_cell_length_b   7.75400721
_cell_length_c   3.96216000
_cell_angle_alpha   90.00000000
_cell_angle_beta   90.00000000
_cell_angle_gamma   119.99398966
_symmetry_Int_Tables_number   1
_chemical_formula_structural   Ho2Er(InAu)3
_chemical_formula_sum   'Ho2 Er1 In3 Au3'
_cell_volume   206.35751900
_cell_formula_units_Z   1
loop_
 _symmetry_equiv_pos_site_id
 _symmetry_equiv_pos_as_xyz
  1  'x, y, z'
loop_
 _atom_site_type_symbol
 _atom_site_label
 _atom_site_symmetry_multiplicity
 _atom_site_fract_x
 _atom_site_fract_y
 _atom_site_fract_z
 _atom_site_occupancy
  Ho  Ho0  1  0.597249  0.000418  0.500000  1
  Ho  Ho1  1  0.402751  0.403169  0.500000  1
  Er  Er2  1  0.000000  0.596845  0.500000  1
  In  In3  1  0.000000  0.261344  0.000000  1
  In  In4  1  0.738547  0.738513  0.000000  1
  In  In5  1  0.261453  0.999966  0.000000  1
  Au  Au6  1  0.667557  0.333902  0.000000  1
  Au  Au7  1  0.332443  0.666346  0.000000  1
  Au  Au8  1  0.000000  0.999498  0.500000  1
