# generated using pymatgen
data_CsRbHg3I8
_symmetry_space_group_name_H-M   'P 1'
_cell_length_a   11.80713196
_cell_length_b   11.96829819
_cell_length_c   8.21700013
_cell_angle_alpha   85.29637684
_cell_angle_beta   82.91514877
_cell_angle_gamma   142.76997270
_symmetry_Int_Tables_number   1
_chemical_formula_structural   CsRbHg3I8
_chemical_formula_sum   'Cs1 Rb1 Hg3 I8'
_cell_volume   665.01064208
_cell_formula_units_Z   1
loop_
 _symmetry_equiv_pos_site_id
 _symmetry_equiv_pos_as_xyz
  1  'x, y, z'
loop_
 _atom_site_type_symbol
 _atom_site_label
 _atom_site_symmetry_multiplicity
 _atom_site_fract_x
 _atom_site_fract_y
 _atom_site_fract_z
 _atom_site_occupancy
  Cs  Cs0  1  0.908182  0.636928  0.534615  1
  Rb  Rb1  1  0.664463  0.937075  0.530041  1
  Hg  Hg2  1  0.967146  0.973871  0.021773  1
  Hg  Hg3  1  0.942971  0.325188  0.913601  1
  Hg  Hg4  1  0.318971  0.931312  0.910340  1
  I  I5  1  0.646272  0.657106  0.302542  1
  I  I6  1  0.023743  0.026075  0.673808  1
  I  I7  1  0.532186  0.920312  0.031479  1
  I  I8  1  0.913862  0.524620  0.041622  1
  I  I9  1  0.101721  0.474835  0.558108  1
  I  I10  1  0.466354  0.078520  0.552706  1
  I  I11  1  0.310882  0.117549  0.090920  1
  I  I12  1  0.117631  0.310993  0.102796  1
