# generated using pymatgen
data_Y16InHg3Pd4
_symmetry_space_group_name_H-M   'P 1'
_cell_length_a   9.71774572
_cell_length_b   9.72050220
_cell_length_c   9.72050200
_cell_angle_alpha   60.00000068
_cell_angle_beta   59.99061702
_cell_angle_gamma   59.99061598
_symmetry_Int_Tables_number   1
_chemical_formula_structural   Y16InHg3Pd4
_chemical_formula_sum   'Y16 In1 Hg3 Pd4'
_cell_volume   649.18177760
_cell_formula_units_Z   1
loop_
 _symmetry_equiv_pos_site_id
 _symmetry_equiv_pos_as_xyz
  1  'x, y, z'
loop_
 _atom_site_type_symbol
 _atom_site_label
 _atom_site_symmetry_multiplicity
 _atom_site_fract_x
 _atom_site_fract_y
 _atom_site_fract_z
 _atom_site_occupancy
  Y  Y0  1  0.357932  0.355710  0.355710  1
  Y  Y1  1  0.357932  0.355710  0.930649  1
  Y  Y2  1  0.357932  0.930649  0.355710  1
  Y  Y3  1  0.923675  0.358775  0.358775  1
  Y  Y4  1  0.811747  0.188221  0.188221  1
  Y  Y5  1  0.188321  0.811299  0.811299  1
  Y  Y6  1  0.188321  0.811299  0.189082  1
  Y  Y7  1  0.811747  0.188221  0.811812  1
  Y  Y8  1  0.188321  0.189082  0.811299  1
  Y  Y9  1  0.811747  0.811812  0.188221  1
  Y  Y10  1  0.932856  0.565389  0.565389  1
  Y  Y11  1  0.564341  0.935079  0.935079  1
  Y  Y12  1  0.564341  0.935079  0.565502  1
  Y  Y13  1  0.932856  0.565389  0.936366  1
  Y  Y14  1  0.564341  0.565502  0.935079  1
  Y  Y15  1  0.932856  0.936366  0.565389  1
  In  In16  1  0.253751  0.582082  0.582082  1
  Hg  Hg17  1  0.587050  0.588886  0.588886  1
  Hg  Hg18  1  0.587050  0.588886  0.235178  1
  Hg  Hg19  1  0.587050  0.235178  0.588886  1
  Pd  Pd20  1  0.144565  0.146574  0.146574  1
  Pd  Pd21  1  0.144565  0.146574  0.562287  1
  Pd  Pd22  1  0.144565  0.562287  0.146574  1
  Pd  Pd23  1  0.562140  0.145953  0.145953  1
