# generated using pymatgen
data_Hf3Si2OsN
_symmetry_space_group_name_H-M   'P 1'
_cell_length_a   8.38922478
_cell_length_b   8.38922523
_cell_length_c   8.38922500
_cell_angle_alpha   60.00000486
_cell_angle_beta   60.00000307
_cell_angle_gamma   60.00000157
_symmetry_Int_Tables_number   1
_chemical_formula_structural   Hf3Si2OsN
_chemical_formula_sum   'Hf12 Si8 Os4 N4'
_cell_volume   417.49431018
_cell_formula_units_Z   4
loop_
 _symmetry_equiv_pos_site_id
 _symmetry_equiv_pos_as_xyz
  1  'x, y, z'
loop_
 _atom_site_type_symbol
 _atom_site_label
 _atom_site_symmetry_multiplicity
 _atom_site_fract_x
 _atom_site_fract_y
 _atom_site_fract_z
 _atom_site_occupancy
  Hf  Hf0  1  0.808722  0.808722  0.191278  1
  Hf  Hf1  1  0.191278  0.191278  0.808722  1
  Hf  Hf2  1  0.808722  0.191278  0.808722  1
  Hf  Hf3  1  0.191278  0.808722  0.191278  1
  Hf  Hf4  1  0.191278  0.808722  0.808722  1
  Hf  Hf5  1  0.808722  0.191278  0.191278  1
  Hf  Hf6  1  0.441278  0.441278  0.058722  1
  Hf  Hf7  1  0.058722  0.058722  0.441278  1
  Hf  Hf8  1  0.441278  0.058722  0.441278  1
  Hf  Hf9  1  0.058722  0.441278  0.058722  1
  Hf  Hf10  1  0.058722  0.441278  0.441278  1
  Hf  Hf11  1  0.441278  0.058722  0.058722  1
  Si  Si12  1  0.752996  0.415669  0.415669  1
  Si  Si13  1  0.415669  0.752996  0.415669  1
  Si  Si14  1  0.415669  0.415669  0.752996  1
  Si  Si15  1  0.415669  0.415669  0.415669  1
  Si  Si16  1  0.497004  0.834331  0.834331  1
  Si  Si17  1  0.834331  0.497004  0.834331  1
  Si  Si18  1  0.834331  0.834331  0.497004  1
  Si  Si19  1  0.834331  0.834331  0.834331  1
  Os  Os20  1  0.125000  0.625000  0.625000  1
  Os  Os21  1  0.625000  0.125000  0.625000  1
  Os  Os22  1  0.625000  0.625000  0.125000  1
  Os  Os23  1  0.625000  0.625000  0.625000  1
  N  N24  1  0.625000  0.125000  0.125000  1
  N  N25  1  0.125000  0.625000  0.125000  1
  N  N26  1  0.125000  0.125000  0.625000  1
  N  N27  1  0.125000  0.125000  0.125000  1
