# generated using pymatgen
data_MnFe2SiMo2
_symmetry_space_group_name_H-M   'P 1'
_cell_length_a   4.75258840
_cell_length_b   4.75258864
_cell_length_c   7.74148800
_cell_angle_alpha   90.00000000
_cell_angle_beta   90.00000000
_cell_angle_gamma   120.00115263
_symmetry_Int_Tables_number   1
_chemical_formula_structural   MnFe2SiMo2
_chemical_formula_sum   'Mn2 Fe4 Si2 Mo4'
_cell_volume   151.42949065
_cell_formula_units_Z   2
loop_
 _symmetry_equiv_pos_site_id
 _symmetry_equiv_pos_as_xyz
  1  'x, y, z'
loop_
 _atom_site_type_symbol
 _atom_site_label
 _atom_site_symmetry_multiplicity
 _atom_site_fract_x
 _atom_site_fract_y
 _atom_site_fract_z
 _atom_site_occupancy
  Mn  Mn0  1  0.167376  0.338836  0.500000  1
  Mn  Mn1  1  0.661164  0.832624  0.500000  1
  Fe  Fe2  1  0.999833  0.000167  0.250166  1
  Fe  Fe3  1  0.999833  0.000167  0.749834  1
  Fe  Fe4  1  0.832180  0.660292  0.000000  1
  Fe  Fe5  1  0.339708  0.167820  0.000000  1
  Si  Si6  1  0.831259  0.168741  0.000000  1
  Si  Si7  1  0.168314  0.831686  0.500000  1
  Mo  Mo8  1  0.334877  0.665123  0.188885  1
  Mo  Mo9  1  0.665351  0.334649  0.313364  1
  Mo  Mo10  1  0.665351  0.334649  0.686636  1
  Mo  Mo11  1  0.334877  0.665123  0.811115  1
