# generated using pymatgen
data_Tb3Th(Ga3Ir)6
_symmetry_space_group_name_H-M   'P 1'
_cell_length_a   7.62896951
_cell_length_b   7.63225661
_cell_length_c   9.50869400
_cell_angle_alpha   90.00000000
_cell_angle_beta   90.00000000
_cell_angle_gamma   119.69380039
_symmetry_Int_Tables_number   1
_chemical_formula_structural   Tb3Th(Ga3Ir)6
_chemical_formula_sum   'Tb3 Th1 Ga18 Ir6'
_cell_volume   480.95240030
_cell_formula_units_Z   1
loop_
 _symmetry_equiv_pos_site_id
 _symmetry_equiv_pos_as_xyz
  1  'x, y, z'
loop_
 _atom_site_type_symbol
 _atom_site_label
 _atom_site_symmetry_multiplicity
 _atom_site_fract_x
 _atom_site_fract_y
 _atom_site_fract_z
 _atom_site_occupancy
  Tb  Tb0  1  0.002100  0.330797  0.250000  1
  Tb  Tb1  1  0.669925  0.997041  0.750000  1
  Tb  Tb2  1  0.330534  0.001999  0.250000  1
  Th  Th3  1  0.997003  0.669095  0.750000  1
  Ga  Ga4  1  0.129448  0.131262  0.750000  1
  Ga  Ga5  1  0.873217  0.875081  0.250000  1
  Ga  Ga6  1  0.000159  0.329656  0.577471  1
  Ga  Ga7  1  0.000149  0.665136  0.414421  1
  Ga  Ga8  1  0.000149  0.665136  0.085579  1
  Ga  Ga9  1  0.340077  0.004748  0.922386  1
  Ga  Ga10  1  0.000159  0.329656  0.922529  1
  Ga  Ga11  1  0.665445  0.001096  0.081194  1
  Ga  Ga12  1  0.665445  0.001096  0.418806  1
  Ga  Ga13  1  0.340077  0.004748  0.577614  1
  Ga  Ga14  1  0.331340  0.331188  0.066751  1
  Ga  Ga15  1  0.663078  0.667806  0.939744  1
  Ga  Ga16  1  0.663078  0.667806  0.560256  1
  Ga  Ga17  1  0.331340  0.331188  0.433249  1
  Ga  Ga18  1  0.341808  0.546091  0.750000  1
  Ga  Ga19  1  0.659252  0.452126  0.250000  1
  Ga  Ga20  1  0.542174  0.336679  0.750000  1
  Ga  Ga21  1  0.452849  0.661338  0.250000  1
  Ir  Ir22  1  0.673859  0.331956  0.500997  1
  Ir  Ir23  1  0.326424  0.670603  0.500733  1
  Ir  Ir24  1  0.326424  0.670603  0.999267  1
  Ir  Ir25  1  0.673859  0.331956  0.999003  1
  Ir  Ir26  1  0.000318  0.997057  0.501175  1
  Ir  Ir27  1  0.000318  0.997057  0.998825  1
