# generated using pymatgen
data_Tl2HgP2O7
_symmetry_space_group_name_H-M   'P 1'
_cell_length_a   10.06426300
_cell_length_b   5.47822512
_cell_length_c   15.91657600
_cell_angle_alpha   87.81607714
_cell_angle_beta   90.00000000
_cell_angle_gamma   90.00000000
_symmetry_Int_Tables_number   1
_chemical_formula_structural   Tl2HgP2O7
_chemical_formula_sum   'Tl8 Hg4 P8 O28'
_cell_volume   876.91184070
_cell_formula_units_Z   4
loop_
 _symmetry_equiv_pos_site_id
 _symmetry_equiv_pos_as_xyz
  1  'x, y, z'
loop_
 _atom_site_type_symbol
 _atom_site_label
 _atom_site_symmetry_multiplicity
 _atom_site_fract_x
 _atom_site_fract_y
 _atom_site_fract_z
 _atom_site_occupancy
  Tl  Tl0  1  0.151229  0.221092  0.923836  1
  Tl  Tl1  1  0.651229  0.778908  0.576164  1
  Tl  Tl2  1  0.848771  0.778908  0.076164  1
  Tl  Tl3  1  0.348771  0.221092  0.423836  1
  Tl  Tl4  1  0.009902  0.229562  0.603061  1
  Tl  Tl5  1  0.509902  0.770438  0.896939  1
  Tl  Tl6  1  0.990098  0.770438  0.396939  1
  Tl  Tl7  1  0.490098  0.229562  0.103061  1
  Hg  Hg8  1  0.383542  0.240038  0.685720  1
  Hg  Hg9  1  0.883542  0.759962  0.814280  1
  Hg  Hg10  1  0.616458  0.759962  0.314280  1
  Hg  Hg11  1  0.116458  0.240038  0.185720  1
  P  P12  1  0.228234  0.738779  0.773925  1
  P  P13  1  0.728234  0.261221  0.726075  1
  P  P14  1  0.771766  0.261221  0.226075  1
  P  P15  1  0.271766  0.738779  0.273925  1
  P  P16  1  0.252353  0.747056  0.587234  1
  P  P17  1  0.752353  0.252944  0.912766  1
  P  P18  1  0.747647  0.252944  0.412766  1
  P  P19  1  0.247647  0.747056  0.087234  1
  O  O20  1  0.285582  0.475784  0.574857  1
  O  O21  1  0.785582  0.524216  0.925143  1
  O  O22  1  0.714418  0.524216  0.425143  1
  O  O23  1  0.214418  0.475784  0.074857  1
  O  O24  1  0.378206  0.904977  0.596364  1
  O  O25  1  0.878206  0.095023  0.903636  1
  O  O26  1  0.621794  0.095023  0.403636  1
  O  O27  1  0.121794  0.904977  0.096364  1
  O  O28  1  0.291557  0.988595  0.792131  1
  O  O29  1  0.791557  0.011405  0.707869  1
  O  O30  1  0.708443  0.011405  0.207869  1
  O  O31  1  0.208443  0.988595  0.292131  1
  O  O32  1  0.170537  0.755304  0.677918  1
  O  O33  1  0.670537  0.244696  0.822082  1
  O  O34  1  0.829463  0.244696  0.322082  1
  O  O35  1  0.329463  0.755304  0.177918  1
  O  O36  1  0.331566  0.533224  0.782201  1
  O  O37  1  0.831566  0.466776  0.717799  1
  O  O38  1  0.668434  0.466776  0.217799  1
  O  O39  1  0.168434  0.533224  0.282201  1
  O  O40  1  0.107085  0.688084  0.830556  1
  O  O41  1  0.607085  0.311916  0.669444  1
  O  O42  1  0.892915  0.311916  0.169444  1
  O  O43  1  0.392915  0.688084  0.330556  1
  O  O44  1  0.151974  0.849912  0.523557  1
  O  O45  1  0.651974  0.150088  0.976443  1
  O  O46  1  0.848026  0.150088  0.476443  1
  O  O47  1  0.348026  0.849912  0.023557  1
