# generated using pymatgen
data_HoEr11Ir3Pd
_symmetry_space_group_name_H-M   'P 1'
_cell_length_a   6.37563700
_cell_length_b   7.15670095
_cell_length_c   9.20809000
_cell_angle_alpha   90.00000000
_cell_angle_beta   90.00000000
_cell_angle_gamma   90.03168041
_symmetry_Int_Tables_number   1
_chemical_formula_structural   HoEr11Ir3Pd
_chemical_formula_sum   'Ho1 Er11 Ir3 Pd1'
_cell_volume   420.15152252
_cell_formula_units_Z   1
loop_
 _symmetry_equiv_pos_site_id
 _symmetry_equiv_pos_as_xyz
  1  'x, y, z'
loop_
 _atom_site_type_symbol
 _atom_site_label
 _atom_site_symmetry_multiplicity
 _atom_site_fract_x
 _atom_site_fract_y
 _atom_site_fract_z
 _atom_site_occupancy
  Ho  Ho0  1  0.865323  0.524898  0.250000  1
  Er  Er1  1  0.333614  0.675934  0.059130  1
  Er  Er2  1  0.174001  0.184404  0.440970  1
  Er  Er3  1  0.674456  0.319691  0.562946  1
  Er  Er4  1  0.823596  0.821206  0.935313  1
  Er  Er5  1  0.674456  0.319691  0.937054  1
  Er  Er6  1  0.823596  0.821206  0.564687  1
  Er  Er7  1  0.333614  0.675934  0.440870  1
  Er  Er8  1  0.174001  0.184404  0.059030  1
  Er  Er9  1  0.625233  0.036586  0.250000  1
  Er  Er10  1  0.127778  0.467549  0.750000  1
  Er  Er11  1  0.370445  0.966037  0.750000  1
  Ir  Ir12  1  0.450063  0.384580  0.250000  1
  Ir  Ir13  1  0.956500  0.115738  0.750000  1
  Ir  Ir14  1  0.542718  0.615210  0.750000  1
  Pd  Pd15  1  0.050604  0.886932  0.250000  1
