# generated using pymatgen
data_TbNp3(NbN2)4
_symmetry_space_group_name_H-M   'P 1'
_cell_length_a   3.28036000
_cell_length_b   5.69306112
_cell_length_c   10.94105838
_cell_angle_alpha   90.04481220
_cell_angle_beta   90.00000000
_cell_angle_gamma   90.00000000
_symmetry_Int_Tables_number   1
_chemical_formula_structural   TbNp3(NbN2)4
_chemical_formula_sum   'Tb1 Np3 Nb4 N8'
_cell_volume   204.32737535
_cell_formula_units_Z   1
loop_
 _symmetry_equiv_pos_site_id
 _symmetry_equiv_pos_as_xyz
  1  'x, y, z'
loop_
 _atom_site_type_symbol
 _atom_site_label
 _atom_site_symmetry_multiplicity
 _atom_site_fract_x
 _atom_site_fract_y
 _atom_site_fract_z
 _atom_site_occupancy
  Tb  Tb0  1  0.250000  0.579345  0.856160  1
  Np  Np1  1  0.750000  0.424986  0.139696  1
  Np  Np2  1  0.750000  0.923068  0.358860  1
  Np  Np3  1  0.250000  0.078128  0.641750  1
  Nb  Nb4  1  0.250000  0.922033  0.100824  1
  Nb  Nb5  1  0.750000  0.076811  0.901132  1
  Nb  Nb6  1  0.750000  0.578407  0.601529  1
  Nb  Nb7  1  0.250000  0.421639  0.399462  1
  N  N8  1  0.250000  0.656673  0.244366  1
  N  N9  1  0.750000  0.335276  0.752034  1
  N  N10  1  0.750000  0.844554  0.744015  1
  N  N11  1  0.250000  0.158082  0.256130  1
  N  N12  1  0.250000  0.762227  0.505341  1
  N  N13  1  0.750000  0.237317  0.494279  1
  N  N14  1  0.750000  0.739740  0.006847  1
  N  N15  1  0.250000  0.261714  0.997577  1
