# generated using pymatgen
data_Zr6Zn15Cu8N
_symmetry_space_group_name_H-M   'P 1'
_cell_length_a   8.39386896
_cell_length_b   8.39413614
_cell_length_c   8.39391700
_cell_angle_alpha   59.97047946
_cell_angle_beta   59.97082865
_cell_angle_gamma   59.96763902
_symmetry_Int_Tables_number   1
_chemical_formula_structural   Zr6Zn15Cu8N
_chemical_formula_sum   'Zr6 Zn15 Cu8 N1'
_cell_volume   417.91586036
_cell_formula_units_Z   1
loop_
 _symmetry_equiv_pos_site_id
 _symmetry_equiv_pos_as_xyz
  1  'x, y, z'
loop_
 _atom_site_type_symbol
 _atom_site_label
 _atom_site_symmetry_multiplicity
 _atom_site_fract_x
 _atom_site_fract_y
 _atom_site_fract_z
 _atom_site_occupancy
  Zr  Zr0  1  0.696005  0.306335  0.306299  1
  Zr  Zr1  1  0.307977  0.691996  0.692036  1
  Zr  Zr2  1  0.306310  0.695972  0.306335  1
  Zr  Zr3  1  0.692018  0.308017  0.691998  1
  Zr  Zr4  1  0.306300  0.306355  0.695976  1
  Zr  Zr5  1  0.692042  0.691977  0.307996  1
  Zn  Zn6  1  0.881567  0.881552  0.881575  1
  Zn  Zn7  1  0.118682  0.118659  0.643725  1
  Zn  Zn8  1  0.118653  0.643731  0.118663  1
  Zn  Zn9  1  0.882891  0.882872  0.354894  1
  Zn  Zn10  1  0.882894  0.354887  0.882889  1
  Zn  Zn11  1  0.643737  0.118651  0.118657  1
  Zn  Zn12  1  0.354915  0.882875  0.882864  1
  Zn  Zn13  1  0.332240  0.332248  0.332274  1
  Zn  Zn14  1  0.669241  0.669268  0.669298  1
  Zn  Zn15  1  0.328662  0.328668  0.009244  1
  Zn  Zn16  1  0.328655  0.009256  0.328671  1
  Zn  Zn17  1  0.668611  0.668619  0.992699  1
  Zn  Zn18  1  0.668624  0.992684  0.668634  1
  Zn  Zn19  1  0.009273  0.328666  0.328656  1
  Zn  Zn20  1  0.992697  0.668645  0.668627  1
  Cu  Cu21  1  0.119233  0.119254  0.119208  1
  Cu  Cu22  1  0.501432  0.999497  0.999432  1
  Cu  Cu23  1  0.999561  0.499488  0.499528  1
  Cu  Cu24  1  0.999296  0.501522  0.999482  1
  Cu  Cu25  1  0.499577  0.999576  0.499447  1
  Cu  Cu26  1  0.999408  0.999413  0.501485  1
  Cu  Cu27  1  0.499519  0.499478  0.999587  1
  Cu  Cu28  1  0.000720  0.000606  0.000582  1
  N  N29  1  0.499259  0.499236  0.499242  1
