# generated using pymatgen
data_DyNbB2Ru5W
_symmetry_space_group_name_H-M   'P 1'
_cell_length_a   9.55153006
_cell_length_b   9.55153039
_cell_length_c   3.05042300
_cell_angle_alpha   90.00000000
_cell_angle_beta   90.00000000
_cell_angle_gamma   90.62020557
_symmetry_Int_Tables_number   1
_chemical_formula_structural   DyNbB2Ru5W
_chemical_formula_sum   'Dy2 Nb2 B4 Ru10 W2'
_cell_volume   278.27906256
_cell_formula_units_Z   2
loop_
 _symmetry_equiv_pos_site_id
 _symmetry_equiv_pos_as_xyz
  1  'x, y, z'
loop_
 _atom_site_type_symbol
 _atom_site_label
 _atom_site_symmetry_multiplicity
 _atom_site_fract_x
 _atom_site_fract_y
 _atom_site_fract_z
 _atom_site_occupancy
  Dy  Dy0  1  0.823743  0.676257  0.000000  1
  Dy  Dy1  1  0.176257  0.323743  0.000000  1
  Nb  Nb2  1  0.324453  0.824453  0.000000  1
  Nb  Nb3  1  0.675547  0.175547  0.000000  1
  B  B4  1  0.619696  0.880304  0.000000  1
  B  B5  1  0.380304  0.119696  0.000000  1
  B  B6  1  0.121249  0.621249  0.000000  1
  B  B7  1  0.878751  0.378751  0.000000  1
  Ru  Ru8  1  0.561131  0.720763  0.500000  1
  Ru  Ru9  1  0.438869  0.279237  0.500000  1
  Ru  Ru10  1  0.079310  0.786935  0.500000  1
  Ru  Ru11  1  0.920690  0.213065  0.500000  1
  Ru  Ru12  1  0.286935  0.579310  0.500000  1
  Ru  Ru13  1  0.713065  0.420690  0.500000  1
  Ru  Ru14  1  0.220763  0.061131  0.500000  1
  Ru  Ru15  1  0.779237  0.938869  0.500000  1
  Ru  Ru16  1  0.500000  0.000000  0.500000  1
  Ru  Ru17  1  0.000000  0.500000  0.500000  1
  W  W18  1  0.500000  0.500000  0.000000  1
  W  W19  1  0.000000  0.000000  0.000000  1
