# generated using pymatgen
data_EuFeSb12OsRu2
_symmetry_space_group_name_H-M   'P 1'
_cell_length_a   8.11570619
_cell_length_b   8.11777912
_cell_length_c   8.10293721
_cell_angle_alpha   109.36829444
_cell_angle_beta   109.34308305
_cell_angle_gamma   109.41151665
_symmetry_Int_Tables_number   1
_chemical_formula_structural   EuFeSb12OsRu2
_chemical_formula_sum   'Eu1 Fe1 Sb12 Os1 Ru2'
_cell_volume   412.41336343
_cell_formula_units_Z   1
loop_
 _symmetry_equiv_pos_site_id
 _symmetry_equiv_pos_as_xyz
  1  'x, y, z'
loop_
 _atom_site_type_symbol
 _atom_site_label
 _atom_site_symmetry_multiplicity
 _atom_site_fract_x
 _atom_site_fract_y
 _atom_site_fract_z
 _atom_site_occupancy
  Eu  Eu0  1  0.000000  0.000000  0.000000  1
  Fe  Fe1  1  0.500000  0.500000  0.500000  1
  Sb  Sb2  1  0.657261  0.837716  0.502410  1
  Sb  Sb3  1  0.342739  0.162284  0.497590  1
  Sb  Sb4  1  0.841027  0.181403  0.338236  1
  Sb  Sb5  1  0.818557  0.660319  0.157576  1
  Sb  Sb6  1  0.837696  0.502662  0.658086  1
  Sb  Sb7  1  0.181443  0.339681  0.842424  1
  Sb  Sb8  1  0.158973  0.818597  0.661764  1
  Sb  Sb9  1  0.502866  0.658560  0.838161  1
  Sb  Sb10  1  0.497134  0.341440  0.161839  1
  Sb  Sb11  1  0.162304  0.497338  0.341914  1
  Sb  Sb12  1  0.338318  0.841076  0.180487  1
  Sb  Sb13  1  0.661682  0.158924  0.819513  1
  Os  Os14  1  0.000000  0.000000  0.500000  1
  Ru  Ru15  1  0.500000  0.000000  0.000000  1
  Ru  Ru16  1  0.000000  0.500000  0.000000  1
