# generated using pymatgen
data_Tb4AlTcIr6
_symmetry_space_group_name_H-M   'P 1'
_cell_length_a   5.48440800
_cell_length_b   5.48440743
_cell_length_c   8.36170400
_cell_angle_alpha   90.00000000
_cell_angle_beta   90.00000000
_cell_angle_gamma   120.00000341
_symmetry_Int_Tables_number   1
_chemical_formula_structural   Tb4AlTcIr6
_chemical_formula_sum   'Tb4 Al1 Tc1 Ir6'
_cell_volume   217.81353980
_cell_formula_units_Z   1
loop_
 _symmetry_equiv_pos_site_id
 _symmetry_equiv_pos_as_xyz
  1  'x, y, z'
loop_
 _atom_site_type_symbol
 _atom_site_label
 _atom_site_symmetry_multiplicity
 _atom_site_fract_x
 _atom_site_fract_y
 _atom_site_fract_z
 _atom_site_occupancy
  Tb  Tb0  1  0.333333  0.666667  0.430703  1
  Tb  Tb1  1  0.666667  0.333333  0.569297  1
  Tb  Tb2  1  0.666667  0.333333  0.939720  1
  Tb  Tb3  1  0.333333  0.666667  0.060280  1
  Al  Al4  1  0.000000  0.000000  0.500000  1
  Tc  Tc5  1  0.000000  0.000000  0.000000  1
  Ir  Ir6  1  0.830863  0.169137  0.252037  1
  Ir  Ir7  1  0.830863  0.661727  0.252037  1
  Ir  Ir8  1  0.338273  0.169137  0.252037  1
  Ir  Ir9  1  0.169137  0.830863  0.747963  1
  Ir  Ir10  1  0.169137  0.338273  0.747963  1
  Ir  Ir11  1  0.661727  0.830863  0.747963  1
