# generated using pymatgen
data_SrCe7Cu3Si12Pd
_symmetry_space_group_name_H-M   'P 1'
_cell_length_a   8.20567800
_cell_length_b   8.20567784
_cell_length_c   8.48108700
_cell_angle_alpha   90.00000000
_cell_angle_beta   90.00000000
_cell_angle_gamma   119.99999257
_symmetry_Int_Tables_number   1
_chemical_formula_structural   SrCe7Cu3Si12Pd
_chemical_formula_sum   'Sr1 Ce7 Cu3 Si12 Pd1'
_cell_volume   494.55103574
_cell_formula_units_Z   1
loop_
 _symmetry_equiv_pos_site_id
 _symmetry_equiv_pos_as_xyz
  1  'x, y, z'
loop_
 _atom_site_type_symbol
 _atom_site_label
 _atom_site_symmetry_multiplicity
 _atom_site_fract_x
 _atom_site_fract_y
 _atom_site_fract_z
 _atom_site_occupancy
  Sr  Sr0  1  0.000000  0.000000  0.249341  1
  Ce  Ce1  1  0.499468  0.500532  0.749902  1
  Ce  Ce2  1  0.500371  0.499629  0.249749  1
  Ce  Ce3  1  0.001063  0.500532  0.749902  1
  Ce  Ce4  1  0.999259  0.499629  0.249749  1
  Ce  Ce5  1  0.499468  0.998937  0.749902  1
  Ce  Ce6  1  0.500371  0.000741  0.249749  1
  Ce  Ce7  1  0.000000  0.000000  0.750651  1
  Cu  Cu8  1  0.666667  0.333333  0.994763  1
  Cu  Cu9  1  0.333333  0.666667  0.000054  1
  Cu  Cu10  1  0.333333  0.666667  0.500142  1
  Si  Si11  1  0.830434  0.169566  0.997232  1
  Si  Si12  1  0.169462  0.830538  0.996384  1
  Si  Si13  1  0.339133  0.169566  0.997232  1
  Si  Si14  1  0.168998  0.831002  0.503196  1
  Si  Si15  1  0.661076  0.830538  0.996384  1
  Si  Si16  1  0.834445  0.165555  0.504040  1
  Si  Si17  1  0.830434  0.660867  0.997232  1
  Si  Si18  1  0.662003  0.831002  0.503196  1
  Si  Si19  1  0.169462  0.338924  0.996384  1
  Si  Si20  1  0.331110  0.165555  0.504040  1
  Si  Si21  1  0.168998  0.337997  0.503196  1
  Si  Si22  1  0.834445  0.668890  0.504040  1
  Pd  Pd23  1  0.666667  0.333333  0.503534  1
