# generated using pymatgen
data_Ho6Al18Fe7Si6Ru
_symmetry_space_group_name_H-M   'P 1'
_cell_length_a   8.51026100
_cell_length_b   8.51627413
_cell_length_c   9.33114015
_cell_angle_alpha   90.08146399
_cell_angle_beta   90.00000000
_cell_angle_gamma   119.97664986
_symmetry_Int_Tables_number   1
_chemical_formula_structural   Ho6Al18Fe7Si6Ru
_chemical_formula_sum   'Ho6 Al18 Fe7 Si6 Ru1'
_cell_volume   585.81354481
_cell_formula_units_Z   1
loop_
 _symmetry_equiv_pos_site_id
 _symmetry_equiv_pos_as_xyz
  1  'x, y, z'
loop_
 _atom_site_type_symbol
 _atom_site_label
 _atom_site_symmetry_multiplicity
 _atom_site_fract_x
 _atom_site_fract_y
 _atom_site_fract_z
 _atom_site_occupancy
  Ho  Ho0  1  0.193410  0.386820  0.248387  1
  Ho  Ho1  1  0.806590  0.613180  0.751613  1
  Ho  Ho2  1  0.608487  0.806562  0.249060  1
  Ho  Ho3  1  0.391513  0.193438  0.750940  1
  Ho  Ho4  1  0.198074  0.806562  0.249060  1
  Ho  Ho5  1  0.801926  0.193438  0.750940  1
  Al  Al6  1  0.163377  0.326754  0.575676  1
  Al  Al7  1  0.836623  0.673246  0.424324  1
  Al  Al8  1  0.674096  0.832420  0.574605  1
  Al  Al9  1  0.836329  0.672658  0.075109  1
  Al  Al10  1  0.325904  0.167580  0.425395  1
  Al  Al11  1  0.163671  0.327342  0.924891  1
  Al  Al12  1  0.158323  0.832420  0.574605  1
  Al  Al13  1  0.327752  0.164924  0.073478  1
  Al  Al14  1  0.841677  0.167580  0.425395  1
  Al  Al15  1  0.672248  0.835076  0.926522  1
  Al  Al16  1  0.837172  0.164924  0.073478  1
  Al  Al17  1  0.162828  0.835076  0.926522  1
  Al  Al18  1  0.876523  0.435719  0.249643  1
  Al  Al19  1  0.123477  0.564281  0.750357  1
  Al  Al20  1  0.559196  0.435719  0.249643  1
  Al  Al21  1  0.440804  0.564281  0.750357  1
  Al  Al22  1  0.999362  0.998723  0.249923  1
  Al  Al23  1  0.000638  0.001277  0.750077  1
  Fe  Fe24  1  0.500000  0.000000  0.000000  1
  Fe  Fe25  1  0.000000  0.500000  0.000000  1
  Fe  Fe26  1  0.500000  0.500000  0.000000  1
  Fe  Fe27  1  0.000000  0.500000  0.500000  1
  Fe  Fe28  1  0.500000  0.500000  0.500000  1
  Fe  Fe29  1  0.000000  0.000000  0.000000  1
  Fe  Fe30  1  0.000000  0.000000  0.500000  1
  Si  Si31  1  0.331305  0.662610  0.031335  1
  Si  Si32  1  0.668695  0.337390  0.968665  1
  Si  Si33  1  0.671868  0.343736  0.532833  1
  Si  Si34  1  0.328132  0.656264  0.467167  1
  Si  Si35  1  0.562151  0.124302  0.243813  1
  Si  Si36  1  0.437849  0.875698  0.756187  1
  Ru  Ru37  1  0.500000  0.000000  0.500000  1
