# generated using pymatgen
data_LiTb6P12Rh17
_symmetry_space_group_name_H-M   'P 1'
_cell_length_a   3.92732800
_cell_length_b   11.22230000
_cell_length_c   12.77665000
_cell_angle_alpha   90.00000000
_cell_angle_beta   90.00000000
_cell_angle_gamma   90.00000000
_symmetry_Int_Tables_number   1
_chemical_formula_structural   LiTb6P12Rh17
_chemical_formula_sum   'Li1 Tb6 P12 Rh17'
_cell_volume   563.11363879
_cell_formula_units_Z   1
loop_
 _symmetry_equiv_pos_site_id
 _symmetry_equiv_pos_as_xyz
  1  'x, y, z'
loop_
 _atom_site_type_symbol
 _atom_site_label
 _atom_site_symmetry_multiplicity
 _atom_site_fract_x
 _atom_site_fract_y
 _atom_site_fract_z
 _atom_site_occupancy
  Li  Li0  1  0.500000  0.500000  0.156503  1
  Tb  Tb1  1  0.000000  0.500000  0.516660  1
  Tb  Tb2  1  0.500000  0.000000  0.479358  1
  Tb  Tb3  1  0.500000  0.815550  0.204827  1
  Tb  Tb4  1  0.500000  0.184450  0.204827  1
  Tb  Tb5  1  0.000000  0.683096  0.795463  1
  Tb  Tb6  1  0.000000  0.316904  0.795463  1
  P  P7  1  0.500000  0.500000  0.881530  1
  P  P8  1  0.000000  0.000000  0.120250  1
  P  P9  1  0.500000  0.500000  0.346597  1
  P  P10  1  0.000000  0.000000  0.648592  1
  P  P11  1  0.500000  0.314949  0.618561  1
  P  P12  1  0.500000  0.685051  0.618561  1
  P  P13  1  0.000000  0.186725  0.382462  1
  P  P14  1  0.000000  0.813275  0.382462  1
  P  P15  1  0.500000  0.846024  0.892245  1
  P  P16  1  0.500000  0.153976  0.892245  1
  P  P17  1  0.000000  0.657850  0.107659  1
  P  P18  1  0.000000  0.342150  0.107659  1
  Rh  Rh19  1  0.000000  0.000000  0.829444  1
  Rh  Rh20  1  0.500000  0.500000  0.702467  1
  Rh  Rh21  1  0.000000  0.000000  0.298641  1
  Rh  Rh22  1  0.000000  0.500000  0.984277  1
  Rh  Rh23  1  0.500000  0.000000  0.018730  1
  Rh  Rh24  1  0.500000  0.331888  0.995157  1
  Rh  Rh25  1  0.500000  0.668112  0.995157  1
  Rh  Rh26  1  0.000000  0.165262  0.004665  1
  Rh  Rh27  1  0.000000  0.834738  0.004665  1
  Rh  Rh28  1  0.500000  0.289005  0.433073  1
  Rh  Rh29  1  0.500000  0.710995  0.433073  1
  Rh  Rh30  1  0.000000  0.204430  0.572114  1
  Rh  Rh31  1  0.000000  0.795570  0.572114  1
  Rh  Rh32  1  0.500000  0.874071  0.711476  1
  Rh  Rh33  1  0.500000  0.125929  0.711476  1
  Rh  Rh34  1  0.000000  0.626055  0.290772  1
  Rh  Rh35  1  0.000000  0.373945  0.290772  1
