# generated using pymatgen
data_ErTm11Tc3Ir
_symmetry_space_group_name_H-M   'P 1'
_cell_length_a   6.21991306
_cell_length_b   7.34302607
_cell_length_c   9.00570700
_cell_angle_alpha   90.00000000
_cell_angle_beta   90.00000000
_cell_angle_gamma   89.99970877
_symmetry_Int_Tables_number   1
_chemical_formula_structural   ErTm11Tc3Ir
_chemical_formula_sum   'Er1 Tm11 Tc3 Ir1'
_cell_volume   411.31750939
_cell_formula_units_Z   1
loop_
 _symmetry_equiv_pos_site_id
 _symmetry_equiv_pos_as_xyz
  1  'x, y, z'
loop_
 _atom_site_type_symbol
 _atom_site_label
 _atom_site_symmetry_multiplicity
 _atom_site_fract_x
 _atom_site_fract_y
 _atom_site_fract_z
 _atom_site_occupancy
  Er  Er0  1  0.623703  0.038073  0.250000  1
  Tm  Tm1  1  0.334435  0.676055  0.063705  1
  Tm  Tm2  1  0.161637  0.175459  0.437201  1
  Tm  Tm3  1  0.663401  0.322913  0.561278  1
  Tm  Tm4  1  0.836798  0.825457  0.938453  1
  Tm  Tm5  1  0.663401  0.322913  0.938722  1
  Tm  Tm6  1  0.836798  0.825457  0.561547  1
  Tm  Tm7  1  0.334435  0.676055  0.436295  1
  Tm  Tm8  1  0.161637  0.175459  0.062799  1
  Tm  Tm9  1  0.875402  0.540075  0.250000  1
  Tm  Tm10  1  0.130265  0.458493  0.750000  1
  Tm  Tm11  1  0.372738  0.960473  0.750000  1
  Tc  Tc12  1  0.039662  0.883358  0.250000  1
  Tc  Tc13  1  0.462776  0.386000  0.250000  1
  Tc  Tc14  1  0.960588  0.116870  0.750000  1
  Ir  Ir15  1  0.542327  0.616893  0.750000  1
