# generated using pymatgen
data_Fe3Ni3P6(PbO12)2
_symmetry_space_group_name_H-M   'P 1'
_cell_length_a   9.14334267
_cell_length_b   9.14334314
_cell_length_c   9.14005979
_cell_angle_alpha   137.45436488
_cell_angle_beta   109.71268142
_cell_angle_gamma   85.77594900
_symmetry_Int_Tables_number   1
_chemical_formula_structural   Fe3Ni3P6(PbO12)2
_chemical_formula_sum   'Fe3 Ni3 P6 Pb2 O24'
_cell_volume   467.68911623
_cell_formula_units_Z   1
loop_
 _symmetry_equiv_pos_site_id
 _symmetry_equiv_pos_as_xyz
  1  'x, y, z'
loop_
 _atom_site_type_symbol
 _atom_site_label
 _atom_site_symmetry_multiplicity
 _atom_site_fract_x
 _atom_site_fract_y
 _atom_site_fract_z
 _atom_site_occupancy
  Fe  Fe0  1  0.883590  0.383590  0.000000  1
  Fe  Fe1  1  0.000003  0.000213  0.000785  1
  Fe  Fe2  1  0.499428  0.499218  0.999215  1
  Ni  Ni3  1  0.616891  0.616891  0.500000  1
  Ni  Ni4  1  0.382497  0.382497  0.500000  1
  Ni  Ni5  1  0.118529  0.618529  0.000000  1
  P  P6  1  0.322017  0.822017  0.000000  1
  P  P7  1  0.750021  0.656579  0.904794  1
  P  P8  1  0.178114  0.178114  0.500000  1
  P  P9  1  0.675932  0.175932  0.000000  1
  P  P10  1  0.251785  0.345226  0.095206  1
  P  P11  1  0.821199  0.821199  0.500000  1
  Pb  Pb12  1  0.748539  0.150520  0.396375  1
  Pb  Pb13  1  0.254146  0.852164  0.603625  1
  O  O14  1  0.574268  0.928722  0.777766  1
  O  O15  1  0.077273  0.298283  0.646080  1
  O  O16  1  0.843031  0.886300  0.040651  1
  O  O17  1  0.347807  0.701900  0.778733  1
  O  O18  1  0.143671  0.210954  0.344383  1
  O  O19  1  0.345649  0.302380  0.959349  1
  O  O20  1  0.633205  0.699899  0.343894  1
  O  O21  1  0.856005  0.789311  0.656106  1
  O  O22  1  0.370513  0.484337  0.354978  1
  O  O23  1  0.152203  0.931194  0.353920  1
  O  O24  1  0.639322  0.296804  0.933440  1
  O  O25  1  0.629358  0.515535  0.645022  1
  O  O26  1  0.863364  0.205881  0.066560  1
  O  O27  1  0.846204  0.067563  0.644236  1
  O  O28  1  0.357136  0.701160  0.067374  1
  O  O29  1  0.366571  0.299286  0.655617  1
  O  O30  1  0.657148  0.693329  0.038714  1
  O  O31  1  0.923327  0.701968  0.355764  1
  O  O32  1  0.154615  0.118434  0.961286  1
  O  O33  1  0.870857  0.516461  0.878586  1
  O  O34  1  0.137875  0.492271  0.121414  1
  O  O35  1  0.133786  0.789763  0.932626  1
  O  O36  1  0.650956  0.296502  0.222234  1
  O  O37  1  0.423166  0.069074  0.221267  1
