# generated using pymatgen
data_Sr9AgPd5
_symmetry_space_group_name_H-M   'P 1'
_cell_length_a   8.21185423
_cell_length_b   8.21472212
_cell_length_c   8.21124568
_cell_angle_alpha   72.03802319
_cell_angle_beta   71.85571797
_cell_angle_gamma   71.63733417
_symmetry_Int_Tables_number   1
_chemical_formula_structural   Sr9AgPd5
_chemical_formula_sum   'Sr9 Ag1 Pd5'
_cell_volume   485.80112700
_cell_formula_units_Z   1
loop_
 _symmetry_equiv_pos_site_id
 _symmetry_equiv_pos_as_xyz
  1  'x, y, z'
loop_
 _atom_site_type_symbol
 _atom_site_label
 _atom_site_symmetry_multiplicity
 _atom_site_fract_x
 _atom_site_fract_y
 _atom_site_fract_z
 _atom_site_occupancy
  Sr  Sr0  1  0.826081  0.111775  0.340360  1
  Sr  Sr1  1  0.106140  0.336982  0.823256  1
  Sr  Sr2  1  0.341569  0.835039  0.116593  1
  Sr  Sr3  1  0.169053  0.896548  0.651180  1
  Sr  Sr4  1  0.884927  0.659257  0.176652  1
  Sr  Sr5  1  0.664933  0.166526  0.887597  1
  Sr  Sr6  1  0.502079  0.499600  0.493015  1
  Sr  Sr7  1  0.710373  0.706467  0.699972  1
  Sr  Sr8  1  0.295871  0.291232  0.305950  1
  Ag  Ag9  1  0.355345  0.540034  0.914917  1
  Pd  Pd10  1  0.459227  0.087244  0.646876  1
  Pd  Pd11  1  0.090122  0.644496  0.458699  1
  Pd  Pd12  1  0.644090  0.460011  0.086350  1
  Pd  Pd13  1  0.539586  0.910620  0.358286  1
  Pd  Pd14  1  0.910606  0.354170  0.540297  1
