# generated using pymatgen
data_Y2Si3Ni14H3
_symmetry_space_group_name_H-M   'P 1'
_cell_length_a   6.25676425
_cell_length_b   6.25676393
_cell_length_c   6.25676460
_cell_angle_alpha   83.96327906
_cell_angle_beta   83.96327348
_cell_angle_gamma   83.96327294
_symmetry_Int_Tables_number   1
_chemical_formula_structural   Y2Si3Ni14H3
_chemical_formula_sum   'Y2 Si3 Ni14 H3'
_cell_volume   241.12604553
_cell_formula_units_Z   1
loop_
 _symmetry_equiv_pos_site_id
 _symmetry_equiv_pos_as_xyz
  1  'x, y, z'
loop_
 _atom_site_type_symbol
 _atom_site_label
 _atom_site_symmetry_multiplicity
 _atom_site_fract_x
 _atom_site_fract_y
 _atom_site_fract_z
 _atom_site_occupancy
  Y  Y0  1  0.650511  0.650511  0.650511  1
  Y  Y1  1  0.349489  0.349489  0.349489  1
  Si  Si2  1  0.000000  0.000000  0.500000  1
  Si  Si3  1  0.000000  0.500000  0.000000  1
  Si  Si4  1  0.500000  0.000000  0.000000  1
  Ni  Ni5  1  0.291225  0.708775  0.000000  1
  Ni  Ni6  1  0.708775  0.000000  0.291225  1
  Ni  Ni7  1  0.000000  0.291225  0.708775  1
  Ni  Ni8  1  0.291225  0.000000  0.708775  1
  Ni  Ni9  1  0.000000  0.708775  0.291225  1
  Ni  Ni10  1  0.708775  0.291225  0.000000  1
  Ni  Ni11  1  0.342116  0.342116  0.862819  1
  Ni  Ni12  1  0.342116  0.862819  0.342116  1
  Ni  Ni13  1  0.862819  0.342116  0.342116  1
  Ni  Ni14  1  0.657884  0.657884  0.137181  1
  Ni  Ni15  1  0.657884  0.137181  0.657884  1
  Ni  Ni16  1  0.137181  0.657884  0.657884  1
  Ni  Ni17  1  0.899634  0.899634  0.899634  1
  Ni  Ni18  1  0.100366  0.100366  0.100366  1
  H  H19  1  0.500000  0.500000  0.000000  1
  H  H20  1  0.500000  0.000000  0.500000  1
  H  H21  1  0.000000  0.500000  0.500000  1
