# generated using pymatgen
data_Y5In4CuAu
_symmetry_space_group_name_H-M   'P 1'
_cell_length_a   3.68283900
_cell_length_b   8.16399108
_cell_length_c   18.30468107
_cell_angle_alpha   89.77345109
_cell_angle_beta   90.00000000
_cell_angle_gamma   90.00000000
_symmetry_Int_Tables_number   1
_chemical_formula_structural   Y5In4CuAu
_chemical_formula_sum   'Y10 In8 Cu2 Au2'
_cell_volume   550.35640642
_cell_formula_units_Z   2
loop_
 _symmetry_equiv_pos_site_id
 _symmetry_equiv_pos_as_xyz
  1  'x, y, z'
loop_
 _atom_site_type_symbol
 _atom_site_label
 _atom_site_symmetry_multiplicity
 _atom_site_fract_x
 _atom_site_fract_y
 _atom_site_fract_z
 _atom_site_occupancy
  Y  Y0  1  0.500000  0.245833  0.783829  1
  Y  Y1  1  0.500000  0.754167  0.216171  1
  Y  Y2  1  0.500000  0.267950  0.280009  1
  Y  Y3  1  0.500000  0.732050  0.719991  1
  Y  Y4  1  0.500000  0.121522  0.579797  1
  Y  Y5  1  0.500000  0.878478  0.420203  1
  Y  Y6  1  0.500000  0.382797  0.082635  1
  Y  Y7  1  0.500000  0.617203  0.917365  1
  Y  Y8  1  0.500000  0.000000  0.000000  1
  Y  Y9  1  0.500000  0.500000  0.500000  1
  In  In10  1  0.000000  0.082142  0.147690  1
  In  In11  1  0.000000  0.917858  0.852310  1
  In  In12  1  0.000000  0.422601  0.650107  1
  In  In13  1  0.000000  0.577399  0.349893  1
  In  In14  1  0.000000  0.210097  0.431930  1
  In  In15  1  0.000000  0.789903  0.568070  1
  In  In16  1  0.000000  0.292421  0.932322  1
  In  In17  1  0.000000  0.707579  0.067678  1
  Cu  Cu18  1  0.000000  0.474237  0.196319  1
  Cu  Cu19  1  0.000000  0.525763  0.803681  1
  Au  Au20  1  0.000000  0.028112  0.697811  1
  Au  Au21  1  0.000000  0.971888  0.302189  1
