# generated using pymatgen
data_CuPtRhS4
_symmetry_space_group_name_H-M   'P 1'
_cell_length_a   7.05620611
_cell_length_b   7.08881682
_cell_length_c   7.05620655
_cell_angle_alpha   59.84700791
_cell_angle_beta   59.69554302
_cell_angle_gamma   59.84700595
_symmetry_Int_Tables_number   1
_chemical_formula_structural   CuPtRhS4
_chemical_formula_sum   'Cu2 Pt2 Rh2 S8'
_cell_volume   248.42110189
_cell_formula_units_Z   2
loop_
 _symmetry_equiv_pos_site_id
 _symmetry_equiv_pos_as_xyz
  1  'x, y, z'
loop_
 _atom_site_type_symbol
 _atom_site_label
 _atom_site_symmetry_multiplicity
 _atom_site_fract_x
 _atom_site_fract_y
 _atom_site_fract_z
 _atom_site_occupancy
  Cu  Cu0  1  0.753662  0.746338  0.753662  1
  Cu  Cu1  1  0.496338  0.503662  0.496338  1
  Pt  Pt2  1  0.125000  0.625000  0.125000  1
  Pt  Pt3  1  0.125000  0.125000  0.125000  1
  Rh  Rh4  1  0.125000  0.125000  0.625000  1
  Rh  Rh5  1  0.625000  0.125000  0.125000  1
  S  S6  1  0.883828  0.344174  0.883828  1
  S  S7  1  0.367737  0.363364  0.905535  1
  S  S8  1  0.366172  0.361831  0.366172  1
  S  S9  1  0.905535  0.363364  0.367737  1
  S  S10  1  0.883828  0.888169  0.883828  1
  S  S11  1  0.344465  0.886636  0.882263  1
  S  S12  1  0.366172  0.905826  0.366172  1
  S  S13  1  0.882263  0.886636  0.344465  1
