# generated using pymatgen
data_Dy2Pa2Ge6Ir6Rh
_symmetry_space_group_name_H-M   'P 1'
_cell_length_a   7.33353690
_cell_length_b   7.29541213
_cell_length_c   7.33353600
_cell_angle_alpha   109.43859856
_cell_angle_beta   109.74698122
_cell_angle_gamma   109.43860750
_symmetry_Int_Tables_number   1
_chemical_formula_structural   Dy2Pa2Ge6Ir6Rh
_chemical_formula_sum   'Dy2 Pa2 Ge6 Ir6 Rh1'
_cell_volume   301.24384616
_cell_formula_units_Z   1
loop_
 _symmetry_equiv_pos_site_id
 _symmetry_equiv_pos_as_xyz
  1  'x, y, z'
loop_
 _atom_site_type_symbol
 _atom_site_label
 _atom_site_symmetry_multiplicity
 _atom_site_fract_x
 _atom_site_fract_y
 _atom_site_fract_z
 _atom_site_occupancy
  Dy  Dy0  1  0.000000  0.500000  0.000000  1
  Dy  Dy1  1  0.500000  0.500000  0.500000  1
  Pa  Pa2  1  0.000000  0.000000  0.500000  1
  Pa  Pa3  1  0.500000  0.000000  0.000000  1
  Ge  Ge4  1  0.682015  0.677476  0.995461  1
  Ge  Ge5  1  0.317263  0.000000  0.317263  1
  Ge  Ge6  1  0.004539  0.322524  0.317985  1
  Ge  Ge7  1  0.317985  0.322524  0.004539  1
  Ge  Ge8  1  0.682737  0.000000  0.682737  1
  Ge  Ge9  1  0.995461  0.677476  0.682015  1
  Ir  Ir10  1  0.749799  0.244677  0.494880  1
  Ir  Ir11  1  0.750000  0.500000  0.250000  1
  Ir  Ir12  1  0.494880  0.244677  0.749799  1
  Ir  Ir13  1  0.250000  0.500000  0.750000  1
  Ir  Ir14  1  0.250201  0.755323  0.505120  1
  Ir  Ir15  1  0.505120  0.755323  0.250201  1
  Rh  Rh16  1  0.000000  0.000000  0.000000  1
