# generated using pymatgen
data_Sm2(GaPd3)3
_symmetry_space_group_name_H-M   'P 1'
_cell_length_a   7.82944616
_cell_length_b   7.82944568
_cell_length_c   9.15340400
_cell_angle_alpha   90.00000000
_cell_angle_beta   90.00000000
_cell_angle_gamma   120.26849805
_symmetry_Int_Tables_number   1
_chemical_formula_structural   Sm2(GaPd3)3
_chemical_formula_sum   'Sm4 Ga6 Pd18'
_cell_volume   484.61174834
_cell_formula_units_Z   2
loop_
 _symmetry_equiv_pos_site_id
 _symmetry_equiv_pos_as_xyz
  1  'x, y, z'
loop_
 _atom_site_type_symbol
 _atom_site_label
 _atom_site_symmetry_multiplicity
 _atom_site_fract_x
 _atom_site_fract_y
 _atom_site_fract_z
 _atom_site_occupancy
  Sm  Sm0  1  0.330670  0.017264  0.750000  1
  Sm  Sm1  1  0.669330  0.982736  0.250000  1
  Sm  Sm2  1  0.017264  0.330670  0.750000  1
  Sm  Sm3  1  0.982736  0.669330  0.250000  1
  Ga  Ga4  1  0.000000  0.000000  0.500000  1
  Ga  Ga5  1  0.677350  0.322650  0.000000  1
  Ga  Ga6  1  0.322650  0.677350  0.500000  1
  Ga  Ga7  1  0.322650  0.677350  0.000000  1
  Ga  Ga8  1  0.000000  0.000000  0.000000  1
  Ga  Ga9  1  0.677350  0.322650  0.500000  1
  Pd  Pd10  1  0.330050  0.330050  0.960749  1
  Pd  Pd11  1  0.446817  0.651364  0.750000  1
  Pd  Pd12  1  0.553183  0.348636  0.250000  1
  Pd  Pd13  1  0.651364  0.446817  0.750000  1
  Pd  Pd14  1  0.999205  0.337635  0.080739  1
  Pd  Pd15  1  0.000795  0.662365  0.580739  1
  Pd  Pd16  1  0.337635  0.999205  0.419261  1
  Pd  Pd17  1  0.662365  0.000795  0.919261  1
  Pd  Pd18  1  0.000795  0.662365  0.919261  1
  Pd  Pd19  1  0.999205  0.337635  0.419261  1
  Pd  Pd20  1  0.662365  0.000795  0.580739  1
  Pd  Pd21  1  0.870503  0.870503  0.750000  1
  Pd  Pd22  1  0.330050  0.330050  0.539251  1
  Pd  Pd23  1  0.669950  0.669950  0.039251  1
  Pd  Pd24  1  0.337635  0.999205  0.080739  1
  Pd  Pd25  1  0.669950  0.669950  0.460749  1
  Pd  Pd26  1  0.129497  0.129497  0.250000  1
  Pd  Pd27  1  0.348636  0.553183  0.250000  1
