# generated using pymatgen
data_RbLa(TaBr3)6
_symmetry_space_group_name_H-M   'P 1'
_cell_length_a   10.90517015
_cell_length_b   10.90517017
_cell_length_c   10.90517123
_cell_angle_alpha   55.37208066
_cell_angle_beta   55.37208696
_cell_angle_gamma   55.37209452
_symmetry_Int_Tables_number   1
_chemical_formula_structural   RbLa(TaBr3)6
_chemical_formula_sum   'Rb1 La1 Ta6 Br18'
_cell_volume   818.43735796
_cell_formula_units_Z   1
loop_
 _symmetry_equiv_pos_site_id
 _symmetry_equiv_pos_as_xyz
  1  'x, y, z'
loop_
 _atom_site_type_symbol
 _atom_site_label
 _atom_site_symmetry_multiplicity
 _atom_site_fract_x
 _atom_site_fract_y
 _atom_site_fract_z
 _atom_site_occupancy
  Rb  Rb0  1  0.221480  0.221480  0.221480  1
  La  La1  1  0.498238  0.498238  0.498238  1
  Ta  Ta2  1  0.812161  0.138153  0.920910  1
  Ta  Ta3  1  0.920910  0.812161  0.138153  1
  Ta  Ta4  1  0.138153  0.920910  0.812161  1
  Ta  Ta5  1  0.188784  0.862318  0.078463  1
  Ta  Ta6  1  0.078463  0.188784  0.862318  1
  Ta  Ta7  1  0.862318  0.078463  0.188784  1
  Br  Br8  1  0.862775  0.406459  0.731517  1
  Br  Br9  1  0.731517  0.862775  0.406459  1
  Br  Br10  1  0.406459  0.731517  0.862775  1
  Br  Br11  1  0.136540  0.593318  0.270951  1
  Br  Br12  1  0.270951  0.136540  0.593318  1
  Br  Br13  1  0.593318  0.270951  0.136540  1
  Br  Br14  1  0.538135  0.333050  0.814242  1
  Br  Br15  1  0.814242  0.538135  0.333050  1
  Br  Br16  1  0.333050  0.814242  0.538135  1
  Br  Br17  1  0.457620  0.668851  0.188661  1
  Br  Br18  1  0.188661  0.457620  0.668851  1
  Br  Br19  1  0.668851  0.188661  0.457620  1
  Br  Br20  1  0.668404  0.936158  0.071927  1
  Br  Br21  1  0.071927  0.668404  0.936158  1
  Br  Br22  1  0.936158  0.071927  0.668404  1
  Br  Br23  1  0.335181  0.062517  0.924326  1
  Br  Br24  1  0.924326  0.335181  0.062517  1
  Br  Br25  1  0.062517  0.924326  0.335181  1
