# generated using pymatgen
data_K2NpUF12
_symmetry_space_group_name_H-M   'P 1'
_cell_length_a   5.63115890
_cell_length_b   5.63115890
_cell_length_c   9.59100000
_cell_angle_alpha   90.00000000
_cell_angle_beta   90.00000000
_cell_angle_gamma   89.19512791
_symmetry_Int_Tables_number   1
_chemical_formula_structural   K2NpUF12
_chemical_formula_sum   'K2 Np1 U1 F12'
_cell_volume   304.10012865
_cell_formula_units_Z   1
loop_
 _symmetry_equiv_pos_site_id
 _symmetry_equiv_pos_as_xyz
  1  'x, y, z'
loop_
 _atom_site_type_symbol
 _atom_site_label
 _atom_site_symmetry_multiplicity
 _atom_site_fract_x
 _atom_site_fract_y
 _atom_site_fract_z
 _atom_site_occupancy
  K  K0  1  0.500000  0.500000  0.493766  1
  K  K1  1  0.500000  0.500000  0.006234  1
  Np  Np2  1  0.000000  0.000000  0.250000  1
  U  U3  1  0.000000  0.000000  0.750000  1
  F  F4  1  0.733423  0.266577  0.250000  1
  F  F5  1  0.266577  0.733423  0.250000  1
  F  F6  1  0.738983  0.738983  0.750000  1
  F  F7  1  0.261017  0.261017  0.750000  1
  F  F8  1  0.189878  0.189325  0.397337  1
  F  F9  1  0.810122  0.810675  0.397337  1
  F  F10  1  0.192312  0.808097  0.898705  1
  F  F11  1  0.807688  0.191903  0.898705  1
  F  F12  1  0.191903  0.807688  0.601295  1
  F  F13  1  0.808097  0.192312  0.601295  1
  F  F14  1  0.810675  0.810122  0.102663  1
  F  F15  1  0.189325  0.189878  0.102663  1
