# generated using pymatgen
data_Yb2DyMoO6
_symmetry_space_group_name_H-M   'P 1'
_cell_length_a   6.57110265
_cell_length_b   6.58260613
_cell_length_c   6.56618700
_cell_angle_alpha   91.74797096
_cell_angle_beta   91.68418548
_cell_angle_gamma   91.54742634
_symmetry_Int_Tables_number   1
_chemical_formula_structural   Yb2DyMoO6
_chemical_formula_sum   'Yb4 Dy2 Mo2 O12'
_cell_volume   283.65482165
_cell_formula_units_Z   2
loop_
 _symmetry_equiv_pos_site_id
 _symmetry_equiv_pos_as_xyz
  1  'x, y, z'
loop_
 _atom_site_type_symbol
 _atom_site_label
 _atom_site_symmetry_multiplicity
 _atom_site_fract_x
 _atom_site_fract_y
 _atom_site_fract_z
 _atom_site_occupancy
  Yb  Yb0  1  0.566442  0.063902  0.757624  1
  Yb  Yb1  1  0.936206  0.248087  0.435746  1
  Yb  Yb2  1  0.248860  0.427199  0.938080  1
  Yb  Yb3  1  0.434799  0.940211  0.244279  1
  Dy  Dy4  1  0.066553  0.749449  0.568285  1
  Dy  Dy5  1  0.751126  0.569559  0.061154  1
  Mo  Mo6  1  0.499754  0.499119  0.499506  1
  Mo  Mo7  1  0.001116  0.003127  0.001844  1
  O  O8  1  0.039060  0.702617  0.908720  1
  O  O9  1  0.706231  0.910419  0.042503  1
  O  O10  1  0.920649  0.035722  0.710816  1
  O  O11  1  0.948579  0.291474  0.086214  1
  O  O12  1  0.291074  0.080567  0.956976  1
  O  O13  1  0.079826  0.952874  0.289854  1
  O  O14  1  0.800805  0.575124  0.422321  1
  O  O15  1  0.572683  0.431253  0.797433  1
  O  O16  1  0.424709  0.787827  0.565068  1
  O  O17  1  0.205449  0.436626  0.571242  1
  O  O18  1  0.437573  0.573831  0.205625  1
  O  O19  1  0.568507  0.221013  0.436705  1
