# generated using pymatgen
data_HoSc7Ti12Si15Sn
_symmetry_space_group_name_H-M   'P 1'
_cell_length_a   6.95156935
_cell_length_b   6.92013200
_cell_length_c   12.71130197
_cell_angle_alpha   89.92051103
_cell_angle_beta   89.77459206
_cell_angle_gamma   89.80883202
_symmetry_Int_Tables_number   1
_chemical_formula_structural   HoSc7Ti12Si15Sn
_chemical_formula_sum   'Ho1 Sc7 Ti12 Si15 Sn1'
_cell_volume   611.47835090
_cell_formula_units_Z   1
loop_
 _symmetry_equiv_pos_site_id
 _symmetry_equiv_pos_as_xyz
  1  'x, y, z'
loop_
 _atom_site_type_symbol
 _atom_site_label
 _atom_site_symmetry_multiplicity
 _atom_site_fract_x
 _atom_site_fract_y
 _atom_site_fract_z
 _atom_site_occupancy
  Ho  Ho0  1  0.996354  0.660275  0.033676  1
  Sc  Sc1  1  0.344553  0.997465  0.460858  1
  Sc  Sc2  1  0.507700  0.835158  0.717770  1
  Sc  Sc3  1  0.500525  0.159461  0.217956  1
  Sc  Sc4  1  0.841465  0.498024  0.283074  1
  Sc  Sc5  1  0.158655  0.509764  0.785961  1
  Sc  Sc6  1  0.659553  0.998834  0.967970  1
  Sc  Sc7  1  0.989424  0.350598  0.526667  1
  Ti  Ti8  1  0.327625  0.326369  0.001214  1
  Ti  Ti9  1  0.174490  0.827531  0.250661  1
  Ti  Ti10  1  0.817080  0.172915  0.751251  1
  Ti  Ti11  1  0.672332  0.672396  0.499480  1
  Ti  Ti12  1  0.152343  0.005435  0.880853  1
  Ti  Ti13  1  0.494836  0.648266  0.126662  1
  Ti  Ti14  1  0.514770  0.357535  0.625959  1
  Ti  Ti15  1  0.651894  0.492966  0.875183  1
  Ti  Ti16  1  0.350189  0.507155  0.374364  1
  Ti  Ti17  1  0.848874  0.995162  0.375892  1
  Ti  Ti18  1  0.007832  0.150532  0.124735  1
  Ti  Ti19  1  0.980859  0.837303  0.619467  1
  Si  Si20  1  0.370356  0.705632  0.931034  1
  Si  Si21  1  0.633491  0.295737  0.429144  1
  Si  Si22  1  0.701867  0.359960  0.070014  1
  Si  Si23  1  0.295245  0.636938  0.569396  1
  Si  Si24  1  0.792024  0.869073  0.183525  1
  Si  Si25  1  0.135423  0.203817  0.319614  1
  Si  Si26  1  0.865067  0.798977  0.817946  1
  Si  Si27  1  0.300688  0.955426  0.067026  1
  Si  Si28  1  0.547381  0.794890  0.314571  1
  Si  Si29  1  0.459701  0.203788  0.819977  1
  Si  Si30  1  0.799337  0.544027  0.686663  1
  Si  Si31  1  0.207015  0.450935  0.187129  1
  Si  Si32  1  0.700760  0.047604  0.564355  1
  Si  Si33  1  0.952109  0.291396  0.934017  1
  Si  Si34  1  0.047025  0.705341  0.432901  1
  Sn  Sn35  1  0.201151  0.133313  0.673037  1
