# generated using pymatgen
data_Y20FeHg6Pd
_symmetry_space_group_name_H-M   'P 1'
_cell_length_a   9.71893900
_cell_length_b   9.71893869
_cell_length_c   9.62362200
_cell_angle_alpha   90.00000000
_cell_angle_beta   90.00000000
_cell_angle_gamma   119.99999766
_symmetry_Int_Tables_number   1
_chemical_formula_structural   Y20FeHg6Pd
_chemical_formula_sum   'Y20 Fe1 Hg6 Pd1'
_cell_volume   787.23953643
_cell_formula_units_Z   1
loop_
 _symmetry_equiv_pos_site_id
 _symmetry_equiv_pos_as_xyz
  1  'x, y, z'
loop_
 _atom_site_type_symbol
 _atom_site_label
 _atom_site_symmetry_multiplicity
 _atom_site_fract_x
 _atom_site_fract_y
 _atom_site_fract_z
 _atom_site_occupancy
  Y  Y0  1  0.211590  0.788410  0.935089  1
  Y  Y1  1  0.211590  0.423179  0.935089  1
  Y  Y2  1  0.576821  0.788410  0.935089  1
  Y  Y3  1  0.793107  0.206893  0.059342  1
  Y  Y4  1  0.793107  0.586215  0.059342  1
  Y  Y5  1  0.413785  0.206893  0.059342  1
  Y  Y6  1  0.793107  0.206893  0.440658  1
  Y  Y7  1  0.793107  0.586215  0.440658  1
  Y  Y8  1  0.413785  0.206893  0.440658  1
  Y  Y9  1  0.211590  0.788410  0.564911  1
  Y  Y10  1  0.211590  0.423179  0.564911  1
  Y  Y11  1  0.576821  0.788410  0.564911  1
  Y  Y12  1  0.540764  0.459236  0.750000  1
  Y  Y13  1  0.540764  0.081527  0.750000  1
  Y  Y14  1  0.918473  0.459236  0.750000  1
  Y  Y15  1  0.457012  0.542988  0.250000  1
  Y  Y16  1  0.457012  0.914025  0.250000  1
  Y  Y17  1  0.085975  0.542988  0.250000  1
  Y  Y18  1  0.000000  0.000000  0.000138  1
  Y  Y19  1  0.000000  0.000000  0.499862  1
  Fe  Fe20  1  0.333333  0.666667  0.750000  1
  Hg  Hg21  1  0.880344  0.119656  0.750000  1
  Hg  Hg22  1  0.880344  0.760690  0.750000  1
  Hg  Hg23  1  0.239310  0.119656  0.750000  1
  Hg  Hg24  1  0.119518  0.880482  0.250000  1
  Hg  Hg25  1  0.119518  0.239033  0.250000  1
  Hg  Hg26  1  0.760967  0.880482  0.250000  1
  Pd  Pd27  1  0.666667  0.333333  0.250000  1
