# generated using pymatgen
data_RbCrNiAs2
_symmetry_space_group_name_H-M   'P 1'
_cell_length_a   7.82807756
_cell_length_b   7.82807818
_cell_length_c   7.82807900
_cell_angle_alpha   151.05501097
_cell_angle_beta   151.05502359
_cell_angle_gamma   41.39492968
_symmetry_Int_Tables_number   1
_chemical_formula_structural   RbCrNiAs2
_chemical_formula_sum   'Rb1 Cr1 Ni1 As2'
_cell_volume   112.10776843
_cell_formula_units_Z   1
loop_
 _symmetry_equiv_pos_site_id
 _symmetry_equiv_pos_as_xyz
  1  'x, y, z'
loop_
 _atom_site_type_symbol
 _atom_site_label
 _atom_site_symmetry_multiplicity
 _atom_site_fract_x
 _atom_site_fract_y
 _atom_site_fract_z
 _atom_site_occupancy
  Rb  Rb0  1  0.000000  0.000000  0.000000  1
  Cr  Cr1  1  0.250000  0.750000  0.500000  1
  Ni  Ni2  1  0.750000  0.250000  0.500000  1
  As  As3  1  0.344040  0.344040  0.000000  1
  As  As4  1  0.655960  0.655960  0.000000  1
