# generated using pymatgen
data_YbCeHo2(B4Os)4
_symmetry_space_group_name_H-M   'P 1'
_cell_length_a   3.57333100
_cell_length_b   5.96409952
_cell_length_c   11.53925945
_cell_angle_alpha   89.84838383
_cell_angle_beta   90.00000000
_cell_angle_gamma   90.00000000
_symmetry_Int_Tables_number   1
_chemical_formula_structural   YbCeHo2(B4Os)4
_chemical_formula_sum   'Yb1 Ce1 Ho2 B16 Os4'
_cell_volume   245.92039433
_cell_formula_units_Z   1
loop_
 _symmetry_equiv_pos_site_id
 _symmetry_equiv_pos_as_xyz
  1  'x, y, z'
loop_
 _atom_site_type_symbol
 _atom_site_label
 _atom_site_symmetry_multiplicity
 _atom_site_fract_x
 _atom_site_fract_y
 _atom_site_fract_z
 _atom_site_occupancy
  Yb  Yb0  1  0.000000  0.629903  0.349476  1
  Ce  Ce1  1  0.000000  0.372302  0.649396  1
  Ho  Ho2  1  0.000000  0.128085  0.150787  1
  Ho  Ho3  1  0.000000  0.872790  0.851389  1
  B  B4  1  0.500000  0.787419  0.185723  1
  B  B5  1  0.500000  0.211371  0.814762  1
  B  B6  1  0.500000  0.287362  0.313631  1
  B  B7  1  0.500000  0.712695  0.685405  1
  B  B8  1  0.500000  0.863630  0.030157  1
  B  B9  1  0.500000  0.136867  0.970125  1
  B  B10  1  0.500000  0.362908  0.468635  1
  B  B11  1  0.500000  0.637114  0.530186  1
  B  B12  1  0.500000  0.885918  0.451609  1
  B  B13  1  0.500000  0.110167  0.544955  1
  B  B14  1  0.500000  0.388053  0.047273  1
  B  B15  1  0.500000  0.613489  0.954128  1
  B  B16  1  0.500000  0.974608  0.308417  1
  B  B17  1  0.500000  0.024812  0.691091  1
  B  B18  1  0.500000  0.474240  0.191378  1
  B  B19  1  0.500000  0.525195  0.809817  1
  Os  Os20  1  0.000000  0.641093  0.092539  1
  Os  Os21  1  0.000000  0.358666  0.907018  1
  Os  Os22  1  0.000000  0.140767  0.407895  1
  Os  Os23  1  0.000000  0.860545  0.594207  1
