# generated using pymatgen
data_Ba2Co5GeO12
_symmetry_space_group_name_H-M   'P 1'
_cell_length_a   4.95356877
_cell_length_b   6.46963024
_cell_length_c   8.61089100
_cell_angle_alpha   89.99996458
_cell_angle_beta   89.99998843
_cell_angle_gamma   74.45654669
_symmetry_Int_Tables_number   1
_chemical_formula_structural   Ba2Co5GeO12
_chemical_formula_sum   'Ba2 Co5 Ge1 O12'
_cell_volume   265.86721599
_cell_formula_units_Z   1
loop_
 _symmetry_equiv_pos_site_id
 _symmetry_equiv_pos_as_xyz
  1  'x, y, z'
loop_
 _atom_site_type_symbol
 _atom_site_label
 _atom_site_symmetry_multiplicity
 _atom_site_fract_x
 _atom_site_fract_y
 _atom_site_fract_z
 _atom_site_occupancy
  Ba  Ba0  1  0.000000  0.499999  0.164114  1
  Ba  Ba1  1  0.500001  0.500000  0.656789  1
  Co  Co2  1  0.000000  0.000000  0.666034  1
  Co  Co3  1  0.500000  0.000000  0.499154  1
  Co  Co4  1  0.500000  0.000000  0.168920  1
  Co  Co5  1  0.000000  0.000000  0.334552  1
  Co  Co6  1  0.000000  0.000000  0.001454  1
  Ge  Ge7  1  0.500000  0.000000  0.835574  1
  O  O8  1  0.779957  0.157107  0.169910  1
  O  O9  1  0.277317  0.161470  0.667124  1
  O  O10  1  0.220042  0.842893  0.169911  1
  O  O11  1  0.722683  0.838530  0.667124  1
  O  O12  1  0.278360  0.160861  0.000617  1
  O  O13  1  0.780283  0.157189  0.497267  1
  O  O14  1  0.275479  0.157844  0.334375  1
  O  O15  1  0.775627  0.160881  0.834078  1
  O  O16  1  0.724521  0.842156  0.334375  1
  O  O17  1  0.224373  0.839120  0.834078  1
  O  O18  1  0.721640  0.839138  0.000617  1
  O  O19  1  0.219717  0.842812  0.497267  1
