# generated using pymatgen
data_YErV3Co9As7
_symmetry_space_group_name_H-M   'P 1'
_cell_length_a   3.76004000
_cell_length_b   9.38018655
_cell_length_c   9.38018800
_cell_angle_alpha   119.99999807
_cell_angle_beta   90.00000000
_cell_angle_gamma   90.00000000
_symmetry_Int_Tables_number   1
_chemical_formula_structural   YErV3Co9As7
_chemical_formula_sum   'Y1 Er1 V3 Co9 As7'
_cell_volume   286.51418174
_cell_formula_units_Z   1
loop_
 _symmetry_equiv_pos_site_id
 _symmetry_equiv_pos_as_xyz
  1  'x, y, z'
loop_
 _atom_site_type_symbol
 _atom_site_label
 _atom_site_symmetry_multiplicity
 _atom_site_fract_x
 _atom_site_fract_y
 _atom_site_fract_z
 _atom_site_occupancy
  Y  Y0  1  0.500000  0.333333  0.666667  1
  Er  Er1  1  0.000000  0.666667  0.333333  1
  V  V2  1  0.500000  0.782379  0.899437  1
  V  V3  1  0.500000  0.117058  0.217621  1
  V  V4  1  0.500000  0.100563  0.882942  1
  Co  Co5  1  0.000000  0.569604  0.941216  1
  Co  Co6  1  0.000000  0.371611  0.430396  1
  Co  Co7  1  0.000000  0.058784  0.628389  1
  Co  Co8  1  0.000000  0.877795  0.157570  1
  Co  Co9  1  0.000000  0.279775  0.122205  1
  Co  Co10  1  0.000000  0.842430  0.720225  1
  Co  Co11  1  0.500000  0.949231  0.382282  1
  Co  Co12  1  0.500000  0.433050  0.050769  1
  Co  Co13  1  0.500000  0.617718  0.566950  1
  As  As14  1  0.000000  0.000000  0.000000  1
  As  As15  1  0.500000  0.707578  0.118505  1
  As  As16  1  0.500000  0.410927  0.292422  1
  As  As17  1  0.500000  0.881495  0.589073  1
  As  As18  1  0.000000  0.587464  0.702105  1
  As  As19  1  0.000000  0.114640  0.412536  1
  As  As20  1  0.000000  0.297895  0.885360  1
