# generated using pymatgen
data_Sc22Tc3Ir4Ru
_symmetry_space_group_name_H-M   'P 1'
_cell_length_a   9.47177853
_cell_length_b   9.47177872
_cell_length_c   9.48045100
_cell_angle_alpha   59.96971135
_cell_angle_beta   59.96971068
_cell_angle_gamma   60.06058620
_symmetry_Int_Tables_number   1
_chemical_formula_structural   Sc22Tc3Ir4Ru
_chemical_formula_sum   'Sc22 Tc3 Ir4 Ru1'
_cell_volume   601.41793698
_cell_formula_units_Z   1
loop_
 _symmetry_equiv_pos_site_id
 _symmetry_equiv_pos_as_xyz
  1  'x, y, z'
loop_
 _atom_site_type_symbol
 _atom_site_label
 _atom_site_symmetry_multiplicity
 _atom_site_fract_x
 _atom_site_fract_y
 _atom_site_fract_z
 _atom_site_occupancy
  Sc  Sc0  1  0.802079  0.802079  0.197921  1
  Sc  Sc1  1  0.197958  0.802042  0.197958  1
  Sc  Sc2  1  0.802042  0.197958  0.197958  1
  Sc  Sc3  1  0.197921  0.197921  0.802079  1
  Sc  Sc4  1  0.802042  0.197958  0.802042  1
  Sc  Sc5  1  0.197958  0.802042  0.802042  1
  Sc  Sc6  1  0.616410  0.616410  0.149969  1
  Sc  Sc7  1  0.617212  0.149969  0.616410  1
  Sc  Sc8  1  0.149969  0.617212  0.616410  1
  Sc  Sc9  1  0.616410  0.616410  0.617212  1
  Sc  Sc10  1  0.383590  0.383590  0.850031  1
  Sc  Sc11  1  0.382788  0.850031  0.383590  1
  Sc  Sc12  1  0.850031  0.382788  0.383590  1
  Sc  Sc13  1  0.383590  0.383590  0.382788  1
  Sc  Sc14  1  0.843333  0.843333  0.470011  1
  Sc  Sc15  1  0.843322  0.470011  0.843333  1
  Sc  Sc16  1  0.470011  0.843322  0.843333  1
  Sc  Sc17  1  0.843333  0.843333  0.843322  1
  Sc  Sc18  1  0.156667  0.156667  0.529989  1
  Sc  Sc19  1  0.156678  0.529989  0.156667  1
  Sc  Sc20  1  0.529989  0.156678  0.156667  1
  Sc  Sc21  1  0.156667  0.156667  0.156678  1
  Tc  Tc22  1  0.000000  0.000000  0.000000  1
  Tc  Tc23  1  0.000000  0.000000  0.500000  1
  Tc  Tc24  1  0.500000  0.500000  0.000000  1
  Ir  Ir25  1  0.500000  0.000000  0.500000  1
  Ir  Ir26  1  0.000000  0.500000  0.500000  1
  Ir  Ir27  1  0.000000  0.500000  0.000000  1
  Ir  Ir28  1  0.500000  0.000000  0.000000  1
  Ru  Ru29  1  0.500000  0.500000  0.500000  1
