# generated using pymatgen
data_Li3Mg(TaRh3)2
_symmetry_space_group_name_H-M   'P 1'
_cell_length_a   4.36439800
_cell_length_b   6.09603000
_cell_length_c   12.98836201
_cell_angle_alpha   90.00000000
_cell_angle_beta   90.00429216
_cell_angle_gamma   90.00000000
_symmetry_Int_Tables_number   1
_chemical_formula_structural   Li3Mg(TaRh3)2
_chemical_formula_sum   'Li6 Mg2 Ta4 Rh12'
_cell_volume   345.56187951
_cell_formula_units_Z   2
loop_
 _symmetry_equiv_pos_site_id
 _symmetry_equiv_pos_as_xyz
  1  'x, y, z'
loop_
 _atom_site_type_symbol
 _atom_site_label
 _atom_site_symmetry_multiplicity
 _atom_site_fract_x
 _atom_site_fract_y
 _atom_site_fract_z
 _atom_site_occupancy
  Li  Li0  1  0.000052  0.000000  0.003509  1
  Li  Li1  1  0.499747  0.500001  0.163180  1
  Li  Li2  1  0.999797  0.000000  0.330429  1
  Li  Li3  1  0.500001  0.500001  0.498623  1
  Li  Li4  1  0.000159  0.000000  0.668080  1
  Li  Li5  1  0.500286  0.500001  0.836336  1
  Mg  Mg6  1  0.000037  0.500001  0.001701  1
  Mg  Mg7  1  0.499739  0.000000  0.164875  1
  Ta  Ta8  1  0.999843  0.500001  0.325408  1
  Ta  Ta9  1  0.499997  0.000000  0.499293  1
  Ta  Ta10  1  0.000155  0.500001  0.667486  1
  Ta  Ta11  1  0.500179  0.000000  0.841109  1
  Rh  Rh12  1  0.500054  0.250001  0.995209  1
  Rh  Rh13  1  0.500054  0.749997  0.995209  1
  Rh  Rh14  1  0.999754  0.250101  0.171247  1
  Rh  Rh15  1  0.999754  0.749900  0.171247  1
  Rh  Rh16  1  0.499849  0.250636  0.336583  1
  Rh  Rh17  1  0.499849  0.749362  0.336583  1
  Rh  Rh18  1  0.000000  0.249634  0.500182  1
  Rh  Rh19  1  0.000000  0.750365  0.500182  1
  Rh  Rh20  1  0.500160  0.250397  0.666653  1
  Rh  Rh21  1  0.500160  0.749601  0.666653  1
  Rh  Rh22  1  0.000187  0.249345  0.830112  1
  Rh  Rh23  1  0.000187  0.750656  0.830112  1
