# generated using pymatgen
data_Tb2Pr2Y2OsI10
_symmetry_space_group_name_H-M   'P 1'
_cell_length_a   7.85570645
_cell_length_b   9.91967521
_cell_length_c   9.86649890
_cell_angle_alpha   106.61303163
_cell_angle_beta   96.09375343
_cell_angle_gamma   105.03892843
_symmetry_Int_Tables_number   1
_chemical_formula_structural   Tb2Pr2Y2OsI10
_chemical_formula_sum   'Tb2 Pr2 Y2 Os1 I10'
_cell_volume   697.88817466
_cell_formula_units_Z   1
loop_
 _symmetry_equiv_pos_site_id
 _symmetry_equiv_pos_as_xyz
  1  'x, y, z'
loop_
 _atom_site_type_symbol
 _atom_site_label
 _atom_site_symmetry_multiplicity
 _atom_site_fract_x
 _atom_site_fract_y
 _atom_site_fract_z
 _atom_site_occupancy
  Tb  Tb0  1  0.969077  0.288444  0.086395  1
  Tb  Tb1  1  0.030923  0.711556  0.913605  1
  Pr  Pr2  1  0.115004  0.043657  0.767012  1
  Pr  Pr3  1  0.884996  0.956343  0.232988  1
  Y  Y4  1  0.351728  0.126185  0.167536  1
  Y  Y5  1  0.648272  0.873815  0.832464  1
  Os  Os6  1  0.000000  0.000000  0.000000  1
  I  I7  1  0.346575  0.446050  0.269488  1
  I  I8  1  0.653425  0.553950  0.730512  1
  I  I9  1  0.264876  0.088729  0.454980  1
  I  I10  1  0.735124  0.911271  0.545020  1
  I  I11  1  0.084658  0.377151  0.824136  1
  I  I12  1  0.915342  0.622849  0.175864  1
  I  I13  1  0.450753  0.817880  0.089033  1
  I  I14  1  0.549247  0.182120  0.910967  1
  I  I15  1  0.776893  0.260175  0.342611  1
  I  I16  1  0.223107  0.739825  0.657389  1
