# generated using pymatgen
data_Lu4Zn3PRh9
_symmetry_space_group_name_H-M   'P 1'
_cell_length_a   7.08045903
_cell_length_b   7.08045916
_cell_length_c   7.19788400
_cell_angle_alpha   109.80751697
_cell_angle_beta   109.80751736
_cell_angle_gamma   109.13284407
_symmetry_Int_Tables_number   1
_chemical_formula_structural   Lu4Zn3PRh9
_chemical_formula_sum   'Lu4 Zn3 P1 Rh9'
_cell_volume   276.62182395
_cell_formula_units_Z   1
loop_
 _symmetry_equiv_pos_site_id
 _symmetry_equiv_pos_as_xyz
  1  'x, y, z'
loop_
 _atom_site_type_symbol
 _atom_site_label
 _atom_site_symmetry_multiplicity
 _atom_site_fract_x
 _atom_site_fract_y
 _atom_site_fract_z
 _atom_site_occupancy
  Lu  Lu0  1  0.000000  0.000000  0.500000  1
  Lu  Lu1  1  0.037869  0.518935  0.018935  1
  Lu  Lu2  1  0.481065  0.962131  0.981065  1
  Lu  Lu3  1  0.481065  0.518935  0.500000  1
  Zn  Zn4  1  0.748797  0.251203  0.500000  1
  Zn  Zn5  1  0.748797  0.497592  0.248797  1
  Zn  Zn6  1  0.502408  0.251203  0.751203  1
  P  P7  1  0.000000  0.000000  0.000000  1
  Rh  Rh8  1  0.241874  0.483747  0.741874  1
  Rh  Rh9  1  0.241874  0.758126  0.500000  1
  Rh  Rh10  1  0.516253  0.758126  0.258126  1
  Rh  Rh11  1  0.737106  0.711961  0.999814  1
  Rh  Rh12  1  0.288039  0.025145  0.287853  1
  Rh  Rh13  1  0.974855  0.262894  0.262709  1
  Rh  Rh14  1  0.288039  0.262894  0.000186  1
  Rh  Rh15  1  0.737106  0.025145  0.737291  1
  Rh  Rh16  1  0.974855  0.711961  0.712147  1
