# generated using pymatgen
data_PrNdY14(CdRu)4
_symmetry_space_group_name_H-M   'P 1'
_cell_length_a   9.70341731
_cell_length_b   9.70341846
_cell_length_c   9.71546900
_cell_angle_alpha   59.95891363
_cell_angle_beta   59.95890973
_cell_angle_gamma   59.86110304
_symmetry_Int_Tables_number   1
_chemical_formula_structural   PrNdY14(CdRu)4
_chemical_formula_sum   'Pr1 Nd1 Y14 Cd4 Ru4'
_cell_volume   645.75956990
_cell_formula_units_Z   1
loop_
 _symmetry_equiv_pos_site_id
 _symmetry_equiv_pos_as_xyz
  1  'x, y, z'
loop_
 _atom_site_type_symbol
 _atom_site_label
 _atom_site_symmetry_multiplicity
 _atom_site_fract_x
 _atom_site_fract_y
 _atom_site_fract_z
 _atom_site_occupancy
  Pr  Pr0  1  0.438366  0.438366  0.061634  1
  Nd  Nd1  1  0.062244  0.062244  0.437756  1
  Y  Y2  1  0.441297  0.058919  0.059605  1
  Y  Y3  1  0.846617  0.846617  0.848100  1
  Y  Y4  1  0.689500  0.311098  0.311639  1
  Y  Y5  1  0.058919  0.441297  0.440179  1
  Y  Y6  1  0.311098  0.689500  0.687763  1
  Y  Y7  1  0.310412  0.310412  0.689588  1
  Y  Y8  1  0.846617  0.846617  0.458666  1
  Y  Y9  1  0.689800  0.689800  0.310200  1
  Y  Y10  1  0.462265  0.845067  0.846333  1
  Y  Y11  1  0.058919  0.441297  0.059605  1
  Y  Y12  1  0.845067  0.462265  0.846333  1
  Y  Y13  1  0.441297  0.058919  0.440179  1
  Y  Y14  1  0.311098  0.689500  0.311639  1
  Y  Y15  1  0.689500  0.311098  0.687763  1
  Cd  Cd16  1  0.077128  0.760328  0.081272  1
  Cd  Cd17  1  0.080298  0.080298  0.760755  1
  Cd  Cd18  1  0.760328  0.077128  0.081272  1
  Cd  Cd19  1  0.080298  0.080298  0.078649  1
  Ru  Ru20  1  0.636516  0.081210  0.641137  1
  Ru  Ru21  1  0.640603  0.640603  0.636369  1
  Ru  Ru22  1  0.640603  0.640603  0.082425  1
  Ru  Ru23  1  0.081210  0.636516  0.641137  1
