# generated using pymatgen
data_CeSmZn3AgRu
_symmetry_space_group_name_H-M   'P 1'
_cell_length_a   7.31439500
_cell_length_b   7.30903487
_cell_length_c   5.12590717
_cell_angle_alpha   89.79616499
_cell_angle_beta   90.00000000
_cell_angle_gamma   90.00000000
_symmetry_Int_Tables_number   1
_chemical_formula_structural   CeSmZn3AgRu
_chemical_formula_sum   'Ce2 Sm2 Zn6 Ag2 Ru2'
_cell_volume   274.03525070
_cell_formula_units_Z   2
loop_
 _symmetry_equiv_pos_site_id
 _symmetry_equiv_pos_as_xyz
  1  'x, y, z'
loop_
 _atom_site_type_symbol
 _atom_site_label
 _atom_site_symmetry_multiplicity
 _atom_site_fract_x
 _atom_site_fract_y
 _atom_site_fract_z
 _atom_site_occupancy
  Ce  Ce0  1  0.000000  0.006610  0.996236  1
  Ce  Ce1  1  0.500000  0.494326  0.992641  1
  Sm  Sm2  1  0.000000  0.503837  0.752287  1
  Sm  Sm3  1  0.500000  0.999310  0.237752  1
  Zn  Zn4  1  0.810580  0.310674  0.287212  1
  Zn  Zn5  1  0.313957  0.183928  0.714996  1
  Zn  Zn6  1  0.189420  0.310674  0.287212  1
  Zn  Zn7  1  0.686043  0.183928  0.714996  1
  Zn  Zn8  1  0.687557  0.812913  0.720784  1
  Zn  Zn9  1  0.312443  0.812913  0.720784  1
  Ag  Ag10  1  0.192954  0.688843  0.267992  1
  Ag  Ag11  1  0.807046  0.688843  0.267992  1
  Ru  Ru12  1  0.500000  0.486162  0.520507  1
  Ru  Ru13  1  0.000000  0.017039  0.518612  1
