# generated using pymatgen
data_RbSi3SbO9
_symmetry_space_group_name_H-M   'P 1'
_cell_length_a   6.95254200
_cell_length_b   6.95254114
_cell_length_c   9.91368200
_cell_angle_alpha   90.00000000
_cell_angle_beta   90.00000000
_cell_angle_gamma   120.00000409
_symmetry_Int_Tables_number   1
_chemical_formula_structural   RbSi3SbO9
_chemical_formula_sum   'Rb2 Si6 Sb2 O18'
_cell_volume   415.00448123
_cell_formula_units_Z   2
loop_
 _symmetry_equiv_pos_site_id
 _symmetry_equiv_pos_as_xyz
  1  'x, y, z'
loop_
 _atom_site_type_symbol
 _atom_site_label
 _atom_site_symmetry_multiplicity
 _atom_site_fract_x
 _atom_site_fract_y
 _atom_site_fract_z
 _atom_site_occupancy
  Rb  Rb0  1  0.666667  0.333333  0.500000  1
  Rb  Rb1  1  0.666667  0.333333  0.000000  1
  Si  Si2  1  0.203739  0.920956  0.250000  1
  Si  Si3  1  0.203739  0.282782  0.750000  1
  Si  Si4  1  0.717218  0.920956  0.750000  1
  Si  Si5  1  0.717218  0.796261  0.250000  1
  Si  Si6  1  0.079044  0.282782  0.250000  1
  Si  Si7  1  0.079044  0.796261  0.750000  1
  Sb  Sb8  1  0.333333  0.666667  0.500000  1
  Sb  Sb9  1  0.333333  0.666667  0.000000  1
  O  O10  1  0.101139  0.675468  0.613808  1
  O  O11  1  0.324532  0.898861  0.386192  1
  O  O12  1  0.574331  0.898861  0.613808  1
  O  O13  1  0.324532  0.425669  0.886192  1
  O  O14  1  0.574331  0.898861  0.886192  1
  O  O15  1  0.101139  0.675468  0.886192  1
  O  O16  1  0.574331  0.675468  0.113808  1
  O  O17  1  0.101139  0.425669  0.113808  1
  O  O18  1  0.247455  0.178795  0.250000  1
  O  O19  1  0.931341  0.752545  0.250000  1
  O  O20  1  0.821205  0.068659  0.250000  1
  O  O21  1  0.821205  0.752545  0.750000  1
  O  O22  1  0.574331  0.675468  0.386192  1
  O  O23  1  0.247455  0.068659  0.750000  1
  O  O24  1  0.931341  0.178795  0.750000  1
  O  O25  1  0.101139  0.425669  0.386192  1
  O  O26  1  0.324532  0.898861  0.113808  1
  O  O27  1  0.324532  0.425669  0.613808  1
