# generated using pymatgen
data_Tb2Er8FeCoSb4
_symmetry_space_group_name_H-M   'P 1'
_cell_length_a   7.82487600
_cell_length_b   8.79486500
_cell_length_c   12.09874000
_cell_angle_alpha   90.00000000
_cell_angle_beta   90.00000000
_cell_angle_gamma   90.00000000
_symmetry_Int_Tables_number   1
_chemical_formula_structural   Tb2Er8FeCoSb4
_chemical_formula_sum   'Tb4 Er16 Fe2 Co2 Sb8'
_cell_volume   832.61989795
_cell_formula_units_Z   2
loop_
 _symmetry_equiv_pos_site_id
 _symmetry_equiv_pos_as_xyz
  1  'x, y, z'
loop_
 _atom_site_type_symbol
 _atom_site_label
 _atom_site_symmetry_multiplicity
 _atom_site_fract_x
 _atom_site_fract_y
 _atom_site_fract_z
 _atom_site_occupancy
  Tb  Tb0  1  0.622241  0.750000  0.305905  1
  Tb  Tb1  1  0.122241  0.250000  0.194095  1
  Tb  Tb2  1  0.377702  0.250000  0.693736  1
  Tb  Tb3  1  0.877702  0.750000  0.806264  1
  Er  Er4  1  0.155638  0.750000  0.205245  1
  Er  Er5  1  0.655638  0.250000  0.294755  1
  Er  Er6  1  0.846404  0.250000  0.797618  1
  Er  Er7  1  0.346404  0.750000  0.702382  1
  Er  Er8  1  0.449394  0.750000  0.996561  1
  Er  Er9  1  0.949394  0.250000  0.503439  1
  Er  Er10  1  0.548489  0.250000  0.003319  1
  Er  Er11  1  0.048489  0.750000  0.496681  1
  Er  Er12  1  0.823536  0.966615  0.064038  1
  Er  Er13  1  0.323536  0.033385  0.435962  1
  Er  Er14  1  0.178829  0.460811  0.935179  1
  Er  Er15  1  0.678829  0.539189  0.564821  1
  Er  Er16  1  0.178829  0.039189  0.935179  1
  Er  Er17  1  0.678829  0.960811  0.564821  1
  Er  Er18  1  0.823536  0.533385  0.064038  1
  Er  Er19  1  0.323536  0.466615  0.435962  1
  Fe  Fe20  1  0.428129  0.750000  0.487959  1
  Fe  Fe21  1  0.928129  0.250000  0.012041  1
  Co  Co22  1  0.568530  0.250000  0.508754  1
  Co  Co23  1  0.068530  0.750000  0.991246  1
  Sb  Sb24  1  0.928676  0.992323  0.328520  1
  Sb  Sb25  1  0.428676  0.007677  0.171480  1
  Sb  Sb26  1  0.070695  0.491959  0.671610  1
  Sb  Sb27  1  0.570695  0.508041  0.828390  1
  Sb  Sb28  1  0.070695  0.008041  0.671610  1
  Sb  Sb29  1  0.570695  0.991959  0.828390  1
  Sb  Sb30  1  0.928676  0.507677  0.328520  1
  Sb  Sb31  1  0.428676  0.492323  0.171480  1
