# generated using pymatgen
data_Zr24SbAs3Se8
_symmetry_space_group_name_H-M   'P 1'
_cell_length_a   3.74135400
_cell_length_b   12.70590304
_cell_length_c   15.68262757
_cell_angle_alpha   89.96209731
_cell_angle_beta   90.00000000
_cell_angle_gamma   90.00000000
_symmetry_Int_Tables_number   1
_chemical_formula_structural   Zr24SbAs3Se8
_chemical_formula_sum   'Zr24 Sb1 As3 Se8'
_cell_volume   745.50931291
_cell_formula_units_Z   1
loop_
 _symmetry_equiv_pos_site_id
 _symmetry_equiv_pos_as_xyz
  1  'x, y, z'
loop_
 _atom_site_type_symbol
 _atom_site_label
 _atom_site_symmetry_multiplicity
 _atom_site_fract_x
 _atom_site_fract_y
 _atom_site_fract_z
 _atom_site_occupancy
  Zr  Zr0  1  0.000000  0.345392  0.479177  1
  Zr  Zr1  1  0.000000  0.642693  0.526109  1
  Zr  Zr2  1  0.500000  0.153195  0.978966  1
  Zr  Zr3  1  0.500000  0.847826  0.019893  1
  Zr  Zr4  1  0.000000  0.085061  0.578821  1
  Zr  Zr5  1  0.000000  0.927098  0.424142  1
  Zr  Zr6  1  0.500000  0.414643  0.076409  1
  Zr  Zr7  1  0.500000  0.584277  0.922696  1
  Zr  Zr8  1  0.000000  0.688576  0.288105  1
  Zr  Zr9  1  0.000000  0.307108  0.705586  1
  Zr  Zr10  1  0.500000  0.807005  0.796057  1
  Zr  Zr11  1  0.500000  0.194072  0.203762  1
  Zr  Zr12  1  0.000000  0.030996  0.107888  1
  Zr  Zr13  1  0.000000  0.970106  0.891240  1
  Zr  Zr14  1  0.500000  0.468329  0.610131  1
  Zr  Zr15  1  0.500000  0.525970  0.389857  1
  Zr  Zr16  1  0.000000  0.618310  0.076556  1
  Zr  Zr17  1  0.000000  0.381483  0.922612  1
  Zr  Zr18  1  0.500000  0.883866  0.580563  1
  Zr  Zr19  1  0.500000  0.121413  0.423714  1
  Zr  Zr20  1  0.000000  0.409265  0.241792  1
  Zr  Zr21  1  0.000000  0.588436  0.758178  1
  Zr  Zr22  1  0.500000  0.088074  0.743651  1
  Zr  Zr23  1  0.500000  0.914900  0.254873  1
  Sb  Sb24  1  0.500000  0.758205  0.414111  1
  As  As25  1  0.000000  0.256468  0.085476  1
  As  As26  1  0.000000  0.743357  0.914086  1
  As  As27  1  0.500000  0.243594  0.587030  1
  Se  Se28  1  0.000000  0.815754  0.149828  1
  Se  Se29  1  0.000000  0.185339  0.849267  1
  Se  Se30  1  0.500000  0.685396  0.652742  1
  Se  Se31  1  0.500000  0.313991  0.348391  1
  Se  Se32  1  0.000000  0.072311  0.290522  1
  Se  Se33  1  0.000000  0.931033  0.709340  1
  Se  Se34  1  0.500000  0.430716  0.792880  1
  Se  Se35  1  0.500000  0.565740  0.205547  1
