# generated using pymatgen
data_Ti2NbCr3AsP2
_symmetry_space_group_name_H-M   'P 1'
_cell_length_a   6.51105142
_cell_length_b   6.51113421
_cell_length_c   3.29097300
_cell_angle_alpha   90.00000000
_cell_angle_beta   90.00000000
_cell_angle_gamma   119.77586792
_symmetry_Int_Tables_number   1
_chemical_formula_structural   Ti2NbCr3AsP2
_chemical_formula_sum   'Ti2 Nb1 Cr3 As1 P2'
_cell_volume   121.09860922
_cell_formula_units_Z   1
loop_
 _symmetry_equiv_pos_site_id
 _symmetry_equiv_pos_as_xyz
  1  'x, y, z'
loop_
 _atom_site_type_symbol
 _atom_site_label
 _atom_site_symmetry_multiplicity
 _atom_site_fract_x
 _atom_site_fract_y
 _atom_site_fract_z
 _atom_site_occupancy
  Ti  Ti0  1  0.592344  0.984048  0.500000  1
  Ti  Ti1  1  0.013111  0.606461  0.500000  1
  Nb  Nb2  1  0.393824  0.408493  0.500000  1
  Cr  Cr3  1  0.007472  0.253092  0.000000  1
  Cr  Cr4  1  0.246431  0.993219  0.000000  1
  Cr  Cr5  1  0.745571  0.753539  0.000000  1
  As  As6  1  0.672156  0.331335  0.000000  1
  P  P7  1  0.331338  0.673203  0.000000  1
  P  P8  1  0.997752  0.996611  0.500000  1
