# generated using pymatgen
data_TcSn4Au
_symmetry_space_group_name_H-M   'P 1'
_cell_length_a   6.86430500
_cell_length_b   6.86430500
_cell_length_c   5.83111600
_cell_angle_alpha   90.00000000
_cell_angle_beta   90.00000000
_cell_angle_gamma   90.00000000
_symmetry_Int_Tables_number   1
_chemical_formula_structural   TcSn4Au
_chemical_formula_sum   'Tc2 Sn8 Au2'
_cell_volume   274.75450712
_cell_formula_units_Z   2
loop_
 _symmetry_equiv_pos_site_id
 _symmetry_equiv_pos_as_xyz
  1  'x, y, z'
loop_
 _atom_site_type_symbol
 _atom_site_label
 _atom_site_symmetry_multiplicity
 _atom_site_fract_x
 _atom_site_fract_y
 _atom_site_fract_z
 _atom_site_occupancy
  Tc  Tc0  1  0.500000  0.500000  0.250000  1
  Tc  Tc1  1  0.500000  0.500000  0.750000  1
  Sn  Sn2  1  0.368116  0.175172  0.000000  1
  Sn  Sn3  1  0.631884  0.824828  0.000000  1
  Sn  Sn4  1  0.175172  0.631884  0.000000  1
  Sn  Sn5  1  0.368116  0.824828  0.500000  1
  Sn  Sn6  1  0.824828  0.368116  0.000000  1
  Sn  Sn7  1  0.631884  0.175172  0.500000  1
  Sn  Sn8  1  0.175172  0.368116  0.500000  1
  Sn  Sn9  1  0.824828  0.631884  0.500000  1
  Au  Au10  1  0.000000  0.000000  0.000000  1
  Au  Au11  1  0.000000  0.000000  0.500000  1
