# generated using pymatgen
data_Zr5InCuSb2
_symmetry_space_group_name_H-M   'P 1'
_cell_length_a   8.68001802
_cell_length_b   8.69419804
_cell_length_c   5.85895800
_cell_angle_alpha   90.00000000
_cell_angle_beta   90.00000000
_cell_angle_gamma   120.05404566
_symmetry_Int_Tables_number   1
_chemical_formula_structural   Zr5InCuSb2
_chemical_formula_sum   'Zr10 In2 Cu2 Sb4'
_cell_volume   382.70522996
_cell_formula_units_Z   2
loop_
 _symmetry_equiv_pos_site_id
 _symmetry_equiv_pos_as_xyz
  1  'x, y, z'
loop_
 _atom_site_type_symbol
 _atom_site_label
 _atom_site_symmetry_multiplicity
 _atom_site_fract_x
 _atom_site_fract_y
 _atom_site_fract_z
 _atom_site_occupancy
  Zr  Zr0  1  0.669129  0.335129  0.998669  1
  Zr  Zr1  1  0.330871  0.666001  0.998669  1
  Zr  Zr2  1  0.330871  0.666001  0.501331  1
  Zr  Zr3  1  0.669129  0.335129  0.501331  1
  Zr  Zr4  1  0.733668  0.732357  0.750000  1
  Zr  Zr5  1  0.266332  0.998689  0.750000  1
  Zr  Zr6  1  0.000000  0.269564  0.750000  1
  Zr  Zr7  1  0.262459  0.260680  0.250000  1
  Zr  Zr8  1  0.737541  0.998220  0.250000  1
  Zr  Zr9  1  0.000000  0.736619  0.250000  1
  In  In10  1  0.383571  0.382802  0.750000  1
  In  In11  1  0.616429  0.999231  0.750000  1
  Cu  Cu12  1  0.000000  0.003279  0.511169  1
  Cu  Cu13  1  0.000000  0.003279  0.988831  1
  Sb  Sb14  1  0.000000  0.616398  0.750000  1
  Sb  Sb15  1  0.610619  0.612049  0.250000  1
  Sb  Sb16  1  0.389381  0.001430  0.250000  1
  Sb  Sb17  1  0.000000  0.383143  0.250000  1
