# generated using pymatgen
data_Hf18Re7PtWS
_symmetry_space_group_name_H-M   'P 1'
_cell_length_a   8.66114000
_cell_length_b   8.66113177
_cell_length_c   8.53855900
_cell_angle_alpha   89.99997498
_cell_angle_beta   89.99996017
_cell_angle_gamma   120.00014732
_symmetry_Int_Tables_number   1
_chemical_formula_structural   Hf18Re7PtWS
_chemical_formula_sum   'Hf18 Re7 Pt1 W1 S1'
_cell_volume   554.70780342
_cell_formula_units_Z   1
loop_
 _symmetry_equiv_pos_site_id
 _symmetry_equiv_pos_as_xyz
  1  'x, y, z'
loop_
 _atom_site_type_symbol
 _atom_site_label
 _atom_site_symmetry_multiplicity
 _atom_site_fract_x
 _atom_site_fract_y
 _atom_site_fract_z
 _atom_site_occupancy
  Hf  Hf0  1  0.194548  0.805453  0.446917  1
  Hf  Hf1  1  0.194549  0.389099  0.446918  1
  Hf  Hf2  1  0.610903  0.805455  0.446918  1
  Hf  Hf3  1  0.803468  0.196535  0.551502  1
  Hf  Hf4  1  0.803464  0.606931  0.551505  1
  Hf  Hf5  1  0.393069  0.196536  0.551504  1
  Hf  Hf6  1  0.805207  0.194793  0.947765  1
  Hf  Hf7  1  0.805204  0.610410  0.947768  1
  Hf  Hf8  1  0.389590  0.194796  0.947768  1
  Hf  Hf9  1  0.192643  0.807358  0.053174  1
  Hf  Hf10  1  0.192641  0.385280  0.053174  1
  Hf  Hf11  1  0.614717  0.807358  0.053174  1
  Hf  Hf12  1  0.542366  0.457636  0.248592  1
  Hf  Hf13  1  0.542367  0.084734  0.248590  1
  Hf  Hf14  1  0.915269  0.457635  0.248590  1
  Hf  Hf15  1  0.454892  0.545110  0.750836  1
  Hf  Hf16  1  0.454894  0.909791  0.750836  1
  Hf  Hf17  1  0.090214  0.545109  0.750837  1
  Re  Re18  1  0.888468  0.111534  0.251585  1
  Re  Re19  1  0.888468  0.776937  0.251593  1
  Re  Re20  1  0.223066  0.111533  0.251588  1
  Re  Re21  1  0.110597  0.889401  0.749463  1
  Re  Re22  1  0.110594  0.221191  0.749460  1
  Re  Re23  1  0.778806  0.889403  0.749461  1
  Re  Re24  1  0.000000  0.999997  0.001466  1
  Pt  Pt25  1  0.333334  0.666663  0.247851  1
  W  W26  1  0.999999  0.000003  0.499568  1
  S  S27  1  0.666666  0.333317  0.751598  1
