# generated using pymatgen
data_ErTh(Al4Fe)2
_symmetry_space_group_name_H-M   'P 1'
_cell_length_a   7.60065500
_cell_length_b   4.07668900
_cell_length_c   6.80900300
_cell_angle_alpha   90.00000000
_cell_angle_beta   90.00000000
_cell_angle_gamma   90.00000000
_symmetry_Int_Tables_number   1
_chemical_formula_structural   ErTh(Al4Fe)2
_chemical_formula_sum   'Er1 Th1 Al8 Fe2'
_cell_volume   210.98040761
_cell_formula_units_Z   1
loop_
 _symmetry_equiv_pos_site_id
 _symmetry_equiv_pos_as_xyz
  1  'x, y, z'
loop_
 _atom_site_type_symbol
 _atom_site_label
 _atom_site_symmetry_multiplicity
 _atom_site_fract_x
 _atom_site_fract_y
 _atom_site_fract_z
 _atom_site_occupancy
  Er  Er0  1  0.750000  0.000000  0.884159  1
  Th  Th1  1  0.250000  0.000000  0.112600  1
  Al  Al2  1  0.572155  0.500000  0.193933  1
  Al  Al3  1  0.927845  0.500000  0.193933  1
  Al  Al4  1  0.250000  0.500000  0.464009  1
  Al  Al5  1  0.998953  0.000000  0.501942  1
  Al  Al6  1  0.501047  0.000000  0.501942  1
  Al  Al7  1  0.750000  0.500000  0.541549  1
  Al  Al8  1  0.066214  0.500000  0.802214  1
  Al  Al9  1  0.433787  0.500000  0.802214  1
  Fe  Fe10  1  0.750000  0.000000  0.302348  1
  Fe  Fe11  1  0.250000  0.000000  0.699166  1
