# generated using pymatgen
data_Y4TmLu5Ru4
_symmetry_space_group_name_H-M   'P 1'
_cell_length_a   6.24328235
_cell_length_b   7.27785706
_cell_length_c   8.37274692
_cell_angle_alpha   97.16861552
_cell_angle_beta   111.87384194
_cell_angle_gamma   89.97055922
_symmetry_Int_Tables_number   1
_chemical_formula_structural   Y4TmLu5Ru4
_chemical_formula_sum   'Y4 Tm1 Lu5 Ru4'
_cell_volume   349.85265772
_cell_formula_units_Z   1
loop_
 _symmetry_equiv_pos_site_id
 _symmetry_equiv_pos_as_xyz
  1  'x, y, z'
loop_
 _atom_site_type_symbol
 _atom_site_label
 _atom_site_symmetry_multiplicity
 _atom_site_fract_x
 _atom_site_fract_y
 _atom_site_fract_z
 _atom_site_occupancy
  Y  Y0  1  0.523180  0.081986  0.809865  1
  Y  Y1  1  0.477487  0.917718  0.190154  1
  Y  Y2  1  0.712930  0.418026  0.190383  1
  Y  Y3  1  0.286496  0.582280  0.809726  1
  Tm  Tm4  1  0.300834  0.314437  0.433673  1
  Lu  Lu5  1  0.699455  0.685444  0.566543  1
  Lu  Lu6  1  0.867109  0.185304  0.566401  1
  Lu  Lu7  1  0.132649  0.814633  0.433844  1
  Lu  Lu8  1  0.080150  0.250150  0.999719  1
  Lu  Lu9  1  0.919567  0.749753  0.999925  1
  Ru  Ru10  1  0.314276  0.575750  0.222590  1
  Ru  Ru11  1  0.686699  0.424426  0.777406  1
  Ru  Ru12  1  0.090830  0.925020  0.777238  1
  Ru  Ru13  1  0.908339  0.075074  0.222533  1
