# generated using pymatgen
data_Li3Pr3Pd2Rh
_symmetry_space_group_name_H-M   'P 1'
_cell_length_a   7.42850300
_cell_length_b   7.42850248
_cell_length_c   4.12075600
_cell_angle_alpha   90.00000000
_cell_angle_beta   90.00000000
_cell_angle_gamma   119.99999786
_symmetry_Int_Tables_number   1
_chemical_formula_structural   Li3Pr3Pd2Rh
_chemical_formula_sum   'Li3 Pr3 Pd2 Rh1'
_cell_volume   196.92919997
_cell_formula_units_Z   1
loop_
 _symmetry_equiv_pos_site_id
 _symmetry_equiv_pos_as_xyz
  1  'x, y, z'
loop_
 _atom_site_type_symbol
 _atom_site_label
 _atom_site_symmetry_multiplicity
 _atom_site_fract_x
 _atom_site_fract_y
 _atom_site_fract_z
 _atom_site_occupancy
  Li  Li0  1  0.767534  0.768755  0.000000  1
  Li  Li1  1  0.001222  0.232466  0.000000  1
  Li  Li2  1  0.231245  0.998778  0.000000  1
  Pr  Pr3  1  0.580511  0.990968  0.500000  1
  Pr  Pr4  1  0.410457  0.419489  0.500000  1
  Pr  Pr5  1  0.009032  0.589543  0.500000  1
  Pd  Pd6  1  0.000000  0.000000  0.500000  1
  Pd  Pd7  1  0.666667  0.333333  0.000000  1
  Rh  Rh8  1  0.333333  0.666667  0.000000  1
