# generated using pymatgen
data_Ba2(SrCu2)3
_symmetry_space_group_name_H-M   'P 1'
_cell_length_a   16.44900729
_cell_length_b   16.44900756
_cell_length_c   4.50249800
_cell_angle_alpha   90.00000000
_cell_angle_beta   90.00000000
_cell_angle_gamma   165.33715802
_symmetry_Int_Tables_number   1
_chemical_formula_structural   Ba2(SrCu2)3
_chemical_formula_sum   'Ba2 Sr3 Cu6'
_cell_volume   308.37385633
_cell_formula_units_Z   1
loop_
 _symmetry_equiv_pos_site_id
 _symmetry_equiv_pos_as_xyz
  1  'x, y, z'
loop_
 _atom_site_type_symbol
 _atom_site_label
 _atom_site_symmetry_multiplicity
 _atom_site_fract_x
 _atom_site_fract_y
 _atom_site_fract_z
 _atom_site_occupancy
  Ba  Ba0  1  0.614498  0.385500  0.000000  1
  Ba  Ba1  1  0.385500  0.614498  0.000000  1
  Sr  Sr2  1  0.000000  0.000000  0.000000  1
  Sr  Sr3  1  0.799615  0.200383  0.500001  1
  Sr  Sr4  1  0.200383  0.799615  0.500001  1
  Cu  Cu5  1  0.729647  0.270351  0.000000  1
  Cu  Cu6  1  0.270351  0.729647  0.000000  1
  Cu  Cu7  1  0.923690  0.076309  0.500001  1
  Cu  Cu8  1  0.538554  0.461444  0.500001  1
  Cu  Cu9  1  0.461444  0.538554  0.500001  1
  Cu  Cu10  1  0.076309  0.923690  0.500001  1
