# generated using pymatgen
data_Tm12TlCo5
_symmetry_space_group_name_H-M   'P 1'
_cell_length_a   8.17566358
_cell_length_b   8.17566396
_cell_length_c   8.17566315
_cell_angle_alpha   110.98399793
_cell_angle_beta   110.80575054
_cell_angle_gamma   106.66000707
_symmetry_Int_Tables_number   1
_chemical_formula_structural   Tm12TlCo5
_chemical_formula_sum   'Tm12 Tl1 Co5'
_cell_volume   419.91957421
_cell_formula_units_Z   1
loop_
 _symmetry_equiv_pos_site_id
 _symmetry_equiv_pos_as_xyz
  1  'x, y, z'
loop_
 _atom_site_type_symbol
 _atom_site_label
 _atom_site_symmetry_multiplicity
 _atom_site_fract_x
 _atom_site_fract_y
 _atom_site_fract_z
 _atom_site_occupancy
  Tm  Tm0  1  0.287773  0.184667  0.472440  1
  Tm  Tm1  1  0.712227  0.815333  0.527560  1
  Tm  Tm2  1  0.287773  0.815333  0.103106  1
  Tm  Tm3  1  0.712227  0.184667  0.896894  1
  Tm  Tm4  1  0.619862  0.314366  0.305495  1
  Tm  Tm5  1  0.380138  0.685634  0.694505  1
  Tm  Tm6  1  0.008871  0.314366  0.694505  1
  Tm  Tm7  1  0.991129  0.685634  0.305495  1
  Tm  Tm8  1  0.212773  0.405303  0.192530  1
  Tm  Tm9  1  0.787227  0.594697  0.807470  1
  Tm  Tm10  1  0.212773  0.020244  0.807470  1
  Tm  Tm11  1  0.787227  0.979756  0.192530  1
  Tl  Tl12  1  0.500000  0.500000  0.000000  1
  Co  Co13  1  0.000000  0.376711  0.376711  1
  Co  Co14  1  0.000000  0.623289  0.623289  1
  Co  Co15  1  0.387220  0.887220  0.500000  1
  Co  Co16  1  0.612780  0.112780  0.500000  1
  Co  Co17  1  0.000000  0.000000  0.000000  1
