# generated using pymatgen
data_Nb6VInSe12
_symmetry_space_group_name_H-M   'P 1'
_cell_length_a   6.06409100
_cell_length_b   6.06409311
_cell_length_c   14.50455600
_cell_angle_alpha   90.00000000
_cell_angle_beta   90.00000000
_cell_angle_gamma   119.99999397
_symmetry_Int_Tables_number   1
_chemical_formula_structural   Nb6VInSe12
_chemical_formula_sum   'Nb6 V1 In1 Se12'
_cell_volume   461.91989494
_cell_formula_units_Z   1
loop_
 _symmetry_equiv_pos_site_id
 _symmetry_equiv_pos_as_xyz
  1  'x, y, z'
loop_
 _atom_site_type_symbol
 _atom_site_label
 _atom_site_symmetry_multiplicity
 _atom_site_fract_x
 _atom_site_fract_y
 _atom_site_fract_z
 _atom_site_occupancy
  Nb  Nb0  1  0.000000  0.000000  0.529139  1
  Nb  Nb1  1  0.000000  0.000000  0.970861  1
  Nb  Nb2  1  0.333333  0.666667  0.970302  1
  Nb  Nb3  1  0.666667  0.333333  0.970510  1
  Nb  Nb4  1  0.666667  0.333333  0.529490  1
  Nb  Nb5  1  0.333333  0.666667  0.529698  1
  V  V6  1  0.666667  0.333333  0.750000  1
  In  In7  1  0.333333  0.666667  0.250000  1
  Se  Se8  1  0.333795  0.333237  0.414293  1
  Se  Se9  1  0.666763  0.000558  0.414293  1
  Se  Se10  1  0.999442  0.666205  0.414293  1
  Se  Se11  1  0.331249  0.332979  0.644403  1
  Se  Se12  1  0.001731  0.668751  0.644403  1
  Se  Se13  1  0.667021  0.998269  0.644403  1
  Se  Se14  1  0.667021  0.668751  0.855597  1
  Se  Se15  1  0.331249  0.998269  0.855597  1
  Se  Se16  1  0.001731  0.332979  0.855597  1
  Se  Se17  1  0.666763  0.666205  0.085707  1
  Se  Se18  1  0.999442  0.333237  0.085707  1
  Se  Se19  1  0.333795  0.000558  0.085707  1
