# generated using pymatgen
data_Lu2Co6Si7Ru6
_symmetry_space_group_name_H-M   'P 1'
_cell_length_a   9.32752800
_cell_length_b   9.32752682
_cell_length_c   3.77396400
_cell_angle_alpha   90.00000000
_cell_angle_beta   90.00000000
_cell_angle_gamma   120.00000227
_symmetry_Int_Tables_number   1
_chemical_formula_structural   Lu2Co6Si7Ru6
_chemical_formula_sum   'Lu2 Co6 Si7 Ru6'
_cell_volume   284.35537571
_cell_formula_units_Z   1
loop_
 _symmetry_equiv_pos_site_id
 _symmetry_equiv_pos_as_xyz
  1  'x, y, z'
loop_
 _atom_site_type_symbol
 _atom_site_label
 _atom_site_symmetry_multiplicity
 _atom_site_fract_x
 _atom_site_fract_y
 _atom_site_fract_z
 _atom_site_occupancy
  Lu  Lu0  1  0.333333  0.666667  0.000000  1
  Lu  Lu1  1  0.666667  0.333333  0.500000  1
  Co  Co2  1  0.150468  0.275715  0.000000  1
  Co  Co3  1  0.724285  0.874752  0.000000  1
  Co  Co4  1  0.125248  0.849532  0.000000  1
  Co  Co5  1  0.425646  0.058571  0.000000  1
  Co  Co6  1  0.941429  0.367075  0.000000  1
  Co  Co7  1  0.632925  0.574354  0.000000  1
  Si  Si8  1  0.108687  0.393001  0.500000  1
  Si  Si9  1  0.606999  0.715686  0.500000  1
  Si  Si10  1  0.284314  0.891313  0.500000  1
  Si  Si11  1  0.407621  0.294871  0.000000  1
  Si  Si12  1  0.705129  0.112750  0.000000  1
  Si  Si13  1  0.887250  0.592379  0.000000  1
  Si  Si14  1  0.000000  0.000000  0.000000  1
  Ru  Ru15  1  0.387713  0.440552  0.500000  1
  Ru  Ru16  1  0.559448  0.947161  0.500000  1
  Ru  Ru17  1  0.052839  0.612287  0.500000  1
  Ru  Ru18  1  0.210569  0.099549  0.500000  1
  Ru  Ru19  1  0.900451  0.111021  0.500000  1
  Ru  Ru20  1  0.888979  0.789431  0.500000  1
