# generated using pymatgen
data_K8ErNp3F20
_symmetry_space_group_name_H-M   'P 1'
_cell_length_a   6.67698742
_cell_length_b   7.62692100
_cell_length_c   11.16872572
_cell_angle_alpha   90.00000000
_cell_angle_beta   90.97701154
_cell_angle_gamma   90.00000000
_symmetry_Int_Tables_number   1
_chemical_formula_structural   K8ErNp3F20
_chemical_formula_sum   'K8 Er1 Np3 F20'
_cell_volume   568.68305512
_cell_formula_units_Z   1
loop_
 _symmetry_equiv_pos_site_id
 _symmetry_equiv_pos_as_xyz
  1  'x, y, z'
loop_
 _atom_site_type_symbol
 _atom_site_label
 _atom_site_symmetry_multiplicity
 _atom_site_fract_x
 _atom_site_fract_y
 _atom_site_fract_z
 _atom_site_occupancy
  K  K0  1  0.527415  0.500666  0.831474  1
  K  K1  1  0.471223  0.506665  0.168171  1
  K  K2  1  0.027480  0.504800  0.676396  1
  K  K3  1  0.471223  0.993335  0.168171  1
  K  K4  1  0.971700  0.499252  0.324169  1
  K  K5  1  0.527415  0.999334  0.831474  1
  K  K6  1  0.971700  0.000748  0.324169  1
  K  K7  1  0.027480  0.995200  0.676396  1
  Er  Er8  1  0.940198  0.750000  0.000515  1
  Np  Np9  1  0.559159  0.750000  0.501562  1
  Np  Np10  1  0.439169  0.250000  0.498797  1
  Np  Np11  1  0.058232  0.250000  0.997777  1
  F  F12  1  0.838874  0.750000  0.811928  1
  F  F13  1  0.161232  0.250000  0.197231  1
  F  F14  1  0.332064  0.250000  0.699113  1
  F  F15  1  0.665566  0.750000  0.302490  1
  F  F16  1  0.361083  0.750000  0.671559  1
  F  F17  1  0.637722  0.250000  0.328089  1
  F  F18  1  0.857757  0.250000  0.827353  1
  F  F19  1  0.135642  0.750000  0.159653  1
  F  F20  1  0.906306  0.750000  0.511708  1
  F  F21  1  0.093065  0.250000  0.489149  1
  F  F22  1  0.404113  0.250000  0.991010  1
  F  F23  1  0.613779  0.750000  0.011144  1
  F  F24  1  0.641956  0.028506  0.589820  1
  F  F25  1  0.356235  0.970812  0.410107  1
  F  F26  1  0.143722  0.957278  0.922667  1
  F  F27  1  0.356235  0.529188  0.410107  1
  F  F28  1  0.858287  0.017578  0.077657  1
  F  F29  1  0.641956  0.471494  0.589820  1
  F  F30  1  0.858287  0.482422  0.077657  1
  F  F31  1  0.143722  0.542722  0.922667  1
