# generated using pymatgen
data_Yb4P8Pd15Pt
_symmetry_space_group_name_H-M   'P 1'
_cell_length_a   4.18694200
_cell_length_b   7.42715354
_cell_length_c   15.06792500
_cell_angle_alpha   90.15317663
_cell_angle_beta   90.00000000
_cell_angle_gamma   90.00000000
_symmetry_Int_Tables_number   1
_chemical_formula_structural   Yb4P8Pd15Pt
_chemical_formula_sum   'Yb4 P8 Pd15 Pt1'
_cell_volume   468.56650996
_cell_formula_units_Z   1
loop_
 _symmetry_equiv_pos_site_id
 _symmetry_equiv_pos_as_xyz
  1  'x, y, z'
loop_
 _atom_site_type_symbol
 _atom_site_label
 _atom_site_symmetry_multiplicity
 _atom_site_fract_x
 _atom_site_fract_y
 _atom_site_fract_z
 _atom_site_occupancy
  Yb  Yb0  1  0.250000  0.859396  0.184050  1
  Yb  Yb1  1  0.750000  0.138331  0.816036  1
  Yb  Yb2  1  0.250000  0.360903  0.315677  1
  Yb  Yb3  1  0.750000  0.641283  0.683938  1
  P  P4  1  0.250000  0.312944  0.694688  1
  P  P5  1  0.250000  0.778904  0.554182  1
  P  P6  1  0.750000  0.219292  0.443373  1
  P  P7  1  0.750000  0.186139  0.193746  1
  P  P8  1  0.250000  0.813299  0.805463  1
  P  P9  1  0.250000  0.280215  0.945694  1
  P  P10  1  0.750000  0.718721  0.054540  1
  P  P11  1  0.750000  0.685861  0.306021  1
  Pd  Pd12  1  0.250000  0.984873  0.674589  1
  Pd  Pd13  1  0.250000  0.484470  0.824607  1
  Pd  Pd14  1  0.750000  0.379524  0.994200  1
  Pd  Pd15  1  0.750000  0.741296  0.884311  1
  Pd  Pd16  1  0.750000  0.534515  0.445927  1
  Pd  Pd17  1  0.750000  0.239981  0.616397  1
  Pd  Pd18  1  0.750000  0.514717  0.175392  1
  Pd  Pd19  1  0.750000  0.032272  0.055292  1
  Pd  Pd20  1  0.250000  0.758086  0.384685  1
  Pd  Pd21  1  0.250000  0.258006  0.115496  1
  Pd  Pd22  1  0.250000  0.967094  0.944053  1
  Pd  Pd23  1  0.250000  0.124754  0.493626  1
  Pd  Pd24  1  0.750000  0.882531  0.506052  1
  Pd  Pd25  1  0.750000  0.013768  0.323603  1
  Pd  Pd26  1  0.250000  0.620523  0.005380  1
  Pt  Pt27  1  0.250000  0.468306  0.558982  1
