# generated using pymatgen
data_Tb3GaC3
_symmetry_space_group_name_H-M   'P 1'
_cell_length_a   3.59428600
_cell_length_b   7.09667100
_cell_length_c   9.94351100
_cell_angle_alpha   90.00000000
_cell_angle_beta   90.00000000
_cell_angle_gamma   90.00000000
_symmetry_Int_Tables_number   1
_chemical_formula_structural   Tb3GaC3
_chemical_formula_sum   'Tb6 Ga2 C6'
_cell_volume   253.63376102
_cell_formula_units_Z   2
loop_
 _symmetry_equiv_pos_site_id
 _symmetry_equiv_pos_as_xyz
  1  'x, y, z'
loop_
 _atom_site_type_symbol
 _atom_site_label
 _atom_site_symmetry_multiplicity
 _atom_site_fract_x
 _atom_site_fract_y
 _atom_site_fract_z
 _atom_site_occupancy
  Tb  Tb0  1  0.500000  0.509430  0.197400  1
  Tb  Tb1  1  0.500000  0.490570  0.802600  1
  Tb  Tb2  1  0.500000  0.990570  0.197400  1
  Tb  Tb3  1  0.500000  0.009430  0.802600  1
  Tb  Tb4  1  0.000000  0.750000  0.458356  1
  Tb  Tb5  1  0.000000  0.250000  0.541644  1
  Ga  Ga6  1  0.000000  0.750000  0.003068  1
  Ga  Ga7  1  0.000000  0.250000  0.996932  1
  C  C8  1  0.500000  0.508888  0.566290  1
  C  C9  1  0.500000  0.491112  0.433710  1
  C  C10  1  0.500000  0.991112  0.566290  1
  C  C11  1  0.500000  0.008888  0.433710  1
  C  C12  1  0.000000  0.750000  0.209730  1
  C  C13  1  0.000000  0.250000  0.790270  1
