# generated using pymatgen
data_BaPaF7
_symmetry_space_group_name_H-M   'P 1'
_cell_length_a   10.07768600
_cell_length_b   6.08014069
_cell_length_c   10.42387194
_cell_angle_alpha   87.42189311
_cell_angle_beta   90.00000000
_cell_angle_gamma   90.00000000
_symmetry_Int_Tables_number   1
_chemical_formula_structural   BaPaF7
_chemical_formula_sum   'Ba4 Pa4 F28'
_cell_volume   638.06322732
_cell_formula_units_Z   4
loop_
 _symmetry_equiv_pos_site_id
 _symmetry_equiv_pos_as_xyz
  1  'x, y, z'
loop_
 _atom_site_type_symbol
 _atom_site_label
 _atom_site_symmetry_multiplicity
 _atom_site_fract_x
 _atom_site_fract_y
 _atom_site_fract_z
 _atom_site_occupancy
  Ba  Ba0  1  0.307313  0.285424  0.515232  1
  Ba  Ba1  1  0.807313  0.714576  0.984768  1
  Ba  Ba2  1  0.692687  0.714576  0.484768  1
  Ba  Ba3  1  0.192687  0.285424  0.015232  1
  Pa  Pa4  1  0.614031  0.220020  0.215903  1
  Pa  Pa5  1  0.385969  0.779980  0.784097  1
  Pa  Pa6  1  0.885969  0.220020  0.715903  1
  Pa  Pa7  1  0.114031  0.779980  0.284097  1
  F  F8  1  0.393096  0.077530  0.887794  1
  F  F9  1  0.051725  0.340495  0.610910  1
  F  F10  1  0.725581  0.527780  0.241794  1
  F  F11  1  0.274419  0.472220  0.758206  1
  F  F12  1  0.485057  0.005576  0.643485  1
  F  F13  1  0.769663  0.293027  0.542745  1
  F  F14  1  0.775392  0.051020  0.307366  1
  F  F15  1  0.985057  0.994424  0.856515  1
  F  F16  1  0.448275  0.340495  0.110910  1
  F  F17  1  0.225581  0.472220  0.258206  1
  F  F18  1  0.106904  0.077530  0.387794  1
  F  F19  1  0.606904  0.922470  0.112206  1
  F  F20  1  0.275392  0.948980  0.192634  1
  F  F21  1  0.020417  0.583831  0.128466  1
  F  F22  1  0.514943  0.994424  0.356515  1
  F  F23  1  0.014943  0.005576  0.143485  1
  F  F24  1  0.224608  0.948980  0.692634  1
  F  F25  1  0.893096  0.922470  0.612206  1
  F  F26  1  0.520417  0.416169  0.371534  1
  F  F27  1  0.948275  0.659505  0.389090  1
  F  F28  1  0.979583  0.416169  0.871534  1
  F  F29  1  0.724608  0.051020  0.807366  1
  F  F30  1  0.479583  0.583831  0.628466  1
  F  F31  1  0.269663  0.706973  0.957255  1
  F  F32  1  0.230337  0.706973  0.457255  1
  F  F33  1  0.730337  0.293027  0.042745  1
  F  F34  1  0.551725  0.659505  0.889090  1
  F  F35  1  0.774419  0.527780  0.741794  1
