# generated using pymatgen
data_BiPdBr18
_symmetry_space_group_name_H-M   'P 1'
_cell_length_a   9.32747549
_cell_length_b   9.46127734
_cell_length_c   9.45580599
_cell_angle_alpha   87.37269777
_cell_angle_beta   88.18477222
_cell_angle_gamma   87.02077660
_symmetry_Int_Tables_number   1
_chemical_formula_structural   BiPdBr18
_chemical_formula_sum   'Bi1 Pd1 Br18'
_cell_volume   832.11049542
_cell_formula_units_Z   1
loop_
 _symmetry_equiv_pos_site_id
 _symmetry_equiv_pos_as_xyz
  1  'x, y, z'
loop_
 _atom_site_type_symbol
 _atom_site_label
 _atom_site_symmetry_multiplicity
 _atom_site_fract_x
 _atom_site_fract_y
 _atom_site_fract_z
 _atom_site_occupancy
  Bi  Bi0  1  0.000000  0.000000  0.000000  1
  Pd  Pd1  1  0.500000  0.500000  0.500000  1
  Br  Br2  1  0.766849  0.462432  0.509914  1
  Br  Br3  1  0.513016  0.775926  0.460346  1
  Br  Br4  1  0.461540  0.513837  0.776374  1
  Br  Br5  1  0.233151  0.537568  0.490086  1
  Br  Br6  1  0.486984  0.224074  0.539654  1
  Br  Br7  1  0.538460  0.486163  0.223626  1
  Br  Br8  1  0.879761  0.382048  0.746153  1
  Br  Br9  1  0.745509  0.884323  0.381762  1
  Br  Br10  1  0.383358  0.744128  0.883278  1
  Br  Br11  1  0.120239  0.617952  0.253847  1
  Br  Br12  1  0.254491  0.115677  0.618238  1
  Br  Br13  1  0.616642  0.255872  0.116722  1
  Br  Br14  1  0.030733  0.971457  0.695002  1
  Br  Br15  1  0.691111  0.031325  0.973247  1
  Br  Br16  1  0.973423  0.692701  0.036681  1
  Br  Br17  1  0.969267  0.028543  0.304998  1
  Br  Br18  1  0.308889  0.968675  0.026753  1
  Br  Br19  1  0.026577  0.307299  0.963319  1
