# generated using pymatgen
data_Sr4TeW3O16
_symmetry_space_group_name_H-M   'P 1'
_cell_length_a   5.13712691
_cell_length_b   5.63739891
_cell_length_c   13.13317700
_cell_angle_alpha   90.00000000
_cell_angle_beta   90.00000000
_cell_angle_gamma   89.62140748
_symmetry_Int_Tables_number   1
_chemical_formula_structural   Sr4TeW3O16
_chemical_formula_sum   'Sr4 Te1 W3 O16'
_cell_volume   380.32894451
_cell_formula_units_Z   1
loop_
 _symmetry_equiv_pos_site_id
 _symmetry_equiv_pos_as_xyz
  1  'x, y, z'
loop_
 _atom_site_type_symbol
 _atom_site_label
 _atom_site_symmetry_multiplicity
 _atom_site_fract_x
 _atom_site_fract_y
 _atom_site_fract_z
 _atom_site_occupancy
  Sr  Sr0  1  0.750000  0.000000  0.661819  1
  Sr  Sr1  1  0.250000  0.500000  0.839122  1
  Sr  Sr2  1  0.250000  0.000000  0.343466  1
  Sr  Sr3  1  0.750000  0.500000  0.160499  1
  Te  Te4  1  0.750000  0.000000  0.928119  1
  W  W5  1  0.750000  0.500000  0.423589  1
  W  W6  1  0.250000  0.000000  0.075617  1
  W  W7  1  0.250000  0.500000  0.574563  1
  O  O8  1  0.124448  0.290628  0.669046  1
  O  O9  1  0.619037  0.210632  0.829971  1
  O  O10  1  0.880963  0.789368  0.829971  1
  O  O11  1  0.375552  0.709372  0.669046  1
  O  O12  1  0.873159  0.710308  0.327679  1
  O  O13  1  0.361133  0.782831  0.170498  1
  O  O14  1  0.138867  0.217169  0.170498  1
  O  O15  1  0.626841  0.289692  0.327679  1
  O  O16  1  0.559308  0.310600  0.541705  1
  O  O17  1  0.058484  0.190994  0.958936  1
  O  O18  1  0.441516  0.809006  0.958936  1
  O  O19  1  0.940692  0.689400  0.541705  1
  O  O20  1  0.440599  0.688744  0.454988  1
  O  O21  1  0.935980  0.813418  0.043781  1
  O  O22  1  0.564020  0.186582  0.043781  1
  O  O23  1  0.059401  0.311256  0.454988  1
