# generated using pymatgen
data_Pr4Sn7GePt4
_symmetry_space_group_name_H-M   'P 1'
_cell_length_a   10.32373027
_cell_length_b   10.39916176
_cell_length_c   10.39916146
_cell_angle_alpha   154.39231402
_cell_angle_beta   125.46822948
_cell_angle_gamma   61.22912132
_symmetry_Int_Tables_number   1
_chemical_formula_structural   Pr4Sn7GePt4
_chemical_formula_sum   'Pr4 Sn7 Ge1 Pt4'
_cell_volume   390.19051695
_cell_formula_units_Z   1
loop_
 _symmetry_equiv_pos_site_id
 _symmetry_equiv_pos_as_xyz
  1  'x, y, z'
loop_
 _atom_site_type_symbol
 _atom_site_label
 _atom_site_symmetry_multiplicity
 _atom_site_fract_x
 _atom_site_fract_y
 _atom_site_fract_z
 _atom_site_occupancy
  Pr  Pr0  1  0.762982  0.998760  0.764221  1
  Pr  Pr1  1  0.232692  0.999774  0.232918  1
  Pr  Pr2  1  0.212968  0.206539  0.006430  1
  Pr  Pr3  1  0.793337  0.797106  0.996231  1
  Sn  Sn4  1  0.420976  0.419511  0.001465  1
  Sn  Sn5  1  0.579150  0.581148  0.998002  1
  Sn  Sn6  1  0.916620  0.421944  0.494677  1
  Sn  Sn7  1  0.076153  0.577433  0.498720  1
  Sn  Sn8  1  0.859629  0.200527  0.659102  1
  Sn  Sn9  1  0.152541  0.802511  0.350028  1
  Sn  Sn10  1  0.544996  0.198272  0.346723  1
  Ge  Ge11  1  0.459389  0.797618  0.661770  1
  Pt  Pt12  1  0.097753  0.352687  0.745069  1
  Pt  Pt13  1  0.903295  0.649066  0.254229  1
  Pt  Pt14  1  0.591644  0.345433  0.246211  1
  Pt  Pt15  1  0.395876  0.651670  0.744206  1
