# generated using pymatgen
data_Nd2Hg6(PCl3)3
_symmetry_space_group_name_H-M   'P 1'
_cell_length_a   11.21516800
_cell_length_b   10.80464051
_cell_length_c   11.35145800
_cell_angle_alpha   63.73786247
_cell_angle_beta   90.00000000
_cell_angle_gamma   90.00000000
_symmetry_Int_Tables_number   1
_chemical_formula_structural   Nd2Hg6(PCl3)3
_chemical_formula_sum   'Nd4 Hg12 P6 Cl18'
_cell_volume   1233.53987969
_cell_formula_units_Z   2
loop_
 _symmetry_equiv_pos_site_id
 _symmetry_equiv_pos_as_xyz
  1  'x, y, z'
loop_
 _atom_site_type_symbol
 _atom_site_label
 _atom_site_symmetry_multiplicity
 _atom_site_fract_x
 _atom_site_fract_y
 _atom_site_fract_z
 _atom_site_occupancy
  Nd  Nd0  1  0.882811  0.351877  0.918370  1
  Nd  Nd1  1  0.382811  0.648123  0.081630  1
  Nd  Nd2  1  0.735326  0.701300  0.668738  1
  Nd  Nd3  1  0.235326  0.298700  0.331262  1
  Hg  Hg4  1  0.479751  0.169248  0.004489  1
  Hg  Hg5  1  0.979751  0.830752  0.995511  1
  Hg  Hg6  1  0.557986  0.268036  0.624809  1
  Hg  Hg7  1  0.057986  0.731964  0.375191  1
  Hg  Hg8  1  0.311714  0.509920  0.664942  1
  Hg  Hg9  1  0.811714  0.490080  0.335058  1
  Hg  Hg10  1  0.722224  0.871132  0.224171  1
  Hg  Hg11  1  0.222224  0.128868  0.775829  1
  Hg  Hg12  1  0.642885  0.149076  0.347559  1
  Hg  Hg13  1  0.142885  0.850924  0.652441  1
  Hg  Hg14  1  0.384921  0.883261  0.369937  1
  Hg  Hg15  1  0.884921  0.116739  0.630063  1
  P  P16  1  0.555684  0.021138  0.231544  1
  P  P17  1  0.055684  0.978862  0.768456  1
  P  P18  1  0.723280  0.261383  0.481338  1
  P  P19  1  0.223280  0.738617  0.518662  1
  P  P20  1  0.398262  0.271813  0.775192  1
  P  P21  1  0.898262  0.728187  0.224808  1
  Cl  Cl22  1  0.786810  0.120892  0.919590  1
  Cl  Cl23  1  0.286810  0.879108  0.080410  1
  Cl  Cl24  1  0.875001  0.888066  0.475624  1
  Cl  Cl25  1  0.375001  0.111934  0.524376  1
  Cl  Cl26  1  0.647266  0.461029  0.873793  1
  Cl  Cl27  1  0.147266  0.538971  0.126207  1
  Cl  Cl28  1  0.922550  0.635992  0.852193  1
  Cl  Cl29  1  0.422550  0.364008  0.147807  1
  Cl  Cl30  1  0.871588  0.490107  0.639932  1
  Cl  Cl31  1  0.371588  0.509893  0.360068  1
  Cl  Cl32  1  0.583714  0.658423  0.505810  1
  Cl  Cl33  1  0.083714  0.341577  0.494190  1
  Cl  Cl34  1  0.653734  0.908962  0.709059  1
  Cl  Cl35  1  0.153734  0.091038  0.290941  1
  Cl  Cl36  1  0.852368  0.300232  0.170226  1
  Cl  Cl37  1  0.352368  0.699768  0.829774  1
  Cl  Cl38  1  0.113294  0.303547  0.899259  1
  Cl  Cl39  1  0.613294  0.696453  0.100741  1
