# generated using pymatgen
data_La8YbDyIr6
_symmetry_space_group_name_H-M   'P 1'
_cell_length_a   11.36116000
_cell_length_b   11.36116000
_cell_length_c   6.52536300
_cell_angle_alpha   90.00000000
_cell_angle_beta   90.00000000
_cell_angle_gamma   90.00000000
_symmetry_Int_Tables_number   1
_chemical_formula_structural   La8YbDyIr6
_chemical_formula_sum   'La16 Yb2 Dy2 Ir12'
_cell_volume   842.26747103
_cell_formula_units_Z   2
loop_
 _symmetry_equiv_pos_site_id
 _symmetry_equiv_pos_as_xyz
  1  'x, y, z'
loop_
 _atom_site_type_symbol
 _atom_site_label
 _atom_site_symmetry_multiplicity
 _atom_site_fract_x
 _atom_site_fract_y
 _atom_site_fract_z
 _atom_site_occupancy
  La  La0  1  0.288349  0.089508  0.388364  1
  La  La1  1  0.288349  0.910492  0.888364  1
  La  La2  1  0.711651  0.089508  0.888364  1
  La  La3  1  0.711651  0.910492  0.388364  1
  La  La4  1  0.588737  0.787324  0.890022  1
  La  La5  1  0.588737  0.212676  0.390022  1
  La  La6  1  0.411263  0.787324  0.390022  1
  La  La7  1  0.411263  0.212676  0.890022  1
  La  La8  1  0.212676  0.411263  0.609978  1
  La  La9  1  0.212676  0.588737  0.109978  1
  La  La10  1  0.787324  0.411263  0.109978  1
  La  La11  1  0.787324  0.588737  0.609978  1
  La  La12  1  0.910492  0.711651  0.111636  1
  La  La13  1  0.910492  0.288349  0.611636  1
  La  La14  1  0.089508  0.711651  0.611636  1
  La  La15  1  0.089508  0.288349  0.111636  1
  Yb  Yb16  1  0.500000  0.500000  0.000000  1
  Yb  Yb17  1  0.500000  0.500000  0.500000  1
  Dy  Dy18  1  0.000000  0.000000  0.500000  1
  Dy  Dy19  1  0.000000  0.000000  0.000000  1
  Ir  Ir20  1  0.850384  0.149616  0.250000  1
  Ir  Ir21  1  0.850384  0.850384  0.750000  1
  Ir  Ir22  1  0.149616  0.149616  0.750000  1
  Ir  Ir23  1  0.149616  0.850384  0.250000  1
  Ir  Ir24  1  0.655880  0.344120  0.750000  1
  Ir  Ir25  1  0.655880  0.655880  0.250000  1
  Ir  Ir26  1  0.344120  0.344120  0.250000  1
  Ir  Ir27  1  0.344120  0.655880  0.750000  1
  Ir  Ir28  1  0.500000  0.000000  0.116781  1
  Ir  Ir29  1  0.500000  0.000000  0.616781  1
  Ir  Ir30  1  0.000000  0.500000  0.883219  1
  Ir  Ir31  1  0.000000  0.500000  0.383219  1
