# generated using pymatgen
data_Rb4SmPaTe6
_symmetry_space_group_name_H-M   'P 1'
_cell_length_a   8.26768846
_cell_length_b   8.26768796
_cell_length_c   8.99712514
_cell_angle_alpha   81.05819202
_cell_angle_beta   81.05819445
_cell_angle_gamma   120.03546436
_symmetry_Int_Tables_number   1
_chemical_formula_structural   Rb4SmPaTe6
_chemical_formula_sum   'Rb4 Sm1 Pa1 Te6'
_cell_volume   506.00388716
_cell_formula_units_Z   1
loop_
 _symmetry_equiv_pos_site_id
 _symmetry_equiv_pos_as_xyz
  1  'x, y, z'
loop_
 _atom_site_type_symbol
 _atom_site_label
 _atom_site_symmetry_multiplicity
 _atom_site_fract_x
 _atom_site_fract_y
 _atom_site_fract_z
 _atom_site_occupancy
  Rb  Rb0  1  0.500012  0.499988  0.000000  1
  Rb  Rb1  1  0.655392  0.344608  0.500000  1
  Rb  Rb2  1  0.344562  0.655438  0.500000  1
  Rb  Rb3  1  0.000039  0.999961  0.500000  1
  Sm  Sm4  1  0.832306  0.167694  0.000000  1
  Pa  Pa5  1  0.167719  0.832281  0.000000  1
  Te  Te6  1  0.815078  0.801719  0.201854  1
  Te  Te7  1  0.198281  0.184922  0.798146  1
  Te  Te8  1  0.417047  0.046214  0.204570  1
  Te  Te9  1  0.555673  0.939896  0.795071  1
  Te  Te10  1  0.953786  0.582953  0.795430  1
  Te  Te11  1  0.060104  0.444327  0.204929  1
