# generated using pymatgen
data_Tb3Pr15(NdSn8)2
_symmetry_space_group_name_H-M   'P 1'
_cell_length_a   8.30848350
_cell_length_b   8.46634049
_cell_length_c   16.04956806
_cell_angle_alpha   90.00639836
_cell_angle_beta   89.99213767
_cell_angle_gamma   90.00038517
_symmetry_Int_Tables_number   1
_chemical_formula_structural   Tb3Pr15(NdSn8)2
_chemical_formula_sum   'Tb3 Pr15 Nd2 Sn16'
_cell_volume   1128.96592567
_cell_formula_units_Z   1
loop_
 _symmetry_equiv_pos_site_id
 _symmetry_equiv_pos_as_xyz
  1  'x, y, z'
loop_
 _atom_site_type_symbol
 _atom_site_label
 _atom_site_symmetry_multiplicity
 _atom_site_fract_x
 _atom_site_fract_y
 _atom_site_fract_z
 _atom_site_occupancy
  Tb  Tb0  1  0.698418  0.997950  0.750082  1
  Tb  Tb1  1  0.800944  0.498509  0.249988  1
  Tb  Tb2  1  0.300710  0.001326  0.249969  1
  Pr  Pr3  1  0.867136  0.663498  0.620553  1
  Pr  Pr4  1  0.632597  0.162761  0.379441  1
  Pr  Pr5  1  0.132762  0.336858  0.121304  1
  Pr  Pr6  1  0.632654  0.162901  0.120596  1
  Pr  Pr7  1  0.132639  0.336879  0.378528  1
  Pr  Pr8  1  0.367966  0.836851  0.620165  1
  Pr  Pr9  1  0.867235  0.663512  0.879520  1
  Pr  Pr10  1  0.518967  0.318514  0.901309  1
  Pr  Pr11  1  0.018616  0.180452  0.598761  1
  Pr  Pr12  1  0.481105  0.681060  0.400536  1
  Pr  Pr13  1  0.981274  0.818860  0.099011  1
  Pr  Pr14  1  0.481065  0.681069  0.099326  1
  Pr  Pr15  1  0.981269  0.818926  0.400960  1
  Pr  Pr16  1  0.519024  0.318604  0.598744  1
  Pr  Pr17  1  0.018702  0.180395  0.901278  1
  Nd  Nd18  1  0.367750  0.836990  0.879718  1
  Nd  Nd19  1  0.197594  0.501682  0.750115  1
  Sn  Sn20  1  0.292290  0.033756  0.043945  1
  Sn  Sn21  1  0.792443  0.466064  0.455758  1
  Sn  Sn22  1  0.707813  0.965993  0.544154  1
  Sn  Sn23  1  0.208346  0.536385  0.957670  1
  Sn  Sn24  1  0.706787  0.965788  0.955757  1
  Sn  Sn25  1  0.207668  0.535453  0.542130  1
  Sn  Sn26  1  0.291996  0.034231  0.455615  1
  Sn  Sn27  1  0.792429  0.466082  0.044270  1
  Sn  Sn28  1  0.567438  0.617727  0.750233  1
  Sn  Sn29  1  0.064610  0.885660  0.750267  1
  Sn  Sn30  1  0.435531  0.383447  0.250000  1
  Sn  Sn31  1  0.934932  0.116387  0.249989  1
  Sn  Sn32  1  0.325461  0.141758  0.750284  1
  Sn  Sn33  1  0.822123  0.352896  0.750028  1
  Sn  Sn34  1  0.676242  0.854470  0.249996  1
  Sn  Sn35  1  0.175465  0.646307  0.249998  1
