# generated using pymatgen
data_Lu4Si8Os5Ru
_symmetry_space_group_name_H-M   'P 1'
_cell_length_a   10.17803337
_cell_length_b   10.17803312
_cell_length_c   13.71816207
_cell_angle_alpha   52.99443956
_cell_angle_beta   52.99444061
_cell_angle_gamma   30.77603296
_symmetry_Int_Tables_number   1
_chemical_formula_structural   Lu4Si8Os5Ru
_chemical_formula_sum   'Lu8 Si16 Os10 Ru2'
_cell_volume   568.05606413
_cell_formula_units_Z   2
loop_
 _symmetry_equiv_pos_site_id
 _symmetry_equiv_pos_as_xyz
  1  'x, y, z'
loop_
 _atom_site_type_symbol
 _atom_site_label
 _atom_site_symmetry_multiplicity
 _atom_site_fract_x
 _atom_site_fract_y
 _atom_site_fract_z
 _atom_site_occupancy
  Lu  Lu0  1  0.037895  0.290388  0.639449  1
  Lu  Lu1  1  0.709612  0.962105  0.860551  1
  Lu  Lu2  1  0.961800  0.709805  0.360551  1
  Lu  Lu3  1  0.290195  0.038200  0.139449  1
  Lu  Lu4  1  0.300496  0.555506  0.645038  1
  Lu  Lu5  1  0.444494  0.699504  0.854962  1
  Lu  Lu6  1  0.699025  0.444074  0.355608  1
  Lu  Lu7  1  0.555926  0.300975  0.144392  1
  Si  Si8  1  0.981108  0.246431  0.892976  1
  Si  Si9  1  0.753569  0.018892  0.607024  1
  Si  Si10  1  0.020105  0.753190  0.106541  1
  Si  Si11  1  0.246810  0.979895  0.393459  1
  Si  Si12  1  0.140600  0.383411  0.900175  1
  Si  Si13  1  0.616589  0.859400  0.599825  1
  Si  Si14  1  0.857967  0.616922  0.099852  1
  Si  Si15  1  0.383078  0.142033  0.400148  1
  Si  Si16  1  0.083463  0.574093  0.567851  1
  Si  Si17  1  0.425907  0.916537  0.932149  1
  Si  Si18  1  0.916962  0.425580  0.431960  1
  Si  Si19  1  0.574420  0.083038  0.068040  1
  Si  Si20  1  0.621024  0.378976  0.750000  1
  Si  Si21  1  0.378036  0.621964  0.250000  1
  Si  Si22  1  0.130082  0.869918  0.750000  1
  Si  Si23  1  0.870978  0.129022  0.250000  1
  Os  Os24  1  0.895853  0.139408  0.587983  1
  Os  Os25  1  0.860592  0.104147  0.912017  1
  Os  Os26  1  0.104165  0.860363  0.412189  1
  Os  Os27  1  0.139637  0.895835  0.087811  1
  Os  Os28  1  0.834093  0.641756  0.784913  1
  Os  Os29  1  0.358244  0.165907  0.715087  1
  Os  Os30  1  0.165522  0.358836  0.215092  1
  Os  Os31  1  0.641164  0.834478  0.284908  1
  Os  Os32  1  0.248403  0.503003  0.929778  1
  Os  Os33  1  0.496997  0.751597  0.570222  1
  Ru  Ru34  1  0.750893  0.495706  0.070461  1
  Ru  Ru35  1  0.504294  0.249107  0.429539  1
