# generated using pymatgen
data_BiSb16
_symmetry_space_group_name_H-M   'P 1'
_cell_length_a   4.40628391
_cell_length_b   4.40628244
_cell_length_c   31.12695700
_cell_angle_alpha   85.94125880
_cell_angle_beta   85.94126016
_cell_angle_gamma   59.99999945
_symmetry_Int_Tables_number   1
_chemical_formula_structural   BiSb16
_chemical_formula_sum   'Bi1 Sb16'
_cell_volume   521.62306227
_cell_formula_units_Z   1
loop_
 _symmetry_equiv_pos_site_id
 _symmetry_equiv_pos_as_xyz
  1  'x, y, z'
loop_
 _atom_site_type_symbol
 _atom_site_label
 _atom_site_symmetry_multiplicity
 _atom_site_fract_x
 _atom_site_fract_y
 _atom_site_fract_z
 _atom_site_occupancy
  Bi  Bi0  1  0.000000  0.000000  0.000000  1
  Sb  Sb1  1  0.293378  0.293378  0.119868  1
  Sb  Sb2  1  0.706622  0.706622  0.880132  1
  Sb  Sb3  1  0.236980  0.236980  0.289057  1
  Sb  Sb4  1  0.763020  0.763020  0.710943  1
  Sb  Sb5  1  0.468756  0.468756  0.593731  1
  Sb  Sb6  1  0.531244  0.531244  0.406269  1
  Sb  Sb7  1  0.353331  0.353331  0.940007  1
  Sb  Sb8  1  0.646669  0.646669  0.059993  1
  Sb  Sb9  1  0.057663  0.057663  0.827011  1
  Sb  Sb10  1  0.942337  0.942337  0.172989  1
  Sb  Sb11  1  0.412811  0.412811  0.761568  1
  Sb  Sb12  1  0.587189  0.587189  0.238432  1
  Sb  Sb13  1  0.118980  0.118980  0.643059  1
  Sb  Sb14  1  0.881020  0.881020  0.356941  1
  Sb  Sb15  1  0.174800  0.174800  0.475600  1
  Sb  Sb16  1  0.825200  0.825200  0.524400  1
