# generated using pymatgen
data_Lu6Zn17Ag6C
_symmetry_space_group_name_H-M   'P 1'
_cell_length_a   9.03312930
_cell_length_b   9.04806134
_cell_length_c   9.04806100
_cell_angle_alpha   59.99999758
_cell_angle_beta   59.94530069
_cell_angle_gamma   59.94529434
_symmetry_Int_Tables_number   1
_chemical_formula_structural   Lu6Zn17Ag6C
_chemical_formula_sum   'Lu6 Zn17 Ag6 C1'
_cell_volume   522.48604446
_cell_formula_units_Z   1
loop_
 _symmetry_equiv_pos_site_id
 _symmetry_equiv_pos_as_xyz
  1  'x, y, z'
loop_
 _atom_site_type_symbol
 _atom_site_label
 _atom_site_symmetry_multiplicity
 _atom_site_fract_x
 _atom_site_fract_y
 _atom_site_fract_z
 _atom_site_occupancy
  Lu  Lu0  1  0.690073  0.310192  0.310192  1
  Lu  Lu1  1  0.309927  0.689808  0.689808  1
  Lu  Lu2  1  0.309927  0.689808  0.310457  1
  Lu  Lu3  1  0.690073  0.310192  0.689543  1
  Lu  Lu4  1  0.309927  0.310457  0.689808  1
  Lu  Lu5  1  0.690073  0.689543  0.310192  1
  Zn  Zn6  1  0.641324  0.119559  0.119559  1
  Zn  Zn7  1  0.358676  0.880441  0.880441  1
  Zn  Zn8  1  0.500000  0.000000  0.000000  1
  Zn  Zn9  1  0.000000  0.500000  0.500000  1
  Zn  Zn10  1  0.000000  0.500000  0.000000  1
  Zn  Zn11  1  0.500000  0.000000  0.500000  1
  Zn  Zn12  1  0.000000  0.000000  0.500000  1
  Zn  Zn13  1  0.500000  0.500000  0.000000  1
  Zn  Zn14  1  0.331048  0.328882  0.328882  1
  Zn  Zn15  1  0.668952  0.671118  0.671118  1
  Zn  Zn16  1  0.331048  0.328882  0.011189  1
  Zn  Zn17  1  0.331048  0.011189  0.328882  1
  Zn  Zn18  1  0.668952  0.671118  0.988811  1
  Zn  Zn19  1  0.668952  0.988811  0.671118  1
  Zn  Zn20  1  0.012081  0.329307  0.329307  1
  Zn  Zn21  1  0.987919  0.670693  0.670693  1
  Zn  Zn22  1  0.000000  0.000000  0.000000  1
  Ag  Ag23  1  0.121910  0.117591  0.117591  1
  Ag  Ag24  1  0.878090  0.882409  0.882409  1
  Ag  Ag25  1  0.121910  0.117591  0.642909  1
  Ag  Ag26  1  0.121910  0.642909  0.117591  1
  Ag  Ag27  1  0.878090  0.882409  0.357091  1
  Ag  Ag28  1  0.878090  0.357091  0.882409  1
  C  C29  1  0.500000  0.500000  0.500000  1
