# generated using pymatgen
data_Dy2Ho2MnTc7
_symmetry_space_group_name_H-M   'P 1'
_cell_length_a   5.33757133
_cell_length_b   5.33696210
_cell_length_c   8.95764700
_cell_angle_alpha   90.00128470
_cell_angle_beta   90.00107685
_cell_angle_gamma   120.06953929
_symmetry_Int_Tables_number   1
_chemical_formula_structural   Dy2Ho2MnTc7
_chemical_formula_sum   'Dy2 Ho2 Mn1 Tc7'
_cell_volume   220.82977951
_cell_formula_units_Z   1
loop_
 _symmetry_equiv_pos_site_id
 _symmetry_equiv_pos_as_xyz
  1  'x, y, z'
loop_
 _atom_site_type_symbol
 _atom_site_label
 _atom_site_symmetry_multiplicity
 _atom_site_fract_x
 _atom_site_fract_y
 _atom_site_fract_z
 _atom_site_occupancy
  Dy  Dy0  1  0.666603  0.333398  0.564656  1
  Dy  Dy1  1  0.333397  0.666602  0.435344  1
  Ho  Ho2  1  0.333359  0.666633  0.063821  1
  Ho  Ho3  1  0.666641  0.333367  0.936179  1
  Mn  Mn4  1  0.000000  0.000000  0.000000  1
  Tc  Tc5  1  0.000000  0.000000  0.500000  1
  Tc  Tc6  1  0.170443  0.340749  0.752606  1
  Tc  Tc7  1  0.170210  0.829777  0.752604  1
  Tc  Tc8  1  0.659260  0.829557  0.752599  1
  Tc  Tc9  1  0.829557  0.659251  0.247394  1
  Tc  Tc10  1  0.829790  0.170223  0.247396  1
  Tc  Tc11  1  0.340740  0.170443  0.247401  1
