# generated using pymatgen
data_Hf3Ga2Sn
_symmetry_space_group_name_H-M   'P 1'
_cell_length_a   5.72452700
_cell_length_b   8.78073000
_cell_length_c   9.35144500
_cell_angle_alpha   90.00000000
_cell_angle_beta   90.00000000
_cell_angle_gamma   90.00000000
_symmetry_Int_Tables_number   1
_chemical_formula_structural   Hf3Ga2Sn
_chemical_formula_sum   'Hf12 Ga8 Sn4'
_cell_volume   470.05530146
_cell_formula_units_Z   4
loop_
 _symmetry_equiv_pos_site_id
 _symmetry_equiv_pos_as_xyz
  1  'x, y, z'
loop_
 _atom_site_type_symbol
 _atom_site_label
 _atom_site_symmetry_multiplicity
 _atom_site_fract_x
 _atom_site_fract_y
 _atom_site_fract_z
 _atom_site_occupancy
  Hf  Hf0  1  0.000000  0.750000  0.121873  1
  Hf  Hf1  1  0.500000  0.250000  0.878127  1
  Hf  Hf2  1  0.000000  0.250000  0.878127  1
  Hf  Hf3  1  0.500000  0.750000  0.121873  1
  Hf  Hf4  1  0.750000  0.470477  0.609750  1
  Hf  Hf5  1  0.250000  0.529523  0.390250  1
  Hf  Hf6  1  0.750000  0.970477  0.390250  1
  Hf  Hf7  1  0.250000  0.029523  0.609750  1
  Hf  Hf8  1  0.750000  0.372822  0.198948  1
  Hf  Hf9  1  0.250000  0.627178  0.801052  1
  Hf  Hf10  1  0.750000  0.872822  0.801052  1
  Hf  Hf11  1  0.250000  0.127178  0.198948  1
  Ga  Ga12  1  0.000000  0.750000  0.569534  1
  Ga  Ga13  1  0.500000  0.250000  0.430466  1
  Ga  Ga14  1  0.000000  0.250000  0.430466  1
  Ga  Ga15  1  0.500000  0.750000  0.569534  1
  Ga  Ga16  1  0.750000  0.136305  0.646221  1
  Ga  Ga17  1  0.250000  0.863695  0.353779  1
  Ga  Ga18  1  0.750000  0.636305  0.353779  1
  Ga  Ga19  1  0.250000  0.363695  0.646221  1
  Sn  Sn20  1  0.750000  0.051024  0.084700  1
  Sn  Sn21  1  0.250000  0.948976  0.915300  1
  Sn  Sn22  1  0.750000  0.551024  0.915300  1
  Sn  Sn23  1  0.250000  0.448976  0.084700  1
