# generated using pymatgen
data_In7SiIrO8
_symmetry_space_group_name_H-M   'P 1'
_cell_length_a   7.24248252
_cell_length_b   7.24248204
_cell_length_c   7.24248100
_cell_angle_alpha   60.00000017
_cell_angle_beta   60.00000238
_cell_angle_gamma   60.00000465
_symmetry_Int_Tables_number   1
_chemical_formula_structural   In7SiIrO8
_chemical_formula_sum   'In7 Si1 Ir1 O8'
_cell_volume   268.62552221
_cell_formula_units_Z   1
loop_
 _symmetry_equiv_pos_site_id
 _symmetry_equiv_pos_as_xyz
  1  'x, y, z'
loop_
 _atom_site_type_symbol
 _atom_site_label
 _atom_site_symmetry_multiplicity
 _atom_site_fract_x
 _atom_site_fract_y
 _atom_site_fract_z
 _atom_site_occupancy
  In  In0  1  0.249924  0.750076  0.750076  1
  In  In1  1  0.750076  0.249924  0.249924  1
  In  In2  1  0.249924  0.249924  0.750076  1
  In  In3  1  0.249924  0.750076  0.249924  1
  In  In4  1  0.750076  0.750076  0.249924  1
  In  In5  1  0.750076  0.249924  0.750076  1
  In  In6  1  0.750000  0.750000  0.750000  1
  Si  Si7  1  0.250000  0.250000  0.250000  1
  Ir  Ir8  1  0.000000  0.000000  0.000000  1
  O  O9  1  0.344617  0.966149  0.344617  1
  O  O10  1  0.628808  0.628808  0.628808  1
  O  O11  1  0.966149  0.344617  0.344617  1
  O  O12  1  0.628808  0.113578  0.628808  1
  O  O13  1  0.344617  0.344617  0.344617  1
  O  O14  1  0.113578  0.628808  0.628808  1
  O  O15  1  0.344617  0.344617  0.966149  1
  O  O16  1  0.628808  0.628808  0.113578  1
