# generated using pymatgen
data_Nd12Al4Ge4IrRh7
_symmetry_space_group_name_H-M   'P 1'
_cell_length_a   5.78553977
_cell_length_b   8.11315012
_cell_length_c   13.59868291
_cell_angle_alpha   90.06725821
_cell_angle_beta   89.96620149
_cell_angle_gamma   90.04824728
_symmetry_Int_Tables_number   1
_chemical_formula_structural   Nd12Al4Ge4IrRh7
_chemical_formula_sum   'Nd12 Al4 Ge4 Ir1 Rh7'
_cell_volume   638.30715694
_cell_formula_units_Z   1
loop_
 _symmetry_equiv_pos_site_id
 _symmetry_equiv_pos_as_xyz
  1  'x, y, z'
loop_
 _atom_site_type_symbol
 _atom_site_label
 _atom_site_symmetry_multiplicity
 _atom_site_fract_x
 _atom_site_fract_y
 _atom_site_fract_z
 _atom_site_occupancy
  Nd  Nd0  1  0.634803  0.250684  0.249207  1
  Nd  Nd1  1  0.364780  0.747807  0.749824  1
  Nd  Nd2  1  0.365362  0.752374  0.249235  1
  Nd  Nd3  1  0.635488  0.248002  0.750184  1
  Nd  Nd4  1  0.144788  0.394265  0.100882  1
  Nd  Nd5  1  0.855128  0.604149  0.898794  1
  Nd  Nd6  1  0.856036  0.604115  0.601010  1
  Nd  Nd7  1  0.855094  0.895469  0.399186  1
  Nd  Nd8  1  0.144459  0.396171  0.398744  1
  Nd  Nd9  1  0.144412  0.104151  0.600911  1
  Nd  Nd10  1  0.144898  0.104474  0.898819  1
  Nd  Nd11  1  0.857046  0.896321  0.101101  1
  Al  Al12  1  0.620104  0.249745  0.000550  1
  Al  Al13  1  0.377825  0.750821  0.001124  1
  Al  Al14  1  0.377259  0.750167  0.499922  1
  Al  Al15  1  0.622593  0.249927  0.499878  1
  Ge  Ge16  1  0.140074  0.107666  0.250690  1
  Ge  Ge17  1  0.860304  0.891558  0.749982  1
  Ge  Ge18  1  0.860163  0.607581  0.250035  1
  Ge  Ge19  1  0.139988  0.391904  0.749988  1
  Ir  Ir20  1  0.369159  0.030081  0.091886  1
  Rh  Rh21  1  0.628115  0.970615  0.907455  1
  Rh  Rh22  1  0.628788  0.971025  0.592302  1
  Rh  Rh23  1  0.628914  0.529231  0.408197  1
  Rh  Rh24  1  0.371301  0.028959  0.408128  1
  Rh  Rh25  1  0.371864  0.471280  0.592200  1
  Rh  Rh26  1  0.371424  0.472440  0.907827  1
  Rh  Rh27  1  0.629833  0.529017  0.091938  1
