# generated using pymatgen
data_Tb7Cd(IO6)4
_symmetry_space_group_name_H-M   'P 1'
_cell_length_a   5.50890855
_cell_length_b   7.81035510
_cell_length_c   11.73335900
_cell_angle_alpha   76.22513059
_cell_angle_beta   89.78287722
_cell_angle_gamma   89.66401456
_symmetry_Int_Tables_number   1
_chemical_formula_structural   Tb7Cd(IO6)4
_chemical_formula_sum   'Tb7 Cd1 I4 O24'
_cell_volume   490.31586307
_cell_formula_units_Z   1
loop_
 _symmetry_equiv_pos_site_id
 _symmetry_equiv_pos_as_xyz
  1  'x, y, z'
loop_
 _atom_site_type_symbol
 _atom_site_label
 _atom_site_symmetry_multiplicity
 _atom_site_fract_x
 _atom_site_fract_y
 _atom_site_fract_z
 _atom_site_occupancy
  Tb  Tb0  1  0.252929  0.023480  0.752279  1
  Tb  Tb1  1  0.744961  0.981923  0.246139  1
  Tb  Tb2  1  0.313142  0.500524  0.752621  1
  Tb  Tb3  1  0.175966  0.197562  0.427215  1
  Tb  Tb4  1  0.692409  0.497927  0.254686  1
  Tb  Tb5  1  0.814942  0.222826  0.918485  1
  Tb  Tb6  1  0.820508  0.803255  0.573959  1
  Cd  Cd7  1  0.207409  0.765869  0.082554  1
  I  I8  1  0.740988  0.739924  0.880311  1
  I  I9  1  0.254767  0.718167  0.384092  1
  I  I10  1  0.734850  0.292511  0.609730  1
  I  I11  1  0.258359  0.260516  0.121350  1
  O  O12  1  0.833802  0.353926  0.438151  1
  O  O13  1  0.454622  0.840737  0.928727  1
  O  O14  1  0.856778  0.657428  0.034052  1
  O  O15  1  0.059227  0.286253  0.759522  1
  O  O16  1  0.982829  0.292588  0.220912  1
  O  O17  1  0.143399  0.363508  0.970969  1
  O  O18  1  0.626528  0.510390  0.882357  1
  O  O19  1  0.539201  0.159132  0.068128  1
  O  O20  1  0.136904  0.632558  0.546448  1
  O  O21  1  0.015092  0.703326  0.781110  1
  O  O22  1  0.425356  0.173179  0.271993  1
  O  O23  1  0.019202  0.942452  0.393009  1
  O  O24  1  0.464570  0.168315  0.570105  1
  O  O25  1  0.965796  0.705679  0.268803  1
  O  O26  1  0.007758  0.042075  0.599678  1
  O  O27  1  0.544468  0.233207  0.772415  1
  O  O28  1  0.567895  0.813476  0.729261  1
  O  O29  1  0.069232  0.054282  0.108055  1
  O  O30  1  0.614170  0.521691  0.605375  1
  O  O31  1  0.391654  0.478536  0.124820  1
  O  O32  1  0.469380  0.773965  0.229820  1
  O  O33  1  0.363185  0.485227  0.385981  1
  O  O34  1  0.529490  0.846806  0.431758  1
  O  O35  1  0.908232  0.956784  0.875128  1
