# generated using pymatgen
data_CsCd4In5Se12
_symmetry_space_group_name_H-M   'P 1'
_cell_length_a   9.39863130
_cell_length_b   9.38129744
_cell_length_c   9.43445400
_cell_angle_alpha   107.34752092
_cell_angle_beta   107.57368344
_cell_angle_gamma   107.21155376
_symmetry_Int_Tables_number   1
_chemical_formula_structural   CsCd4In5Se12
_chemical_formula_sum   'Cs1 Cd4 In5 Se12'
_cell_volume   685.50529399
_cell_formula_units_Z   1
loop_
 _symmetry_equiv_pos_site_id
 _symmetry_equiv_pos_as_xyz
  1  'x, y, z'
loop_
 _atom_site_type_symbol
 _atom_site_label
 _atom_site_symmetry_multiplicity
 _atom_site_fract_x
 _atom_site_fract_y
 _atom_site_fract_z
 _atom_site_occupancy
  Cs  Cs0  1  0.004275  0.002149  0.996556  1
  Cd  Cd1  1  0.630137  0.705067  0.396082  1
  Cd  Cd2  1  0.401037  0.638599  0.716258  1
  Cd  Cd3  1  0.711580  0.395236  0.634095  1
  Cd  Cd4  1  0.182919  0.558743  0.018197  1
  In  In5  1  0.488280  0.341221  0.944251  1
  In  In6  1  0.942922  0.493563  0.342253  1
  In  In7  1  0.335387  0.935227  0.483796  1
  In  In8  1  0.016959  0.182630  0.558173  1
  In  In9  1  0.554845  0.017174  0.177951  1
  Se  Se10  1  0.783285  0.919791  0.287930  1
  Se  Se11  1  0.289478  0.789943  0.919004  1
  Se  Se12  1  0.917825  0.283669  0.780203  1
  Se  Se13  1  0.064887  0.702394  0.227781  1
  Se  Se14  1  0.227674  0.070875  0.699028  1
  Se  Se15  1  0.704425  0.228453  0.072319  1
  Se  Se16  1  0.373032  0.431609  0.156868  1
  Se  Se17  1  0.157432  0.374410  0.439255  1
  Se  Se18  1  0.435041  0.154202  0.371303  1
  Se  Se19  1  0.867950  0.639427  0.568184  1
  Se  Se20  1  0.564959  0.867083  0.637517  1
  Se  Se21  1  0.640312  0.563178  0.867633  1
