# generated using pymatgen
data_Tb9Dy7(ErSn4)4
_symmetry_space_group_name_H-M   'P 1'
_cell_length_a   8.01531501
_cell_length_b   8.17063106
_cell_length_c   15.45689100
_cell_angle_alpha   90.00298728
_cell_angle_beta   89.99704061
_cell_angle_gamma   90.00647962
_symmetry_Int_Tables_number   1
_chemical_formula_structural   Tb9Dy7(ErSn4)4
_chemical_formula_sum   'Tb9 Dy7 Er4 Sn16'
_cell_volume   1012.27459259
_cell_formula_units_Z   1
loop_
 _symmetry_equiv_pos_site_id
 _symmetry_equiv_pos_as_xyz
  1  'x, y, z'
loop_
 _atom_site_type_symbol
 _atom_site_label
 _atom_site_symmetry_multiplicity
 _atom_site_fract_x
 _atom_site_fract_y
 _atom_site_fract_z
 _atom_site_occupancy
  Tb  Tb0  1  0.866746  0.662872  0.877791  1
  Tb  Tb1  1  0.519748  0.320453  0.902691  1
  Tb  Tb2  1  0.019826  0.179496  0.597297  1
  Tb  Tb3  1  0.480207  0.679504  0.402839  1
  Tb  Tb4  1  0.980238  0.820559  0.097284  1
  Tb  Tb5  1  0.480295  0.679469  0.097168  1
  Tb  Tb6  1  0.980196  0.820505  0.402812  1
  Tb  Tb7  1  0.519764  0.320485  0.597302  1
  Tb  Tb8  1  0.019817  0.179446  0.902641  1
  Dy  Dy9  1  0.366633  0.837194  0.877625  1
  Dy  Dy10  1  0.866656  0.662790  0.622312  1
  Dy  Dy11  1  0.633375  0.162769  0.377912  1
  Dy  Dy12  1  0.133354  0.337262  0.122105  1
  Dy  Dy13  1  0.633331  0.162751  0.122223  1
  Dy  Dy14  1  0.133390  0.337220  0.377903  1
  Dy  Dy15  1  0.366703  0.837228  0.622287  1
  Er  Er16  1  0.198089  0.502894  0.749960  1
  Er  Er17  1  0.698031  0.997101  0.749938  1
  Er  Er18  1  0.801921  0.496988  0.250030  1
  Er  Er19  1  0.301910  0.002994  0.250003  1
  Sn  Sn20  1  0.293900  0.037010  0.041810  1
  Sn  Sn21  1  0.793895  0.463038  0.458140  1
  Sn  Sn22  1  0.706110  0.962904  0.542133  1
  Sn  Sn23  1  0.206928  0.537026  0.958020  1
  Sn  Sn24  1  0.705516  0.963516  0.957988  1
  Sn  Sn25  1  0.206042  0.537056  0.542155  1
  Sn  Sn26  1  0.293854  0.037011  0.458141  1
  Sn  Sn27  1  0.793844  0.462590  0.042124  1
  Sn  Sn28  1  0.563631  0.618345  0.749727  1
  Sn  Sn29  1  0.064198  0.881697  0.749759  1
  Sn  Sn30  1  0.436010  0.381322  0.250047  1
  Sn  Sn31  1  0.935911  0.118846  0.250063  1
  Sn  Sn32  1  0.328774  0.147815  0.749935  1
  Sn  Sn33  1  0.828567  0.351929  0.749782  1
  Sn  Sn34  1  0.671267  0.852189  0.250020  1
  Sn  Sn35  1  0.171321  0.647726  0.250028  1
