# generated using pymatgen
data_SrDy6NiI12
_symmetry_space_group_name_H-M   'P 1'
_cell_length_a   9.79217628
_cell_length_b   9.79217646
_cell_length_c   9.79217792
_cell_angle_alpha   106.27493334
_cell_angle_beta   106.27493662
_cell_angle_gamma   106.27493667
_symmetry_Int_Tables_number   1
_chemical_formula_structural   SrDy6NiI12
_chemical_formula_sum   'Sr1 Dy6 Ni1 I12'
_cell_volume   796.91875094
_cell_formula_units_Z   1
loop_
 _symmetry_equiv_pos_site_id
 _symmetry_equiv_pos_as_xyz
  1  'x, y, z'
loop_
 _atom_site_type_symbol
 _atom_site_label
 _atom_site_symmetry_multiplicity
 _atom_site_fract_x
 _atom_site_fract_y
 _atom_site_fract_z
 _atom_site_occupancy
  Sr  Sr0  1  0.500000  0.500000  0.500000  1
  Dy  Dy1  1  0.907693  0.978913  0.710501  1
  Dy  Dy2  1  0.710501  0.907693  0.978913  1
  Dy  Dy3  1  0.978913  0.710501  0.907693  1
  Dy  Dy4  1  0.092307  0.021087  0.289499  1
  Dy  Dy5  1  0.289499  0.092307  0.021087  1
  Dy  Dy6  1  0.021087  0.289499  0.092307  1
  Ni  Ni7  1  0.000000  0.000000  0.000000  1
  I  I8  1  0.926220  0.322309  0.777709  1
  I  I9  1  0.777709  0.926220  0.322309  1
  I  I10  1  0.322309  0.777709  0.926220  1
  I  I11  1  0.073780  0.677691  0.222291  1
  I  I12  1  0.222291  0.073780  0.677691  1
  I  I13  1  0.677691  0.222291  0.073780  1
  I  I14  1  0.551242  0.863626  0.630624  1
  I  I15  1  0.630624  0.551242  0.863626  1
  I  I16  1  0.863626  0.630624  0.551242  1
  I  I17  1  0.448758  0.136374  0.369376  1
  I  I18  1  0.369376  0.448758  0.136374  1
  I  I19  1  0.136374  0.369376  0.448758  1
