# generated using pymatgen
data_Dy3Lu3Al24Ru7Rh
_symmetry_space_group_name_H-M   'P 1'
_cell_length_a   8.79430600
_cell_length_b   8.76869025
_cell_length_c   9.55622206
_cell_angle_alpha   89.87253550
_cell_angle_beta   90.00000000
_cell_angle_gamma   120.09668968
_symmetry_Int_Tables_number   1
_chemical_formula_structural   Dy3Lu3Al24Ru7Rh
_chemical_formula_sum   'Dy3 Lu3 Al24 Ru7 Rh1'
_cell_volume   637.56984592
_cell_formula_units_Z   1
loop_
 _symmetry_equiv_pos_site_id
 _symmetry_equiv_pos_as_xyz
  1  'x, y, z'
loop_
 _atom_site_type_symbol
 _atom_site_label
 _atom_site_symmetry_multiplicity
 _atom_site_fract_x
 _atom_site_fract_y
 _atom_site_fract_z
 _atom_site_occupancy
  Dy  Dy0  1  0.809068  0.194608  0.750940  1
  Dy  Dy1  1  0.806725  0.613448  0.750351  1
  Dy  Dy2  1  0.385541  0.194608  0.750940  1
  Lu  Lu3  1  0.192289  0.803567  0.248778  1
  Lu  Lu4  1  0.194984  0.389969  0.249558  1
  Lu  Lu5  1  0.611277  0.803567  0.248778  1
  Al  Al6  1  0.560174  0.438215  0.250341  1
  Al  Al7  1  0.560900  0.121799  0.249506  1
  Al  Al8  1  0.878041  0.438215  0.250341  1
  Al  Al9  1  0.438751  0.562605  0.749644  1
  Al  Al10  1  0.438131  0.876264  0.750828  1
  Al  Al11  1  0.123854  0.562605  0.749644  1
  Al  Al12  1  0.323961  0.163031  0.420455  1
  Al  Al13  1  0.839069  0.163031  0.420455  1
  Al  Al14  1  0.837851  0.675701  0.420297  1
  Al  Al15  1  0.675065  0.836702  0.576647  1
  Al  Al16  1  0.161638  0.836702  0.576647  1
  Al  Al17  1  0.162734  0.325469  0.576696  1
  Al  Al18  1  0.674383  0.837550  0.923256  1
  Al  Al19  1  0.163168  0.837550  0.923256  1
  Al  Al20  1  0.162935  0.325869  0.923618  1
  Al  Al21  1  0.324629  0.161791  0.079677  1
  Al  Al22  1  0.837162  0.161791  0.079677  1
  Al  Al23  1  0.837588  0.675176  0.079399  1
  Al  Al24  1  0.667470  0.334938  0.516736  1
  Al  Al25  1  0.332687  0.665376  0.480282  1
  Al  Al26  1  0.333289  0.666579  0.019071  1
  Al  Al27  1  0.666637  0.333274  0.983703  1
  Al  Al28  1  0.999622  0.999244  0.249950  1
  Al  Al29  1  0.000333  0.000667  0.750099  1
  Ru  Ru30  1  0.000094  0.000189  0.500270  1
  Ru  Ru31  1  0.000002  0.000005  0.999816  1
  Ru  Ru32  1  0.499429  0.500708  0.498604  1
  Ru  Ru33  1  0.001279  0.500708  0.498604  1
  Ru  Ru34  1  0.499322  0.500499  0.001426  1
  Ru  Ru35  1  0.499310  0.998620  0.001512  1
  Ru  Ru36  1  0.001178  0.500499  0.001426  1
  Rh  Rh37  1  0.499430  0.998860  0.498775  1
