# generated using pymatgen
data_Nd2Si6Ni6PRu6
_symmetry_space_group_name_H-M   'P 1'
_cell_length_a   9.48073475
_cell_length_b   3.79356600
_cell_length_c   9.47086564
_cell_angle_alpha   90.00000000
_cell_angle_beta   120.07409318
_cell_angle_gamma   90.00000000
_symmetry_Int_Tables_number   1
_chemical_formula_structural   Nd2Si6Ni6PRu6
_chemical_formula_sum   'Nd2 Si6 Ni6 P1 Ru6'
_cell_volume   294.77131158
_cell_formula_units_Z   1
loop_
 _symmetry_equiv_pos_site_id
 _symmetry_equiv_pos_as_xyz
  1  'x, y, z'
loop_
 _atom_site_type_symbol
 _atom_site_label
 _atom_site_symmetry_multiplicity
 _atom_site_fract_x
 _atom_site_fract_y
 _atom_site_fract_z
 _atom_site_occupancy
  Nd  Nd0  1  0.667172  0.000000  0.334140  1
  Nd  Nd1  1  0.334648  0.500000  0.667101  1
  Si  Si2  1  0.109795  0.000000  0.395066  1
  Si  Si3  1  0.286109  0.000000  0.891118  1
  Si  Si4  1  0.606110  0.000000  0.714855  1
  Si  Si5  1  0.712162  0.500000  0.109463  1
  Si  Si6  1  0.396812  0.500000  0.287961  1
  Si  Si7  1  0.998839  0.000000  0.000460  1
  Ni  Ni8  1  0.373863  0.000000  0.432535  1
  Ni  Ni9  1  0.058134  0.000000  0.627925  1
  Ni  Ni10  1  0.569247  0.000000  0.941146  1
  Ni  Ni11  1  0.873437  0.000000  0.152801  1
  Ni  Ni12  1  0.275292  0.000000  0.125799  1
  Ni  Ni13  1  0.849988  0.000000  0.720192  1
  P  P14  1  0.889316  0.500000  0.601364  1
  Ru  Ru15  1  0.951957  0.500000  0.390545  1
  Ru  Ru16  1  0.433769  0.500000  0.048265  1
  Ru  Ru17  1  0.618284  0.500000  0.565539  1
  Ru  Ru18  1  0.115551  0.500000  0.213384  1
  Ru  Ru19  1  0.092122  0.500000  0.875875  1
  Ru  Ru20  1  0.787395  0.500000  0.904466  1
