# generated using pymatgen
data_TbHo(Lu3Au2)2
_symmetry_space_group_name_H-M   'P 1'
_cell_length_a   4.84802100
_cell_length_b   7.05008402
_cell_length_c   8.80525903
_cell_angle_alpha   89.99134930
_cell_angle_beta   90.00000000
_cell_angle_gamma   90.00000000
_symmetry_Int_Tables_number   1
_chemical_formula_structural   TbHo(Lu3Au2)2
_chemical_formula_sum   'Tb1 Ho1 Lu6 Au4'
_cell_volume   300.95455191
_cell_formula_units_Z   1
loop_
 _symmetry_equiv_pos_site_id
 _symmetry_equiv_pos_as_xyz
  1  'x, y, z'
loop_
 _atom_site_type_symbol
 _atom_site_label
 _atom_site_symmetry_multiplicity
 _atom_site_fract_x
 _atom_site_fract_y
 _atom_site_fract_z
 _atom_site_occupancy
  Tb  Tb0  1  0.750000  0.015160  0.676700  1
  Ho  Ho1  1  0.750000  0.515164  0.823462  1
  Lu  Lu2  1  0.250000  0.852076  0.922756  1
  Lu  Lu3  1  0.250000  0.352208  0.577371  1
  Lu  Lu4  1  0.750000  0.148299  0.080846  1
  Lu  Lu5  1  0.750000  0.648213  0.419160  1
  Lu  Lu6  1  0.250000  0.484703  0.177174  1
  Lu  Lu7  1  0.250000  0.984658  0.322757  1
  Au  Au8  1  0.250000  0.254560  0.901601  1
  Au  Au9  1  0.250000  0.754283  0.598362  1
  Au  Au10  1  0.750000  0.745291  0.101800  1
  Au  Au11  1  0.750000  0.245384  0.398012  1
