# generated using pymatgen
data_TbTm7(Zr3Si4)4
_symmetry_space_group_name_H-M   'P 1'
_cell_length_a   7.29921424
_cell_length_b   7.29777907
_cell_length_c   13.43441005
_cell_angle_alpha   90.00929887
_cell_angle_beta   89.94777349
_cell_angle_gamma   90.00676410
_symmetry_Int_Tables_number   1
_chemical_formula_structural   TbTm7(Zr3Si4)4
_chemical_formula_sum   'Tb1 Tm7 Zr12 Si16'
_cell_volume   715.62455369
_cell_formula_units_Z   1
loop_
 _symmetry_equiv_pos_site_id
 _symmetry_equiv_pos_as_xyz
  1  'x, y, z'
loop_
 _atom_site_type_symbol
 _atom_site_label
 _atom_site_symmetry_multiplicity
 _atom_site_fract_x
 _atom_site_fract_y
 _atom_site_fract_z
 _atom_site_occupancy
  Tb  Tb0  1  0.653813  0.005121  0.286106  1
  Tm  Tm1  1  0.996630  0.347113  0.213453  1
  Tm  Tm2  1  0.003932  0.653240  0.713963  1
  Tm  Tm3  1  0.153669  0.496452  0.464244  1
  Tm  Tm4  1  0.503596  0.846125  0.035666  1
  Tm  Tm5  1  0.846736  0.503623  0.963631  1
  Tm  Tm6  1  0.496394  0.153265  0.536627  1
  Tm  Tm7  1  0.346789  0.996072  0.786124  1
  Zr  Zr8  1  0.175716  0.175906  0.999573  1
  Zr  Zr9  1  0.824391  0.823954  0.500295  1
  Zr  Zr10  1  0.323836  0.675588  0.250031  1
  Zr  Zr11  1  0.676020  0.324070  0.750018  1
  Zr  Zr12  1  0.146832  0.996772  0.375098  1
  Zr  Zr13  1  0.854005  0.003099  0.874789  1
  Zr  Zr14  1  0.503146  0.645739  0.625412  1
  Zr  Zr15  1  0.354034  0.496880  0.874829  1
  Zr  Zr16  1  0.495653  0.354105  0.124303  1
  Zr  Zr17  1  0.645959  0.503435  0.375487  1
  Zr  Zr18  1  0.997085  0.145976  0.625468  1
  Zr  Zr19  1  0.002915  0.853286  0.124670  1
  Si  Si20  1  0.356739  0.295783  0.316645  1
  Si  Si21  1  0.642148  0.705671  0.817130  1
  Si  Si22  1  0.205852  0.857906  0.567276  1
  Si  Si23  1  0.141966  0.794087  0.932711  1
  Si  Si24  1  0.794393  0.141995  0.066672  1
  Si  Si25  1  0.859475  0.206840  0.434182  1
  Si  Si26  1  0.294415  0.357870  0.682977  1
  Si  Si27  1  0.706076  0.640481  0.182555  1
  Si  Si28  1  0.295162  0.051500  0.186502  1
  Si  Si29  1  0.703059  0.948855  0.687102  1
  Si  Si30  1  0.448146  0.796243  0.437767  1
  Si  Si31  1  0.202643  0.551205  0.062726  1
  Si  Si32  1  0.550864  0.202771  0.936781  1
  Si  Si33  1  0.797364  0.449316  0.563240  1
  Si  Si34  1  0.050896  0.297131  0.812981  1
  Si  Si35  1  0.949653  0.702526  0.312966  1
