# generated using pymatgen
data_Cs4CoO3
_symmetry_space_group_name_H-M   'P 1'
_cell_length_a   7.62116400
_cell_length_b   12.15844703
_cell_length_c   10.36635403
_cell_angle_alpha   107.65971219
_cell_angle_beta   103.72315043
_cell_angle_gamma   90.34808610
_symmetry_Int_Tables_number   1
_chemical_formula_structural   Cs4CoO3
_chemical_formula_sum   'Cs16 Co4 O12'
_cell_volume   886.00130986
_cell_formula_units_Z   4
loop_
 _symmetry_equiv_pos_site_id
 _symmetry_equiv_pos_as_xyz
  1  'x, y, z'
loop_
 _atom_site_type_symbol
 _atom_site_label
 _atom_site_symmetry_multiplicity
 _atom_site_fract_x
 _atom_site_fract_y
 _atom_site_fract_z
 _atom_site_occupancy
  Cs  Cs0  1  0.413573  0.161868  0.597557  1
  Cs  Cs1  1  0.913498  0.661786  0.597475  1
  Cs  Cs2  1  0.086565  0.338913  0.402734  1
  Cs  Cs3  1  0.586630  0.838834  0.402750  1
  Cs  Cs4  1  0.492932  0.290566  0.988817  1
  Cs  Cs5  1  0.992890  0.790648  0.988705  1
  Cs  Cs6  1  0.006519  0.208983  0.011837  1
  Cs  Cs7  1  0.506666  0.709005  0.011698  1
  Cs  Cs8  1  0.608571  0.967553  0.852831  1
  Cs  Cs9  1  0.108687  0.467465  0.852764  1
  Cs  Cs10  1  0.891858  0.532603  0.147090  1
  Cs  Cs11  1  0.391818  0.032711  0.147087  1
  Cs  Cs12  1  0.075115  0.865760  0.378741  1
  Cs  Cs13  1  0.575154  0.365693  0.378688  1
  Cs  Cs14  1  0.425269  0.634045  0.621530  1
  Cs  Cs15  1  0.925214  0.134109  0.621599  1
  Co  Co16  1  0.634981  0.432300  0.762679  1
  Co  Co17  1  0.866777  0.066897  0.237995  1
  Co  Co18  1  0.135013  0.932240  0.762613  1
  Co  Co19  1  0.366507  0.567181  0.237873  1
  O  O20  1  0.109850  0.089425  0.331420  1
  O  O21  1  0.609814  0.589214  0.331326  1
  O  O22  1  0.390983  0.411335  0.668384  1
  O  O23  1  0.890974  0.911294  0.668248  1
  O  O24  1  0.260814  0.080836  0.791584  1
  O  O25  1  0.761046  0.580844  0.791773  1
  O  O26  1  0.237518  0.419602  0.207316  1
  O  O27  1  0.736907  0.919731  0.207033  1
  O  O28  1  0.273519  0.826439  0.827658  1
  O  O29  1  0.773708  0.326551  0.827786  1
  O  O30  1  0.225483  0.672951  0.172340  1
  O  O31  1  0.725148  0.172623  0.172067  1
