# generated using pymatgen
data_Tm12Th4Mg3ZnCo4
_symmetry_space_group_name_H-M   'P 1'
_cell_length_a   9.52486237
_cell_length_b   9.52486271
_cell_length_c   9.52486203
_cell_angle_alpha   59.83372667
_cell_angle_beta   59.83372663
_cell_angle_gamma   59.83372372
_symmetry_Int_Tables_number   1
_chemical_formula_structural   Tm12Th4Mg3ZnCo4
_chemical_formula_sum   'Tm12 Th4 Mg3 Zn1 Co4'
_cell_volume   608.72214012
_cell_formula_units_Z   1
loop_
 _symmetry_equiv_pos_site_id
 _symmetry_equiv_pos_as_xyz
  1  'x, y, z'
loop_
 _atom_site_type_symbol
 _atom_site_label
 _atom_site_symmetry_multiplicity
 _atom_site_fract_x
 _atom_site_fract_y
 _atom_site_fract_z
 _atom_site_occupancy
  Tm  Tm0  1  0.813279  0.186541  0.186541  1
  Tm  Tm1  1  0.186415  0.813374  0.813374  1
  Tm  Tm2  1  0.186541  0.813279  0.186541  1
  Tm  Tm3  1  0.813374  0.186415  0.813374  1
  Tm  Tm4  1  0.186541  0.186541  0.813279  1
  Tm  Tm5  1  0.813374  0.813374  0.186415  1
  Tm  Tm6  1  0.930827  0.565344  0.565344  1
  Tm  Tm7  1  0.565018  0.934589  0.934589  1
  Tm  Tm8  1  0.565344  0.930827  0.565344  1
  Tm  Tm9  1  0.934589  0.565018  0.934589  1
  Tm  Tm10  1  0.565344  0.565344  0.930827  1
  Tm  Tm11  1  0.934589  0.934589  0.565018  1
  Th  Th12  1  0.345330  0.345330  0.345330  1
  Th  Th13  1  0.347701  0.347701  0.960301  1
  Th  Th14  1  0.347701  0.960301  0.347701  1
  Th  Th15  1  0.960301  0.347701  0.347701  1
  Mg  Mg16  1  0.580108  0.580108  0.262198  1
  Mg  Mg17  1  0.580108  0.262198  0.580108  1
  Mg  Mg18  1  0.262198  0.580108  0.580108  1
  Zn  Zn19  1  0.583407  0.583407  0.583407  1
  Co  Co20  1  0.144167  0.144167  0.144167  1
  Co  Co21  1  0.143340  0.143340  0.567063  1
  Co  Co22  1  0.143340  0.567063  0.143340  1
  Co  Co23  1  0.567063  0.143340  0.143340  1
