# generated using pymatgen
data_Ti2MnP2Pd
_symmetry_space_group_name_H-M   'P 1'
_cell_length_a   3.61136100
_cell_length_b   6.19828928
_cell_length_c   7.26283996
_cell_angle_alpha   90.81611680
_cell_angle_beta   90.00000000
_cell_angle_gamma   90.00000000
_symmetry_Int_Tables_number   1
_chemical_formula_structural   Ti2MnP2Pd
_chemical_formula_sum   'Ti4 Mn2 P4 Pd2'
_cell_volume   162.55680718
_cell_formula_units_Z   2
loop_
 _symmetry_equiv_pos_site_id
 _symmetry_equiv_pos_as_xyz
  1  'x, y, z'
loop_
 _atom_site_type_symbol
 _atom_site_label
 _atom_site_symmetry_multiplicity
 _atom_site_fract_x
 _atom_site_fract_y
 _atom_site_fract_z
 _atom_site_occupancy
  Ti  Ti0  1  0.250000  0.534016  0.163689  1
  Ti  Ti1  1  0.750000  0.465984  0.836311  1
  Ti  Ti2  1  0.750000  0.973220  0.681539  1
  Ti  Ti3  1  0.250000  0.026780  0.318461  1
  Mn  Mn4  1  0.750000  0.862843  0.056415  1
  Mn  Mn5  1  0.250000  0.137157  0.943585  1
  P  P6  1  0.250000  0.767889  0.883631  1
  P  P7  1  0.750000  0.232111  0.116369  1
  P  P8  1  0.750000  0.752500  0.354752  1
  P  P9  1  0.250000  0.247500  0.645248  1
  Pd  Pd10  1  0.250000  0.649728  0.566330  1
  Pd  Pd11  1  0.750000  0.350272  0.433670  1
