# generated using pymatgen
data_CaHgBi2(Rh2O7)2
_symmetry_space_group_name_H-M   'P 1'
_cell_length_a   7.20141002
_cell_length_b   7.06483923
_cell_length_c   7.20141100
_cell_angle_alpha   60.88258881
_cell_angle_beta   61.49572566
_cell_angle_gamma   60.88258781
_symmetry_Int_Tables_number   1
_chemical_formula_structural   CaHgBi2(Rh2O7)2
_chemical_formula_sum   'Ca1 Hg1 Bi2 Rh4 O14'
_cell_volume   265.39281799
_cell_formula_units_Z   1
loop_
 _symmetry_equiv_pos_site_id
 _symmetry_equiv_pos_as_xyz
  1  'x, y, z'
loop_
 _atom_site_type_symbol
 _atom_site_label
 _atom_site_symmetry_multiplicity
 _atom_site_fract_x
 _atom_site_fract_y
 _atom_site_fract_z
 _atom_site_occupancy
  Ca  Ca0  1  0.125000  0.625000  0.125000  1
  Hg  Hg1  1  0.125000  0.125000  0.125000  1
  Bi  Bi2  1  0.625000  0.125000  0.125000  1
  Bi  Bi3  1  0.125000  0.125000  0.625000  1
  Rh  Rh4  1  0.625000  0.625000  0.625000  1
  Rh  Rh5  1  0.625000  0.625000  0.125000  1
  Rh  Rh6  1  0.125000  0.625000  0.625000  1
  Rh  Rh7  1  0.625000  0.125000  0.625000  1
  O  O8  1  0.251705  0.238131  0.251705  1
  O  O9  1  0.302835  0.690502  0.302835  1
  O  O10  1  0.953308  0.958056  0.551583  1
  O  O11  1  0.539880  0.959496  0.539880  1
  O  O12  1  0.707003  0.714140  0.292213  1
  O  O13  1  0.957787  0.535860  0.542997  1
  O  O14  1  0.710120  0.290504  0.710120  1
  O  O15  1  0.296692  0.291944  0.698417  1
  O  O16  1  0.698417  0.291944  0.296692  1
  O  O17  1  0.292213  0.714140  0.707003  1
  O  O18  1  0.947165  0.559498  0.947165  1
  O  O19  1  0.542997  0.535860  0.957787  1
  O  O20  1  0.998295  0.011869  0.998295  1
  O  O21  1  0.551583  0.958056  0.953308  1
