# generated using pymatgen
data_TbNdNb3P7Rh9
_symmetry_space_group_name_H-M   'P 1'
_cell_length_a   3.94150400
_cell_length_b   9.67361607
_cell_length_c   9.67225945
_cell_angle_alpha   120.00133423
_cell_angle_beta   89.99917715
_cell_angle_gamma   90.00013445
_symmetry_Int_Tables_number   1
_chemical_formula_structural   TbNdNb3P7Rh9
_chemical_formula_sum   'Tb1 Nd1 Nb3 P7 Rh9'
_cell_volume   319.37693507
_cell_formula_units_Z   1
loop_
 _symmetry_equiv_pos_site_id
 _symmetry_equiv_pos_as_xyz
  1  'x, y, z'
loop_
 _atom_site_type_symbol
 _atom_site_label
 _atom_site_symmetry_multiplicity
 _atom_site_fract_x
 _atom_site_fract_y
 _atom_site_fract_z
 _atom_site_occupancy
  Tb  Tb0  1  0.762023  0.333472  0.666734  1
  Nd  Nd1  1  0.261745  0.666469  0.333232  1
  Nb  Nb2  1  0.761961  0.095786  0.875359  1
  Nb  Nb3  1  0.761968  0.124740  0.220280  1
  Nb  Nb4  1  0.761963  0.779766  0.904282  1
  P  P5  1  0.262134  0.999981  0.000059  1
  P  P6  1  0.761767  0.880637  0.593309  1
  P  P7  1  0.761781  0.406623  0.287465  1
  P  P8  1  0.761762  0.712670  0.119391  1
  P  P9  1  0.262115  0.116021  0.416217  1
  P  P10  1  0.262106  0.583703  0.699774  1
  P  P11  1  0.262114  0.300014  0.883838  1
  Rh  Rh12  1  0.261899  0.883368  0.161977  1
  Rh  Rh13  1  0.261898  0.838021  0.721641  1
  Rh  Rh14  1  0.261888  0.278466  0.116342  1
  Rh  Rh15  1  0.761860  0.609509  0.559884  1
  Rh  Rh16  1  0.761847  0.440340  0.049738  1
  Rh  Rh17  1  0.761849  0.950622  0.390617  1
  Rh  Rh18  1  0.261780  0.366362  0.438380  1
  Rh  Rh19  1  0.261765  0.561454  0.927991  1
  Rh  Rh20  1  0.261776  0.071976  0.633486  1
