# generated using pymatgen
data_TaBeNb4(B2Ru5)2
_symmetry_space_group_name_H-M   'P 1'
_cell_length_a   9.32245100
_cell_length_b   9.32245100
_cell_length_c   2.99954500
_cell_angle_alpha   90.00000000
_cell_angle_beta   90.00000000
_cell_angle_gamma   90.00000000
_symmetry_Int_Tables_number   1
_chemical_formula_structural   TaBeNb4(B2Ru5)2
_chemical_formula_sum   'Ta1 Be1 Nb4 B4 Ru10'
_cell_volume   260.68473476
_cell_formula_units_Z   1
loop_
 _symmetry_equiv_pos_site_id
 _symmetry_equiv_pos_as_xyz
  1  'x, y, z'
loop_
 _atom_site_type_symbol
 _atom_site_label
 _atom_site_symmetry_multiplicity
 _atom_site_fract_x
 _atom_site_fract_y
 _atom_site_fract_z
 _atom_site_occupancy
  Ta  Ta0  1  0.000000  0.000000  0.000000  1
  Be  Be1  1  0.500000  0.500000  0.000000  1
  Nb  Nb2  1  0.818403  0.673288  0.000000  1
  Nb  Nb3  1  0.181597  0.326712  0.000000  1
  Nb  Nb4  1  0.326712  0.818403  0.000000  1
  Nb  Nb5  1  0.673288  0.181597  0.000000  1
  B  B6  1  0.613855  0.865165  0.000000  1
  B  B7  1  0.386145  0.134835  0.000000  1
  B  B8  1  0.134835  0.613855  0.000000  1
  B  B9  1  0.865165  0.386145  0.000000  1
  Ru  Ru10  1  0.564320  0.707186  0.500000  1
  Ru  Ru11  1  0.435680  0.292814  0.500000  1
  Ru  Ru12  1  0.074038  0.779506  0.500000  1
  Ru  Ru13  1  0.925962  0.220494  0.500000  1
  Ru  Ru14  1  0.292814  0.564320  0.500000  1
  Ru  Ru15  1  0.707186  0.435680  0.500000  1
  Ru  Ru16  1  0.220494  0.074038  0.500000  1
  Ru  Ru17  1  0.779506  0.925962  0.500000  1
  Ru  Ru18  1  0.500000  0.000000  0.500000  1
  Ru  Ru19  1  0.000000  0.500000  0.500000  1
