# generated using pymatgen
data_Y4Si4TcOs
_symmetry_space_group_name_H-M   'P 1'
_cell_length_a   5.79042417
_cell_length_b   5.79042377
_cell_length_c   10.07442800
_cell_angle_alpha   116.66184524
_cell_angle_beta   116.66185523
_cell_angle_gamma   42.81107274
_symmetry_Int_Tables_number   1
_chemical_formula_structural   Y4Si4TcOs
_chemical_formula_sum   'Y4 Si4 Tc1 Os1'
_cell_volume   201.13183969
_cell_formula_units_Z   1
loop_
 _symmetry_equiv_pos_site_id
 _symmetry_equiv_pos_as_xyz
  1  'x, y, z'
loop_
 _atom_site_type_symbol
 _atom_site_label
 _atom_site_symmetry_multiplicity
 _atom_site_fract_x
 _atom_site_fract_y
 _atom_site_fract_z
 _atom_site_occupancy
  Y  Y0  1  0.184432  0.184432  0.108479  1
  Y  Y1  1  0.994230  0.994230  0.321978  1
  Y  Y2  1  0.008378  0.008378  0.678929  1
  Y  Y3  1  0.813566  0.813566  0.888337  1
  Si  Si4  1  0.497991  0.497991  0.122079  1
  Si  Si5  1  0.355847  0.355847  0.441337  1
  Si  Si6  1  0.646459  0.646459  0.563057  1
  Si  Si7  1  0.500052  0.500052  0.874457  1
  Tc  Tc8  1  0.727831  0.727831  0.372536  1
  Os  Os9  1  0.271216  0.271216  0.628812  1
