# generated using pymatgen
data_Ce3Cu2Se7
_symmetry_space_group_name_H-M   'P 1'
_cell_length_a   10.29733400
_cell_length_b   10.29733364
_cell_length_c   6.03045100
_cell_angle_alpha   90.00000000
_cell_angle_beta   90.00000000
_cell_angle_gamma   119.99999472
_symmetry_Int_Tables_number   1
_chemical_formula_structural   Ce3Cu2Se7
_chemical_formula_sum   'Ce6 Cu4 Se14'
_cell_volume   553.77077437
_cell_formula_units_Z   2
loop_
 _symmetry_equiv_pos_site_id
 _symmetry_equiv_pos_as_xyz
  1  'x, y, z'
loop_
 _atom_site_type_symbol
 _atom_site_label
 _atom_site_symmetry_multiplicity
 _atom_site_fract_x
 _atom_site_fract_y
 _atom_site_fract_z
 _atom_site_occupancy
  Ce  Ce0  1  0.226674  0.849359  0.029914  1
  Ce  Ce1  1  0.150641  0.377315  0.029914  1
  Ce  Ce2  1  0.849359  0.622685  0.529914  1
  Ce  Ce3  1  0.622685  0.773326  0.029914  1
  Ce  Ce4  1  0.773326  0.150641  0.529914  1
  Ce  Ce5  1  0.377315  0.226674  0.529914  1
  Cu  Cu6  1  0.666667  0.333333  0.153733  1
  Cu  Cu7  1  0.333333  0.666667  0.653733  1
  Cu  Cu8  1  0.000000  0.000000  0.501590  1
  Cu  Cu9  1  0.000000  0.000000  0.001590  1
  Se  Se10  1  0.666667  0.333333  0.754894  1
  Se  Se11  1  0.566462  0.486816  0.279125  1
  Se  Se12  1  0.154439  0.893057  0.515290  1
  Se  Se13  1  0.513184  0.079646  0.279125  1
  Se  Se14  1  0.433538  0.513184  0.779125  1
  Se  Se15  1  0.486816  0.920354  0.779125  1
  Se  Se16  1  0.845561  0.106943  0.015290  1
  Se  Se17  1  0.079646  0.566462  0.779125  1
  Se  Se18  1  0.738619  0.845561  0.515290  1
  Se  Se19  1  0.333333  0.666667  0.254894  1
  Se  Se20  1  0.920354  0.433538  0.279125  1
  Se  Se21  1  0.261381  0.154439  0.015290  1
  Se  Se22  1  0.106943  0.261381  0.515290  1
  Se  Se23  1  0.893057  0.738619  0.015290  1
