# generated using pymatgen
data_La11Pr5Cd4Ir3Pd
_symmetry_space_group_name_H-M   'P 1'
_cell_length_a   10.11188826
_cell_length_b   10.10580852
_cell_length_c   10.10580906
_cell_angle_alpha   60.20028371
_cell_angle_beta   60.23065078
_cell_angle_gamma   60.23064145
_symmetry_Int_Tables_number   1
_chemical_formula_structural   La11Pr5Cd4Ir3Pd
_chemical_formula_sum   'La11 Pr5 Cd4 Ir3 Pd1'
_cell_volume   733.87537287
_cell_formula_units_Z   1
loop_
 _symmetry_equiv_pos_site_id
 _symmetry_equiv_pos_as_xyz
  1  'x, y, z'
loop_
 _atom_site_type_symbol
 _atom_site_label
 _atom_site_symmetry_multiplicity
 _atom_site_fract_x
 _atom_site_fract_y
 _atom_site_fract_z
 _atom_site_occupancy
  La  La0  1  0.346906  0.346481  0.346481  1
  La  La1  1  0.352037  0.351792  0.951628  1
  La  La2  1  0.352037  0.951628  0.351792  1
  La  La3  1  0.951639  0.351825  0.351825  1
  La  La4  1  0.803465  0.191279  0.191279  1
  La  La5  1  0.189622  0.809210  0.809210  1
  La  La6  1  0.191327  0.803732  0.191008  1
  La  La7  1  0.809106  0.189349  0.809483  1
  La  La8  1  0.191327  0.191008  0.803732  1
  La  La9  1  0.809106  0.809483  0.189349  1
  La  La10  1  0.939824  0.562399  0.562399  1
  Pr  Pr11  1  0.563500  0.937602  0.937602  1
  Pr  Pr12  1  0.562383  0.939704  0.562879  1
  Pr  Pr13  1  0.937665  0.563511  0.937990  1
  Pr  Pr14  1  0.562383  0.562879  0.939704  1
  Pr  Pr15  1  0.937665  0.937990  0.563511  1
  Cd  Cd16  1  0.579860  0.580150  0.580150  1
  Cd  Cd17  1  0.580090  0.579992  0.259764  1
  Cd  Cd18  1  0.580090  0.259764  0.579992  1
  Cd  Cd19  1  0.259970  0.580120  0.580120  1
  Ir  Ir20  1  0.141570  0.141570  0.574573  1
  Ir  Ir21  1  0.141570  0.574573  0.141570  1
  Ir  Ir22  1  0.574440  0.141588  0.141588  1
  Pd  Pd23  1  0.142412  0.142367  0.142367  1
