# generated using pymatgen
data_Er12CdCo5
_symmetry_space_group_name_H-M   'P 1'
_cell_length_a   8.19321109
_cell_length_b   8.19321053
_cell_length_c   8.19321050
_cell_angle_alpha   110.78921359
_cell_angle_beta   110.56880871
_cell_angle_gamma   107.08181122
_symmetry_Int_Tables_number   1
_chemical_formula_structural   Er12CdCo5
_chemical_formula_sum   'Er12 Cd1 Co5'
_cell_volume   422.83892444
_cell_formula_units_Z   1
loop_
 _symmetry_equiv_pos_site_id
 _symmetry_equiv_pos_as_xyz
  1  'x, y, z'
loop_
 _atom_site_type_symbol
 _atom_site_label
 _atom_site_symmetry_multiplicity
 _atom_site_fract_x
 _atom_site_fract_y
 _atom_site_fract_z
 _atom_site_occupancy
  Er  Er0  1  0.286443  0.184052  0.470495  1
  Er  Er1  1  0.713557  0.815948  0.529505  1
  Er  Er2  1  0.286443  0.815948  0.102391  1
  Er  Er3  1  0.713557  0.184052  0.897609  1
  Er  Er4  1  0.618654  0.314297  0.304358  1
  Er  Er5  1  0.381346  0.685703  0.695642  1
  Er  Er6  1  0.009940  0.314297  0.695642  1
  Er  Er7  1  0.990060  0.685703  0.304358  1
  Er  Er8  1  0.212984  0.405979  0.192995  1
  Er  Er9  1  0.787016  0.594021  0.807005  1
  Er  Er10  1  0.212984  0.019989  0.807005  1
  Er  Er11  1  0.787016  0.980011  0.192995  1
  Cd  Cd12  1  0.500000  0.500000  0.000000  1
  Co  Co13  1  0.000000  0.376471  0.376471  1
  Co  Co14  1  0.000000  0.623529  0.623529  1
  Co  Co15  1  0.386973  0.886973  0.500000  1
  Co  Co16  1  0.613027  0.113027  0.500000  1
  Co  Co17  1  0.000000  0.000000  0.000000  1
