# generated using pymatgen
data_Tb8HoMg(SiB4)4
_symmetry_space_group_name_H-M   'P 1'
_cell_length_a   7.20975300
_cell_length_b   7.20975300
_cell_length_c   8.05575300
_cell_angle_alpha   90.00000000
_cell_angle_beta   90.00000000
_cell_angle_gamma   90.00000000
_symmetry_Int_Tables_number   1
_chemical_formula_structural   Tb8HoMg(SiB4)4
_chemical_formula_sum   'Tb8 Ho1 Mg1 Si4 B16'
_cell_volume   418.74237752
_cell_formula_units_Z   1
loop_
 _symmetry_equiv_pos_site_id
 _symmetry_equiv_pos_as_xyz
  1  'x, y, z'
loop_
 _atom_site_type_symbol
 _atom_site_label
 _atom_site_symmetry_multiplicity
 _atom_site_fract_x
 _atom_site_fract_y
 _atom_site_fract_z
 _atom_site_occupancy
  Tb  Tb0  1  0.682038  0.180004  0.228994  1
  Tb  Tb1  1  0.317962  0.819996  0.771006  1
  Tb  Tb2  1  0.317962  0.819996  0.228994  1
  Tb  Tb3  1  0.819996  0.682038  0.228994  1
  Tb  Tb4  1  0.819996  0.682038  0.771006  1
  Tb  Tb5  1  0.682038  0.180004  0.771006  1
  Tb  Tb6  1  0.180004  0.317962  0.771006  1
  Tb  Tb7  1  0.180004  0.317962  0.228994  1
  Ho  Ho8  1  0.500000  0.500000  0.500000  1
  Mg  Mg9  1  0.000000  0.000000  0.500000  1
  Si  Si10  1  0.115196  0.615363  0.500000  1
  Si  Si11  1  0.884804  0.384637  0.500000  1
  Si  Si12  1  0.384637  0.115196  0.500000  1
  Si  Si13  1  0.615363  0.884804  0.500000  1
  B  B14  1  0.174273  0.038426  0.000000  1
  B  B15  1  0.825727  0.961574  0.000000  1
  B  B16  1  0.961574  0.174273  0.000000  1
  B  B17  1  0.327261  0.539581  0.000000  1
  B  B18  1  0.038426  0.825727  0.000000  1
  B  B19  1  0.672739  0.460419  0.000000  1
  B  B20  1  0.539581  0.672739  0.000000  1
  B  B21  1  0.460419  0.327261  0.000000  1
  B  B22  1  0.089643  0.588744  0.000000  1
  B  B23  1  0.910357  0.411256  0.000000  1
  B  B24  1  0.411256  0.089643  0.000000  1
  B  B25  1  0.588744  0.910357  0.000000  1
  B  B26  1  0.000000  0.000000  0.157221  1
  B  B27  1  0.000000  0.000000  0.842779  1
  B  B28  1  0.500000  0.500000  0.838315  1
  B  B29  1  0.500000  0.500000  0.161685  1
