# generated using pymatgen
data_Y5Ho5(SnBi)3
_symmetry_space_group_name_H-M   'P 1'
_cell_length_a   9.05926695
_cell_length_b   9.07872831
_cell_length_c   6.48237300
_cell_angle_alpha   90.00000000
_cell_angle_beta   90.00000000
_cell_angle_gamma   119.97203709
_symmetry_Int_Tables_number   1
_chemical_formula_structural   Y5Ho5(SnBi)3
_chemical_formula_sum   'Y5 Ho5 Sn3 Bi3'
_cell_volume   461.85433984
_cell_formula_units_Z   1
loop_
 _symmetry_equiv_pos_site_id
 _symmetry_equiv_pos_as_xyz
  1  'x, y, z'
loop_
 _atom_site_type_symbol
 _atom_site_label
 _atom_site_symmetry_multiplicity
 _atom_site_fract_x
 _atom_site_fract_y
 _atom_site_fract_z
 _atom_site_occupancy
  Y  Y0  1  0.005400  0.246205  0.250000  1
  Y  Y1  1  0.764409  0.005695  0.750000  1
  Y  Y2  1  0.236319  0.999655  0.250000  1
  Y  Y3  1  0.999626  0.755311  0.750000  1
  Y  Y4  1  0.239071  0.244585  0.750000  1
  Ho  Ho5  1  0.758691  0.752776  0.250000  1
  Ho  Ho6  1  0.325348  0.658666  0.498576  1
  Ho  Ho7  1  0.671867  0.338392  0.498646  1
  Ho  Ho8  1  0.325348  0.658666  0.001424  1
  Ho  Ho9  1  0.671867  0.338392  0.001354  1
  Sn  Sn10  1  0.997735  0.392961  0.750000  1
  Sn  Sn11  1  0.393532  0.390688  0.250000  1
  Sn  Sn12  1  0.001307  0.608161  0.250000  1
  Bi  Bi13  1  0.608745  0.611538  0.750000  1
  Bi  Bi14  1  0.391572  0.000142  0.750000  1
  Bi  Bi15  1  0.609163  0.998169  0.250000  1
