# generated using pymatgen
data_Y2MoIr3
_symmetry_space_group_name_H-M   'P 1'
_cell_length_a   5.56841042
_cell_length_b   5.25574728
_cell_length_c   5.56841100
_cell_angle_alpha   58.01178373
_cell_angle_beta   60.00000248
_cell_angle_gamma   58.01179026
_symmetry_Int_Tables_number   1
_chemical_formula_structural   Y2MoIr3
_chemical_formula_sum   'Y2 Mo1 Ir3'
_cell_volume   111.64901019
_cell_formula_units_Z   1
loop_
 _symmetry_equiv_pos_site_id
 _symmetry_equiv_pos_as_xyz
  1  'x, y, z'
loop_
 _atom_site_type_symbol
 _atom_site_label
 _atom_site_symmetry_multiplicity
 _atom_site_fract_x
 _atom_site_fract_y
 _atom_site_fract_z
 _atom_site_occupancy
  Y  Y0  1  0.499263  0.502210  0.499263  1
  Y  Y1  1  0.750737  0.747790  0.750737  1
  Mo  Mo2  1  0.125000  0.625000  0.125000  1
  Ir  Ir3  1  0.625000  0.125000  0.125000  1
  Ir  Ir4  1  0.125000  0.125000  0.125000  1
  Ir  Ir5  1  0.125000  0.125000  0.625000  1
