# generated using pymatgen
data_Rh3Pb16Au
_symmetry_space_group_name_H-M   'P 1'
_cell_length_a   13.43196837
_cell_length_b   13.43196992
_cell_length_c   13.43013048
_cell_angle_alpha   151.14885658
_cell_angle_beta   151.14886006
_cell_angle_gamma   41.27840339
_symmetry_Int_Tables_number   1
_chemical_formula_structural   Rh3Pb16Au
_chemical_formula_sum   'Rh3 Pb16 Au1'
_cell_volume   562.90572990
_cell_formula_units_Z   1
loop_
 _symmetry_equiv_pos_site_id
 _symmetry_equiv_pos_as_xyz
  1  'x, y, z'
loop_
 _atom_site_type_symbol
 _atom_site_label
 _atom_site_symmetry_multiplicity
 _atom_site_fract_x
 _atom_site_fract_y
 _atom_site_fract_z
 _atom_site_occupancy
  Rh  Rh0  1  0.250000  0.250000  0.000000  1
  Rh  Rh1  1  0.000000  0.500000  0.500000  1
  Rh  Rh2  1  0.500000  0.000000  0.500000  1
  Pb  Pb3  1  0.149186  0.630015  0.150847  1
  Pb  Pb4  1  0.633188  0.480204  0.484763  1
  Pb  Pb5  1  0.882839  0.885049  0.647088  1
  Pb  Pb6  1  0.384111  0.735156  0.997370  1
  Pb  Pb7  1  0.614951  0.617161  0.352912  1
  Pb  Pb8  1  0.113260  0.762212  0.997370  1
  Pb  Pb9  1  0.869985  0.350814  0.849153  1
  Pb  Pb10  1  0.351575  0.504560  0.484763  1
  Pb  Pb11  1  0.995440  0.148425  0.515237  1
  Pb  Pb12  1  0.479168  0.998340  0.849153  1
  Pb  Pb13  1  0.737788  0.386740  0.002630  1
  Pb  Pb14  1  0.237963  0.235752  0.352912  1
  Pb  Pb15  1  0.764844  0.115889  0.002630  1
  Pb  Pb16  1  0.264248  0.262037  0.647088  1
  Pb  Pb17  1  0.019796  0.866812  0.515237  1
  Pb  Pb18  1  0.501660  0.020832  0.150847  1
  Au  Au19  1  0.750000  0.750000  0.000000  1
