# generated using pymatgen
data_Cs12NaErSe8
_symmetry_space_group_name_H-M   'P 1'
_cell_length_a   11.56243900
_cell_length_b   11.56243847
_cell_length_c   8.80246500
_cell_angle_alpha   90.00000000
_cell_angle_beta   90.00000000
_cell_angle_gamma   120.00000438
_symmetry_Int_Tables_number   1
_chemical_formula_structural   Cs12NaErSe8
_chemical_formula_sum   'Cs12 Na1 Er1 Se8'
_cell_volume   1019.13990862
_cell_formula_units_Z   1
loop_
 _symmetry_equiv_pos_site_id
 _symmetry_equiv_pos_as_xyz
  1  'x, y, z'
loop_
 _atom_site_type_symbol
 _atom_site_label
 _atom_site_symmetry_multiplicity
 _atom_site_fract_x
 _atom_site_fract_y
 _atom_site_fract_z
 _atom_site_occupancy
  Cs  Cs0  1  0.142223  0.857777  0.540620  1
  Cs  Cs1  1  0.299633  0.149816  0.044391  1
  Cs  Cs2  1  0.850184  0.700367  0.044391  1
  Cs  Cs3  1  0.142223  0.284446  0.540620  1
  Cs  Cs4  1  0.715554  0.857777  0.540620  1
  Cs  Cs5  1  0.850184  0.149816  0.044391  1
  Cs  Cs6  1  0.537076  0.462924  0.378691  1
  Cs  Cs7  1  0.047227  0.523614  0.850994  1
  Cs  Cs8  1  0.476386  0.952773  0.850994  1
  Cs  Cs9  1  0.537076  0.074152  0.378691  1
  Cs  Cs10  1  0.925848  0.462924  0.378691  1
  Cs  Cs11  1  0.476386  0.523614  0.850994  1
  Na  Na12  1  0.666667  0.333333  0.757177  1
  Er  Er13  1  0.333333  0.666667  0.250312  1
  Se  Se14  1  0.333333  0.666667  0.559746  1
  Se  Se15  1  0.666667  0.333333  0.092073  1
  Se  Se16  1  0.203978  0.796022  0.150898  1
  Se  Se17  1  0.376773  0.188387  0.654438  1
  Se  Se18  1  0.811613  0.623227  0.654438  1
  Se  Se19  1  0.203978  0.407954  0.150898  1
  Se  Se20  1  0.592046  0.796022  0.150898  1
  Se  Se21  1  0.811613  0.188387  0.654438  1
