# generated using pymatgen
data_Ho2Er7Tm7(Ga3Co)2
_symmetry_space_group_name_H-M   'P 1'
_cell_length_a   9.88589900
_cell_length_b   9.88589953
_cell_length_c   6.86332300
_cell_angle_alpha   90.00000000
_cell_angle_beta   90.00000000
_cell_angle_gamma   120.00000156
_symmetry_Int_Tables_number   1
_chemical_formula_structural   Ho2Er7Tm7(Ga3Co)2
_chemical_formula_sum   'Ho2 Er7 Tm7 Ga6 Co2'
_cell_volume   580.89471410
_cell_formula_units_Z   1
loop_
 _symmetry_equiv_pos_site_id
 _symmetry_equiv_pos_as_xyz
  1  'x, y, z'
loop_
 _atom_site_type_symbol
 _atom_site_label
 _atom_site_symmetry_multiplicity
 _atom_site_fract_x
 _atom_site_fract_y
 _atom_site_fract_z
 _atom_site_occupancy
  Ho  Ho0  1  0.000000  0.000000  0.269417  1
  Ho  Ho1  1  0.000000  0.000000  0.769737  1
  Er  Er2  1  0.666667  0.333333  0.172903  1
  Er  Er3  1  0.463771  0.536229  0.293373  1
  Er  Er4  1  0.536109  0.463891  0.792825  1
  Er  Er5  1  0.463771  0.927543  0.293373  1
  Er  Er6  1  0.072457  0.536229  0.293373  1
  Er  Er7  1  0.927782  0.463891  0.792825  1
  Er  Er8  1  0.536109  0.072218  0.792825  1
  Tm  Tm9  1  0.173647  0.826353  0.989879  1
  Tm  Tm10  1  0.826565  0.173435  0.490419  1
  Tm  Tm11  1  0.173647  0.347292  0.989879  1
  Tm  Tm12  1  0.652708  0.826353  0.989879  1
  Tm  Tm13  1  0.346870  0.173435  0.490419  1
  Tm  Tm14  1  0.826565  0.653130  0.490419  1
  Tm  Tm15  1  0.333333  0.666667  0.673524  1
  Ga  Ga16  1  0.163593  0.836407  0.541662  1
  Ga  Ga17  1  0.836779  0.163221  0.041257  1
  Ga  Ga18  1  0.163593  0.327186  0.541662  1
  Ga  Ga19  1  0.672814  0.836407  0.541662  1
  Ga  Ga20  1  0.326442  0.163221  0.041257  1
  Ga  Ga21  1  0.836779  0.673558  0.041257  1
  Co  Co22  1  0.333333  0.666667  0.056251  1
  Co  Co23  1  0.666667  0.333333  0.556047  1
