# generated using pymatgen
data_BeNi8Ge3(Mo6C)2
_symmetry_space_group_name_H-M   'P 1'
_cell_length_a   7.76112266
_cell_length_b   7.77388340
_cell_length_c   7.76112200
_cell_angle_alpha   60.05427948
_cell_angle_beta   59.99999429
_cell_angle_gamma   60.05428138
_symmetry_Int_Tables_number   1
_chemical_formula_structural   BeNi8Ge3(Mo6C)2
_chemical_formula_sum   'Be1 Ni8 Ge3 Mo12 C2'
_cell_volume   331.38122048
_cell_formula_units_Z   1
loop_
 _symmetry_equiv_pos_site_id
 _symmetry_equiv_pos_as_xyz
  1  'x, y, z'
loop_
 _atom_site_type_symbol
 _atom_site_label
 _atom_site_symmetry_multiplicity
 _atom_site_fract_x
 _atom_site_fract_y
 _atom_site_fract_z
 _atom_site_occupancy
  Be  Be0  1  0.125000  0.625000  0.125000  1
  Ni  Ni1  1  0.327065  0.343508  0.002362  1
  Ni  Ni2  1  0.327065  0.343508  0.327065  1
  Ni  Ni3  1  0.247638  0.906492  0.922935  1
  Ni  Ni4  1  0.922935  0.906492  0.922935  1
  Ni  Ni5  1  0.002362  0.343508  0.327065  1
  Ni  Ni6  1  0.334334  0.996999  0.334334  1
  Ni  Ni7  1  0.922935  0.906492  0.247638  1
  Ni  Ni8  1  0.915666  0.253001  0.915666  1
  Ge  Ge9  1  0.125000  0.125000  0.625000  1
  Ge  Ge10  1  0.625000  0.125000  0.125000  1
  Ge  Ge11  1  0.125000  0.125000  0.125000  1
  Mo  Mo12  1  0.304544  0.692440  0.698471  1
  Mo  Mo13  1  0.698471  0.692440  0.304544  1
  Mo  Mo14  1  0.693511  0.303426  0.693511  1
  Mo  Mo15  1  0.304544  0.692440  0.304544  1
  Mo  Mo16  1  0.556489  0.946574  0.556489  1
  Mo  Mo17  1  0.556489  0.946574  0.940449  1
  Mo  Mo18  1  0.945456  0.557560  0.551529  1
  Mo  Mo19  1  0.945456  0.557560  0.945456  1
  Mo  Mo20  1  0.309551  0.303426  0.693511  1
  Mo  Mo21  1  0.551529  0.557560  0.945456  1
  Mo  Mo22  1  0.940449  0.946574  0.556489  1
  Mo  Mo23  1  0.693511  0.303426  0.309551  1
  C  C24  1  0.499438  0.501686  0.499438  1
  C  C25  1  0.750562  0.748314  0.750562  1
