# generated using pymatgen
data_Zr4Cu2O
_symmetry_space_group_name_H-M   'P 1'
_cell_length_a   8.71729755
_cell_length_b   8.71729712
_cell_length_c   8.71729700
_cell_angle_alpha   59.99999667
_cell_angle_beta   59.99999829
_cell_angle_gamma   59.99999724
_symmetry_Int_Tables_number   1
_chemical_formula_structural   Zr4Cu2O
_chemical_formula_sum   'Zr16 Cu8 O4'
_cell_volume   468.41472426
_cell_formula_units_Z   4
loop_
 _symmetry_equiv_pos_site_id
 _symmetry_equiv_pos_as_xyz
  1  'x, y, z'
loop_
 _atom_site_type_symbol
 _atom_site_label
 _atom_site_symmetry_multiplicity
 _atom_site_fract_x
 _atom_site_fract_y
 _atom_site_fract_z
 _atom_site_occupancy
  Zr  Zr0  1  0.625000  0.625000  0.625000  1
  Zr  Zr1  1  0.625000  0.625000  0.125000  1
  Zr  Zr2  1  0.125000  0.625000  0.625000  1
  Zr  Zr3  1  0.625000  0.125000  0.625000  1
  Zr  Zr4  1  0.817594  0.182406  0.182406  1
  Zr  Zr5  1  0.182407  0.817593  0.817593  1
  Zr  Zr6  1  0.182406  0.817594  0.182406  1
  Zr  Zr7  1  0.182406  0.182406  0.817594  1
  Zr  Zr8  1  0.817593  0.182407  0.817593  1
  Zr  Zr9  1  0.817593  0.817593  0.182407  1
  Zr  Zr10  1  0.067594  0.432406  0.067594  1
  Zr  Zr11  1  0.432406  0.067594  0.432406  1
  Zr  Zr12  1  0.432406  0.067594  0.067594  1
  Zr  Zr13  1  0.067594  0.067594  0.432406  1
  Zr  Zr14  1  0.067594  0.432406  0.432406  1
  Zr  Zr15  1  0.432406  0.432406  0.067594  1
  Cu  Cu16  1  0.833976  0.833976  0.833976  1
  Cu  Cu17  1  0.833976  0.833976  0.498072  1
  Cu  Cu18  1  0.498072  0.833976  0.833976  1
  Cu  Cu19  1  0.833976  0.498072  0.833976  1
  Cu  Cu20  1  0.416024  0.416024  0.416024  1
  Cu  Cu21  1  0.416024  0.416024  0.751928  1
  Cu  Cu22  1  0.416024  0.751928  0.416024  1
  Cu  Cu23  1  0.751928  0.416024  0.416024  1
  O  O24  1  0.125000  0.125000  0.125000  1
  O  O25  1  0.125000  0.125000  0.625000  1
  O  O26  1  0.625000  0.125000  0.125000  1
  O  O27  1  0.125000  0.625000  0.125000  1
