# generated using pymatgen
data_LaPr2Mg3IrAu2
_symmetry_space_group_name_H-M   'P 1'
_cell_length_a   7.83737881
_cell_length_b   7.80300740
_cell_length_c   4.11678700
_cell_angle_alpha   90.00000000
_cell_angle_beta   90.00000000
_cell_angle_gamma   119.53184297
_symmetry_Int_Tables_number   1
_chemical_formula_structural   LaPr2Mg3IrAu2
_chemical_formula_sum   'La1 Pr2 Mg3 Ir1 Au2'
_cell_volume   219.05409891
_cell_formula_units_Z   1
loop_
 _symmetry_equiv_pos_site_id
 _symmetry_equiv_pos_as_xyz
  1  'x, y, z'
loop_
 _atom_site_type_symbol
 _atom_site_label
 _atom_site_symmetry_multiplicity
 _atom_site_fract_x
 _atom_site_fract_y
 _atom_site_fract_z
 _atom_site_occupancy
  La  La0  1  0.408709  0.431677  0.000000  1
  Pr  Pr1  1  0.573163  0.981071  0.000000  1
  Pr  Pr2  1  0.019083  0.592922  0.000000  1
  Mg  Mg3  1  0.242791  0.997335  0.500000  1
  Mg  Mg4  1  0.000440  0.244788  0.500000  1
  Mg  Mg5  1  0.755803  0.757092  0.500000  1
  Ir  Ir6  1  0.334181  0.663208  0.500000  1
  Au  Au7  1  0.666701  0.332946  0.500000  1
  Au  Au8  1  0.999127  0.998961  0.000000  1
