# generated using pymatgen
data_TbEr11(InSi2)2
_symmetry_space_group_name_H-M   'P 1'
_cell_length_a   8.45439173
_cell_length_b   8.45439132
_cell_length_c   8.44410140
_cell_angle_alpha   112.50315734
_cell_angle_beta   110.90255664
_cell_angle_gamma   105.15231599
_symmetry_Int_Tables_number   1
_chemical_formula_structural   TbEr11(InSi2)2
_chemical_formula_sum   'Tb1 Er11 In2 Si4'
_cell_volume   462.22939836
_cell_formula_units_Z   1
loop_
 _symmetry_equiv_pos_site_id
 _symmetry_equiv_pos_as_xyz
  1  'x, y, z'
loop_
 _atom_site_type_symbol
 _atom_site_label
 _atom_site_symmetry_multiplicity
 _atom_site_fract_x
 _atom_site_fract_y
 _atom_site_fract_z
 _atom_site_occupancy
  Tb  Tb0  1  0.187444  0.279147  0.466590  1
  Er  Er1  1  0.812940  0.720712  0.533652  1
  Er  Er2  1  0.186780  0.720627  0.907406  1
  Er  Er3  1  0.813054  0.279448  0.092504  1
  Er  Er4  1  0.319430  0.616101  0.296159  1
  Er  Er5  1  0.681108  0.384296  0.704186  1
  Er  Er6  1  0.319890  0.023078  0.704186  1
  Er  Er7  1  0.680058  0.976729  0.296159  1
  Er  Er8  1  0.442667  0.237010  0.204547  1
  Er  Er9  1  0.558054  0.763439  0.795419  1
  Er  Er10  1  0.031980  0.237366  0.795419  1
  Er  Er11  1  0.967537  0.761878  0.204547  1
  In  In12  1  0.500110  0.500071  0.000180  1
  In  In13  1  0.999664  0.999226  0.998890  1
  Si  Si14  1  0.115931  0.617021  0.500044  1
  Si  Si15  1  0.883023  0.384114  0.500044  1
  Si  Si16  1  0.369656  0.999776  0.369432  1
  Si  Si17  1  0.630673  0.999962  0.630636  1
