# generated using pymatgen
data_Ca8Fe2CuN8
_symmetry_space_group_name_H-M   'P 1'
_cell_length_a   9.26711316
_cell_length_b   4.99909363
_cell_length_c   7.09099126
_cell_angle_alpha   90.00001048
_cell_angle_beta   74.69248839
_cell_angle_gamma   74.35227289
_symmetry_Int_Tables_number   1
_chemical_formula_structural   Ca8Fe2CuN8
_chemical_formula_sum   'Ca8 Fe2 Cu1 N8'
_cell_volume   304.21000343
_cell_formula_units_Z   1
loop_
 _symmetry_equiv_pos_site_id
 _symmetry_equiv_pos_as_xyz
  1  'x, y, z'
loop_
 _atom_site_type_symbol
 _atom_site_label
 _atom_site_symmetry_multiplicity
 _atom_site_fract_x
 _atom_site_fract_y
 _atom_site_fract_z
 _atom_site_occupancy
  Ca  Ca0  1  0.060598  0.969701  0.744026  1
  Ca  Ca1  1  0.939402  0.030299  0.255974  1
  Ca  Ca2  1  0.669538  0.665232  0.467791  1
  Ca  Ca3  1  0.330462  0.334768  0.532209  1
  Ca  Ca4  1  0.818509  0.590746  0.970356  1
  Ca  Ca5  1  0.181491  0.409254  0.029644  1
  Ca  Ca6  1  0.599869  0.200066  0.809605  1
  Ca  Ca7  1  0.400131  0.799934  0.190395  1
  Fe  Fe8  1  0.377186  0.811406  0.791789  1
  Fe  Fe9  1  0.622814  0.188594  0.208211  1
  Cu  Cu10  1  0.000000  0.500000  0.500000  1
  N  N11  1  0.210672  0.894664  0.995384  1
  N  N12  1  0.789328  0.105336  0.004616  1
  N  N13  1  0.353835  0.823082  0.556219  1
  N  N14  1  0.646165  0.176918  0.443781  1
  N  N15  1  0.563058  0.718471  0.828718  1
  N  N16  1  0.436942  0.281529  0.171282  1
  N  N17  1  0.061537  0.469232  0.733342  1
  N  N18  1  0.938463  0.530768  0.266658  1
