# generated using pymatgen
data_Y5LuBi2Os
_symmetry_space_group_name_H-M   'P 1'
_cell_length_a   8.32661300
_cell_length_b   8.29930394
_cell_length_c   4.26815100
_cell_angle_alpha   90.00000000
_cell_angle_beta   90.00000000
_cell_angle_gamma   120.10891347
_symmetry_Int_Tables_number   1
_chemical_formula_structural   Y5LuBi2Os
_chemical_formula_sum   'Y5 Lu1 Bi2 Os1'
_cell_volume   255.15423386
_cell_formula_units_Z   1
loop_
 _symmetry_equiv_pos_site_id
 _symmetry_equiv_pos_as_xyz
  1  'x, y, z'
loop_
 _atom_site_type_symbol
 _atom_site_label
 _atom_site_symmetry_multiplicity
 _atom_site_fract_x
 _atom_site_fract_y
 _atom_site_fract_z
 _atom_site_occupancy
  Y  Y0  1  0.999475  0.232668  0.500000  1
  Y  Y1  1  0.766806  0.767332  0.500000  1
  Y  Y2  1  0.608660  0.000000  0.000000  1
  Y  Y3  1  0.000954  0.613889  0.000000  1
  Y  Y4  1  0.387066  0.386111  0.000000  1
  Lu  Lu5  1  0.230770  0.000000  0.500000  1
  Bi  Bi6  1  0.333203  0.668521  0.500000  1
  Bi  Bi7  1  0.664683  0.331479  0.500000  1
  Os  Os8  1  0.008383  0.000000  0.000000  1
