# generated using pymatgen
data_Sc3Ga3Pt2Rh
_symmetry_space_group_name_H-M   'P 1'
_cell_length_a   7.24315100
_cell_length_b   7.24315095
_cell_length_c   6.90487800
_cell_angle_alpha   90.00000000
_cell_angle_beta   90.00000000
_cell_angle_gamma   119.99999566
_symmetry_Int_Tables_number   1
_chemical_formula_structural   Sc3Ga3Pt2Rh
_chemical_formula_sum   'Sc6 Ga6 Pt4 Rh2'
_cell_volume   313.71965991
_cell_formula_units_Z   2
loop_
 _symmetry_equiv_pos_site_id
 _symmetry_equiv_pos_as_xyz
  1  'x, y, z'
loop_
 _atom_site_type_symbol
 _atom_site_label
 _atom_site_symmetry_multiplicity
 _atom_site_fract_x
 _atom_site_fract_y
 _atom_site_fract_z
 _atom_site_occupancy
  Sc  Sc0  1  0.402616  0.013822  0.250000  1
  Sc  Sc1  1  0.611207  0.597384  0.250000  1
  Sc  Sc2  1  0.986178  0.388793  0.250000  1
  Sc  Sc3  1  0.388793  0.986178  0.750000  1
  Sc  Sc4  1  0.597384  0.611207  0.750000  1
  Sc  Sc5  1  0.013822  0.402616  0.750000  1
  Ga  Ga6  1  0.268160  0.268160  0.000000  1
  Ga  Ga7  1  0.000000  0.731840  0.000000  1
  Ga  Ga8  1  0.000000  0.731840  0.500000  1
  Ga  Ga9  1  0.731840  0.000000  0.500000  1
  Ga  Ga10  1  0.268160  0.268160  0.500000  1
  Ga  Ga11  1  0.731840  0.000000  0.000000  1
  Pt  Pt12  1  0.666667  0.333333  0.982702  1
  Pt  Pt13  1  0.333333  0.666667  0.482702  1
  Pt  Pt14  1  0.333333  0.666667  0.017298  1
  Pt  Pt15  1  0.666667  0.333333  0.517298  1
  Rh  Rh16  1  0.000000  0.000000  0.750000  1
  Rh  Rh17  1  0.000000  0.000000  0.250000  1
