# generated using pymatgen
data_Tb2C2Se
_symmetry_space_group_name_H-M   'P 1'
_cell_length_a   7.15728980
_cell_length_b   7.15728866
_cell_length_c   6.81769576
_cell_angle_alpha   78.12025178
_cell_angle_beta   78.12025299
_cell_angle_gamma   33.11589666
_symmetry_Int_Tables_number   1
_chemical_formula_structural   Tb2C2Se
_chemical_formula_sum   'Tb4 C4 Se2'
_cell_volume   186.35425540
_cell_formula_units_Z   2
loop_
 _symmetry_equiv_pos_site_id
 _symmetry_equiv_pos_as_xyz
  1  'x, y, z'
loop_
 _atom_site_type_symbol
 _atom_site_label
 _atom_site_symmetry_multiplicity
 _atom_site_fract_x
 _atom_site_fract_y
 _atom_site_fract_z
 _atom_site_occupancy
  Tb  Tb0  1  0.833372  0.454952  0.357738  1
  Tb  Tb1  1  0.545048  0.166628  0.142262  1
  Tb  Tb2  1  0.166628  0.545048  0.642262  1
  Tb  Tb3  1  0.454952  0.833372  0.857738  1
  C  C4  1  0.354208  0.098866  0.466915  1
  C  C5  1  0.901134  0.645792  0.033085  1
  C  C6  1  0.645792  0.901134  0.533085  1
  C  C7  1  0.098866  0.354208  0.966915  1
  Se  Se8  1  0.213894  0.786106  0.250000  1
  Se  Se9  1  0.786106  0.213894  0.750000  1
