# generated using pymatgen
data_AcSi3Os
_symmetry_space_group_name_H-M   'P 1'
_cell_length_a   5.92421664
_cell_length_b   5.92421695
_cell_length_c   5.92421659
_cell_angle_alpha   136.67497360
_cell_angle_beta   136.67498297
_cell_angle_gamma   62.93851927
_symmetry_Int_Tables_number   1
_chemical_formula_structural   AcSi3Os
_chemical_formula_sum   'Ac1 Si3 Os1'
_cell_volume   96.65860890
_cell_formula_units_Z   1
loop_
 _symmetry_equiv_pos_site_id
 _symmetry_equiv_pos_as_xyz
  1  'x, y, z'
loop_
 _atom_site_type_symbol
 _atom_site_label
 _atom_site_symmetry_multiplicity
 _atom_site_fract_x
 _atom_site_fract_y
 _atom_site_fract_z
 _atom_site_occupancy
  Ac  Ac0  1  0.999805  0.999805  0.000000  1
  Si  Si1  1  0.417967  0.417967  0.000000  1
  Si  Si2  1  0.260085  0.760085  0.500000  1
  Si  Si3  1  0.760085  0.260085  0.500000  1
  Os  Os4  1  0.656057  0.656057  0.000000  1
