# generated using pymatgen
data_Ce6YNbBi10
_symmetry_space_group_name_H-M   'P 1'
_cell_length_a   9.65617100
_cell_length_b   9.65617128
_cell_length_c   6.48877400
_cell_angle_alpha   90.00000000
_cell_angle_beta   90.00000000
_cell_angle_gamma   119.99999562
_symmetry_Int_Tables_number   1
_chemical_formula_structural   Ce6YNbBi10
_chemical_formula_sum   'Ce6 Y1 Nb1 Bi10'
_cell_volume   523.96612188
_cell_formula_units_Z   1
loop_
 _symmetry_equiv_pos_site_id
 _symmetry_equiv_pos_as_xyz
  1  'x, y, z'
loop_
 _atom_site_type_symbol
 _atom_site_label
 _atom_site_symmetry_multiplicity
 _atom_site_fract_x
 _atom_site_fract_y
 _atom_site_fract_z
 _atom_site_occupancy
  Ce  Ce0  1  0.617488  0.000000  0.250853  1
  Ce  Ce1  1  0.382512  0.000000  0.749147  1
  Ce  Ce2  1  0.382512  0.382512  0.250853  1
  Ce  Ce3  1  0.000000  0.617488  0.250853  1
  Ce  Ce4  1  0.000000  0.382512  0.749147  1
  Ce  Ce5  1  0.617488  0.617488  0.749147  1
  Y  Y6  1  0.000000  0.000000  0.000000  1
  Nb  Nb7  1  0.000000  0.000000  0.500000  1
  Bi  Bi8  1  0.268977  0.268977  0.740358  1
  Bi  Bi9  1  0.731023  0.731023  0.259642  1
  Bi  Bi10  1  0.333333  0.666667  0.500000  1
  Bi  Bi11  1  0.000000  0.268977  0.259642  1
  Bi  Bi12  1  0.268977  0.000000  0.259642  1
  Bi  Bi13  1  0.731023  0.000000  0.740358  1
  Bi  Bi14  1  0.666667  0.333333  0.000000  1
  Bi  Bi15  1  0.000000  0.731023  0.740358  1
  Bi  Bi16  1  0.333333  0.666667  0.000000  1
  Bi  Bi17  1  0.666667  0.333333  0.500000  1
