# generated using pymatgen
data_HoTh2(InPd)3
_symmetry_space_group_name_H-M   'P 1'
_cell_length_a   7.71993500
_cell_length_b   7.72064678
_cell_length_c   4.04090900
_cell_angle_alpha   90.00000000
_cell_angle_beta   90.00000000
_cell_angle_gamma   119.99694606
_symmetry_Int_Tables_number   1
_chemical_formula_structural   HoTh2(InPd)3
_chemical_formula_sum   'Ho1 Th2 In3 Pd3'
_cell_volume   208.58851579
_cell_formula_units_Z   1
loop_
 _symmetry_equiv_pos_site_id
 _symmetry_equiv_pos_as_xyz
  1  'x, y, z'
loop_
 _atom_site_type_symbol
 _atom_site_label
 _atom_site_symmetry_multiplicity
 _atom_site_fract_x
 _atom_site_fract_y
 _atom_site_fract_z
 _atom_site_occupancy
  Ho  Ho0  1  0.591892  0.000000  0.000000  1
  Th  Th1  1  0.999044  0.588385  0.000000  1
  Th  Th2  1  0.410659  0.411615  0.000000  1
  In  In3  1  0.745256  0.755192  0.500000  1
  In  In4  1  0.990064  0.244808  0.500000  1
  In  In5  1  0.262087  0.000000  0.500000  1
  Pd  Pd6  1  0.327898  0.660332  0.500000  1
  Pd  Pd7  1  0.005533  0.000000  0.000000  1
  Pd  Pd8  1  0.667567  0.339668  0.500000  1
