# generated using pymatgen
data_Er7(TmIn4)5
_symmetry_space_group_name_H-M   'P 1'
_cell_length_a   6.49770928
_cell_length_b   10.35606089
_cell_length_c   12.14598268
_cell_angle_alpha   90.09653197
_cell_angle_beta   89.99261091
_cell_angle_gamma   90.00201117
_symmetry_Int_Tables_number   1
_chemical_formula_structural   Er7(TmIn4)5
_chemical_formula_sum   'Er7 Tm5 In20'
_cell_volume   817.31018148
_cell_formula_units_Z   1
loop_
 _symmetry_equiv_pos_site_id
 _symmetry_equiv_pos_as_xyz
  1  'x, y, z'
loop_
 _atom_site_type_symbol
 _atom_site_label
 _atom_site_symmetry_multiplicity
 _atom_site_fract_x
 _atom_site_fract_y
 _atom_site_fract_z
 _atom_site_occupancy
  Er  Er0  1  0.889241  0.509399  0.359676  1
  Er  Er1  1  0.610595  0.990233  0.858959  1
  Er  Er2  1  0.110487  0.009748  0.640935  1
  Er  Er3  1  0.389443  0.490447  0.140155  1
  Er  Er4  1  0.110478  0.490527  0.640307  1
  Er  Er5  1  0.389573  0.009845  0.140781  1
  Er  Er6  1  0.889520  0.990441  0.359125  1
  Tm  Tm7  1  0.851347  0.750066  0.052748  1
  Tm  Tm8  1  0.648500  0.750453  0.552905  1
  Tm  Tm9  1  0.148856  0.249463  0.947053  1
  Tm  Tm10  1  0.351492  0.249788  0.447111  1
  Tm  Tm11  1  0.610224  0.509595  0.859898  1
  In  In12  1  0.873319  0.043057  0.099718  1
  In  In13  1  0.626013  0.457611  0.600641  1
  In  In14  1  0.126598  0.542457  0.899884  1
  In  In15  1  0.373294  0.956879  0.400159  1
  In  In16  1  0.126795  0.956621  0.900098  1
  In  In17  1  0.373718  0.542774  0.399999  1
  In  In18  1  0.873807  0.457222  0.099895  1
  In  In19  1  0.626776  0.043245  0.599816  1
  In  In20  1  0.151403  0.749792  0.243171  1
  In  In21  1  0.348606  0.749520  0.743261  1
  In  In22  1  0.848342  0.250631  0.756987  1
  In  In23  1  0.651579  0.250216  0.256762  1
  In  In24  1  0.386475  0.749858  0.006977  1
  In  In25  1  0.113594  0.750059  0.506768  1
  In  In26  1  0.613922  0.250218  0.992726  1
  In  In27  1  0.886414  0.250262  0.493412  1
  In  In28  1  0.624802  0.749672  0.280937  1
  In  In29  1  0.874814  0.749154  0.781034  1
  In  In30  1  0.375169  0.250375  0.719041  1
  In  In31  1  0.124802  0.250374  0.219061  1
