# generated using pymatgen
data_Pr2TmIn5
_symmetry_space_group_name_H-M   'P 1'
_cell_length_a   6.68733300
_cell_length_b   10.54779200
_cell_length_c   12.47779200
_cell_angle_alpha   90.00000000
_cell_angle_beta   90.00000000
_cell_angle_gamma   90.00000000
_symmetry_Int_Tables_number   1
_chemical_formula_structural   Pr2TmIn5
_chemical_formula_sum   'Pr8 Tm4 In20'
_cell_volume   880.14099223
_cell_formula_units_Z   4
loop_
 _symmetry_equiv_pos_site_id
 _symmetry_equiv_pos_as_xyz
  1  'x, y, z'
loop_
 _atom_site_type_symbol
 _atom_site_label
 _atom_site_symmetry_multiplicity
 _atom_site_fract_x
 _atom_site_fract_y
 _atom_site_fract_z
 _atom_site_occupancy
  Pr  Pr0  1  0.888851  0.489780  0.143856  1
  Pr  Pr1  1  0.611149  0.010220  0.643856  1
  Pr  Pr2  1  0.111149  0.989780  0.856144  1
  Pr  Pr3  1  0.388851  0.510220  0.356144  1
  Pr  Pr4  1  0.111149  0.510220  0.856144  1
  Pr  Pr5  1  0.388851  0.989780  0.356144  1
  Pr  Pr6  1  0.888851  0.010220  0.143856  1
  Pr  Pr7  1  0.611149  0.489780  0.643856  1
  Tm  Tm8  1  0.349348  0.750000  0.060007  1
  Tm  Tm9  1  0.150652  0.750000  0.560007  1
  Tm  Tm10  1  0.650652  0.250000  0.939993  1
  Tm  Tm11  1  0.849348  0.250000  0.439993  1
  In  In12  1  0.616238  0.750000  0.502894  1
  In  In13  1  0.883762  0.750000  0.002894  1
  In  In14  1  0.383762  0.250000  0.497106  1
  In  In15  1  0.116238  0.250000  0.997106  1
  In  In16  1  0.653734  0.750000  0.243250  1
  In  In17  1  0.846266  0.750000  0.743250  1
  In  In18  1  0.346266  0.250000  0.756750  1
  In  In19  1  0.153734  0.250000  0.256750  1
  In  In20  1  0.110502  0.750000  0.283815  1
  In  In21  1  0.389498  0.750000  0.783815  1
  In  In22  1  0.889498  0.250000  0.716185  1
  In  In23  1  0.610502  0.250000  0.216185  1
  In  In24  1  0.875092  0.544772  0.404717  1
  In  In25  1  0.624908  0.955228  0.904717  1
  In  In26  1  0.124908  0.044772  0.595283  1
  In  In27  1  0.375092  0.455228  0.095283  1
  In  In28  1  0.124908  0.455228  0.595283  1
  In  In29  1  0.375092  0.044772  0.095283  1
  In  In30  1  0.875092  0.955228  0.404717  1
  In  In31  1  0.624908  0.544772  0.904717  1
