# generated using pymatgen
data_Mg2Nb3Ni9As7
_symmetry_space_group_name_H-M   'P 1'
_cell_length_a   9.68335200
_cell_length_b   9.68335128
_cell_length_c   3.73838100
_cell_angle_alpha   90.00000000
_cell_angle_beta   90.00000000
_cell_angle_gamma   120.00000244
_symmetry_Int_Tables_number   1
_chemical_formula_structural   Mg2Nb3Ni9As7
_chemical_formula_sum   'Mg2 Nb3 Ni9 As7'
_cell_volume   303.57470949
_cell_formula_units_Z   1
loop_
 _symmetry_equiv_pos_site_id
 _symmetry_equiv_pos_as_xyz
  1  'x, y, z'
loop_
 _atom_site_type_symbol
 _atom_site_label
 _atom_site_symmetry_multiplicity
 _atom_site_fract_x
 _atom_site_fract_y
 _atom_site_fract_z
 _atom_site_occupancy
  Mg  Mg0  1  0.333333  0.666667  0.000000  1
  Mg  Mg1  1  0.000000  0.000000  0.500000  1
  Nb  Nb2  1  0.771042  0.558417  0.500000  1
  Nb  Nb3  1  0.441583  0.212626  0.500000  1
  Nb  Nb4  1  0.787374  0.228958  0.500000  1
  Ni  Ni5  1  0.289481  0.398798  0.500000  1
  Ni  Ni6  1  0.601202  0.890683  0.500000  1
  Ni  Ni7  1  0.109317  0.710519  0.500000  1
  Ni  Ni8  1  0.509420  0.462029  0.000000  1
  Ni  Ni9  1  0.537971  0.047392  0.000000  1
  Ni  Ni10  1  0.952608  0.490580  0.000000  1
  Ni  Ni11  1  0.735430  0.767287  0.000000  1
  Ni  Ni12  1  0.232713  0.968143  0.000000  1
  Ni  Ni13  1  0.031857  0.264570  0.000000  1
  As  As14  1  0.972690  0.754231  0.000000  1
  As  As15  1  0.245769  0.218459  0.000000  1
  As  As16  1  0.781541  0.027310  0.000000  1
  As  As17  1  0.666667  0.333333  0.000000  1
  As  As18  1  0.544714  0.630312  0.500000  1
  As  As19  1  0.369688  0.914404  0.500000  1
  As  As20  1  0.085596  0.455286  0.500000  1
