# generated using pymatgen
data_Tm4Al24Pd8Au
_symmetry_space_group_name_H-M   'P 1'
_cell_length_a   7.55813881
_cell_length_b   7.58077775
_cell_length_c   13.15509000
_cell_angle_alpha   84.52870346
_cell_angle_beta   78.99402171
_cell_angle_gamma   59.92089251
_symmetry_Int_Tables_number   1
_chemical_formula_structural   Tm4Al24Pd8Au
_chemical_formula_sum   'Tm4 Al24 Pd8 Au1'
_cell_volume   640.24186593
_cell_formula_units_Z   1
loop_
 _symmetry_equiv_pos_site_id
 _symmetry_equiv_pos_as_xyz
  1  'x, y, z'
loop_
 _atom_site_type_symbol
 _atom_site_label
 _atom_site_symmetry_multiplicity
 _atom_site_fract_x
 _atom_site_fract_y
 _atom_site_fract_z
 _atom_site_occupancy
  Tm  Tm0  1  0.391918  0.169638  0.808933  1
  Tm  Tm1  1  0.606475  0.831538  0.191861  1
  Tm  Tm2  1  0.734682  0.498175  0.808714  1
  Tm  Tm3  1  0.266687  0.501483  0.191494  1
  Al  Al4  1  0.682481  0.834253  0.944994  1
  Al  Al5  1  0.316143  0.166084  0.056062  1
  Al  Al6  1  0.146204  0.839044  0.560139  1
  Al  Al7  1  0.854803  0.166532  0.436297  1
  Al  Al8  1  0.487196  0.160259  0.558048  1
  Al  Al9  1  0.520657  0.833423  0.439267  1
  Al  Al10  1  0.218466  0.165236  0.327758  1
  Al  Al11  1  0.775978  0.839792  0.674272  1
  Al  Al12  1  0.440641  0.506702  0.674580  1
  Al  Al13  1  0.563392  0.493576  0.327303  1
  Al  Al14  1  0.108218  0.153855  0.673095  1
  Al  Al15  1  0.891180  0.839663  0.328560  1
  Al  Al16  1  0.354448  0.498346  0.944698  1
  Al  Al17  1  0.646432  0.501053  0.056135  1
  Al  Al18  1  0.015367  0.167910  0.954092  1
  Al  Al19  1  0.984119  0.831970  0.047157  1
  Al  Al20  1  0.188441  0.499715  0.435843  1
  Al  Al21  1  0.807189  0.499791  0.557936  1
  Al  Al22  1  0.732931  0.163646  0.183692  1
  Al  Al23  1  0.268504  0.835965  0.816771  1
  Al  Al24  1  0.060380  0.633667  0.818499  1
  Al  Al25  1  0.938321  0.369876  0.185062  1
  Al  Al26  1  0.852662  0.044006  0.816480  1
  Al  Al27  1  0.145730  0.957229  0.183906  1
  Pd  Pd28  1  0.879769  0.508300  0.361361  1
  Pd  Pd29  1  0.657089  0.171420  0.999628  1
  Pd  Pd30  1  0.343061  0.828210  0.999884  1
  Pd  Pd31  1  0.537526  0.166685  0.361489  1
  Pd  Pd32  1  0.462484  0.833040  0.638017  1
  Pd  Pd33  1  0.778467  0.175174  0.637377  1
  Pd  Pd34  1  0.221982  0.824529  0.362091  1
  Pd  Pd35  1  0.000008  0.499748  0.000157  1
  Au  Au36  1  0.119968  0.490464  0.638348  1
