# generated using pymatgen
data_Ca6NbReO12
_symmetry_space_group_name_H-M   'P 1'
_cell_length_a   5.89966542
_cell_length_b   5.61342883
_cell_length_c   9.86980190
_cell_angle_alpha   55.31840662
_cell_angle_beta   89.77392290
_cell_angle_gamma   90.04092959
_symmetry_Int_Tables_number   1
_chemical_formula_structural   Ca6NbReO12
_chemical_formula_sum   'Ca6 Nb1 Re1 O12'
_cell_volume   268.78333242
_cell_formula_units_Z   1
loop_
 _symmetry_equiv_pos_site_id
 _symmetry_equiv_pos_as_xyz
  1  'x, y, z'
loop_
 _atom_site_type_symbol
 _atom_site_label
 _atom_site_symmetry_multiplicity
 _atom_site_fract_x
 _atom_site_fract_y
 _atom_site_fract_z
 _atom_site_occupancy
  Ca  Ca0  1  0.561525  0.237894  0.241909  1
  Ca  Ca1  1  0.054713  0.780018  0.229183  1
  Ca  Ca2  1  0.500000  0.000000  0.000000  1
  Ca  Ca3  1  0.000000  0.000000  0.500000  1
  Ca  Ca4  1  0.945287  0.219982  0.770817  1
  Ca  Ca5  1  0.438475  0.762106  0.758091  1
  Nb  Nb6  1  0.000000  0.500000  0.000000  1
  Re  Re7  1  0.500000  0.500000  0.500000  1
  O  O8  1  0.552152  0.398689  0.717980  1
  O  O9  1  0.058914  0.616343  0.766269  1
  O  O10  1  0.447848  0.601311  0.282020  1
  O  O11  1  0.941086  0.383657  0.233731  1
  O  O12  1  0.771056  0.730169  0.428246  1
  O  O13  1  0.284874  0.253123  0.072435  1
  O  O14  1  0.228944  0.269831  0.571754  1
  O  O15  1  0.715126  0.746877  0.927565  1
  O  O16  1  0.181288  0.845603  0.947942  1
  O  O17  1  0.668733  0.169781  0.552315  1
  O  O18  1  0.818712  0.154397  0.052058  1
  O  O19  1  0.331267  0.830219  0.447685  1
