# generated using pymatgen
data_K2TaNb2Cl9
_symmetry_space_group_name_H-M   'P 1'
_cell_length_a   9.87204033
_cell_length_b   9.87204192
_cell_length_c   9.72483500
_cell_angle_alpha   77.53626608
_cell_angle_beta   77.53626404
_cell_angle_gamma   117.46736769
_symmetry_Int_Tables_number   1
_chemical_formula_structural   K2TaNb2Cl9
_chemical_formula_sum   'K4 Ta2 Nb4 Cl18'
_cell_volume   764.76743062
_cell_formula_units_Z   2
loop_
 _symmetry_equiv_pos_site_id
 _symmetry_equiv_pos_as_xyz
  1  'x, y, z'
loop_
 _atom_site_type_symbol
 _atom_site_label
 _atom_site_symmetry_multiplicity
 _atom_site_fract_x
 _atom_site_fract_y
 _atom_site_fract_z
 _atom_site_occupancy
  K  K0  1  0.271375  0.951540  0.166278  1
  K  K1  1  0.048460  0.728625  0.833722  1
  K  K2  1  0.727498  0.048727  0.833385  1
  K  K3  1  0.951273  0.272502  0.166615  1
  Ta  Ta4  1  0.545647  0.718087  0.361222  1
  Ta  Ta5  1  0.281913  0.454353  0.638778  1
  Nb  Nb6  1  0.454546  0.280239  0.639434  1
  Nb  Nb7  1  0.719761  0.545454  0.360566  1
  Nb  Nb8  1  0.379930  0.379482  0.372304  1
  Nb  Nb9  1  0.620518  0.620070  0.627696  1
  Cl  Cl10  1  0.003550  0.395327  0.818824  1
  Cl  Cl11  1  0.604673  0.996450  0.181176  1
  Cl  Cl12  1  0.183185  0.185624  0.827270  1
  Cl  Cl13  1  0.814376  0.816815  0.172730  1
  Cl  Cl14  1  0.379247  0.585322  0.814392  1
  Cl  Cl15  1  0.414678  0.620753  0.185608  1
  Cl  Cl16  1  0.618634  0.412909  0.184656  1
  Cl  Cl17  1  0.587091  0.381366  0.815344  1
  Cl  Cl18  1  0.693448  0.901801  0.484070  1
  Cl  Cl19  1  0.098199  0.306552  0.515930  1
  Cl  Cl20  1  0.305141  0.097244  0.513929  1
  Cl  Cl21  1  0.902756  0.694859  0.486071  1
  Cl  Cl22  1  0.706307  0.293693  0.500000  1
  Cl  Cl23  1  0.295264  0.704736  0.500000  1
  Cl  Cl24  1  0.227184  0.228493  0.213150  1
  Cl  Cl25  1  0.771507  0.772816  0.786850  1
  Cl  Cl26  1  0.393230  0.999388  0.822505  1
  Cl  Cl27  1  0.000612  0.606770  0.177495  1
