# generated using pymatgen
data_K8Ho2ErTmF20
_symmetry_space_group_name_H-M   'P 1'
_cell_length_a   6.68168754
_cell_length_b   7.26998300
_cell_length_c   10.97088726
_cell_angle_alpha   90.00000000
_cell_angle_beta   90.07140132
_cell_angle_gamma   90.00000000
_symmetry_Int_Tables_number   1
_chemical_formula_structural   K8Ho2ErTmF20
_chemical_formula_sum   'K8 Ho2 Er1 Tm1 F20'
_cell_volume   532.91871613
_cell_formula_units_Z   1
loop_
 _symmetry_equiv_pos_site_id
 _symmetry_equiv_pos_as_xyz
  1  'x, y, z'
loop_
 _atom_site_type_symbol
 _atom_site_label
 _atom_site_symmetry_multiplicity
 _atom_site_fract_x
 _atom_site_fract_y
 _atom_site_fract_z
 _atom_site_occupancy
  K  K0  1  0.534283  0.997014  0.829204  1
  K  K1  1  0.465813  0.496894  0.170787  1
  K  K2  1  0.965693  0.997058  0.328827  1
  K  K3  1  0.034270  0.496967  0.671162  1
  K  K4  1  0.534283  0.502986  0.829204  1
  K  K5  1  0.465813  0.003106  0.170787  1
  K  K6  1  0.965693  0.502942  0.328827  1
  K  K7  1  0.034270  0.003033  0.671162  1
  Ho  Ho8  1  0.564010  0.250000  0.502680  1
  Ho  Ho9  1  0.435977  0.750000  0.497276  1
  Er  Er10  1  0.063394  0.750000  0.997534  1
  Tm  Tm11  1  0.936451  0.250000  0.002382  1
  F  F12  1  0.877377  0.750000  0.833786  1
  F  F13  1  0.121396  0.250000  0.165151  1
  F  F14  1  0.623682  0.750000  0.333012  1
  F  F15  1  0.376327  0.250000  0.666981  1
  F  F16  1  0.843320  0.250000  0.811879  1
  F  F17  1  0.157236  0.750000  0.189201  1
  F  F18  1  0.657588  0.250000  0.310098  1
  F  F19  1  0.342343  0.750000  0.689949  1
  F  F20  1  0.648011  0.964201  0.573702  1
  F  F21  1  0.351985  0.464193  0.426296  1
  F  F22  1  0.853441  0.965476  0.072748  1
  F  F23  1  0.146031  0.463275  0.927308  1
  F  F24  1  0.389726  0.750000  0.986167  1
  F  F25  1  0.612114  0.250000  0.013799  1
  F  F26  1  0.108251  0.750000  0.486249  1
  F  F27  1  0.891755  0.250000  0.513786  1
  F  F28  1  0.146031  0.036725  0.927308  1
  F  F29  1  0.853441  0.534524  0.072748  1
  F  F30  1  0.351985  0.035807  0.426296  1
  F  F31  1  0.648011  0.535799  0.573702  1
