# generated using pymatgen
data_Sc4Co2(NiOs)3
_symmetry_space_group_name_H-M   'P 1'
_cell_length_a   4.97158218
_cell_length_b   4.97158208
_cell_length_c   8.32898300
_cell_angle_alpha   90.00000000
_cell_angle_beta   90.00000000
_cell_angle_gamma   120.35166256
_symmetry_Int_Tables_number   1
_chemical_formula_structural   Sc4Co2(NiOs)3
_chemical_formula_sum   'Sc4 Co2 Ni3 Os3'
_cell_volume   177.64866643
_cell_formula_units_Z   1
loop_
 _symmetry_equiv_pos_site_id
 _symmetry_equiv_pos_as_xyz
  1  'x, y, z'
loop_
 _atom_site_type_symbol
 _atom_site_label
 _atom_site_symmetry_multiplicity
 _atom_site_fract_x
 _atom_site_fract_y
 _atom_site_fract_z
 _atom_site_occupancy
  Sc  Sc0  1  0.332081  0.667919  0.434254  1
  Sc  Sc1  1  0.665144  0.334856  0.564625  1
  Sc  Sc2  1  0.665144  0.334856  0.935375  1
  Sc  Sc3  1  0.332081  0.667919  0.065746  1
  Co  Co4  1  0.343692  0.165881  0.250000  1
  Co  Co5  1  0.834119  0.656308  0.250000  1
  Ni  Ni6  1  0.168402  0.337498  0.750000  1
  Ni  Ni7  1  0.169765  0.830235  0.750000  1
  Ni  Ni8  1  0.662502  0.831598  0.750000  1
  Os  Os9  1  0.998953  0.001047  0.998942  1
  Os  Os10  1  0.829164  0.170836  0.250000  1
  Os  Os11  1  0.998953  0.001047  0.501058  1
