# generated using pymatgen
data_Ta12Al5Zn3N4
_symmetry_space_group_name_H-M   'P 1'
_cell_length_a   7.03077805
_cell_length_b   7.03077795
_cell_length_c   7.03077817
_cell_angle_alpha   90.00466167
_cell_angle_beta   90.00465966
_cell_angle_gamma   90.00467042
_symmetry_Int_Tables_number   1
_chemical_formula_structural   Ta12Al5Zn3N4
_chemical_formula_sum   'Ta12 Al5 Zn3 N4'
_cell_volume   347.54429284
_cell_formula_units_Z   1
loop_
 _symmetry_equiv_pos_site_id
 _symmetry_equiv_pos_as_xyz
  1  'x, y, z'
loop_
 _atom_site_type_symbol
 _atom_site_label
 _atom_site_symmetry_multiplicity
 _atom_site_fract_x
 _atom_site_fract_y
 _atom_site_fract_z
 _atom_site_occupancy
  Ta  Ta0  1  0.791435  0.955169  0.377774  1
  Ta  Ta1  1  0.706598  0.042607  0.871418  1
  Ta  Ta2  1  0.206035  0.455878  0.127028  1
  Ta  Ta3  1  0.294880  0.544513  0.626218  1
  Ta  Ta4  1  0.955169  0.377774  0.791435  1
  Ta  Ta5  1  0.042607  0.871418  0.706598  1
  Ta  Ta6  1  0.455878  0.127028  0.206035  1
  Ta  Ta7  1  0.544513  0.626218  0.294880  1
  Ta  Ta8  1  0.377774  0.791435  0.955169  1
  Ta  Ta9  1  0.871418  0.706598  0.042607  1
  Ta  Ta10  1  0.127028  0.206035  0.455878  1
  Ta  Ta11  1  0.626218  0.294880  0.544513  1
  Al  Al12  1  0.677657  0.677657  0.677657  1
  Al  Al13  1  0.571447  0.423016  0.931344  1
  Al  Al14  1  0.423016  0.931344  0.571447  1
  Al  Al15  1  0.931344  0.571447  0.423016  1
  Al  Al16  1  0.072798  0.072798  0.072798  1
  Zn  Zn17  1  0.179332  0.821047  0.318677  1
  Zn  Zn18  1  0.318677  0.179332  0.821047  1
  Zn  Zn19  1  0.821047  0.318677  0.179332  1
  N  N20  1  0.878506  0.125810  0.624231  1
  N  N21  1  0.624231  0.878506  0.125810  1
  N  N22  1  0.125810  0.624231  0.878506  1
  N  N23  1  0.376584  0.376584  0.376584  1
