# generated using pymatgen
data_La4Ti3Cr5O20
_symmetry_space_group_name_H-M   'P 1'
_cell_length_a   5.91295800
_cell_length_b   7.73772854
_cell_length_c   8.79687740
_cell_angle_alpha   90.16887148
_cell_angle_beta   90.00000000
_cell_angle_gamma   90.00000000
_symmetry_Int_Tables_number   1
_chemical_formula_structural   La4Ti3Cr5O20
_chemical_formula_sum   'La4 Ti3 Cr5 O20'
_cell_volume   402.48058587
_cell_formula_units_Z   1
loop_
 _symmetry_equiv_pos_site_id
 _symmetry_equiv_pos_as_xyz
  1  'x, y, z'
loop_
 _atom_site_type_symbol
 _atom_site_label
 _atom_site_symmetry_multiplicity
 _atom_site_fract_x
 _atom_site_fract_y
 _atom_site_fract_z
 _atom_site_occupancy
  La  La0  1  0.000000  0.353199  0.673324  1
  La  La1  1  0.000000  0.644169  0.327288  1
  La  La2  1  0.000000  0.857076  0.826327  1
  La  La3  1  0.000000  0.144996  0.173028  1
  Ti  Ti4  1  0.500000  0.881817  0.142840  1
  Ti  Ti5  1  0.500000  0.617942  0.641468  1
  Ti  Ti6  1  0.500000  0.382298  0.358164  1
  Cr  Cr7  1  0.500000  0.115613  0.860730  1
  Cr  Cr8  1  0.250733  0.497924  0.999078  1
  Cr  Cr9  1  0.748194  0.001236  0.501055  1
  Cr  Cr10  1  0.749267  0.497924  0.999078  1
  Cr  Cr11  1  0.251806  0.001236  0.501055  1
  O  O12  1  0.257979  0.900443  0.285611  1
  O  O13  1  0.256126  0.100240  0.714465  1
  O  O14  1  0.741857  0.400492  0.213031  1
  O  O15  1  0.741115  0.597850  0.786394  1
  O  O16  1  0.743874  0.100240  0.714465  1
  O  O17  1  0.742021  0.900443  0.285611  1
  O  O18  1  0.258885  0.597850  0.786394  1
  O  O19  1  0.258143  0.400492  0.213031  1
  O  O20  1  0.500000  0.334443  0.928716  1
  O  O21  1  0.500000  0.662630  0.070400  1
  O  O22  1  0.500000  0.837268  0.571100  1
  O  O23  1  0.500000  0.163037  0.428144  1
  O  O24  1  0.288524  0.004299  0.999966  1
  O  O25  1  0.712855  0.500267  0.499369  1
  O  O26  1  0.711476  0.004299  0.999966  1
  O  O27  1  0.287145  0.500267  0.499369  1
  O  O28  1  0.000000  0.160438  0.447078  1
  O  O29  1  0.000000  0.840813  0.553535  1
  O  O30  1  0.000000  0.659864  0.052669  1
  O  O31  1  0.000000  0.338896  0.947250  1
