# generated using pymatgen
data_Sc3Cr2B4MoRu10
_symmetry_space_group_name_H-M   'P 1'
_cell_length_a   9.31937197
_cell_length_b   9.31937165
_cell_length_c   2.98694100
_cell_angle_alpha   90.00000000
_cell_angle_beta   90.00000000
_cell_angle_gamma   90.38832316
_symmetry_Int_Tables_number   1
_chemical_formula_structural   Sc3Cr2B4MoRu10
_chemical_formula_sum   'Sc3 Cr2 B4 Mo1 Ru10'
_cell_volume   259.41193144
_cell_formula_units_Z   1
loop_
 _symmetry_equiv_pos_site_id
 _symmetry_equiv_pos_as_xyz
  1  'x, y, z'
loop_
 _atom_site_type_symbol
 _atom_site_label
 _atom_site_symmetry_multiplicity
 _atom_site_fract_x
 _atom_site_fract_y
 _atom_site_fract_z
 _atom_site_occupancy
  Sc  Sc0  1  0.176022  0.823978  0.000000  1
  Sc  Sc1  1  0.324625  0.325951  0.000000  1
  Sc  Sc2  1  0.674049  0.675375  0.000000  1
  Cr  Cr3  1  0.493388  0.996437  0.000000  1
  Cr  Cr4  1  0.003563  0.506612  0.000000  1
  B  B5  1  0.623777  0.376223  0.000000  1
  B  B6  1  0.378063  0.621937  0.000000  1
  B  B7  1  0.124608  0.124652  0.000000  1
  B  B8  1  0.875348  0.875392  0.000000  1
  Mo  Mo9  1  0.823617  0.176383  0.000000  1
  Ru  Ru10  1  0.501945  0.498055  0.500000  1
  Ru  Ru11  1  0.995034  0.004966  0.500000  1
  Ru  Ru12  1  0.578771  0.208293  0.500000  1
  Ru  Ru13  1  0.432634  0.787946  0.500000  1
  Ru  Ru14  1  0.060595  0.286209  0.500000  1
  Ru  Ru15  1  0.928311  0.711903  0.500000  1
  Ru  Ru16  1  0.288097  0.071689  0.500000  1
  Ru  Ru17  1  0.713791  0.939405  0.500000  1
  Ru  Ru18  1  0.212054  0.567366  0.500000  1
  Ru  Ru19  1  0.791707  0.421229  0.500000  1
