# generated using pymatgen
data_Nd6Ir12PtRh5
_symmetry_space_group_name_H-M   'P 1'
_cell_length_a   5.37434600
_cell_length_b   5.37518223
_cell_length_c   17.71445803
_cell_angle_alpha   89.99452290
_cell_angle_beta   90.00019305
_cell_angle_gamma   119.99732131
_symmetry_Int_Tables_number   1
_chemical_formula_structural   Nd6Ir12PtRh5
_chemical_formula_sum   'Nd6 Ir12 Pt1 Rh5'
_cell_volume   443.18906444
_cell_formula_units_Z   1
loop_
 _symmetry_equiv_pos_site_id
 _symmetry_equiv_pos_as_xyz
  1  'x, y, z'
loop_
 _atom_site_type_symbol
 _atom_site_label
 _atom_site_symmetry_multiplicity
 _atom_site_fract_x
 _atom_site_fract_y
 _atom_site_fract_z
 _atom_site_occupancy
  Nd  Nd0  1  0.333328  0.666664  0.541302  1
  Nd  Nd1  1  0.666664  0.333321  0.042250  1
  Nd  Nd2  1  0.666672  0.333336  0.458698  1
  Nd  Nd3  1  0.333336  0.666679  0.957750  1
  Nd  Nd4  1  0.333346  0.666681  0.749896  1
  Nd  Nd5  1  0.666654  0.333319  0.250104  1
  Ir  Ir6  1  0.167553  0.335113  0.128326  1
  Ir  Ir7  1  0.832480  0.664975  0.627574  1
  Ir  Ir8  1  0.664884  0.832438  0.128314  1
  Ir  Ir9  1  0.167551  0.832432  0.128317  1
  Ir  Ir10  1  0.832480  0.167506  0.627574  1
  Ir  Ir11  1  0.335013  0.167507  0.627578  1
  Ir  Ir12  1  0.832447  0.664887  0.871674  1
  Ir  Ir13  1  0.832449  0.167568  0.871683  1
  Ir  Ir14  1  0.335116  0.167562  0.871686  1
  Ir  Ir15  1  0.664987  0.832493  0.372422  1
  Ir  Ir16  1  0.167520  0.832494  0.372426  1
  Ir  Ir17  1  0.167520  0.335025  0.372426  1
  Pt  Pt18  1  0.000000  0.000000  0.000000  1
  Rh  Rh19  1  0.000000  0.000018  0.250196  1
  Rh  Rh20  1  0.000000  0.999982  0.749804  1
  Rh  Rh21  1  0.333339  0.666653  0.249377  1
  Rh  Rh22  1  0.666661  0.333347  0.750623  1
  Rh  Rh23  1  0.000000  0.000000  0.500000  1
