# generated using pymatgen
data_KLa6RuI12
_symmetry_space_group_name_H-M   'P 1'
_cell_length_a   10.21468743
_cell_length_b   10.21468668
_cell_length_c   10.21468744
_cell_angle_alpha   106.03808149
_cell_angle_beta   106.03807743
_cell_angle_gamma   106.03808921
_symmetry_Int_Tables_number   1
_chemical_formula_structural   KLa6RuI12
_chemical_formula_sum   'K1 La6 Ru1 I12'
_cell_volume   909.89434490
_cell_formula_units_Z   1
loop_
 _symmetry_equiv_pos_site_id
 _symmetry_equiv_pos_as_xyz
  1  'x, y, z'
loop_
 _atom_site_type_symbol
 _atom_site_label
 _atom_site_symmetry_multiplicity
 _atom_site_fract_x
 _atom_site_fract_y
 _atom_site_fract_z
 _atom_site_occupancy
  K  K0  1  0.500000  0.500000  0.500000  1
  La  La1  1  0.900843  0.697131  0.976605  1
  La  La2  1  0.976605  0.900843  0.697131  1
  La  La3  1  0.697131  0.976605  0.900843  1
  La  La4  1  0.099157  0.302869  0.023395  1
  La  La5  1  0.023395  0.099157  0.302869  1
  La  La6  1  0.302869  0.023395  0.099157  1
  Ru  Ru7  1  0.000000  0.000000  0.000000  1
  I  I8  1  0.639757  0.872717  0.556224  1
  I  I9  1  0.556224  0.639757  0.872717  1
  I  I10  1  0.872717  0.556224  0.639757  1
  I  I11  1  0.360243  0.127283  0.443776  1
  I  I12  1  0.443776  0.360243  0.127283  1
  I  I13  1  0.127283  0.443776  0.360243  1
  I  I14  1  0.679181  0.074454  0.223693  1
  I  I15  1  0.223693  0.679181  0.074454  1
  I  I16  1  0.074454  0.223693  0.679181  1
  I  I17  1  0.320819  0.925546  0.776307  1
  I  I18  1  0.776307  0.320819  0.925546  1
  I  I19  1  0.925546  0.776307  0.320819  1
