# generated using pymatgen
data_Pr2TlCl7
_symmetry_space_group_name_H-M   'P 1'
_cell_length_a   13.26701700
_cell_length_b   7.27858206
_cell_length_c   13.92981700
_cell_angle_alpha   89.46943877
_cell_angle_beta   90.00000000
_cell_angle_gamma   90.00000000
_symmetry_Int_Tables_number   1
_chemical_formula_structural   Pr2TlCl7
_chemical_formula_sum   'Pr8 Tl4 Cl28'
_cell_volume   1345.07610961
_cell_formula_units_Z   4
loop_
 _symmetry_equiv_pos_site_id
 _symmetry_equiv_pos_as_xyz
  1  'x, y, z'
loop_
 _atom_site_type_symbol
 _atom_site_label
 _atom_site_symmetry_multiplicity
 _atom_site_fract_x
 _atom_site_fract_y
 _atom_site_fract_z
 _atom_site_occupancy
  Pr  Pr0  1  0.537364  0.778810  0.236373  1
  Pr  Pr1  1  0.462636  0.221190  0.763627  1
  Pr  Pr2  1  0.037364  0.221190  0.263627  1
  Pr  Pr3  1  0.962636  0.778810  0.736373  1
  Pr  Pr4  1  0.840827  0.726820  0.246968  1
  Pr  Pr5  1  0.159173  0.273180  0.753032  1
  Pr  Pr6  1  0.340827  0.273180  0.253032  1
  Pr  Pr7  1  0.659173  0.726820  0.746968  1
  Tl  Tl8  1  0.201783  0.739529  0.036102  1
  Tl  Tl9  1  0.798217  0.260471  0.963898  1
  Tl  Tl10  1  0.701783  0.260471  0.463898  1
  Tl  Tl11  1  0.298217  0.739529  0.536102  1
  Cl  Cl12  1  0.974975  0.943920  0.134530  1
  Cl  Cl13  1  0.025025  0.056080  0.865470  1
  Cl  Cl14  1  0.474975  0.056080  0.365470  1
  Cl  Cl15  1  0.525025  0.943920  0.634530  1
  Cl  Cl16  1  0.685416  0.743090  0.388374  1
  Cl  Cl17  1  0.314584  0.256910  0.611626  1
  Cl  Cl18  1  0.185416  0.256910  0.111626  1
  Cl  Cl19  1  0.814584  0.743090  0.888374  1
  Cl  Cl20  1  0.678670  0.517650  0.172542  1
  Cl  Cl21  1  0.321330  0.482350  0.827458  1
  Cl  Cl22  1  0.178670  0.482350  0.327458  1
  Cl  Cl23  1  0.821330  0.517650  0.672542  1
  Cl  Cl24  1  0.924392  0.976351  0.378593  1
  Cl  Cl25  1  0.075608  0.023649  0.621407  1
  Cl  Cl26  1  0.424392  0.023649  0.121407  1
  Cl  Cl27  1  0.575608  0.976351  0.878593  1
  Cl  Cl28  1  0.941739  0.462343  0.130227  1
  Cl  Cl29  1  0.058261  0.537657  0.869773  1
  Cl  Cl30  1  0.441739  0.537657  0.369773  1
  Cl  Cl31  1  0.558261  0.462343  0.630227  1
  Cl  Cl32  1  0.703818  0.996607  0.175214  1
  Cl  Cl33  1  0.296182  0.003393  0.824786  1
  Cl  Cl34  1  0.203818  0.003393  0.324786  1
  Cl  Cl35  1  0.796182  0.996607  0.675214  1
  Cl  Cl36  1  0.911416  0.454199  0.376550  1
  Cl  Cl37  1  0.088584  0.545801  0.623450  1
  Cl  Cl38  1  0.411416  0.545801  0.123450  1
  Cl  Cl39  1  0.588584  0.454199  0.876550  1
