# generated using pymatgen
data_Tb2Pr4Ga3Si
_symmetry_space_group_name_H-M   'P 1'
_cell_length_a   7.75266281
_cell_length_b   7.75266281
_cell_length_c   4.55283400
_cell_angle_alpha   90.00000000
_cell_angle_beta   90.00000000
_cell_angle_gamma   89.51021764
_symmetry_Int_Tables_number   1
_chemical_formula_structural   Tb2Pr4Ga3Si
_chemical_formula_sum   'Tb2 Pr4 Ga3 Si1'
_cell_volume   273.63253839
_cell_formula_units_Z   1
loop_
 _symmetry_equiv_pos_site_id
 _symmetry_equiv_pos_as_xyz
  1  'x, y, z'
loop_
 _atom_site_type_symbol
 _atom_site_label
 _atom_site_symmetry_multiplicity
 _atom_site_fract_x
 _atom_site_fract_y
 _atom_site_fract_z
 _atom_site_occupancy
  Tb  Tb0  1  0.500504  0.496483  0.000000  1
  Tb  Tb1  1  0.003517  0.999496  0.000000  1
  Pr  Pr2  1  0.672550  0.175965  0.500000  1
  Pr  Pr3  1  0.324035  0.827450  0.500000  1
  Pr  Pr4  1  0.181611  0.318389  0.500000  1
  Pr  Pr5  1  0.822693  0.677307  0.500000  1
  Ga  Ga6  1  0.117740  0.618142  0.000000  1
  Ga  Ga7  1  0.881858  0.382260  0.000000  1
  Ga  Ga8  1  0.614579  0.885421  0.000000  1
  Si  Si9  1  0.380913  0.119087  0.000000  1
