# generated using pymatgen
data_Zr8Si16(Mo3W)3
_symmetry_space_group_name_H-M   'P 1'
_cell_length_a   6.62898143
_cell_length_b   6.78551722
_cell_length_c   12.67023700
_cell_angle_alpha   90.00000000
_cell_angle_beta   90.00000000
_cell_angle_gamma   89.94507056
_symmetry_Int_Tables_number   1
_chemical_formula_structural   Zr8Si16(Mo3W)3
_chemical_formula_sum   'Zr8 Si16 Mo9 W3'
_cell_volume   569.92052536
_cell_formula_units_Z   1
loop_
 _symmetry_equiv_pos_site_id
 _symmetry_equiv_pos_as_xyz
  1  'x, y, z'
loop_
 _atom_site_type_symbol
 _atom_site_label
 _atom_site_symmetry_multiplicity
 _atom_site_fract_x
 _atom_site_fract_y
 _atom_site_fract_z
 _atom_site_occupancy
  Zr  Zr0  1  0.494444  0.327196  0.093408  1
  Zr  Zr1  1  0.996672  0.171661  0.406245  1
  Zr  Zr2  1  0.504671  0.672131  0.593620  1
  Zr  Zr3  1  0.003990  0.827246  0.906034  1
  Zr  Zr4  1  0.504671  0.672131  0.906380  1
  Zr  Zr5  1  0.003990  0.827246  0.593966  1
  Zr  Zr6  1  0.494444  0.327196  0.406592  1
  Zr  Zr7  1  0.996672  0.171661  0.093755  1
  Si  Si8  1  0.665945  0.041629  0.542904  1
  Si  Si9  1  0.165766  0.458895  0.956989  1
  Si  Si10  1  0.334132  0.958504  0.042658  1
  Si  Si11  1  0.834198  0.541343  0.456225  1
  Si  Si12  1  0.334132  0.958504  0.457342  1
  Si  Si13  1  0.834198  0.541343  0.043775  1
  Si  Si14  1  0.665945  0.041629  0.957096  1
  Si  Si15  1  0.165766  0.458895  0.543011  1
  Si  Si16  1  0.531957  0.376217  0.750000  1
  Si  Si17  1  0.032017  0.124431  0.750000  1
  Si  Si18  1  0.469370  0.623119  0.250000  1
  Si  Si19  1  0.967387  0.874342  0.250000  1
  Si  Si20  1  0.799287  0.637536  0.750000  1
  Si  Si21  1  0.299632  0.862287  0.750000  1
  Si  Si22  1  0.199617  0.363715  0.250000  1
  Si  Si23  1  0.700929  0.138129  0.250000  1
  Mo  Mo24  1  0.830257  0.335605  0.623935  1
  Mo  Mo25  1  0.330528  0.164388  0.875840  1
  Mo  Mo26  1  0.171301  0.665118  0.123978  1
  Mo  Mo27  1  0.668378  0.836519  0.376160  1
  Mo  Mo28  1  0.171301  0.665118  0.376022  1
  Mo  Mo29  1  0.668378  0.836519  0.123840  1
  Mo  Mo30  1  0.830257  0.335605  0.876065  1
  Mo  Mo31  1  0.330528  0.164388  0.624160  1
  Mo  Mo32  1  0.833930  0.488583  0.250000  1
  W  W33  1  0.665550  0.990269  0.750000  1
  W  W34  1  0.165496  0.510783  0.750000  1
  W  W35  1  0.334265  0.010121  0.250000  1
