# generated using pymatgen
data_Nd2UPa7O20
_symmetry_space_group_name_H-M   'P 1'
_cell_length_a   6.70752414
_cell_length_b   7.72854782
_cell_length_c   8.64260000
_cell_angle_alpha   102.70087467
_cell_angle_beta   97.30986986
_cell_angle_gamma   106.90720578
_symmetry_Int_Tables_number   1
_chemical_formula_structural   Nd2UPa7O20
_chemical_formula_sum   'Nd2 U1 Pa7 O20'
_cell_volume   409.30764312
_cell_formula_units_Z   1
loop_
 _symmetry_equiv_pos_site_id
 _symmetry_equiv_pos_as_xyz
  1  'x, y, z'
loop_
 _atom_site_type_symbol
 _atom_site_label
 _atom_site_symmetry_multiplicity
 _atom_site_fract_x
 _atom_site_fract_y
 _atom_site_fract_z
 _atom_site_occupancy
  Nd  Nd0  1  0.800072  0.600104  0.600195  1
  Nd  Nd1  1  0.600406  0.200352  0.200640  1
  U  U2  1  0.999860  0.999993  0.000256  1
  Pa  Pa3  1  0.998513  0.499841  0.999586  1
  Pa  Pa4  1  0.800829  0.100352  0.600689  1
  Pa  Pa5  1  0.601126  0.700637  0.199972  1
  Pa  Pa6  1  0.199837  0.399350  0.398784  1
  Pa  Pa7  1  0.399749  0.299015  0.801197  1
  Pa  Pa8  1  0.200087  0.900670  0.398894  1
  Pa  Pa9  1  0.400102  0.800762  0.801018  1
  O  O10  1  0.863311  0.318585  0.454360  1
  O  O11  1  0.646684  0.912907  0.046514  1
  O  O12  1  0.949917  0.770403  0.152150  1
  O  O13  1  0.855335  0.834820  0.445532  1
  O  O14  1  0.437972  0.521513  0.653953  1
  O  O15  1  0.650367  0.433577  0.045240  1
  O  O16  1  0.746611  0.365554  0.754413  1
  O  O17  1  0.239636  0.122111  0.255406  1
  O  O18  1  0.448706  0.025896  0.648543  1
  O  O19  1  0.961223  0.282358  0.147755  1
  O  O20  1  0.546632  0.965958  0.355508  1
  O  O21  1  0.058893  0.723910  0.856407  1
  O  O22  1  0.247810  0.627137  0.247358  1
  O  O23  1  0.743931  0.883981  0.750594  1
  O  O24  1  0.348496  0.572425  0.951676  1
  O  O25  1  0.052166  0.229529  0.846383  1
  O  O26  1  0.537719  0.482355  0.347015  1
  O  O27  1  0.153820  0.173517  0.552817  1
  O  O28  1  0.347041  0.072902  0.940416  1
  O  O29  1  0.163153  0.679491  0.546728  1
