# generated using pymatgen
data_DyTm3InNi
_symmetry_space_group_name_H-M   'P 1'
_cell_length_a   9.47367456
_cell_length_b   9.47367443
_cell_length_c   9.47367400
_cell_angle_alpha   60.00000151
_cell_angle_beta   60.00000196
_cell_angle_gamma   60.00000287
_symmetry_Int_Tables_number   1
_chemical_formula_structural   DyTm3InNi
_chemical_formula_sum   'Dy4 Tm12 In4 Ni4'
_cell_volume   601.22963176
_cell_formula_units_Z   4
loop_
 _symmetry_equiv_pos_site_id
 _symmetry_equiv_pos_as_xyz
  1  'x, y, z'
loop_
 _atom_site_type_symbol
 _atom_site_label
 _atom_site_symmetry_multiplicity
 _atom_site_fract_x
 _atom_site_fract_y
 _atom_site_fract_z
 _atom_site_occupancy
  Dy  Dy0  1  0.348212  0.348212  0.348212  1
  Dy  Dy1  1  0.348212  0.348212  0.955363  1
  Dy  Dy2  1  0.348212  0.955363  0.348212  1
  Dy  Dy3  1  0.955363  0.348212  0.348212  1
  Tm  Tm4  1  0.812385  0.187615  0.187615  1
  Tm  Tm5  1  0.187615  0.812385  0.812385  1
  Tm  Tm6  1  0.187615  0.812385  0.187615  1
  Tm  Tm7  1  0.812385  0.187615  0.812385  1
  Tm  Tm8  1  0.187615  0.187615  0.812385  1
  Tm  Tm9  1  0.812385  0.812385  0.187615  1
  Tm  Tm10  1  0.937411  0.562589  0.562589  1
  Tm  Tm11  1  0.562589  0.937411  0.937411  1
  Tm  Tm12  1  0.562589  0.937411  0.562589  1
  Tm  Tm13  1  0.937411  0.562589  0.937411  1
  Tm  Tm14  1  0.562589  0.562589  0.937411  1
  Tm  Tm15  1  0.937411  0.937411  0.562589  1
  In  In16  1  0.582920  0.582920  0.582920  1
  In  In17  1  0.582920  0.582920  0.251240  1
  In  In18  1  0.582920  0.251240  0.582920  1
  In  In19  1  0.251240  0.582920  0.582920  1
  Ni  Ni20  1  0.141944  0.141944  0.141944  1
  Ni  Ni21  1  0.141944  0.141944  0.574169  1
  Ni  Ni22  1  0.141944  0.574169  0.141944  1
  Ni  Ni23  1  0.574169  0.141944  0.141944  1
