# generated using pymatgen
data_Ce2Sm2ZnIn2Rh3
_symmetry_space_group_name_H-M   'P 1'
_cell_length_a   7.75593101
_cell_length_b   7.75593021
_cell_length_c   3.76676200
_cell_angle_alpha   90.00000000
_cell_angle_beta   90.00000000
_cell_angle_gamma   86.99665921
_symmetry_Int_Tables_number   1
_chemical_formula_structural   Ce2Sm2ZnIn2Rh3
_chemical_formula_sum   'Ce2 Sm2 Zn1 In2 Rh3'
_cell_volume   226.27631032
_cell_formula_units_Z   1
loop_
 _symmetry_equiv_pos_site_id
 _symmetry_equiv_pos_as_xyz
  1  'x, y, z'
loop_
 _atom_site_type_symbol
 _atom_site_label
 _atom_site_symmetry_multiplicity
 _atom_site_fract_x
 _atom_site_fract_y
 _atom_site_fract_z
 _atom_site_occupancy
  Ce  Ce0  1  0.165709  0.303978  0.500000  1
  Ce  Ce1  1  0.803978  0.665709  0.500000  1
  Sm  Sm2  1  0.675423  0.175423  0.500000  1
  Sm  Sm3  1  0.340000  0.840000  0.500000  1
  Zn  Zn4  1  0.126722  0.626722  0.000000  1
  In  In5  1  0.994339  0.991454  0.000000  1
  In  In6  1  0.491454  0.494339  0.000000  1
  Rh  Rh7  1  0.896757  0.396757  0.000000  1
  Rh  Rh8  1  0.643647  0.861972  0.000000  1
  Rh  Rh9  1  0.361972  0.143647  0.000000  1
