# generated using pymatgen
data_Cs4UCrBr12
_symmetry_space_group_name_H-M   'P 1'
_cell_length_a   7.85226600
_cell_length_b   7.85226600
_cell_length_c   11.55066000
_cell_angle_alpha   90.00000000
_cell_angle_beta   90.00000000
_cell_angle_gamma   90.00000000
_symmetry_Int_Tables_number   1
_chemical_formula_structural   Cs4UCrBr12
_chemical_formula_sum   'Cs4 U1 Cr1 Br12'
_cell_volume   712.19153375
_cell_formula_units_Z   1
loop_
 _symmetry_equiv_pos_site_id
 _symmetry_equiv_pos_as_xyz
  1  'x, y, z'
loop_
 _atom_site_type_symbol
 _atom_site_label
 _atom_site_symmetry_multiplicity
 _atom_site_fract_x
 _atom_site_fract_y
 _atom_site_fract_z
 _atom_site_occupancy
  Cs  Cs0  1  0.500000  0.000000  0.788115  1
  Cs  Cs1  1  0.500000  0.000000  0.211885  1
  Cs  Cs2  1  0.000000  0.500000  0.211885  1
  Cs  Cs3  1  0.000000  0.500000  0.788115  1
  U  U4  1  0.500000  0.500000  0.500000  1
  Cr  Cr5  1  0.000000  0.000000  0.000000  1
  Br  Br6  1  0.772703  0.232257  0.000000  1
  Br  Br7  1  0.227297  0.767743  0.000000  1
  Br  Br8  1  0.500000  0.500000  0.265132  1
  Br  Br9  1  0.294036  0.225654  0.500000  1
  Br  Br10  1  0.232257  0.227297  0.000000  1
  Br  Br11  1  0.774346  0.294036  0.500000  1
  Br  Br12  1  0.000000  0.000000  0.220978  1
  Br  Br13  1  0.705964  0.774346  0.500000  1
  Br  Br14  1  0.225654  0.705964  0.500000  1
  Br  Br15  1  0.500000  0.500000  0.734868  1
  Br  Br16  1  0.767743  0.772703  0.000000  1
  Br  Br17  1  0.000000  0.000000  0.779022  1
