# generated using pymatgen
data_Tm2Tc5(PIr)7
_symmetry_space_group_name_H-M   'P 1'
_cell_length_a   9.46854876
_cell_length_b   9.51938596
_cell_length_c   3.98359500
_cell_angle_alpha   90.00000000
_cell_angle_beta   90.00000000
_cell_angle_gamma   120.25213871
_symmetry_Int_Tables_number   1
_chemical_formula_structural   Tm2Tc5(PIr)7
_chemical_formula_sum   'Tm2 Tc5 P7 Ir7'
_cell_volume   310.16238686
_cell_formula_units_Z   1
loop_
 _symmetry_equiv_pos_site_id
 _symmetry_equiv_pos_as_xyz
  1  'x, y, z'
loop_
 _atom_site_type_symbol
 _atom_site_label
 _atom_site_symmetry_multiplicity
 _atom_site_fract_x
 _atom_site_fract_y
 _atom_site_fract_z
 _atom_site_occupancy
  Tm  Tm0  1  0.002104  0.001781  0.000000  1
  Tm  Tm1  1  0.668653  0.332229  0.500000  1
  Tc  Tc2  1  0.229248  0.398905  0.000000  1
  Tc  Tc3  1  0.605650  0.825697  0.000000  1
  Tc  Tc4  1  0.167171  0.777614  0.000000  1
  Tc  Tc5  1  0.423611  0.887404  0.500000  1
  Tc  Tc6  1  0.108674  0.536646  0.500000  1
  P  P7  1  0.449275  0.361119  0.000000  1
  P  P8  1  0.631630  0.079656  0.000000  1
  P  P9  1  0.916229  0.547001  0.000000  1
  P  P10  1  0.055140  0.267612  0.500000  1
  P  P11  1  0.740157  0.796717  0.500000  1
  P  P12  1  0.210099  0.945125  0.500000  1
  P  P13  1  0.329212  0.669794  0.000000  1
  Ir  Ir14  1  0.697268  0.592459  0.000000  1
  Ir  Ir15  1  0.404348  0.102000  0.000000  1
  Ir  Ir16  1  0.895839  0.299833  0.000000  1
  Ir  Ir17  1  0.275302  0.216738  0.500000  1
  Ir  Ir18  1  0.782977  0.059791  0.500000  1
  Ir  Ir19  1  0.936910  0.724169  0.500000  1
  Ir  Ir20  1  0.470497  0.577710  0.500000  1
