# generated using pymatgen
data_TmLu5FeCoSi6
_symmetry_space_group_name_H-M   'P 1'
_cell_length_a   5.51603209
_cell_length_b   5.51603265
_cell_length_c   13.20631194
_cell_angle_alpha   70.49910862
_cell_angle_beta   70.49910640
_cell_angle_gamma   43.68081318
_symmetry_Int_Tables_number   1
_chemical_formula_structural   TmLu5FeCoSi6
_chemical_formula_sum   'Tm1 Lu5 Fe1 Co1 Si6'
_cell_volume   258.94770033
_cell_formula_units_Z   1
loop_
 _symmetry_equiv_pos_site_id
 _symmetry_equiv_pos_as_xyz
  1  'x, y, z'
loop_
 _atom_site_type_symbol
 _atom_site_label
 _atom_site_symmetry_multiplicity
 _atom_site_fract_x
 _atom_site_fract_y
 _atom_site_fract_z
 _atom_site_occupancy
  Tm  Tm0  1  0.600846  0.600846  0.081412  1
  Lu  Lu1  1  0.747342  0.747342  0.770947  1
  Lu  Lu2  1  0.252346  0.252346  0.228752  1
  Lu  Lu3  1  0.524319  0.524319  0.620683  1
  Lu  Lu4  1  0.476768  0.476768  0.379179  1
  Lu  Lu5  1  0.399430  0.399430  0.919462  1
  Fe  Fe6  1  0.247364  0.247364  0.583413  1
  Co  Co7  1  0.751985  0.751985  0.415785  1
  Si  Si8  1  0.138142  0.138142  0.456730  1
  Si  Si9  1  0.859062  0.859062  0.543729  1
  Si  Si10  1  0.116736  0.116736  0.924143  1
  Si  Si11  1  0.884275  0.884275  0.075681  1
  Si  Si12  1  0.052878  0.052878  0.757855  1
  Si  Si13  1  0.948509  0.948509  0.242231  1
