# generated using pymatgen
data_PrNd3Al18(Pt2Rh)2
_symmetry_space_group_name_H-M   'P 1'
_cell_length_a   7.67029601
_cell_length_b   7.67049796
_cell_length_c   9.58998000
_cell_angle_alpha   90.00000000
_cell_angle_beta   90.00000000
_cell_angle_gamma   119.60181107
_symmetry_Int_Tables_number   1
_chemical_formula_structural   PrNd3Al18(Pt2Rh)2
_chemical_formula_sum   'Pr1 Nd3 Al18 Pt4 Rh2'
_cell_volume   490.58316377
_cell_formula_units_Z   1
loop_
 _symmetry_equiv_pos_site_id
 _symmetry_equiv_pos_as_xyz
  1  'x, y, z'
loop_
 _atom_site_type_symbol
 _atom_site_label
 _atom_site_symmetry_multiplicity
 _atom_site_fract_x
 _atom_site_fract_y
 _atom_site_fract_z
 _atom_site_occupancy
  Pr  Pr0  1  0.993843  0.666728  0.750000  1
  Nd  Nd1  1  0.006141  0.333232  0.250000  1
  Nd  Nd2  1  0.666753  0.993861  0.750000  1
  Nd  Nd3  1  0.333229  0.006145  0.250000  1
  Al  Al4  1  0.127577  0.127694  0.750000  1
  Al  Al5  1  0.872488  0.872497  0.250000  1
  Al  Al6  1  0.001470  0.330177  0.573425  1
  Al  Al7  1  0.998528  0.669686  0.426385  1
  Al  Al8  1  0.998528  0.669686  0.073615  1
  Al  Al9  1  0.330458  0.001613  0.926578  1
  Al  Al10  1  0.001470  0.330177  0.926575  1
  Al  Al11  1  0.669688  0.998535  0.073501  1
  Al  Al12  1  0.669688  0.998535  0.426499  1
  Al  Al13  1  0.330458  0.001613  0.573422  1
  Al  Al14  1  0.330617  0.330616  0.052144  1
  Al  Al15  1  0.669256  0.669383  0.947950  1
  Al  Al16  1  0.669256  0.669383  0.552050  1
  Al  Al17  1  0.330617  0.330616  0.447856  1
  Al  Al18  1  0.340119  0.543808  0.750000  1
  Al  Al19  1  0.659978  0.456141  0.250000  1
  Al  Al20  1  0.543674  0.339888  0.750000  1
  Al  Al21  1  0.456149  0.659988  0.250000  1
  Pt  Pt22  1  0.671170  0.328698  0.499946  1
  Pt  Pt23  1  0.328832  0.671233  0.499948  1
  Pt  Pt24  1  0.328832  0.671233  0.000052  1
  Pt  Pt25  1  0.671170  0.328698  0.000054  1
  Rh  Rh26  1  0.000007  0.000067  0.499949  1
  Rh  Rh27  1  0.000007  0.000067  0.000051  1
