# generated using pymatgen
data_Ta6Re5Si6W
_symmetry_space_group_name_H-M   'P 1'
_cell_length_a   7.56893526
_cell_length_b   7.58828235
_cell_length_c   7.58828261
_cell_angle_alpha   127.01689573
_cell_angle_beta   125.24303161
_cell_angle_gamma   79.74210146
_symmetry_Int_Tables_number   1
_chemical_formula_structural   Ta6Re5Si6W
_chemical_formula_sum   'Ta6 Re5 Si6 W1'
_cell_volume   274.46316191
_cell_formula_units_Z   1
loop_
 _symmetry_equiv_pos_site_id
 _symmetry_equiv_pos_as_xyz
  1  'x, y, z'
loop_
 _atom_site_type_symbol
 _atom_site_label
 _atom_site_symmetry_multiplicity
 _atom_site_fract_x
 _atom_site_fract_y
 _atom_site_fract_z
 _atom_site_occupancy
  Ta  Ta0  1  0.556578  0.096644  0.038986  1
  Ta  Ta1  1  0.443422  0.482408  0.540067  1
  Ta  Ta2  1  0.959099  0.495916  0.033905  1
  Ta  Ta3  1  0.040901  0.074807  0.536817  1
  Ta  Ta4  1  0.752670  0.912251  0.657807  1
  Ta  Ta5  1  0.247330  0.905136  0.159580  1
  Re  Re6  1  0.000000  0.244836  0.244836  1
  Re  Re7  1  0.159614  0.750748  0.655480  1
  Re  Re8  1  0.840386  0.495866  0.591133  1
  Re  Re9  1  0.594573  0.752905  0.091117  1
  Re  Re10  1  0.405427  0.496544  0.158332  1
  Si  Si11  1  0.774800  0.534989  0.261157  1
  Si  Si12  1  0.225200  0.486357  0.760190  1
  Si  Si13  1  0.335597  0.822166  0.495654  1
  Si  Si14  1  0.664403  0.160057  0.486569  1
  Si  Si15  1  0.827530  0.824473  0.988427  1
  Si  Si16  1  0.172470  0.160897  0.996943  1
  W  W17  1  0.500000  0.245196  0.745196  1
