# generated using pymatgen
data_Yb19Ho(SiSb2)4
_symmetry_space_group_name_H-M   'P 1'
_cell_length_a   7.95169118
_cell_length_b   9.47776960
_cell_length_c   12.54477100
_cell_angle_alpha   90.02109803
_cell_angle_beta   89.57653709
_cell_angle_gamma   89.89837426
_symmetry_Int_Tables_number   1
_chemical_formula_structural   Yb19Ho(SiSb2)4
_chemical_formula_sum   'Yb19 Ho1 Si4 Sb8'
_cell_volume   945.40046860
_cell_formula_units_Z   1
loop_
 _symmetry_equiv_pos_site_id
 _symmetry_equiv_pos_as_xyz
  1  'x, y, z'
loop_
 _atom_site_type_symbol
 _atom_site_label
 _atom_site_symmetry_multiplicity
 _atom_site_fract_x
 _atom_site_fract_y
 _atom_site_fract_z
 _atom_site_occupancy
  Yb  Yb0  1  0.447386  0.749811  0.000883  1
  Yb  Yb1  1  0.950256  0.248698  0.498995  1
  Yb  Yb2  1  0.552556  0.249579  0.000127  1
  Yb  Yb3  1  0.047865  0.752847  0.500604  1
  Yb  Yb4  1  0.651484  0.750211  0.298841  1
  Yb  Yb5  1  0.149347  0.248268  0.201077  1
  Yb  Yb6  1  0.350519  0.249424  0.700420  1
  Yb  Yb7  1  0.851876  0.750840  0.800614  1
  Yb  Yb8  1  0.323515  0.749434  0.720239  1
  Yb  Yb9  1  0.828096  0.249385  0.782437  1
  Yb  Yb10  1  0.676429  0.248676  0.279045  1
  Yb  Yb11  1  0.173484  0.751764  0.218690  1
  Yb  Yb12  1  0.822586  0.528993  0.074285  1
  Yb  Yb13  1  0.674660  0.973958  0.573960  1
  Yb  Yb14  1  0.177337  0.028558  0.925583  1
  Yb  Yb15  1  0.680953  0.528925  0.575796  1
  Yb  Yb16  1  0.177368  0.470639  0.925150  1
  Yb  Yb17  1  0.319899  0.029637  0.423944  1
  Yb  Yb18  1  0.822566  0.970785  0.074287  1
  Ho  Ho19  1  0.323709  0.474125  0.427750  1
  Si  Si20  1  0.062355  0.749248  0.989371  1
  Si  Si21  1  0.551381  0.255587  0.505751  1
  Si  Si22  1  0.938895  0.250060  0.010632  1
  Si  Si23  1  0.435019  0.744383  0.487267  1
  Sb  Sb24  1  0.441841  0.006510  0.169473  1
  Sb  Sb25  1  0.938268  0.991740  0.332114  1
  Sb  Sb26  1  0.560143  0.507270  0.831683  1
  Sb  Sb27  1  0.063831  0.490981  0.664792  1
  Sb  Sb28  1  0.558310  0.992834  0.829397  1
  Sb  Sb29  1  0.058849  0.006922  0.668225  1
  Sb  Sb30  1  0.441711  0.492700  0.175497  1
  Sb  Sb31  1  0.947503  0.507211  0.333070  1
