# generated using pymatgen
data_La3Pa5Al8(ReRh3)2
_symmetry_space_group_name_H-M   'P 1'
_cell_length_a   4.21949600
_cell_length_b   7.02988891
_cell_length_c   16.11786651
_cell_angle_alpha   90.03465646
_cell_angle_beta   90.00000000
_cell_angle_gamma   90.00000000
_symmetry_Int_Tables_number   1
_chemical_formula_structural   La3Pa5Al8(ReRh3)2
_chemical_formula_sum   'La3 Pa5 Al8 Re2 Rh6'
_cell_volume   478.09754843
_cell_formula_units_Z   1
loop_
 _symmetry_equiv_pos_site_id
 _symmetry_equiv_pos_as_xyz
  1  'x, y, z'
loop_
 _atom_site_type_symbol
 _atom_site_label
 _atom_site_symmetry_multiplicity
 _atom_site_fract_x
 _atom_site_fract_y
 _atom_site_fract_z
 _atom_site_occupancy
  La  La0  1  0.750000  0.354996  0.442262  1
  La  La1  1  0.750000  0.849758  0.058731  1
  La  La2  1  0.250000  0.147380  0.938886  1
  Pa  Pa3  1  0.250000  0.507966  0.776031  1
  Pa  Pa4  1  0.750000  0.479284  0.223051  1
  Pa  Pa5  1  0.750000  0.977144  0.280703  1
  Pa  Pa6  1  0.250000  0.016565  0.720485  1
  Pa  Pa7  1  0.250000  0.653251  0.565637  1
  Al  Al8  1  0.250000  0.653140  0.352314  1
  Al  Al9  1  0.750000  0.351381  0.648119  1
  Al  Al10  1  0.750000  0.845215  0.845232  1
  Al  Al11  1  0.250000  0.151754  0.152453  1
  Al  Al12  1  0.250000  0.510030  0.062161  1
  Al  Al13  1  0.750000  0.489351  0.935848  1
  Al  Al14  1  0.750000  0.994889  0.562851  1
  Al  Al15  1  0.250000  0.008679  0.440667  1
  Re  Re16  1  0.750000  0.234515  0.806528  1
  Re  Re17  1  0.750000  0.731278  0.680934  1
  Rh  Rh18  1  0.250000  0.759380  0.192450  1
  Rh  Rh19  1  0.250000  0.257100  0.310388  1
  Rh  Rh20  1  0.250000  0.707348  0.919646  1
  Rh  Rh21  1  0.750000  0.300704  0.083170  1
  Rh  Rh22  1  0.750000  0.795780  0.424799  1
  Rh  Rh23  1  0.250000  0.223111  0.576656  1
