# generated using pymatgen
data_Zr2Be2Hg
_symmetry_space_group_name_H-M   'P 1'
_cell_length_a   6.41462100
_cell_length_b   6.41462100
_cell_length_c   4.01868900
_cell_angle_alpha   90.00000000
_cell_angle_beta   90.00000000
_cell_angle_gamma   90.00000000
_symmetry_Int_Tables_number   1
_chemical_formula_structural   Zr2Be2Hg
_chemical_formula_sum   'Zr4 Be4 Hg2'
_cell_volume   165.35845335
_cell_formula_units_Z   2
loop_
 _symmetry_equiv_pos_site_id
 _symmetry_equiv_pos_as_xyz
  1  'x, y, z'
loop_
 _atom_site_type_symbol
 _atom_site_label
 _atom_site_symmetry_multiplicity
 _atom_site_fract_x
 _atom_site_fract_y
 _atom_site_fract_z
 _atom_site_occupancy
  Zr  Zr0  1  0.329844  0.170157  0.499999  1
  Zr  Zr1  1  0.829844  0.329844  0.499999  1
  Zr  Zr2  1  0.170157  0.670157  0.499999  1
  Zr  Zr3  1  0.670157  0.829844  0.499999  1
  Be  Be4  1  0.622157  0.122157  0.000000  1
  Be  Be5  1  0.122157  0.377842  0.000000  1
  Be  Be6  1  0.877843  0.622157  0.000000  1
  Be  Be7  1  0.377842  0.877843  0.000000  1
  Hg  Hg8  1  0.000000  0.000000  0.000000  1
  Hg  Hg9  1  0.500000  0.500000  0.000000  1
