# generated using pymatgen
data_Ti10Sn3BSb3
_symmetry_space_group_name_H-M   'P 1'
_cell_length_a   8.04989600
_cell_length_b   8.04989476
_cell_length_c   5.45762900
_cell_angle_alpha   90.00000000
_cell_angle_beta   90.00000000
_cell_angle_gamma   120.00000510
_symmetry_Int_Tables_number   1
_chemical_formula_structural   Ti10Sn3BSb3
_chemical_formula_sum   'Ti10 Sn3 B1 Sb3'
_cell_volume   306.27749844
_cell_formula_units_Z   1
loop_
 _symmetry_equiv_pos_site_id
 _symmetry_equiv_pos_as_xyz
  1  'x, y, z'
loop_
 _atom_site_type_symbol
 _atom_site_label
 _atom_site_symmetry_multiplicity
 _atom_site_fract_x
 _atom_site_fract_y
 _atom_site_fract_z
 _atom_site_occupancy
  Ti  Ti0  1  0.666667  0.333333  0.499596  1
  Ti  Ti1  1  0.333333  0.666667  0.499596  1
  Ti  Ti2  1  0.333333  0.666667  0.999665  1
  Ti  Ti3  1  0.666667  0.333333  0.999665  1
  Ti  Ti4  1  0.768235  0.768235  0.260340  1
  Ti  Ti5  1  0.231765  0.000000  0.260340  1
  Ti  Ti6  1  0.000000  0.231765  0.260340  1
  Ti  Ti7  1  0.234186  0.234186  0.739816  1
  Ti  Ti8  1  0.765814  0.000000  0.739816  1
  Ti  Ti9  1  0.000000  0.765814  0.739816  1
  Sn  Sn10  1  0.605094  0.605094  0.752552  1
  Sn  Sn11  1  0.394906  0.000000  0.752552  1
  Sn  Sn12  1  0.000000  0.394906  0.752552  1
  B  B13  1  0.000000  0.000000  0.501207  1
  Sb  Sb14  1  0.395500  0.395500  0.247382  1
  Sb  Sb15  1  0.604500  0.000000  0.247382  1
  Sb  Sb16  1  0.000000  0.604500  0.247382  1
