# generated using pymatgen
data_Tm4Co20As11P
_symmetry_space_group_name_H-M   'P 1'
_cell_length_a   3.75660300
_cell_length_b   12.13567716
_cell_length_c   10.62832901
_cell_angle_alpha   90.05004372
_cell_angle_beta   90.00000000
_cell_angle_gamma   90.00000000
_symmetry_Int_Tables_number   1
_chemical_formula_structural   Tm4Co20As11P
_chemical_formula_sum   'Tm4 Co20 As11 P1'
_cell_volume   484.53386923
_cell_formula_units_Z   1
loop_
 _symmetry_equiv_pos_site_id
 _symmetry_equiv_pos_as_xyz
  1  'x, y, z'
loop_
 _atom_site_type_symbol
 _atom_site_label
 _atom_site_symmetry_multiplicity
 _atom_site_fract_x
 _atom_site_fract_y
 _atom_site_fract_z
 _atom_site_occupancy
  Tm  Tm0  1  0.750000  0.700824  0.081753  1
  Tm  Tm1  1  0.250000  0.298218  0.918519  1
  Tm  Tm2  1  0.250000  0.792475  0.582455  1
  Tm  Tm3  1  0.750000  0.202879  0.418789  1
  Co  Co4  1  0.750000  0.695518  0.391125  1
  Co  Co5  1  0.250000  0.304124  0.615043  1
  Co  Co6  1  0.250000  0.801270  0.882708  1
  Co  Co7  1  0.750000  0.197599  0.115441  1
  Co  Co8  1  0.750000  0.990997  0.213525  1
  Co  Co9  1  0.250000  0.008247  0.787306  1
  Co  Co10  1  0.250000  0.513061  0.708412  1
  Co  Co11  1  0.750000  0.491374  0.287720  1
  Co  Co12  1  0.750000  0.674228  0.772143  1
  Co  Co13  1  0.250000  0.322509  0.216955  1
  Co  Co14  1  0.250000  0.820884  0.284804  1
  Co  Co15  1  0.750000  0.178203  0.715477  1
  Co  Co16  1  0.750000  0.930999  0.968481  1
  Co  Co17  1  0.250000  0.067875  0.030780  1
  Co  Co18  1  0.250000  0.571680  0.476604  1
  Co  Co19  1  0.750000  0.438366  0.533938  1
  Co  Co20  1  0.750000  0.987243  0.592941  1
  Co  Co21  1  0.250000  0.012241  0.407413  1
  Co  Co22  1  0.250000  0.512814  0.092891  1
  Co  Co23  1  0.750000  0.488529  0.906703  1
  As  As24  1  0.250000  0.388050  0.415933  1
  As  As25  1  0.250000  0.884640  0.085194  1
  As  As26  1  0.750000  0.114261  0.914618  1
  As  As27  1  0.750000  0.889154  0.401509  1
  As  As28  1  0.250000  0.109933  0.599609  1
  As  As29  1  0.250000  0.609767  0.898773  1
  As  As30  1  0.750000  0.390614  0.099760  1
  As  As31  1  0.750000  0.868503  0.767060  1
  As  As32  1  0.250000  0.129681  0.232096  1
  As  As33  1  0.250000  0.628796  0.270734  1
  As  As34  1  0.750000  0.370756  0.732144  1
  P  P35  1  0.750000  0.613686  0.580642  1
