# generated using pymatgen
data_Sr6Co3SbO12
_symmetry_space_group_name_H-M   'P 1'
_cell_length_a   6.73630818
_cell_length_b   6.74060447
_cell_length_c   6.73503167
_cell_angle_alpha   92.67675950
_cell_angle_beta   92.69258631
_cell_angle_gamma   92.65857624
_symmetry_Int_Tables_number   1
_chemical_formula_structural   Sr6Co3SbO12
_chemical_formula_sum   'Sr6 Co3 Sb1 O12'
_cell_volume   304.78337577
_cell_formula_units_Z   1
loop_
 _symmetry_equiv_pos_site_id
 _symmetry_equiv_pos_as_xyz
  1  'x, y, z'
loop_
 _atom_site_type_symbol
 _atom_site_label
 _atom_site_symmetry_multiplicity
 _atom_site_fract_x
 _atom_site_fract_y
 _atom_site_fract_z
 _atom_site_occupancy
  Sr  Sr0  1  0.882187  0.267565  0.605313  1
  Sr  Sr1  1  0.266966  0.605147  0.881734  1
  Sr  Sr2  1  0.604573  0.883140  0.264795  1
  Sr  Sr3  1  0.733727  0.394868  0.117387  1
  Sr  Sr4  1  0.394711  0.118286  0.731866  1
  Sr  Sr5  1  0.117262  0.734966  0.395385  1
  Co  Co6  1  0.739206  0.743381  0.736840  1
  Co  Co7  1  0.500770  0.498732  0.500524  1
  Co  Co8  1  0.258934  0.265204  0.256482  1
  Sb  Sb9  1  0.999738  0.998973  0.001310  1
  O  O10  1  0.222505  0.407095  0.539620  1
  O  O11  1  0.407996  0.539501  0.221743  1
  O  O12  1  0.541567  0.221477  0.408669  1
  O  O13  1  0.912213  0.715171  0.042823  1
  O  O14  1  0.715193  0.041269  0.914028  1
  O  O15  1  0.040230  0.910955  0.716368  1
  O  O16  1  0.778898  0.591016  0.460262  1
  O  O17  1  0.591622  0.458036  0.778088  1
  O  O18  1  0.461111  0.777396  0.593531  1
  O  O19  1  0.088176  0.283724  0.959638  1
  O  O20  1  0.284158  0.957672  0.088233  1
  O  O21  1  0.958258  0.086424  0.285358  1
