# generated using pymatgen
data_Ho3Lu(HgPd2)2
_symmetry_space_group_name_H-M   'P 1'
_cell_length_a   7.76584700
_cell_length_b   7.76584728
_cell_length_c   3.62523100
_cell_angle_alpha   90.00000000
_cell_angle_beta   90.00000000
_cell_angle_gamma   89.91140593
_symmetry_Int_Tables_number   1
_chemical_formula_structural   Ho3Lu(HgPd2)2
_chemical_formula_sum   'Ho3 Lu1 Hg2 Pd4'
_cell_volume   218.63155401
_cell_formula_units_Z   1
loop_
 _symmetry_equiv_pos_site_id
 _symmetry_equiv_pos_as_xyz
  1  'x, y, z'
loop_
 _atom_site_type_symbol
 _atom_site_label
 _atom_site_symmetry_multiplicity
 _atom_site_fract_x
 _atom_site_fract_y
 _atom_site_fract_z
 _atom_site_occupancy
  Ho  Ho0  1  0.672946  0.171801  0.500000  1
  Ho  Ho1  1  0.328199  0.827054  0.500000  1
  Ho  Ho2  1  0.172095  0.327905  0.500000  1
  Lu  Lu3  1  0.828281  0.671719  0.500000  1
  Hg  Hg4  1  0.999395  0.999759  0.000000  1
  Hg  Hg5  1  0.500241  0.500605  0.000000  1
  Pd  Pd6  1  0.124776  0.629382  0.000000  1
  Pd  Pd7  1  0.870618  0.375224  0.000000  1
  Pd  Pd8  1  0.630720  0.869280  0.000000  1
  Pd  Pd9  1  0.372729  0.127271  0.000000  1
