# generated using pymatgen
data_HoLu2Si2GeRu2
_symmetry_space_group_name_H-M   'P 1'
_cell_length_a   5.66914823
_cell_length_b   5.66914954
_cell_length_c   13.74976000
_cell_angle_alpha   90.00000000
_cell_angle_beta   90.00000000
_cell_angle_gamma   137.10895819
_symmetry_Int_Tables_number   1
_chemical_formula_structural   HoLu2Si2GeRu2
_chemical_formula_sum   'Ho2 Lu4 Si4 Ge2 Ru4'
_cell_volume   300.76467428
_cell_formula_units_Z   2
loop_
 _symmetry_equiv_pos_site_id
 _symmetry_equiv_pos_as_xyz
  1  'x, y, z'
loop_
 _atom_site_type_symbol
 _atom_site_label
 _atom_site_symmetry_multiplicity
 _atom_site_fract_x
 _atom_site_fract_y
 _atom_site_fract_z
 _atom_site_occupancy
  Ho  Ho0  1  0.644806  0.355194  0.250000  1
  Ho  Ho1  1  0.355194  0.644806  0.750000  1
  Lu  Lu2  1  0.925285  0.074715  0.112015  1
  Lu  Lu3  1  0.074715  0.925285  0.887985  1
  Lu  Lu4  1  0.074715  0.925285  0.612015  1
  Lu  Lu5  1  0.925285  0.074715  0.387985  1
  Si  Si6  1  0.614772  0.385228  0.038061  1
  Si  Si7  1  0.385228  0.614772  0.961939  1
  Si  Si8  1  0.385228  0.614772  0.538061  1
  Si  Si9  1  0.614772  0.385228  0.461939  1
  Ge  Ge10  1  0.341253  0.658747  0.250000  1
  Ge  Ge11  1  0.658747  0.341253  0.750000  1
  Ru  Ru12  1  0.788858  0.211142  0.579451  1
  Ru  Ru13  1  0.211142  0.788858  0.420549  1
  Ru  Ru14  1  0.211142  0.788858  0.079451  1
  Ru  Ru15  1  0.788858  0.211142  0.920549  1
