# generated using pymatgen
data_Eu3SnHg2Pt3
_symmetry_space_group_name_H-M   'P 1'
_cell_length_a   7.70247100
_cell_length_b   7.80683141
_cell_length_c   4.10152300
_cell_angle_alpha   90.00000000
_cell_angle_beta   90.00000000
_cell_angle_gamma   119.55877640
_symmetry_Int_Tables_number   1
_chemical_formula_structural   Eu3SnHg2Pt3
_chemical_formula_sum   'Eu3 Sn1 Hg2 Pt3'
_cell_volume   214.53316324
_cell_formula_units_Z   1
loop_
 _symmetry_equiv_pos_site_id
 _symmetry_equiv_pos_as_xyz
  1  'x, y, z'
loop_
 _atom_site_type_symbol
 _atom_site_label
 _atom_site_symmetry_multiplicity
 _atom_site_fract_x
 _atom_site_fract_y
 _atom_site_fract_z
 _atom_site_occupancy
  Eu  Eu0  1  0.401842  0.409417  0.000000  1
  Eu  Eu1  1  0.607320  0.000000  0.000000  1
  Eu  Eu2  1  0.992425  0.590583  0.000000  1
  Sn  Sn3  1  0.258659  0.000000  0.500000  1
  Hg  Hg4  1  0.000193  0.261742  0.500000  1
  Hg  Hg5  1  0.738449  0.738258  0.500000  1
  Pt  Pt6  1  0.645777  0.317992  0.500000  1
  Pt  Pt7  1  0.027551  0.000000  0.000000  1
  Pt  Pt8  1  0.327784  0.682008  0.500000  1
