# generated using pymatgen
data_Hf16Fe4Pt3W
_symmetry_space_group_name_H-M   'P 1'
_cell_length_a   8.65745029
_cell_length_b   8.59546516
_cell_length_c   8.59546400
_cell_angle_alpha   59.99999676
_cell_angle_beta   60.23655794
_cell_angle_gamma   60.23655882
_symmetry_Int_Tables_number   1
_chemical_formula_structural   Hf16Fe4Pt3W
_chemical_formula_sum   'Hf16 Fe4 Pt3 W1'
_cell_volume   453.89703224
_cell_formula_units_Z   1
loop_
 _symmetry_equiv_pos_site_id
 _symmetry_equiv_pos_as_xyz
  1  'x, y, z'
loop_
 _atom_site_type_symbol
 _atom_site_label
 _atom_site_symmetry_multiplicity
 _atom_site_fract_x
 _atom_site_fract_y
 _atom_site_fract_z
 _atom_site_occupancy
  Hf  Hf0  1  0.065319  0.644894  0.644894  1
  Hf  Hf1  1  0.651268  0.048006  0.650364  1
  Hf  Hf2  1  0.651268  0.650364  0.048006  1
  Hf  Hf3  1  0.651268  0.650364  0.650364  1
  Hf  Hf4  1  0.806841  0.800360  0.196399  1
  Hf  Hf5  1  0.197190  0.197893  0.802458  1
  Hf  Hf6  1  0.806841  0.196399  0.800360  1
  Hf  Hf7  1  0.197190  0.802458  0.197893  1
  Hf  Hf8  1  0.197190  0.802458  0.802458  1
  Hf  Hf9  1  0.806841  0.196399  0.196399  1
  Hf  Hf10  1  0.436555  0.438668  0.062389  1
  Hf  Hf11  1  0.052635  0.071762  0.437801  1
  Hf  Hf12  1  0.436555  0.062389  0.438668  1
  Hf  Hf13  1  0.052635  0.437801  0.071762  1
  Hf  Hf14  1  0.052635  0.437801  0.437801  1
  Hf  Hf15  1  0.436555  0.062389  0.062389  1
  Fe  Fe16  1  0.415303  0.861566  0.861566  1
  Fe  Fe17  1  0.864218  0.420476  0.857654  1
  Fe  Fe18  1  0.864218  0.857654  0.420476  1
  Fe  Fe19  1  0.864218  0.857654  0.857654  1
  Pt  Pt20  1  0.417702  0.756826  0.412736  1
  Pt  Pt21  1  0.417702  0.412736  0.756826  1
  Pt  Pt22  1  0.417702  0.412736  0.412736  1
  W  W23  1  0.740152  0.419949  0.419949  1
