# generated using pymatgen
data_Pr6Sm4Sn20Pd5Rh3
_symmetry_space_group_name_H-M   'P 1'
_cell_length_a   14.28337439
_cell_length_b   14.29565711
_cell_length_c   4.63867900
_cell_angle_alpha   90.00000000
_cell_angle_beta   90.00000000
_cell_angle_gamma   90.01767940
_symmetry_Int_Tables_number   1
_chemical_formula_structural   Pr6Sm4Sn20Pd5Rh3
_chemical_formula_sum   'Pr6 Sm4 Sn20 Pd5 Rh3'
_cell_volume   947.17285266
_cell_formula_units_Z   1
loop_
 _symmetry_equiv_pos_site_id
 _symmetry_equiv_pos_as_xyz
  1  'x, y, z'
loop_
 _atom_site_type_symbol
 _atom_site_label
 _atom_site_symmetry_multiplicity
 _atom_site_fract_x
 _atom_site_fract_y
 _atom_site_fract_z
 _atom_site_occupancy
  Pr  Pr0  1  0.500804  0.497389  0.000000  1
  Pr  Pr1  1  0.000889  0.999771  0.000000  1
  Pr  Pr2  1  0.892308  0.390417  0.500000  1
  Pr  Pr3  1  0.107012  0.609931  0.500000  1
  Pr  Pr4  1  0.391921  0.110052  0.500000  1
  Pr  Pr5  1  0.608980  0.890855  0.500000  1
  Sm  Sm6  1  0.677892  0.179963  0.500000  1
  Sm  Sm7  1  0.320321  0.821670  0.500000  1
  Sm  Sm8  1  0.176993  0.320158  0.500000  1
  Sm  Sm9  1  0.822514  0.679152  0.500000  1
  Sn  Sn10  1  0.568009  0.072102  0.000000  1
  Sn  Sn11  1  0.431848  0.931874  0.000000  1
  Sn  Sn12  1  0.067691  0.428629  0.000000  1
  Sn  Sn13  1  0.932531  0.571423  0.000000  1
  Sn  Sn14  1  0.654178  0.700319  0.000000  1
  Sn  Sn15  1  0.347131  0.298024  0.000000  1
  Sn  Sn16  1  0.151769  0.798641  0.000000  1
  Sn  Sn17  1  0.847692  0.201312  0.000000  1
  Sn  Sn18  1  0.299516  0.654080  0.000000  1
  Sn  Sn19  1  0.698272  0.345650  0.000000  1
  Sn  Sn20  1  0.197821  0.154213  0.000000  1
  Sn  Sn21  1  0.802503  0.846530  0.000000  1
  Sn  Sn22  1  0.662859  0.501448  0.500000  1
  Sn  Sn23  1  0.337731  0.495695  0.500000  1
  Sn  Sn24  1  0.162311  0.997338  0.500000  1
  Sn  Sn25  1  0.837975  0.003605  0.500000  1
  Sn  Sn26  1  0.497128  0.661823  0.500000  1
  Sn  Sn27  1  0.504307  0.335709  0.500000  1
  Sn  Sn28  1  0.004694  0.163703  0.500000  1
  Sn  Sn29  1  0.995069  0.835918  0.500000  1
  Pd  Pd30  1  0.746394  0.530448  0.000000  1
  Pd  Pd31  1  0.253729  0.469477  0.000000  1
  Pd  Pd32  1  0.245967  0.969240  0.000000  1
  Pd  Pd33  1  0.753479  0.030481  0.000000  1
  Pd  Pd34  1  0.469195  0.746537  0.000000  1
  Rh  Rh35  1  0.530982  0.256310  0.000000  1
  Rh  Rh36  1  0.030893  0.244378  0.000000  1
  Rh  Rh37  1  0.968689  0.755736  0.000000  1
