# generated using pymatgen
data_Hf5Zr3Nb2(Sn3P)2
_symmetry_space_group_name_H-M   'P 1'
_cell_length_a   8.52733100
_cell_length_b   8.52733088
_cell_length_c   5.83391400
_cell_angle_alpha   90.00000000
_cell_angle_beta   90.00000000
_cell_angle_gamma   119.99998883
_symmetry_Int_Tables_number   1
_chemical_formula_structural   Hf5Zr3Nb2(Sn3P)2
_chemical_formula_sum   'Hf5 Zr3 Nb2 Sn6 P2'
_cell_volume   367.38120923
_cell_formula_units_Z   1
loop_
 _symmetry_equiv_pos_site_id
 _symmetry_equiv_pos_as_xyz
  1  'x, y, z'
loop_
 _atom_site_type_symbol
 _atom_site_label
 _atom_site_symmetry_multiplicity
 _atom_site_fract_x
 _atom_site_fract_y
 _atom_site_fract_z
 _atom_site_occupancy
  Hf  Hf0  1  0.333333  0.666667  0.500566  1
  Hf  Hf1  1  0.666667  0.333333  0.500566  1
  Hf  Hf2  1  0.748252  0.748252  0.749105  1
  Hf  Hf3  1  0.251748  0.000000  0.749105  1
  Hf  Hf4  1  0.000000  0.251748  0.749105  1
  Zr  Zr5  1  0.251388  0.251388  0.250985  1
  Zr  Zr6  1  0.748612  0.000000  0.250985  1
  Zr  Zr7  1  0.000000  0.748612  0.250985  1
  Nb  Nb8  1  0.666667  0.333333  0.999548  1
  Nb  Nb9  1  0.333333  0.666667  0.999548  1
  Sn  Sn10  1  0.400677  0.400677  0.755361  1
  Sn  Sn11  1  0.599323  0.000000  0.755361  1
  Sn  Sn12  1  0.000000  0.599323  0.755361  1
  Sn  Sn13  1  0.599361  0.599361  0.244561  1
  Sn  Sn14  1  0.400639  0.000000  0.244561  1
  Sn  Sn15  1  0.000000  0.400639  0.244561  1
  P  P16  1  0.000000  0.000000  0.996255  1
  P  P17  1  0.000000  0.000000  0.503479  1
