# generated using pymatgen
data_Hf4Al5VTc2
_symmetry_space_group_name_H-M   'P 1'
_cell_length_a   5.26528494
_cell_length_b   5.26528549
_cell_length_c   8.52893200
_cell_angle_alpha   90.00000000
_cell_angle_beta   90.00000000
_cell_angle_gamma   119.46896938
_symmetry_Int_Tables_number   1
_chemical_formula_structural   Hf4Al5VTc2
_chemical_formula_sum   'Hf4 Al5 V1 Tc2'
_cell_volume   205.85822332
_cell_formula_units_Z   1
loop_
 _symmetry_equiv_pos_site_id
 _symmetry_equiv_pos_as_xyz
  1  'x, y, z'
loop_
 _atom_site_type_symbol
 _atom_site_label
 _atom_site_symmetry_multiplicity
 _atom_site_fract_x
 _atom_site_fract_y
 _atom_site_fract_z
 _atom_site_occupancy
  Hf  Hf0  1  0.332620  0.667380  0.942402  1
  Hf  Hf1  1  0.668442  0.331558  0.054682  1
  Hf  Hf2  1  0.668442  0.331558  0.445318  1
  Hf  Hf3  1  0.332620  0.667380  0.557598  1
  Al  Al4  1  0.838008  0.653527  0.750000  1
  Al  Al5  1  0.346473  0.161992  0.750000  1
  Al  Al6  1  0.164233  0.835767  0.250000  1
  Al  Al7  1  0.164997  0.337787  0.250000  1
  Al  Al8  1  0.662213  0.835003  0.250000  1
  V  V9  1  0.843220  0.156780  0.750000  1
  Tc  Tc10  1  0.989367  0.010633  0.994645  1
  Tc  Tc11  1  0.989367  0.010633  0.505355  1
