# generated using pymatgen
data_Y4TmIr2
_symmetry_space_group_name_H-M   'P 1'
_cell_length_a   6.51199136
_cell_length_b   7.22467914
_cell_length_c   8.52598953
_cell_angle_alpha   96.45818414
_cell_angle_beta   112.45084687
_cell_angle_gamma   89.99999573
_symmetry_Int_Tables_number   1
_chemical_formula_structural   Y4TmIr2
_chemical_formula_sum   'Y8 Tm2 Ir4'
_cell_volume   367.96485952
_cell_formula_units_Z   2
loop_
 _symmetry_equiv_pos_site_id
 _symmetry_equiv_pos_as_xyz
  1  'x, y, z'
loop_
 _atom_site_type_symbol
 _atom_site_label
 _atom_site_symmetry_multiplicity
 _atom_site_fract_x
 _atom_site_fract_y
 _atom_site_fract_z
 _atom_site_occupancy
  Y  Y0  1  0.968674  0.918688  0.181198  1
  Y  Y1  1  0.787475  0.581312  0.818802  1
  Y  Y2  1  0.031326  0.081312  0.818802  1
  Y  Y3  1  0.212525  0.418688  0.181198  1
  Y  Y4  1  0.653884  0.817829  0.441355  1
  Y  Y5  1  0.212529  0.682171  0.558645  1
  Y  Y6  1  0.346116  0.182171  0.558645  1
  Y  Y7  1  0.787471  0.317829  0.441355  1
  Tm  Tm8  1  0.429186  0.750000  0.000000  1
  Tm  Tm9  1  0.570814  0.250000  0.000000  1
  Ir  Ir10  1  0.821424  0.572379  0.215317  1
  Ir  Ir11  1  0.606107  0.927621  0.784683  1
  Ir  Ir12  1  0.178577  0.427621  0.784683  1
  Ir  Ir13  1  0.393893  0.072379  0.215317  1
