# generated using pymatgen
data_Ta12Ga8MoRh3C4
_symmetry_space_group_name_H-M   'P 1'
_cell_length_a   8.32865089
_cell_length_b   8.31643413
_cell_length_c   8.31643300
_cell_angle_alpha   60.00000053
_cell_angle_beta   60.04851117
_cell_angle_gamma   60.04851496
_symmetry_Int_Tables_number   1
_chemical_formula_structural   Ta12Ga8MoRh3C4
_chemical_formula_sum   'Ta12 Ga8 Mo1 Rh3 C4'
_cell_volume   407.61670642
_cell_formula_units_Z   1
loop_
 _symmetry_equiv_pos_site_id
 _symmetry_equiv_pos_as_xyz
  1  'x, y, z'
loop_
 _atom_site_type_symbol
 _atom_site_label
 _atom_site_symmetry_multiplicity
 _atom_site_fract_x
 _atom_site_fract_y
 _atom_site_fract_z
 _atom_site_occupancy
  Ta  Ta0  1  0.564263  0.943278  0.549182  1
  Ta  Ta1  1  0.312658  0.687519  0.687519  1
  Ta  Ta2  1  0.685737  0.306722  0.306722  1
  Ta  Ta3  1  0.312658  0.687519  0.312304  1
  Ta  Ta4  1  0.685737  0.700818  0.306722  1
  Ta  Ta5  1  0.312658  0.312304  0.687519  1
  Ta  Ta6  1  0.564263  0.549182  0.943278  1
  Ta  Ta7  1  0.937342  0.562481  0.562481  1
  Ta  Ta8  1  0.564263  0.943278  0.943278  1
  Ta  Ta9  1  0.937342  0.937696  0.562481  1
  Ta  Ta10  1  0.685737  0.306722  0.700818  1
  Ta  Ta11  1  0.937342  0.562481  0.937696  1
  Ga  Ga12  1  0.921554  0.910997  0.910997  1
  Ga  Ga13  1  0.985119  0.338293  0.338293  1
  Ga  Ga14  1  0.328446  0.993547  0.339003  1
  Ga  Ga15  1  0.328446  0.339003  0.993547  1
  Ga  Ga16  1  0.921554  0.256453  0.910997  1
  Ga  Ga17  1  0.921554  0.910997  0.256453  1
  Ga  Ga18  1  0.264881  0.911707  0.911707  1
  Ga  Ga19  1  0.328446  0.339003  0.339003  1
  Mo  Mo20  1  0.625000  0.125000  0.125000  1
  Rh  Rh21  1  0.125000  0.125000  0.125000  1
  Rh  Rh22  1  0.125000  0.625000  0.125000  1
  Rh  Rh23  1  0.125000  0.125000  0.625000  1
  C  C24  1  0.625000  0.625000  0.625000  1
  C  C25  1  0.125000  0.625000  0.625000  1
  C  C26  1  0.625000  0.125000  0.625000  1
  C  C27  1  0.625000  0.625000  0.125000  1
