# generated using pymatgen
data_DyLuBiTe
_symmetry_space_group_name_H-M   'P 1'
_cell_length_a   4.38497900
_cell_length_b   4.38497900
_cell_length_c   6.19525200
_cell_angle_alpha   90.00000000
_cell_angle_beta   90.00000000
_cell_angle_gamma   90.00000000
_symmetry_Int_Tables_number   1
_chemical_formula_structural   DyLuBiTe
_chemical_formula_sum   'Dy1 Lu1 Bi1 Te1'
_cell_volume   119.12255841
_cell_formula_units_Z   1
loop_
 _symmetry_equiv_pos_site_id
 _symmetry_equiv_pos_as_xyz
  1  'x, y, z'
loop_
 _atom_site_type_symbol
 _atom_site_label
 _atom_site_symmetry_multiplicity
 _atom_site_fract_x
 _atom_site_fract_y
 _atom_site_fract_z
 _atom_site_occupancy
  Dy  Dy0  1  0.000000  0.000000  0.000000  1
  Lu  Lu1  1  0.500000  0.500000  0.500000  1
  Bi  Bi2  1  0.000000  0.000000  0.500000  1
  Te  Te3  1  0.500000  0.500000  0.000000  1
