# generated using pymatgen
data_RbAl2Ag3
_symmetry_space_group_name_H-M   'P 1'
_cell_length_a   5.49349000
_cell_length_b   7.49718500
_cell_length_c   13.96718800
_cell_angle_alpha   90.00000000
_cell_angle_beta   90.00000000
_cell_angle_gamma   90.00000000
_symmetry_Int_Tables_number   1
_chemical_formula_structural   RbAl2Ag3
_chemical_formula_sum   'Rb4 Al8 Ag12'
_cell_volume   575.24856602
_cell_formula_units_Z   4
loop_
 _symmetry_equiv_pos_site_id
 _symmetry_equiv_pos_as_xyz
  1  'x, y, z'
loop_
 _atom_site_type_symbol
 _atom_site_label
 _atom_site_symmetry_multiplicity
 _atom_site_fract_x
 _atom_site_fract_y
 _atom_site_fract_z
 _atom_site_occupancy
  Rb  Rb0  1  0.250000  0.103473  0.075191  1
  Rb  Rb1  1  0.250000  0.396527  0.575191  1
  Rb  Rb2  1  0.750000  0.896527  0.924809  1
  Rb  Rb3  1  0.750000  0.603473  0.424809  1
  Al  Al4  1  0.000047  0.906815  0.657050  1
  Al  Al5  1  0.499953  0.593185  0.157050  1
  Al  Al6  1  0.500047  0.093185  0.342950  1
  Al  Al7  1  0.999953  0.406815  0.842950  1
  Al  Al8  1  0.999953  0.093185  0.342950  1
  Al  Al9  1  0.500047  0.406815  0.842950  1
  Al  Al10  1  0.499953  0.906815  0.657050  1
  Al  Al11  1  0.000047  0.593185  0.157050  1
  Ag  Ag12  1  0.250000  0.122064  0.779916  1
  Ag  Ag13  1  0.250000  0.377936  0.279916  1
  Ag  Ag14  1  0.750000  0.877936  0.220084  1
  Ag  Ag15  1  0.750000  0.622064  0.720084  1
  Ag  Ag16  1  0.250000  0.699081  0.781458  1
  Ag  Ag17  1  0.250000  0.800919  0.281458  1
  Ag  Ag18  1  0.750000  0.300919  0.218542  1
  Ag  Ag19  1  0.750000  0.199081  0.718542  1
  Ag  Ag20  1  0.250000  0.562398  0.990049  1
  Ag  Ag21  1  0.250000  0.937602  0.490049  1
  Ag  Ag22  1  0.750000  0.437602  0.009951  1
  Ag  Ag23  1  0.750000  0.062398  0.509951  1
