# generated using pymatgen
data_Tb12Ce4CdHg3Ru4
_symmetry_space_group_name_H-M   'P 1'
_cell_length_a   9.63921891
_cell_length_b   9.63921828
_cell_length_c   9.63921904
_cell_angle_alpha   60.15968449
_cell_angle_beta   60.15968650
_cell_angle_gamma   60.15967966
_symmetry_Int_Tables_number   1
_chemical_formula_structural   Tb12Ce4CdHg3Ru4
_chemical_formula_sum   'Tb12 Ce4 Cd1 Hg3 Ru4'
_cell_volume   635.59199165
_cell_formula_units_Z   1
loop_
 _symmetry_equiv_pos_site_id
 _symmetry_equiv_pos_as_xyz
  1  'x, y, z'
loop_
 _atom_site_type_symbol
 _atom_site_label
 _atom_site_symmetry_multiplicity
 _atom_site_fract_x
 _atom_site_fract_y
 _atom_site_fract_z
 _atom_site_occupancy
  Tb  Tb0  1  0.562004  0.562004  0.938610  1
  Tb  Tb1  1  0.938838  0.561317  0.938838  1
  Tb  Tb2  1  0.561317  0.938838  0.938838  1
  Tb  Tb3  1  0.938838  0.938838  0.561317  1
  Tb  Tb4  1  0.562004  0.938610  0.562004  1
  Tb  Tb5  1  0.938610  0.562004  0.562004  1
  Tb  Tb6  1  0.190419  0.190419  0.810039  1
  Tb  Tb7  1  0.810876  0.189404  0.810876  1
  Tb  Tb8  1  0.189403  0.810877  0.810876  1
  Tb  Tb9  1  0.810876  0.810877  0.189404  1
  Tb  Tb10  1  0.190418  0.810039  0.190418  1
  Tb  Tb11  1  0.810039  0.190419  0.190419  1
  Ce  Ce12  1  0.346693  0.346693  0.960324  1
  Ce  Ce13  1  0.346693  0.960324  0.346693  1
  Ce  Ce14  1  0.960324  0.346693  0.346693  1
  Ce  Ce15  1  0.346315  0.346315  0.346315  1
  Cd  Cd16  1  0.579119  0.579119  0.579119  1
  Hg  Hg17  1  0.585553  0.585553  0.244690  1
  Hg  Hg18  1  0.585553  0.244690  0.585553  1
  Hg  Hg19  1  0.244690  0.585553  0.585553  1
  Ru  Ru20  1  0.145524  0.145524  0.565731  1
  Ru  Ru21  1  0.145524  0.565731  0.145524  1
  Ru  Ru22  1  0.565731  0.145524  0.145524  1
  Ru  Ru23  1  0.144637  0.144637  0.144637  1
