# generated using pymatgen
data_Zr2MnPt2Rh3
_symmetry_space_group_name_H-M   'P 1'
_cell_length_a   5.58784640
_cell_length_b   5.58784481
_cell_length_c   8.31379000
_cell_angle_alpha   90.00000000
_cell_angle_beta   90.00000000
_cell_angle_gamma   93.95955793
_symmetry_Int_Tables_number   1
_chemical_formula_structural   Zr2MnPt2Rh3
_chemical_formula_sum   'Zr4 Mn2 Pt4 Rh6'
_cell_volume   258.97030162
_cell_formula_units_Z   2
loop_
 _symmetry_equiv_pos_site_id
 _symmetry_equiv_pos_as_xyz
  1  'x, y, z'
loop_
 _atom_site_type_symbol
 _atom_site_label
 _atom_site_symmetry_multiplicity
 _atom_site_fract_x
 _atom_site_fract_y
 _atom_site_fract_z
 _atom_site_occupancy
  Zr  Zr0  1  0.777653  0.222347  0.500000  1
  Zr  Zr1  1  0.222347  0.777653  0.000000  1
  Zr  Zr2  1  0.222347  0.777653  0.500000  1
  Zr  Zr3  1  0.777653  0.222347  0.000000  1
  Mn  Mn4  1  0.503165  0.503165  0.750000  1
  Mn  Mn5  1  0.496835  0.496835  0.250000  1
  Pt  Pt6  1  0.499720  0.000668  0.750000  1
  Pt  Pt7  1  0.500280  0.999332  0.250000  1
  Pt  Pt8  1  0.000668  0.499720  0.750000  1
  Pt  Pt9  1  0.999332  0.500280  0.250000  1
  Rh  Rh10  1  0.723094  0.723094  0.001273  1
  Rh  Rh11  1  0.723094  0.723094  0.498727  1
  Rh  Rh12  1  0.276906  0.276906  0.998727  1
  Rh  Rh13  1  0.276906  0.276906  0.501273  1
  Rh  Rh14  1  0.000555  0.000555  0.250000  1
  Rh  Rh15  1  0.999445  0.999445  0.750000  1
