# generated using pymatgen
data_AlZn6Sn5Rh12
_symmetry_space_group_name_H-M   'P 1'
_cell_length_a   4.40314700
_cell_length_b   6.22380400
_cell_length_c   13.29449800
_cell_angle_alpha   90.00000000
_cell_angle_beta   89.99932121
_cell_angle_gamma   90.00000000
_symmetry_Int_Tables_number   1
_chemical_formula_structural   AlZn6Sn5Rh12
_chemical_formula_sum   'Al1 Zn6 Sn5 Rh12'
_cell_volume   364.32672942
_cell_formula_units_Z   1
loop_
 _symmetry_equiv_pos_site_id
 _symmetry_equiv_pos_as_xyz
  1  'x, y, z'
loop_
 _atom_site_type_symbol
 _atom_site_label
 _atom_site_symmetry_multiplicity
 _atom_site_fract_x
 _atom_site_fract_y
 _atom_site_fract_z
 _atom_site_occupancy
  Al  Al0  1  0.500299  0.499999  0.833310  1
  Zn  Zn1  1  0.999987  0.499999  0.994969  1
  Zn  Zn2  1  0.499710  0.000000  0.163742  1
  Zn  Zn3  1  0.999693  0.499999  0.333363  1
  Zn  Zn4  1  0.500020  0.000000  0.502905  1
  Zn  Zn5  1  0.000312  0.499999  0.671690  1
  Zn  Zn6  1  0.500296  0.000000  0.833337  1
  Sn  Sn7  1  0.000033  0.000000  0.997011  1
  Sn  Sn8  1  0.499652  0.499999  0.163965  1
  Sn  Sn9  1  0.999757  0.000000  0.333346  1
  Sn  Sn10  1  0.500045  0.499999  0.502831  1
  Sn  Sn11  1  0.000229  0.000000  0.669526  1
  Rh  Rh12  1  0.500028  0.254955  0.995127  1
  Rh  Rh13  1  0.500028  0.745045  0.995127  1
  Rh  Rh14  1  0.999661  0.248906  0.165406  1
  Rh  Rh15  1  0.999661  0.751094  0.165406  1
  Rh  Rh16  1  0.499717  0.251325  0.333379  1
  Rh  Rh17  1  0.499717  0.748675  0.333379  1
  Rh  Rh18  1  0.000034  0.248900  0.501235  1
  Rh  Rh19  1  0.000034  0.751100  0.501235  1
  Rh  Rh20  1  0.500274  0.254899  0.671548  1
  Rh  Rh21  1  0.500274  0.745101  0.671548  1
  Rh  Rh22  1  0.000269  0.257256  0.833306  1
  Rh  Rh23  1  0.000269  0.742744  0.833306  1
