# generated using pymatgen
data_Dy8Al2RuRh
_symmetry_space_group_name_H-M   'P 1'
_cell_length_a   9.58038404
_cell_length_b   9.54345578
_cell_length_c   9.54345574
_cell_angle_alpha   59.73466397
_cell_angle_beta   59.87191735
_cell_angle_gamma   59.87191267
_symmetry_Int_Tables_number   1
_chemical_formula_structural   Dy8Al2RuRh
_chemical_formula_sum   'Dy16 Al4 Ru2 Rh2'
_cell_volume   614.55485346
_cell_formula_units_Z   2
loop_
 _symmetry_equiv_pos_site_id
 _symmetry_equiv_pos_as_xyz
  1  'x, y, z'
loop_
 _atom_site_type_symbol
 _atom_site_label
 _atom_site_symmetry_multiplicity
 _atom_site_fract_x
 _atom_site_fract_y
 _atom_site_fract_z
 _atom_site_occupancy
  Dy  Dy0  1  0.693100  0.306900  0.306900  1
  Dy  Dy1  1  0.694904  0.691851  0.307706  1
  Dy  Dy2  1  0.305539  0.691851  0.307706  1
  Dy  Dy3  1  0.936082  0.939765  0.562654  1
  Dy  Dy4  1  0.148099  0.148607  0.555194  1
  Dy  Dy5  1  0.561499  0.939765  0.562654  1
  Dy  Dy6  1  0.147730  0.148077  0.148077  1
  Dy  Dy7  1  0.305539  0.307706  0.691851  1
  Dy  Dy8  1  0.939457  0.560543  0.560543  1
  Dy  Dy9  1  0.561499  0.562654  0.939765  1
  Dy  Dy10  1  0.563980  0.936020  0.936020  1
  Dy  Dy11  1  0.936082  0.562654  0.939765  1
  Dy  Dy12  1  0.148099  0.555194  0.148607  1
  Dy  Dy13  1  0.305723  0.694277  0.694277  1
  Dy  Dy14  1  0.694904  0.307706  0.691851  1
  Dy  Dy15  1  0.556117  0.148077  0.148077  1
  Al  Al16  1  0.922391  0.922996  0.232220  1
  Al  Al17  1  0.231018  0.923262  0.923262  1
  Al  Al18  1  0.922391  0.232220  0.922996  1
  Al  Al19  1  0.922456  0.923262  0.923262  1
  Ru  Ru20  1  0.360572  0.357554  0.357554  1
  Ru  Ru21  1  0.924321  0.357554  0.357554  1
  Rh  Rh22  1  0.359248  0.357283  0.924221  1
  Rh  Rh23  1  0.359248  0.924221  0.357283  1
