# generated using pymatgen
data_Yb2Lu3Ru2
_symmetry_space_group_name_H-M   'P 1'
_cell_length_a   6.32785461
_cell_length_b   7.17788775
_cell_length_c   8.38568678
_cell_angle_alpha   97.60255530
_cell_angle_beta   112.16660031
_cell_angle_gamma   89.99999753
_symmetry_Int_Tables_number   1
_chemical_formula_structural   Yb2Lu3Ru2
_chemical_formula_sum   'Yb4 Lu6 Ru4'
_cell_volume   349.11439379
_cell_formula_units_Z   2
loop_
 _symmetry_equiv_pos_site_id
 _symmetry_equiv_pos_as_xyz
  1  'x, y, z'
loop_
 _atom_site_type_symbol
 _atom_site_label
 _atom_site_symmetry_multiplicity
 _atom_site_fract_x
 _atom_site_fract_y
 _atom_site_fract_z
 _atom_site_occupancy
  Yb  Yb0  1  0.523325  0.079633  0.815716  1
  Yb  Yb1  1  0.476675  0.920367  0.184284  1
  Yb  Yb2  1  0.707609  0.420367  0.184284  1
  Yb  Yb3  1  0.292391  0.579633  0.815716  1
  Lu  Lu4  1  0.303485  0.316056  0.432490  1
  Lu  Lu5  1  0.696515  0.683944  0.567510  1
  Lu  Lu6  1  0.870996  0.183944  0.567510  1
  Lu  Lu7  1  0.129004  0.816056  0.432490  1
  Lu  Lu8  1  0.071194  0.250000  0.000000  1
  Lu  Lu9  1  0.928806  0.750000  0.000000  1
  Ru  Ru10  1  0.315380  0.575625  0.230641  1
  Ru  Ru11  1  0.684620  0.424375  0.769359  1
  Ru  Ru12  1  0.084740  0.924375  0.769359  1
  Ru  Ru13  1  0.915260  0.075625  0.230641  1
