# generated using pymatgen
data_Tm5ZrNi20P13
_symmetry_space_group_name_H-M   'P 1'
_cell_length_a   12.59406582
_cell_length_b   12.57994662
_cell_length_c   3.70203700
_cell_angle_alpha   90.00000000
_cell_angle_beta   90.00000000
_cell_angle_gamma   119.99587307
_symmetry_Int_Tables_number   1
_chemical_formula_structural   Tm5ZrNi20P13
_chemical_formula_sum   'Tm5 Zr1 Ni20 P13'
_cell_volume   507.96548325
_cell_formula_units_Z   1
loop_
 _symmetry_equiv_pos_site_id
 _symmetry_equiv_pos_as_xyz
  1  'x, y, z'
loop_
 _atom_site_type_symbol
 _atom_site_label
 _atom_site_symmetry_multiplicity
 _atom_site_fract_x
 _atom_site_fract_y
 _atom_site_fract_z
 _atom_site_occupancy
  Tm  Tm0  1  0.810629  0.281867  0.500000  1
  Tm  Tm1  1  0.718226  0.529123  0.500000  1
  Tm  Tm2  1  0.471208  0.190035  0.500000  1
  Tm  Tm3  1  0.191134  0.718112  0.000000  1
  Tm  Tm4  1  0.282521  0.472997  0.000000  1
  Zr  Zr5  1  0.529172  0.811029  0.000000  1
  Ni  Ni6  1  0.417959  0.978600  0.000000  1
  Ni  Ni7  1  0.020380  0.437606  0.000000  1
  Ni  Ni8  1  0.585419  0.018963  0.500000  1
  Ni  Ni9  1  0.562225  0.584239  0.000000  1
  Ni  Ni10  1  0.979964  0.565218  0.500000  1
  Ni  Ni11  1  0.922803  0.079323  0.500000  1
  Ni  Ni12  1  0.156078  0.075162  0.500000  1
  Ni  Ni13  1  0.919448  0.844070  0.500000  1
  Ni  Ni14  1  0.092826  0.896456  0.000000  1
  Ni  Ni15  1  0.802041  0.906771  0.000000  1
  Ni  Ni16  1  0.103910  0.196517  0.000000  1
  Ni  Ni17  1  0.334908  0.667739  0.500000  1
  Ni  Ni18  1  0.666357  0.333331  0.000000  1
  Ni  Ni19  1  0.678928  0.751714  0.500000  1
  Ni  Ni20  1  0.249684  0.928597  0.500000  1
  Ni  Ni21  1  0.922454  0.679157  0.000000  1
  Ni  Ni22  1  0.321263  0.243246  0.000000  1
  Ni  Ni23  1  0.754701  0.075787  0.000000  1
  Ni  Ni24  1  0.434889  0.415671  0.500000  1
  Ni  Ni25  1  0.070693  0.319316  0.500000  1
  P  P26  1  0.999306  0.999628  0.000000  1
  P  P27  1  0.232488  0.282296  0.500000  1
  P  P28  1  0.714925  0.947741  0.500000  1
  P  P29  1  0.050141  0.767690  0.500000  1
  P  P30  1  0.766373  0.715701  0.000000  1
  P  P31  1  0.284948  0.050282  0.000000  1
  P  P32  1  0.475620  0.615663  0.500000  1
  P  P33  1  0.388918  0.861098  0.500000  1
  P  P34  1  0.861342  0.475877  0.000000  1
  P  P35  1  0.524106  0.386337  0.000000  1
  P  P36  1  0.614331  0.138548  0.000000  1
  P  P37  1  0.948562  0.232756  0.000000  1
  P  P38  1  0.139119  0.525733  0.500000  1
