# generated using pymatgen
data_Nd3Cd3AgGe2
_symmetry_space_group_name_H-M   'P 1'
_cell_length_a   7.50064300
_cell_length_b   7.50064155
_cell_length_c   4.45695500
_cell_angle_alpha   90.00000000
_cell_angle_beta   90.00000000
_cell_angle_gamma   120.00000197
_symmetry_Int_Tables_number   1
_chemical_formula_structural   Nd3Cd3AgGe2
_chemical_formula_sum   'Nd3 Cd3 Ag1 Ge2'
_cell_volume   217.15297275
_cell_formula_units_Z   1
loop_
 _symmetry_equiv_pos_site_id
 _symmetry_equiv_pos_as_xyz
  1  'x, y, z'
loop_
 _atom_site_type_symbol
 _atom_site_label
 _atom_site_symmetry_multiplicity
 _atom_site_fract_x
 _atom_site_fract_y
 _atom_site_fract_z
 _atom_site_occupancy
  Nd  Nd0  1  0.420194  0.420194  0.500000  1
  Nd  Nd1  1  0.000000  0.579806  0.500000  1
  Nd  Nd2  1  0.579806  0.000000  0.500000  1
  Cd  Cd3  1  0.754870  0.754870  0.000000  1
  Cd  Cd4  1  0.245130  0.000000  0.000000  1
  Cd  Cd5  1  0.000000  0.245130  0.000000  1
  Ag  Ag6  1  0.000000  0.000000  0.500000  1
  Ge  Ge7  1  0.666667  0.333333  0.000000  1
  Ge  Ge8  1  0.333333  0.666667  0.000000  1
