# generated using pymatgen
data_Ho10RuAu3
_symmetry_space_group_name_H-M   'P 1'
_cell_length_a   9.41594602
_cell_length_b   9.42097724
_cell_length_c   9.44693101
_cell_angle_alpha   90.00312401
_cell_angle_beta   90.00236310
_cell_angle_gamma   119.98980746
_symmetry_Int_Tables_number   1
_chemical_formula_structural   Ho10RuAu3
_chemical_formula_sum   'Ho20 Ru2 Au6'
_cell_volume   725.81490797
_cell_formula_units_Z   2
loop_
 _symmetry_equiv_pos_site_id
 _symmetry_equiv_pos_as_xyz
  1  'x, y, z'
loop_
 _atom_site_type_symbol
 _atom_site_label
 _atom_site_symmetry_multiplicity
 _atom_site_fract_x
 _atom_site_fract_y
 _atom_site_fract_z
 _atom_site_occupancy
  Ho  Ho0  1  0.000030  0.000050  0.499997  1
  Ho  Ho1  1  0.000024  0.000045  0.999998  1
  Ho  Ho2  1  0.207293  0.792585  0.440778  1
  Ho  Ho3  1  0.207447  0.414887  0.440788  1
  Ho  Ho4  1  0.585336  0.792600  0.440781  1
  Ho  Ho5  1  0.792650  0.207344  0.559193  1
  Ho  Ho6  1  0.792592  0.585248  0.559154  1
  Ho  Ho7  1  0.414674  0.207360  0.559221  1
  Ho  Ho8  1  0.792592  0.207297  0.940770  1
  Ho  Ho9  1  0.792549  0.585144  0.940927  1
  Ho  Ho10  1  0.414660  0.207307  0.940700  1
  Ho  Ho11  1  0.207337  0.792599  0.059243  1
  Ho  Ho12  1  0.207472  0.414964  0.059141  1
  Ho  Ho13  1  0.585345  0.792622  0.059300  1
  Ho  Ho14  1  0.541763  0.458081  0.249974  1
  Ho  Ho15  1  0.541775  0.083573  0.250030  1
  Ho  Ho16  1  0.916199  0.458075  0.250000  1
  Ho  Ho17  1  0.458178  0.541803  0.750012  1
  Ho  Ho18  1  0.458051  0.916106  0.749987  1
  Ho  Ho19  1  0.083586  0.541775  0.749993  1
  Ru  Ru20  1  0.333407  0.666730  0.250021  1
  Ru  Ru21  1  0.666803  0.333526  0.749989  1
  Au  Au22  1  0.879586  0.120328  0.250013  1
  Au  Au23  1  0.879650  0.759333  0.249948  1
  Au  Au24  1  0.240799  0.120362  0.250024  1
  Au  Au25  1  0.120415  0.879754  0.749989  1
  Au  Au26  1  0.120465  0.240816  0.750054  1
  Au  Au27  1  0.759321  0.879688  0.749977  1
