# generated using pymatgen
data_La3Co8MoP6
_symmetry_space_group_name_H-M   'P 1'
_cell_length_a   3.80154900
_cell_length_b   10.73807500
_cell_length_c   12.50850700
_cell_angle_alpha   90.00000000
_cell_angle_beta   90.00000000
_cell_angle_gamma   90.00000000
_symmetry_Int_Tables_number   1
_chemical_formula_structural   La3Co8MoP6
_chemical_formula_sum   'La6 Co16 Mo2 P12'
_cell_volume   510.61374543
_cell_formula_units_Z   2
loop_
 _symmetry_equiv_pos_site_id
 _symmetry_equiv_pos_as_xyz
  1  'x, y, z'
loop_
 _atom_site_type_symbol
 _atom_site_label
 _atom_site_symmetry_multiplicity
 _atom_site_fract_x
 _atom_site_fract_y
 _atom_site_fract_z
 _atom_site_occupancy
  La  La0  1  0.000000  0.500000  0.524757  1
  La  La1  1  0.500000  0.000000  0.475243  1
  La  La2  1  0.500000  0.820142  0.206341  1
  La  La3  1  0.500000  0.179858  0.206341  1
  La  La4  1  0.000000  0.679858  0.793659  1
  La  La5  1  0.000000  0.320142  0.793659  1
  Co  Co6  1  0.500000  0.500000  0.704233  1
  Co  Co7  1  0.000000  0.000000  0.295767  1
  Co  Co8  1  0.000000  0.500000  0.988455  1
  Co  Co9  1  0.500000  0.000000  0.011545  1
  Co  Co10  1  0.500000  0.331958  0.992488  1
  Co  Co11  1  0.500000  0.668042  0.992488  1
  Co  Co12  1  0.000000  0.168042  0.007512  1
  Co  Co13  1  0.000000  0.831958  0.007512  1
  Co  Co14  1  0.500000  0.296861  0.430911  1
  Co  Co15  1  0.500000  0.703139  0.430911  1
  Co  Co16  1  0.000000  0.203139  0.569089  1
  Co  Co17  1  0.000000  0.796861  0.569089  1
  Co  Co18  1  0.500000  0.881299  0.709628  1
  Co  Co19  1  0.500000  0.118701  0.709628  1
  Co  Co20  1  0.000000  0.618701  0.290372  1
  Co  Co21  1  0.000000  0.381299  0.290372  1
  Mo  Mo22  1  0.500000  0.500000  0.153192  1
  Mo  Mo23  1  0.000000  0.000000  0.846808  1
  P  P24  1  0.500000  0.500000  0.888676  1
  P  P25  1  0.000000  0.000000  0.111324  1
  P  P26  1  0.500000  0.500000  0.342293  1
  P  P27  1  0.000000  0.000000  0.657707  1
  P  P28  1  0.500000  0.303478  0.612988  1
  P  P29  1  0.500000  0.696522  0.612988  1
  P  P30  1  0.000000  0.196522  0.387012  1
  P  P31  1  0.000000  0.803478  0.387012  1
  P  P32  1  0.500000  0.847049  0.896078  1
  P  P33  1  0.500000  0.152951  0.896078  1
  P  P34  1  0.000000  0.652951  0.103922  1
  P  P35  1  0.000000  0.347049  0.103922  1
