# generated using pymatgen
data_DyY(B4Ru)2
_symmetry_space_group_name_H-M   'P 1'
_cell_length_a   3.56382900
_cell_length_b   5.96549400
_cell_length_c   11.54936101
_cell_angle_alpha   89.99598347
_cell_angle_beta   90.00000000
_cell_angle_gamma   90.00000000
_symmetry_Int_Tables_number   1
_chemical_formula_structural   DyY(B4Ru)2
_chemical_formula_sum   'Dy2 Y2 B16 Ru4'
_cell_volume   245.53942052
_cell_formula_units_Z   2
loop_
 _symmetry_equiv_pos_site_id
 _symmetry_equiv_pos_as_xyz
  1  'x, y, z'
loop_
 _atom_site_type_symbol
 _atom_site_label
 _atom_site_symmetry_multiplicity
 _atom_site_fract_x
 _atom_site_fract_y
 _atom_site_fract_z
 _atom_site_occupancy
  Dy  Dy0  1  0.000000  0.628869  0.850122  1
  Dy  Dy1  1  0.000000  0.371131  0.149878  1
  Y  Y2  1  0.000000  0.128895  0.649862  1
  Y  Y3  1  0.000000  0.871105  0.350138  1
  B  B4  1  0.500000  0.476479  0.691810  1
  B  B5  1  0.500000  0.523521  0.308190  1
  B  B6  1  0.500000  0.976195  0.808310  1
  B  B7  1  0.500000  0.023805  0.191690  1
  B  B8  1  0.500000  0.289024  0.814492  1
  B  B9  1  0.500000  0.710976  0.185508  1
  B  B10  1  0.500000  0.788777  0.685633  1
  B  B11  1  0.500000  0.211223  0.314367  1
  B  B12  1  0.500000  0.363772  0.969874  1
  B  B13  1  0.500000  0.636228  0.030126  1
  B  B14  1  0.500000  0.863668  0.530145  1
  B  B15  1  0.500000  0.136332  0.469855  1
  B  B16  1  0.500000  0.388163  0.546564  1
  B  B17  1  0.500000  0.611837  0.453436  1
  B  B18  1  0.500000  0.888019  0.953373  1
  B  B19  1  0.500000  0.111981  0.046627  1
  Ru  Ru20  1  0.000000  0.140444  0.907535  1
  Ru  Ru21  1  0.000000  0.859556  0.092465  1
  Ru  Ru22  1  0.000000  0.640280  0.592584  1
  Ru  Ru23  1  0.000000  0.359720  0.407416  1
