# generated using pymatgen
data_Cd4Ir3OsO14
_symmetry_space_group_name_H-M   'P 1'
_cell_length_a   7.25430129
_cell_length_b   7.25430119
_cell_length_c   7.28710283
_cell_angle_alpha   60.14878693
_cell_angle_beta   60.14878991
_cell_angle_gamma   60.00000001
_symmetry_Int_Tables_number   1
_chemical_formula_structural   Cd4Ir3OsO14
_chemical_formula_sum   'Cd4 Ir3 Os1 O14'
_cell_volume   271.77163092
_cell_formula_units_Z   1
loop_
 _symmetry_equiv_pos_site_id
 _symmetry_equiv_pos_as_xyz
  1  'x, y, z'
loop_
 _atom_site_type_symbol
 _atom_site_label
 _atom_site_symmetry_multiplicity
 _atom_site_fract_x
 _atom_site_fract_y
 _atom_site_fract_z
 _atom_site_occupancy
  Cd  Cd0  1  0.125000  0.125000  0.125000  1
  Cd  Cd1  1  0.625000  0.125000  0.125000  1
  Cd  Cd2  1  0.125000  0.625000  0.125000  1
  Cd  Cd3  1  0.125000  0.125000  0.625000  1
  Ir  Ir4  1  0.625000  0.625000  0.625000  1
  Ir  Ir5  1  0.125000  0.625000  0.625000  1
  Ir  Ir6  1  0.625000  0.125000  0.625000  1
  Os  Os7  1  0.625000  0.625000  0.125000  1
  O  O8  1  0.251391  0.251391  0.245828  1
  O  O9  1  0.998609  0.998609  0.004172  1
  O  O10  1  0.555071  0.951173  0.542583  1
  O  O11  1  0.311974  0.691739  0.304547  1
  O  O12  1  0.558261  0.558261  0.945453  1
  O  O13  1  0.951173  0.555071  0.542583  1
  O  O14  1  0.558261  0.938026  0.945453  1
  O  O15  1  0.951173  0.951173  0.542583  1
  O  O16  1  0.938026  0.558261  0.945453  1
  O  O17  1  0.691739  0.311974  0.304547  1
  O  O18  1  0.298827  0.694929  0.707417  1
  O  O19  1  0.694929  0.298827  0.707417  1
  O  O20  1  0.298827  0.298827  0.707417  1
  O  O21  1  0.691739  0.691739  0.304547  1
