# generated using pymatgen
data_Rb4TmNbBr12
_symmetry_space_group_name_H-M   'P 1'
_cell_length_a   13.54211599
_cell_length_b   13.54200111
_cell_length_c   13.54206544
_cell_angle_alpha   132.01672508
_cell_angle_beta   132.01686371
_cell_angle_gamma   70.20255489
_symmetry_Int_Tables_number   1
_chemical_formula_structural   Rb4TmNbBr12
_chemical_formula_sum   'Rb8 Tm2 Nb2 Br24'
_cell_volume   1343.63366881
_cell_formula_units_Z   2
loop_
 _symmetry_equiv_pos_site_id
 _symmetry_equiv_pos_as_xyz
  1  'x, y, z'
loop_
 _atom_site_type_symbol
 _atom_site_label
 _atom_site_symmetry_multiplicity
 _atom_site_fract_x
 _atom_site_fract_y
 _atom_site_fract_z
 _atom_site_occupancy
  Rb  Rb0  1  0.374735  0.343155  0.465589  1
  Rb  Rb1  1  0.090893  0.625271  0.968460  1
  Rb  Rb2  1  0.877578  0.909132  0.534417  1
  Rb  Rb3  1  0.093176  0.127566  0.468448  1
  Rb  Rb4  1  0.375265  0.906845  0.034411  1
  Rb  Rb5  1  0.659107  0.624729  0.531540  1
  Rb  Rb6  1  0.656824  0.122434  0.031552  1
  Rb  Rb7  1  0.872422  0.340868  0.965583  1
  Tm  Tm8  1  0.749992  0.250004  0.500005  1
  Tm  Tm9  1  0.000008  0.999996  0.999995  1
  Nb  Nb10  1  0.250009  0.749985  0.499985  1
  Nb  Nb11  1  0.499991  0.500015  0.000015  1
  Br  Br12  1  0.016862  0.771196  0.292093  1
  Br  Br13  1  0.021085  0.255473  0.267191  1
  Br  Br14  1  0.275238  0.983142  0.754344  1
  Br  Br15  1  0.005451  0.238281  0.734350  1
  Br  Br16  1  0.134870  0.634870  0.499999  1
  Br  Br17  1  0.270901  0.525239  0.792105  1
  Br  Br18  1  0.479099  0.724761  0.707895  1
  Br  Br19  1  0.503930  0.271077  0.265629  1
  Br  Br20  1  0.474762  0.266858  0.745656  1
  Br  Br21  1  0.615130  0.615130  0.000001  1
  Br  Br22  1  0.521200  0.729096  0.254334  1
  Br  Br23  1  0.125058  0.125078  0.000003  1
  Br  Br24  1  0.874894  0.874902  0.999998  1
  Br  Br25  1  0.988281  0.753961  0.732889  1
  Br  Br26  1  0.744549  0.011719  0.765650  1
  Br  Br27  1  0.246070  0.978923  0.234371  1
  Br  Br28  1  0.733138  0.478804  0.207907  1
  Br  Br29  1  0.228800  0.520904  0.245666  1
  Br  Br30  1  0.365129  0.865128  0.500001  1
  Br  Br31  1  0.875106  0.375098  0.500002  1
  Br  Br32  1  0.384871  0.384872  0.999999  1
  Br  Br33  1  0.624942  0.124922  0.499997  1
  Br  Br34  1  0.761719  0.496039  0.767111  1
  Br  Br35  1  0.728915  0.994527  0.232809  1
