# generated using pymatgen
data_Yb2Pr4GaSi3
_symmetry_space_group_name_H-M   'P 1'
_cell_length_a   7.79604444
_cell_length_b   7.79604382
_cell_length_c   4.40933900
_cell_angle_alpha   90.00000000
_cell_angle_beta   90.00000000
_cell_angle_gamma   90.94518128
_symmetry_Int_Tables_number   1
_chemical_formula_structural   Yb2Pr4GaSi3
_chemical_formula_sum   'Yb2 Pr4 Ga1 Si3'
_cell_volume   267.95568219
_cell_formula_units_Z   1
loop_
 _symmetry_equiv_pos_site_id
 _symmetry_equiv_pos_as_xyz
  1  'x, y, z'
loop_
 _atom_site_type_symbol
 _atom_site_label
 _atom_site_symmetry_multiplicity
 _atom_site_fract_x
 _atom_site_fract_y
 _atom_site_fract_z
 _atom_site_occupancy
  Yb  Yb0  1  0.002033  0.000609  0.000000  1
  Yb  Yb1  1  0.499391  0.497967  0.000000  1
  Pr  Pr2  1  0.315973  0.820665  0.500000  1
  Pr  Pr3  1  0.826176  0.673824  0.500000  1
  Pr  Pr4  1  0.178094  0.321906  0.500000  1
  Pr  Pr5  1  0.679335  0.184027  0.500000  1
  Ga  Ga6  1  0.613453  0.886547  0.000000  1
  Si  Si7  1  0.386417  0.113583  0.000000  1
  Si  Si8  1  0.888850  0.389719  0.000000  1
  Si  Si9  1  0.110281  0.611150  0.000000  1
