# generated using pymatgen
data_TbEr3(Ga5Rh3)2
_symmetry_space_group_name_H-M   'P 1'
_cell_length_a   5.65301354
_cell_length_b   8.59386858
_cell_length_c   8.60002642
_cell_angle_alpha   97.19872471
_cell_angle_beta   109.23877663
_cell_angle_gamma   109.25422158
_symmetry_Int_Tables_number   1
_chemical_formula_structural   TbEr3(Ga5Rh3)2
_chemical_formula_sum   'Tb1 Er3 Ga10 Rh6'
_cell_volume   359.34431539
_cell_formula_units_Z   1
loop_
 _symmetry_equiv_pos_site_id
 _symmetry_equiv_pos_as_xyz
  1  'x, y, z'
loop_
 _atom_site_type_symbol
 _atom_site_label
 _atom_site_symmetry_multiplicity
 _atom_site_fract_x
 _atom_site_fract_y
 _atom_site_fract_z
 _atom_site_occupancy
  Tb  Tb0  1  0.775761  0.418530  0.131003  1
  Er  Er1  1  0.275798  0.130798  0.418776  1
  Er  Er2  1  0.724142  0.869047  0.581215  1
  Er  Er3  1  0.224071  0.581190  0.868990  1
  Ga  Ga4  1  0.181487  0.264965  0.097026  1
  Ga  Ga5  1  0.249944  0.800020  0.199916  1
  Ga  Ga6  1  0.750247  0.799351  0.200803  1
  Ga  Ga7  1  0.681390  0.096777  0.265147  1
  Ga  Ga8  1  0.750185  0.500494  0.499860  1
  Ga  Ga9  1  0.250302  0.499674  0.500610  1
  Ga  Ga10  1  0.318508  0.902888  0.735108  1
  Ga  Ga11  1  0.249444  0.200681  0.798841  1
  Ga  Ga12  1  0.750056  0.199906  0.799613  1
  Ga  Ga13  1  0.818166  0.734749  0.902833  1
  Rh  Rh14  1  0.249754  0.000360  0.999482  1
  Rh  Rh15  1  0.413866  0.566835  0.263104  1
  Rh  Rh16  1  0.087500  0.738172  0.434236  1
  Rh  Rh17  1  0.913000  0.262416  0.566066  1
  Rh  Rh18  1  0.586429  0.433506  0.736838  1
  Rh  Rh19  1  0.749952  0.999641  0.000536  1
