# generated using pymatgen
data_Er12CdSi4Hg
_symmetry_space_group_name_H-M   'P 1'
_cell_length_a   8.43434902
_cell_length_b   8.43434871
_cell_length_c   8.43434800
_cell_angle_alpha   112.18160026
_cell_angle_beta   111.38919369
_cell_angle_gamma   104.93690707
_symmetry_Int_Tables_number   1
_chemical_formula_structural   Er12CdSi4Hg
_chemical_formula_sum   'Er12 Cd1 Si4 Hg1'
_cell_volume   459.71297210
_cell_formula_units_Z   1
loop_
 _symmetry_equiv_pos_site_id
 _symmetry_equiv_pos_as_xyz
  1  'x, y, z'
loop_
 _atom_site_type_symbol
 _atom_site_label
 _atom_site_symmetry_multiplicity
 _atom_site_fract_x
 _atom_site_fract_y
 _atom_site_fract_z
 _atom_site_occupancy
  Er  Er0  1  0.183701  0.274968  0.458668  1
  Er  Er1  1  0.816299  0.725032  0.541332  1
  Er  Er2  1  0.183701  0.725032  0.908731  1
  Er  Er3  1  0.816299  0.274968  0.091269  1
  Er  Er4  1  0.320998  0.616700  0.295703  1
  Er  Er5  1  0.679002  0.383300  0.704297  1
  Er  Er6  1  0.320998  0.025295  0.704297  1
  Er  Er7  1  0.679002  0.974705  0.295703  1
  Er  Er8  1  0.444371  0.243555  0.200817  1
  Er  Er9  1  0.555629  0.756445  0.799183  1
  Er  Er10  1  0.042738  0.243555  0.799183  1
  Er  Er11  1  0.957262  0.756445  0.200817  1
  Cd  Cd12  1  0.000000  0.000000  0.000000  1
  Si  Si13  1  0.117600  0.617600  0.500000  1
  Si  Si14  1  0.882400  0.382400  0.500000  1
  Si  Si15  1  0.359303  0.000000  0.359303  1
  Si  Si16  1  0.640697  0.000000  0.640697  1
  Hg  Hg17  1  0.500000  0.500000  0.000000  1
