# generated using pymatgen
data_Cs6InSb3
_symmetry_space_group_name_H-M   'P 1'
_cell_length_a   6.59746500
_cell_length_b   11.41381662
_cell_length_c   13.43215641
_cell_angle_alpha   78.70879572
_cell_angle_beta   90.00000000
_cell_angle_gamma   90.00000000
_symmetry_Int_Tables_number   1
_chemical_formula_structural   Cs6InSb3
_chemical_formula_sum   'Cs12 In2 Sb6'
_cell_volume   991.89436587
_cell_formula_units_Z   2
loop_
 _symmetry_equiv_pos_site_id
 _symmetry_equiv_pos_as_xyz
  1  'x, y, z'
loop_
 _atom_site_type_symbol
 _atom_site_label
 _atom_site_symmetry_multiplicity
 _atom_site_fract_x
 _atom_site_fract_y
 _atom_site_fract_z
 _atom_site_occupancy
  Cs  Cs0  1  0.750000  0.460158  0.078247  1
  Cs  Cs1  1  0.250000  0.539842  0.921753  1
  Cs  Cs2  1  0.750000  0.739835  0.229045  1
  Cs  Cs3  1  0.250000  0.260165  0.770955  1
  Cs  Cs4  1  0.250000  0.567028  0.535950  1
  Cs  Cs5  1  0.750000  0.432972  0.464050  1
  Cs  Cs6  1  0.250000  0.867919  0.017624  1
  Cs  Cs7  1  0.750000  0.132081  0.982376  1
  Cs  Cs8  1  0.250000  0.876540  0.672987  1
  Cs  Cs9  1  0.750000  0.123460  0.327013  1
  Cs  Cs10  1  0.250000  0.919769  0.368773  1
  Cs  Cs11  1  0.750000  0.080231  0.631227  1
  In  In12  1  0.250000  0.323857  0.278165  1
  In  In13  1  0.750000  0.676143  0.721835  1
  Sb  Sb14  1  0.250000  0.176290  0.126620  1
  Sb  Sb15  1  0.750000  0.823710  0.873380  1
  Sb  Sb16  1  0.250000  0.211199  0.487466  1
  Sb  Sb17  1  0.750000  0.788801  0.512534  1
  Sb  Sb18  1  0.250000  0.575205  0.224447  1
  Sb  Sb19  1  0.750000  0.424795  0.775553  1
