# generated using pymatgen
data_Ba6YHo3(WO9)2
_symmetry_space_group_name_H-M   'P 1'
_cell_length_a   6.08923690
_cell_length_b   8.62636534
_cell_length_c   10.55504918
_cell_angle_alpha   65.88076162
_cell_angle_beta   73.23472302
_cell_angle_gamma   89.99999841
_symmetry_Int_Tables_number   1
_chemical_formula_structural   Ba6YHo3(WO9)2
_chemical_formula_sum   'Ba6 Y1 Ho3 W2 O18'
_cell_volume   480.09484127
_cell_formula_units_Z   1
loop_
 _symmetry_equiv_pos_site_id
 _symmetry_equiv_pos_as_xyz
  1  'x, y, z'
loop_
 _atom_site_type_symbol
 _atom_site_label
 _atom_site_symmetry_multiplicity
 _atom_site_fract_x
 _atom_site_fract_y
 _atom_site_fract_z
 _atom_site_occupancy
  Ba  Ba0  1  0.500000  0.266268  0.000000  1
  Ba  Ba1  1  0.839394  0.579368  0.321210  1
  Ba  Ba2  1  0.160606  0.900579  0.678790  1
  Ba  Ba3  1  0.500000  0.733732  0.000000  1
  Ba  Ba4  1  0.839394  0.099421  0.321210  1
  Ba  Ba5  1  0.160606  0.420632  0.678790  1
  Y  Y6  1  0.000000  0.000000  0.000000  1
  Ho  Ho7  1  0.328820  0.328820  0.342359  1
  Ho  Ho8  1  0.671180  0.671180  0.657641  1
  Ho  Ho9  1  0.000000  0.500000  0.000000  1
  W  W10  1  0.334026  0.834026  0.331947  1
  W  W11  1  0.665974  0.165974  0.668052  1
  O  O12  1  0.000000  0.247584  0.000000  1
  O  O13  1  0.330413  0.600973  0.339172  1
  O  O14  1  0.669587  0.940147  0.660828  1
  O  O15  1  0.161989  0.410912  0.178176  1
  O  O16  1  0.489810  0.759288  0.481422  1
  O  O17  1  0.817762  0.089814  0.820370  1
  O  O18  1  0.340164  0.589088  0.821824  1
  O  O19  1  0.638134  0.910186  0.179630  1
  O  O20  1  0.971233  0.240712  0.518578  1
  O  O21  1  0.000000  0.752416  0.000000  1
  O  O22  1  0.330413  0.059853  0.339172  1
  O  O23  1  0.669587  0.399027  0.660828  1
  O  O24  1  0.838011  0.589088  0.821824  1
  O  O25  1  0.182238  0.910186  0.179630  1
  O  O26  1  0.510190  0.240712  0.518578  1
  O  O27  1  0.659836  0.410912  0.178176  1
  O  O28  1  0.028767  0.759288  0.481422  1
  O  O29  1  0.361866  0.089814  0.820370  1
