# generated using pymatgen
data_SmDy3V4(WO6)4
_symmetry_space_group_name_H-M   'P 1'
_cell_length_a   5.26091367
_cell_length_b   7.45873714
_cell_length_c   11.18127958
_cell_angle_alpha   89.92148659
_cell_angle_beta   90.08351024
_cell_angle_gamma   90.03660841
_symmetry_Int_Tables_number   1
_chemical_formula_structural   SmDy3V4(WO6)4
_chemical_formula_sum   'Sm1 Dy3 V4 W4 O24'
_cell_volume   438.74989588
_cell_formula_units_Z   1
loop_
 _symmetry_equiv_pos_site_id
 _symmetry_equiv_pos_as_xyz
  1  'x, y, z'
loop_
 _atom_site_type_symbol
 _atom_site_label
 _atom_site_symmetry_multiplicity
 _atom_site_fract_x
 _atom_site_fract_y
 _atom_site_fract_z
 _atom_site_occupancy
  Sm  Sm0  1  0.458067  0.753437  0.955088  1
  Dy  Dy1  1  0.546392  0.253276  0.045658  1
  Dy  Dy2  1  0.044737  0.753298  0.454734  1
  Dy  Dy3  1  0.955088  0.253103  0.544867  1
  V  V4  1  0.050209  0.505219  0.134455  1
  V  V5  1  0.550639  0.006409  0.366183  1
  V  V6  1  0.449807  0.505705  0.633163  1
  V  V7  1  0.950094  0.007282  0.866104  1
  W  W8  1  0.056066  0.999761  0.144994  1
  W  W9  1  0.555938  0.499011  0.356269  1
  W  W10  1  0.443888  0.999026  0.642824  1
  W  W11  1  0.945220  0.496687  0.855507  1
  O  O12  1  0.759372  0.539061  0.019929  1
  O  O13  1  0.766436  0.962915  0.030447  1
  O  O14  1  0.170131  0.755629  0.118107  1
  O  O15  1  0.934176  0.246669  0.145104  1
  O  O16  1  0.374638  0.071162  0.206682  1
  O  O17  1  0.392211  0.437135  0.213215  1
  O  O18  1  0.891305  0.937929  0.287694  1
  O  O19  1  0.872708  0.571443  0.293373  1
  O  O20  1  0.434079  0.746350  0.357195  1
  O  O21  1  0.676175  0.255616  0.384270  1
  O  O22  1  0.263969  0.458821  0.469994  1
  O  O23  1  0.256370  0.044070  0.480057  1
  O  O24  1  0.743693  0.544007  0.519265  1
  O  O25  1  0.735888  0.958843  0.529351  1
  O  O26  1  0.323330  0.755258  0.616005  1
  O  O27  1  0.565825  0.246305  0.641694  1
  O  O28  1  0.127727  0.071162  0.706503  1
  O  O29  1  0.110273  0.435966  0.713227  1
  O  O30  1  0.611243  0.938701  0.784943  1
  O  O31  1  0.628631  0.567546  0.791378  1
  O  O32  1  0.057922  0.745922  0.857074  1
  O  O33  1  0.821718  0.254409  0.883265  1
  O  O34  1  0.234721  0.456624  0.970277  1
  O  O35  1  0.241302  0.046645  0.981107  1
