# generated using pymatgen
data_CaDy3Lu4(B6Os)4
_symmetry_space_group_name_H-M   'P 1'
_cell_length_a   3.61918800
_cell_length_b   9.08650893
_cell_length_c   11.48553044
_cell_angle_alpha   89.92525778
_cell_angle_beta   90.00000000
_cell_angle_gamma   90.00000000
_symmetry_Int_Tables_number   1
_chemical_formula_structural   CaDy3Lu4(B6Os)4
_chemical_formula_sum   'Ca1 Dy3 Lu4 B24 Os4'
_cell_volume   377.71035295
_cell_formula_units_Z   1
loop_
 _symmetry_equiv_pos_site_id
 _symmetry_equiv_pos_as_xyz
  1  'x, y, z'
loop_
 _atom_site_type_symbol
 _atom_site_label
 _atom_site_symmetry_multiplicity
 _atom_site_fract_x
 _atom_site_fract_y
 _atom_site_fract_z
 _atom_site_occupancy
  Ca  Ca0  1  0.000000  0.321654  0.413878  1
  Dy  Dy1  1  0.000000  0.676988  0.585145  1
  Dy  Dy2  1  0.000000  0.821769  0.086529  1
  Dy  Dy3  1  0.000000  0.178844  0.914480  1
  Lu  Lu4  1  0.000000  0.944526  0.372144  1
  Lu  Lu5  1  0.000000  0.057134  0.627097  1
  Lu  Lu6  1  0.000000  0.443609  0.128496  1
  Lu  Lu7  1  0.000000  0.555644  0.872789  1
  B  B8  1  0.500000  0.554572  0.432380  1
  B  B9  1  0.500000  0.445811  0.567799  1
  B  B10  1  0.500000  0.053797  0.066869  1
  B  B11  1  0.500000  0.945469  0.932429  1
  B  B12  1  0.500000  0.749863  0.418807  1
  B  B13  1  0.500000  0.250486  0.581533  1
  B  B14  1  0.500000  0.249448  0.080963  1
  B  B15  1  0.500000  0.750015  0.919145  1
  B  B16  1  0.500000  0.792519  0.265924  1
  B  B17  1  0.500000  0.208400  0.734383  1
  B  B18  1  0.500000  0.291267  0.233700  1
  B  B19  1  0.500000  0.708210  0.766087  1
  B  B20  1  0.500000  0.631070  0.185083  1
  B  B21  1  0.500000  0.369366  0.815802  1
  B  B22  1  0.500000  0.130412  0.314635  1
  B  B23  1  0.500000  0.869266  0.684535  1
  B  B24  1  0.500000  0.982790  0.212886  1
  B  B25  1  0.500000  0.017191  0.786361  1
  B  B26  1  0.500000  0.483116  0.286689  1
  B  B27  1  0.500000  0.517099  0.713596  1
  B  B28  1  0.500000  0.603808  0.028652  1
  B  B29  1  0.500000  0.396380  0.971788  1
  B  B30  1  0.500000  0.101415  0.472032  1
  B  B31  1  0.500000  0.897344  0.528214  1
  Os  Os32  1  0.000000  0.640425  0.319409  1
  Os  Os33  1  0.000000  0.361365  0.681237  1
  Os  Os34  1  0.000000  0.137344  0.178168  1
  Os  Os35  1  0.000000  0.861583  0.820337  1
