# generated using pymatgen
data_TbThP7Ru12
_symmetry_space_group_name_H-M   'P 1'
_cell_length_a   9.47409600
_cell_length_b   9.47409566
_cell_length_c   3.95927300
_cell_angle_alpha   90.00000000
_cell_angle_beta   90.00000000
_cell_angle_gamma   120.00000025
_symmetry_Int_Tables_number   1
_chemical_formula_structural   TbThP7Ru12
_chemical_formula_sum   'Tb1 Th1 P7 Ru12'
_cell_volume   307.76669832
_cell_formula_units_Z   1
loop_
 _symmetry_equiv_pos_site_id
 _symmetry_equiv_pos_as_xyz
  1  'x, y, z'
loop_
 _atom_site_type_symbol
 _atom_site_label
 _atom_site_symmetry_multiplicity
 _atom_site_fract_x
 _atom_site_fract_y
 _atom_site_fract_z
 _atom_site_occupancy
  Tb  Tb0  1  0.666667  0.333333  0.500000  1
  Th  Th1  1  0.333333  0.666667  0.000000  1
  P  P2  1  0.606047  0.716745  0.500000  1
  P  P3  1  0.000000  0.000000  0.000000  1
  P  P4  1  0.283255  0.889302  0.500000  1
  P  P5  1  0.110698  0.393953  0.500000  1
  P  P6  1  0.886718  0.573783  0.000000  1
  P  P7  1  0.426217  0.312935  0.000000  1
  P  P8  1  0.687065  0.113282  0.000000  1
  Ru  Ru9  1  0.556731  0.948522  0.500000  1
  Ru  Ru10  1  0.391792  0.443269  0.500000  1
  Ru  Ru11  1  0.913188  0.119857  0.500000  1
  Ru  Ru12  1  0.206669  0.086812  0.500000  1
  Ru  Ru13  1  0.880143  0.793331  0.500000  1
  Ru  Ru14  1  0.728216  0.891591  0.000000  1
  Ru  Ru15  1  0.108409  0.836624  0.000000  1
  Ru  Ru16  1  0.163376  0.271784  0.000000  1
  Ru  Ru17  1  0.424187  0.068930  0.000000  1
  Ru  Ru18  1  0.931070  0.355257  0.000000  1
  Ru  Ru19  1  0.644743  0.575813  0.000000  1
  Ru  Ru20  1  0.051478  0.608208  0.500000  1
