# generated using pymatgen
data_Zr8Ti2AlSiSn6
_symmetry_space_group_name_H-M   'P 1'
_cell_length_a   8.64294700
_cell_length_b   8.64294704
_cell_length_c   5.81521800
_cell_angle_alpha   90.00000000
_cell_angle_beta   90.00000000
_cell_angle_gamma   119.99999602
_symmetry_Int_Tables_number   1
_chemical_formula_structural   Zr8Ti2AlSiSn6
_chemical_formula_sum   'Zr8 Ti2 Al1 Si1 Sn6'
_cell_volume   376.20135107
_cell_formula_units_Z   1
loop_
 _symmetry_equiv_pos_site_id
 _symmetry_equiv_pos_as_xyz
  1  'x, y, z'
loop_
 _atom_site_type_symbol
 _atom_site_label
 _atom_site_symmetry_multiplicity
 _atom_site_fract_x
 _atom_site_fract_y
 _atom_site_fract_z
 _atom_site_occupancy
  Zr  Zr0  1  0.333333  0.666667  0.500000  1
  Zr  Zr1  1  0.666667  0.333333  0.500000  1
  Zr  Zr2  1  0.735289  0.735289  0.737813  1
  Zr  Zr3  1  0.264711  0.000000  0.737813  1
  Zr  Zr4  1  0.000000  0.264711  0.737813  1
  Zr  Zr5  1  0.264711  0.264711  0.262187  1
  Zr  Zr6  1  0.735289  0.000000  0.262187  1
  Zr  Zr7  1  0.000000  0.735289  0.262187  1
  Ti  Ti8  1  0.666667  0.333333  0.000000  1
  Ti  Ti9  1  0.333333  0.666667  0.000000  1
  Al  Al10  1  0.000000  0.000000  0.000000  1
  Si  Si11  1  0.000000  0.000000  0.500000  1
  Sn  Sn12  1  0.391877  0.391877  0.763004  1
  Sn  Sn13  1  0.608123  0.000000  0.763004  1
  Sn  Sn14  1  0.000000  0.608123  0.763004  1
  Sn  Sn15  1  0.608123  0.608123  0.236996  1
  Sn  Sn16  1  0.391877  0.000000  0.236996  1
  Sn  Sn17  1  0.000000  0.391877  0.236996  1
