# generated using pymatgen
data_EuMgV2(PO4)3
_symmetry_space_group_name_H-M   'P 1'
_cell_length_a   9.22594528
_cell_length_b   9.22594467
_cell_length_c   9.22594500
_cell_angle_alpha   137.43669414
_cell_angle_beta   110.12855424
_cell_angle_gamma   85.37360771
_symmetry_Int_Tables_number   1
_chemical_formula_structural   EuMgV2(PO4)3
_chemical_formula_sum   'Eu2 Mg2 V4 P6 O24'
_cell_volume   479.91753325
_cell_formula_units_Z   2
loop_
 _symmetry_equiv_pos_site_id
 _symmetry_equiv_pos_as_xyz
  1  'x, y, z'
loop_
 _atom_site_type_symbol
 _atom_site_label
 _atom_site_symmetry_multiplicity
 _atom_site_fract_x
 _atom_site_fract_y
 _atom_site_fract_z
 _atom_site_occupancy
  Eu  Eu0  1  0.750000  0.854199  0.104199  1
  Eu  Eu1  1  0.250000  0.145801  0.895801  1
  Mg  Mg2  1  0.618372  0.618372  0.500000  1
  Mg  Mg3  1  0.881628  0.381628  0.000000  1
  V  V4  1  0.117025  0.617025  0.000000  1
  V  V5  1  0.382975  0.382975  0.500000  1
  V  V6  1  0.500385  0.000000  0.500385  1
  V  V7  1  0.999615  0.500000  0.499615  1
  P  P8  1  0.750000  0.342455  0.592455  1
  P  P9  1  0.250000  0.657545  0.407545  1
  P  P10  1  0.822191  0.822191  0.500000  1
  P  P11  1  0.677809  0.177809  0.000000  1
  P  P12  1  0.324413  0.824413  0.000000  1
  P  P13  1  0.175587  0.175587  0.500000  1
  O  O14  1  0.654422  0.114893  0.452701  1
  O  O15  1  0.337808  0.885107  0.539528  1
  O  O16  1  0.162192  0.701721  0.547299  1
  O  O17  1  0.845578  0.298279  0.460472  1
  O  O18  1  0.639011  0.492619  0.620959  1
  O  O19  1  0.128339  0.507381  0.146392  1
  O  O20  1  0.371661  0.518054  0.379041  1
  O  O21  1  0.860989  0.481946  0.853608  1
  O  O22  1  0.925858  0.065453  0.721711  1
  O  O23  1  0.656257  0.934547  0.860404  1
  O  O24  1  0.430540  0.709006  0.864667  1
  O  O25  1  0.155661  0.290994  0.721534  1
  O  O26  1  0.069460  0.934128  0.278466  1
  O  O27  1  0.344339  0.065872  0.135333  1
  O  O28  1  0.574142  0.295853  0.139596  1
  O  O29  1  0.843743  0.704147  0.278289  1
  O  O30  1  0.636160  0.792864  0.437588  1
  O  O31  1  0.644724  0.207136  0.843296  1
  O  O32  1  0.138488  0.700999  0.842793  1
  O  O33  1  0.141794  0.299001  0.437489  1
  O  O34  1  0.361512  0.204305  0.562511  1
  O  O35  1  0.358206  0.795695  0.157207  1
  O  O36  1  0.863840  0.301428  0.156704  1
  O  O37  1  0.855276  0.698572  0.562412  1
