# generated using pymatgen
data_Dy7YTiV3O20
_symmetry_space_group_name_H-M   'P 1'
_cell_length_a   3.72610900
_cell_length_b   10.40086812
_cell_length_c   11.28216726
_cell_angle_alpha   90.10589326
_cell_angle_beta   90.00000000
_cell_angle_gamma   90.00000000
_symmetry_Int_Tables_number   1
_chemical_formula_structural   Dy7YTiV3O20
_chemical_formula_sum   'Dy7 Y1 Ti1 V3 O20'
_cell_volume   437.23703132
_cell_formula_units_Z   1
loop_
 _symmetry_equiv_pos_site_id
 _symmetry_equiv_pos_as_xyz
  1  'x, y, z'
loop_
 _atom_site_type_symbol
 _atom_site_label
 _atom_site_symmetry_multiplicity
 _atom_site_fract_x
 _atom_site_fract_y
 _atom_site_fract_z
 _atom_site_occupancy
  Dy  Dy0  1  0.250000  0.637296  0.554425  1
  Dy  Dy1  1  0.750000  0.862292  0.055497  1
  Dy  Dy2  1  0.750000  0.363742  0.445451  1
  Dy  Dy3  1  0.750000  0.381663  0.773407  1
  Dy  Dy4  1  0.750000  0.880419  0.725531  1
  Dy  Dy5  1  0.250000  0.617271  0.224642  1
  Dy  Dy6  1  0.250000  0.117672  0.275260  1
  Y  Y7  1  0.250000  0.136019  0.943898  1
  Ti  Ti8  1  0.750000  0.326426  0.119384  1
  V  V9  1  0.250000  0.170977  0.618451  1
  V  V10  1  0.250000  0.671213  0.881198  1
  V  V11  1  0.750000  0.828569  0.381178  1
  O  O12  1  0.250000  0.225948  0.457413  1
  O  O13  1  0.250000  0.726748  0.042173  1
  O  O14  1  0.750000  0.773990  0.542570  1
  O  O15  1  0.750000  0.276584  0.956760  1
  O  O16  1  0.250000  0.493993  0.395126  1
  O  O17  1  0.250000  0.994610  0.105633  1
  O  O18  1  0.750000  0.506135  0.605447  1
  O  O19  1  0.750000  0.006122  0.894317  1
  O  O20  1  0.250000  0.264596  0.117386  1
  O  O21  1  0.250000  0.764587  0.383773  1
  O  O22  1  0.750000  0.735387  0.883571  1
  O  O23  1  0.750000  0.235144  0.616034  1
  O  O24  1  0.250000  0.008232  0.654019  1
  O  O25  1  0.250000  0.508263  0.845704  1
  O  O26  1  0.750000  0.991834  0.346381  1
  O  O27  1  0.750000  0.493334  0.154775  1
  O  O28  1  0.250000  0.258298  0.769148  1
  O  O29  1  0.250000  0.758219  0.730515  1
  O  O30  1  0.750000  0.743360  0.230196  1
  O  O31  1  0.750000  0.241060  0.270735  1
