# generated using pymatgen
data_Ca3Pr5Mn8O24
_symmetry_space_group_name_H-M   'P 1'
_cell_length_a   5.55646501
_cell_length_b   7.76851616
_cell_length_c   10.98353294
_cell_angle_alpha   89.98932668
_cell_angle_beta   90.07258563
_cell_angle_gamma   89.99841637
_symmetry_Int_Tables_number   1
_chemical_formula_structural   Ca3Pr5Mn8O24
_chemical_formula_sum   'Ca3 Pr5 Mn8 O24'
_cell_volume   474.10917281
_cell_formula_units_Z   1
loop_
 _symmetry_equiv_pos_site_id
 _symmetry_equiv_pos_as_xyz
  1  'x, y, z'
loop_
 _atom_site_type_symbol
 _atom_site_label
 _atom_site_symmetry_multiplicity
 _atom_site_fract_x
 _atom_site_fract_y
 _atom_site_fract_z
 _atom_site_occupancy
  Ca  Ca0  1  0.540564  0.250066  0.746347  1
  Ca  Ca1  1  0.543420  0.249946  0.242777  1
  Ca  Ca2  1  0.954512  0.750002  0.994464  1
  Pr  Pr3  1  0.040703  0.250046  0.504473  1
  Pr  Pr4  1  0.039131  0.250012  0.005525  1
  Pr  Pr5  1  0.457874  0.750081  0.759853  1
  Pr  Pr6  1  0.463709  0.750029  0.250076  1
  Pr  Pr7  1  0.962839  0.749935  0.496539  1
  Mn  Mn8  1  0.997903  0.002310  0.752398  1
  Mn  Mn9  1  0.999450  0.000354  0.247868  1
  Mn  Mn10  1  0.999500  0.499470  0.247873  1
  Mn  Mn11  1  0.500482  0.498339  0.999924  1
  Mn  Mn12  1  0.500466  0.001753  0.999851  1
  Mn  Mn13  1  0.501557  0.497389  0.500523  1
  Mn  Mn14  1  0.997896  0.497681  0.752363  1
  Mn  Mn15  1  0.501566  0.002654  0.500529  1
  O  O16  1  0.014599  0.749961  0.713194  1
  O  O17  1  0.021143  0.749917  0.209279  1
  O  O18  1  0.212170  0.542662  0.893810  1
  O  O19  1  0.217930  0.957682  0.390366  1
  O  O20  1  0.212025  0.957340  0.893881  1
  O  O21  1  0.217997  0.542378  0.390366  1
  O  O22  1  0.282246  0.042809  0.642313  1
  O  O23  1  0.282229  0.457188  0.642133  1
  O  O24  1  0.286621  0.044084  0.142491  1
  O  O25  1  0.286569  0.455986  0.142439  1
  O  O26  1  0.479246  0.249881  0.959163  1
  O  O27  1  0.483871  0.250192  0.458287  1
  O  O28  1  0.512694  0.749848  0.540778  1
  O  O29  1  0.520276  0.750225  0.036011  1
  O  O30  1  0.712072  0.539080  0.858146  1
  O  O31  1  0.712011  0.960959  0.858057  1
  O  O32  1  0.723277  0.547757  0.360277  1
  O  O33  1  0.723303  0.952201  0.360165  1
  O  O34  1  0.790144  0.037245  0.606330  1
  O  O35  1  0.790003  0.462596  0.606363  1
  O  O36  1  0.782391  0.041374  0.108371  1
  O  O37  1  0.782393  0.458624  0.108437  1
  O  O38  1  0.976069  0.250001  0.789291  1
  O  O39  1  0.977147  0.249944  0.288672  1
