# generated using pymatgen
data_Sc6Zn19Ni4C
_symmetry_space_group_name_H-M   'P 1'
_cell_length_a   8.60296588
_cell_length_b   8.60127201
_cell_length_c   8.60348900
_cell_angle_alpha   59.64405099
_cell_angle_beta   59.60576948
_cell_angle_gamma   59.65328676
_symmetry_Int_Tables_number   1
_chemical_formula_structural   Sc6Zn19Ni4C
_chemical_formula_sum   'Sc6 Zn19 Ni4 C1'
_cell_volume   446.42330883
_cell_formula_units_Z   1
loop_
 _symmetry_equiv_pos_site_id
 _symmetry_equiv_pos_as_xyz
  1  'x, y, z'
loop_
 _atom_site_type_symbol
 _atom_site_label
 _atom_site_symmetry_multiplicity
 _atom_site_fract_x
 _atom_site_fract_y
 _atom_site_fract_z
 _atom_site_occupancy
  Sc  Sc0  1  0.688239  0.309382  0.309395  1
  Sc  Sc1  1  0.311761  0.690618  0.690605  1
  Sc  Sc2  1  0.309433  0.688169  0.309440  1
  Sc  Sc3  1  0.690567  0.311831  0.690560  1
  Sc  Sc4  1  0.309376  0.309369  0.688252  1
  Sc  Sc5  1  0.690624  0.690631  0.311748  1
  Zn  Zn6  1  0.116465  0.116436  0.116474  1
  Zn  Zn7  1  0.883535  0.883564  0.883526  1
  Zn  Zn8  1  0.122441  0.122476  0.646456  1
  Zn  Zn9  1  0.122485  0.646479  0.122487  1
  Zn  Zn10  1  0.877559  0.877524  0.353544  1
  Zn  Zn11  1  0.877515  0.353521  0.877513  1
  Zn  Zn12  1  0.646460  0.122481  0.122447  1
  Zn  Zn13  1  0.353540  0.877519  0.877553  1
  Zn  Zn14  1  0.500000  0.000000  0.000000  1
  Zn  Zn15  1  0.000000  0.500000  0.000000  1
  Zn  Zn16  1  0.000000  0.000000  0.500000  1
  Zn  Zn17  1  0.330504  0.330460  0.330520  1
  Zn  Zn18  1  0.669496  0.669540  0.669480  1
  Zn  Zn19  1  0.334885  0.334937  0.006056  1
  Zn  Zn20  1  0.334978  0.006022  0.334963  1
  Zn  Zn21  1  0.665115  0.665063  0.993944  1
  Zn  Zn22  1  0.665022  0.993978  0.665037  1
  Zn  Zn23  1  0.006052  0.334957  0.334891  1
  Zn  Zn24  1  0.993948  0.665043  0.665109  1
  Ni  Ni25  1  0.000000  0.500000  0.500000  1
  Ni  Ni26  1  0.500000  0.000000  0.500000  1
  Ni  Ni27  1  0.500000  0.500000  0.000000  1
  Ni  Ni28  1  0.000000  0.000000  0.000000  1
  C  C29  1  0.500000  0.500000  0.500000  1
