# generated using pymatgen
data_Li3Tm5(Cu4P3)4
_symmetry_space_group_name_H-M   'P 1'
_cell_length_a   12.36916100
_cell_length_b   12.36916155
_cell_length_c   3.86144000
_cell_angle_alpha   90.00000000
_cell_angle_beta   90.00000000
_cell_angle_gamma   120.00000119
_symmetry_Int_Tables_number   1
_chemical_formula_structural   Li3Tm5(Cu4P3)4
_chemical_formula_sum   'Li3 Tm5 Cu16 P12'
_cell_volume   511.63520703
_cell_formula_units_Z   1
loop_
 _symmetry_equiv_pos_site_id
 _symmetry_equiv_pos_as_xyz
  1  'x, y, z'
loop_
 _atom_site_type_symbol
 _atom_site_label
 _atom_site_symmetry_multiplicity
 _atom_site_fract_x
 _atom_site_fract_y
 _atom_site_fract_z
 _atom_site_occupancy
  Li  Li0  1  0.440304  0.000000  0.000000  1
  Li  Li1  1  0.000000  0.440304  0.000000  1
  Li  Li2  1  0.559696  0.559696  0.000000  1
  Tm  Tm3  1  0.333333  0.666667  0.000000  1
  Tm  Tm4  1  0.666667  0.333333  0.000000  1
  Tm  Tm5  1  0.815308  0.000000  0.500000  1
  Tm  Tm6  1  0.000000  0.815308  0.500000  1
  Tm  Tm7  1  0.184692  0.184692  0.500000  1
  Cu  Cu8  1  0.356984  0.477097  0.500000  1
  Cu  Cu9  1  0.522903  0.879886  0.500000  1
  Cu  Cu10  1  0.120114  0.643016  0.500000  1
  Cu  Cu11  1  0.879886  0.522903  0.500000  1
  Cu  Cu12  1  0.643016  0.120114  0.500000  1
  Cu  Cu13  1  0.477097  0.356984  0.500000  1
  Cu  Cu14  1  0.181067  0.379766  0.000000  1
  Cu  Cu15  1  0.620234  0.801302  0.000000  1
  Cu  Cu16  1  0.198698  0.818933  0.000000  1
  Cu  Cu17  1  0.801302  0.620234  0.000000  1
  Cu  Cu18  1  0.818933  0.198698  0.000000  1
  Cu  Cu19  1  0.379766  0.181067  0.000000  1
  Cu  Cu20  1  0.283993  0.000000  0.500000  1
  Cu  Cu21  1  0.000000  0.283993  0.500000  1
  Cu  Cu22  1  0.716007  0.716007  0.500000  1
  Cu  Cu23  1  0.000000  0.000000  0.000000  1
  P  P24  1  0.177452  0.000000  0.000000  1
  P  P25  1  0.000000  0.177452  0.000000  1
  P  P26  1  0.822548  0.822548  0.000000  1
  P  P27  1  0.170332  0.486849  0.500000  1
  P  P28  1  0.513151  0.683483  0.500000  1
  P  P29  1  0.316517  0.829668  0.500000  1
  P  P30  1  0.683483  0.513151  0.500000  1
  P  P31  1  0.829668  0.316517  0.500000  1
  P  P32  1  0.486849  0.170332  0.500000  1
  P  P33  1  0.641171  0.000000  0.000000  1
  P  P34  1  0.000000  0.641171  0.000000  1
  P  P35  1  0.358829  0.358829  0.000000  1
