# generated using pymatgen
data_Dy20Ir8Pt3Au
_symmetry_space_group_name_H-M   'P 1'
_cell_length_a   11.04082547
_cell_length_b   11.02001247
_cell_length_c   6.33514953
_cell_angle_alpha   89.93019553
_cell_angle_beta   90.00201040
_cell_angle_gamma   89.29240976
_symmetry_Int_Tables_number   1
_chemical_formula_structural   Dy20Ir8Pt3Au
_chemical_formula_sum   'Dy20 Ir8 Pt3 Au1'
_cell_volume   770.73850851
_cell_formula_units_Z   1
loop_
 _symmetry_equiv_pos_site_id
 _symmetry_equiv_pos_as_xyz
  1  'x, y, z'
loop_
 _atom_site_type_symbol
 _atom_site_label
 _atom_site_symmetry_multiplicity
 _atom_site_fract_x
 _atom_site_fract_y
 _atom_site_fract_z
 _atom_site_occupancy
  Dy  Dy0  1  0.290217  0.088987  0.375884  1
  Dy  Dy1  1  0.292664  0.914002  0.875788  1
  Dy  Dy2  1  0.700762  0.083990  0.865264  1
  Dy  Dy3  1  0.702067  0.904499  0.376503  1
  Dy  Dy4  1  0.587970  0.790941  0.880327  1
  Dy  Dy5  1  0.576655  0.206668  0.372779  1
  Dy  Dy6  1  0.411047  0.794015  0.372717  1
  Dy  Dy7  1  0.405259  0.207117  0.878783  1
  Dy  Dy8  1  0.208928  0.408161  0.619491  1
  Dy  Dy9  1  0.205875  0.588215  0.126606  1
  Dy  Dy10  1  0.793280  0.422528  0.127466  1
  Dy  Dy11  1  0.792992  0.590835  0.621234  1
  Dy  Dy12  1  0.912835  0.708458  0.127365  1
  Dy  Dy13  1  0.919749  0.296308  0.636266  1
  Dy  Dy14  1  0.089204  0.705343  0.622755  1
  Dy  Dy15  1  0.096873  0.295952  0.120255  1
  Dy  Dy16  1  0.005043  0.996283  0.499567  1
  Dy  Dy17  1  0.005839  0.998926  0.000288  1
  Dy  Dy18  1  0.499297  0.498688  0.000268  1
  Dy  Dy19  1  0.501046  0.500950  0.500058  1
  Ir  Ir20  1  0.151985  0.152316  0.750785  1
  Ir  Ir21  1  0.155511  0.843989  0.249892  1
  Ir  Ir22  1  0.653271  0.651458  0.248938  1
  Ir  Ir23  1  0.349201  0.347539  0.251188  1
  Ir  Ir24  1  0.500749  0.999433  0.122558  1
  Ir  Ir25  1  0.499761  0.999856  0.622758  1
  Ir  Ir26  1  0.999980  0.501146  0.877269  1
  Ir  Ir27  1  0.000035  0.499831  0.377273  1
  Pt  Pt28  1  0.846992  0.847557  0.749496  1
  Pt  Pt29  1  0.656690  0.344007  0.749611  1
  Pt  Pt30  1  0.345308  0.655243  0.750433  1
  Au  Au31  1  0.842913  0.156761  0.250135  1
