# generated using pymatgen
data_Y3ZnCd2PdPt2
_symmetry_space_group_name_H-M   'P 1'
_cell_length_a   7.55388070
_cell_length_b   7.62795634
_cell_length_c   3.85912900
_cell_angle_alpha   90.00000000
_cell_angle_beta   90.00000000
_cell_angle_gamma   120.32492871
_symmetry_Int_Tables_number   1
_chemical_formula_structural   Y3ZnCd2PdPt2
_chemical_formula_sum   'Y3 Zn1 Cd2 Pd1 Pt2'
_cell_volume   191.94064527
_cell_formula_units_Z   1
loop_
 _symmetry_equiv_pos_site_id
 _symmetry_equiv_pos_as_xyz
  1  'x, y, z'
loop_
 _atom_site_type_symbol
 _atom_site_label
 _atom_site_symmetry_multiplicity
 _atom_site_fract_x
 _atom_site_fract_y
 _atom_site_fract_z
 _atom_site_occupancy
  Y  Y0  1  0.599115  0.594639  0.000000  1
  Y  Y1  1  0.400885  0.995525  0.000000  1
  Y  Y2  1  0.000000  0.424495  0.000000  1
  Zn  Zn3  1  0.000000  0.738258  0.500000  1
  Cd  Cd4  1  0.247476  0.256350  0.500000  1
  Cd  Cd5  1  0.752524  0.008875  0.500000  1
  Pd  Pd6  1  0.000000  0.971107  0.000000  1
  Pt  Pt7  1  0.331228  0.670991  0.500000  1
  Pt  Pt8  1  0.668772  0.339762  0.500000  1
