# generated using pymatgen
data_ThCo9Si4
_symmetry_space_group_name_H-M   'P 1'
_cell_length_a   7.92894544
_cell_length_b   7.92894597
_cell_length_c   7.92894498
_cell_angle_alpha   121.46419178
_cell_angle_beta   121.46418971
_cell_angle_gamma   87.48211714
_symmetry_Int_Tables_number   1
_chemical_formula_structural   ThCo9Si4
_chemical_formula_sum   'Th2 Co18 Si8'
_cell_volume   344.31536637
_cell_formula_units_Z   2
loop_
 _symmetry_equiv_pos_site_id
 _symmetry_equiv_pos_as_xyz
  1  'x, y, z'
loop_
 _atom_site_type_symbol
 _atom_site_label
 _atom_site_symmetry_multiplicity
 _atom_site_fract_x
 _atom_site_fract_y
 _atom_site_fract_z
 _atom_site_occupancy
  Th  Th0  1  0.750000  0.750000  0.000000  1
  Th  Th1  1  0.250000  0.250000  0.000000  1
  Co  Co2  1  0.069030  0.199799  0.268828  1
  Co  Co3  1  0.930970  0.800201  0.731172  1
  Co  Co4  1  0.569030  0.300201  0.869231  1
  Co  Co5  1  0.430970  0.699799  0.130769  1
  Co  Co6  1  0.800201  0.069030  0.869231  1
  Co  Co7  1  0.199799  0.930970  0.130769  1
  Co  Co8  1  0.699799  0.569030  0.268828  1
  Co  Co9  1  0.300201  0.430970  0.731172  1
  Co  Co10  1  0.449798  0.949798  0.762488  1
  Co  Co11  1  0.187309  0.687309  0.237512  1
  Co  Co12  1  0.949798  0.187309  0.500000  1
  Co  Co13  1  0.687309  0.449798  0.500000  1
  Co  Co14  1  0.550202  0.050202  0.237512  1
  Co  Co15  1  0.812691  0.312691  0.762488  1
  Co  Co16  1  0.050202  0.812691  0.500000  1
  Co  Co17  1  0.312691  0.550202  0.500000  1
  Co  Co18  1  0.000000  0.500000  0.500000  1
  Co  Co19  1  0.500000  0.000000  0.500000  1
  Si  Si20  1  0.048697  0.548697  0.837107  1
  Si  Si21  1  0.711589  0.211589  0.162893  1
  Si  Si22  1  0.548697  0.711589  0.500000  1
  Si  Si23  1  0.211589  0.048697  0.500000  1
  Si  Si24  1  0.951303  0.451303  0.162893  1
  Si  Si25  1  0.288411  0.788411  0.837107  1
  Si  Si26  1  0.451303  0.288411  0.500000  1
  Si  Si27  1  0.788411  0.951303  0.500000  1
