# generated using pymatgen
data_Ti10Ga2Sn5Bi
_symmetry_space_group_name_H-M   'P 1'
_cell_length_a   8.29639434
_cell_length_b   8.29639458
_cell_length_c   5.57055700
_cell_angle_alpha   90.00000000
_cell_angle_beta   90.00000000
_cell_angle_gamma   119.76521536
_symmetry_Int_Tables_number   1
_chemical_formula_structural   Ti10Ga2Sn5Bi
_chemical_formula_sum   'Ti10 Ga2 Sn5 Bi1'
_cell_volume   332.83628031
_cell_formula_units_Z   1
loop_
 _symmetry_equiv_pos_site_id
 _symmetry_equiv_pos_as_xyz
  1  'x, y, z'
loop_
 _atom_site_type_symbol
 _atom_site_label
 _atom_site_symmetry_multiplicity
 _atom_site_fract_x
 _atom_site_fract_y
 _atom_site_fract_z
 _atom_site_occupancy
  Ti  Ti0  1  0.735530  0.735530  0.750000  1
  Ti  Ti1  1  0.265315  0.993804  0.750000  1
  Ti  Ti2  1  0.993804  0.265315  0.750000  1
  Ti  Ti3  1  0.267958  0.267958  0.250000  1
  Ti  Ti4  1  0.731405  0.000460  0.250000  1
  Ti  Ti5  1  0.000460  0.731405  0.250000  1
  Ti  Ti6  1  0.669570  0.332530  0.002100  1
  Ti  Ti7  1  0.332530  0.669570  0.002100  1
  Ti  Ti8  1  0.332530  0.669570  0.497900  1
  Ti  Ti9  1  0.669570  0.332530  0.497900  1
  Ga  Ga10  1  0.999952  0.999952  0.001390  1
  Ga  Ga11  1  0.999952  0.999952  0.498610  1
  Sn  Sn12  1  0.610562  0.999105  0.750000  1
  Sn  Sn13  1  0.999105  0.610562  0.750000  1
  Sn  Sn14  1  0.614176  0.614176  0.250000  1
  Sn  Sn15  1  0.388287  0.001047  0.250000  1
  Sn  Sn16  1  0.001047  0.388287  0.250000  1
  Bi  Bi17  1  0.388249  0.388249  0.750000  1
