# generated using pymatgen
data_AlV12Si7(NiC)4
_symmetry_space_group_name_H-M   'P 1'
_cell_length_a   7.69055302
_cell_length_b   7.67524421
_cell_length_c   7.69055300
_cell_angle_alpha   59.93399398
_cell_angle_beta   59.99999578
_cell_angle_gamma   59.93399041
_symmetry_Int_Tables_number   1
_chemical_formula_structural   AlV12Si7(NiC)4
_chemical_formula_sum   'Al1 V12 Si7 Ni4 C4'
_cell_volume   320.66998465
_cell_formula_units_Z   1
loop_
 _symmetry_equiv_pos_site_id
 _symmetry_equiv_pos_as_xyz
  1  'x, y, z'
loop_
 _atom_site_type_symbol
 _atom_site_label
 _atom_site_symmetry_multiplicity
 _atom_site_fract_x
 _atom_site_fract_y
 _atom_site_fract_z
 _atom_site_occupancy
  Al  Al0  1  0.336901  0.989294  0.336901  1
  V  V1  1  0.933740  0.936626  0.564817  1
  V  V2  1  0.686082  0.314231  0.313605  1
  V  V3  1  0.313246  0.680111  0.693396  1
  V  V4  1  0.693396  0.680111  0.313246  1
  V  V5  1  0.686082  0.314231  0.686082  1
  V  V6  1  0.313246  0.680111  0.313246  1
  V  V7  1  0.564817  0.936626  0.564817  1
  V  V8  1  0.564817  0.936626  0.933740  1
  V  V9  1  0.936220  0.565590  0.561970  1
  V  V10  1  0.936220  0.565590  0.936220  1
  V  V11  1  0.313605  0.314231  0.686082  1
  V  V12  1  0.561970  0.565590  0.936220  1
  Si  Si13  1  0.910515  0.268456  0.910515  1
  Si  Si14  1  0.338665  0.333951  0.988717  1
  Si  Si15  1  0.988717  0.333951  0.338665  1
  Si  Si16  1  0.338665  0.333951  0.338665  1
  Si  Si17  1  0.263936  0.912057  0.912005  1
  Si  Si18  1  0.912005  0.912057  0.912005  1
  Si  Si19  1  0.912005  0.912057  0.263936  1
  Ni  Ni20  1  0.124859  0.625422  0.124859  1
  Ni  Ni21  1  0.120626  0.127519  0.631230  1
  Ni  Ni22  1  0.631230  0.127519  0.120626  1
  Ni  Ni23  1  0.120626  0.127519  0.120626  1
  C  C24  1  0.624223  0.127332  0.624223  1
  C  C25  1  0.624201  0.626413  0.125186  1
  C  C26  1  0.125186  0.626413  0.624201  1
  C  C27  1  0.624201  0.626413  0.624201  1
