# generated using pymatgen
data_Zr10CuSiBiPb5
_symmetry_space_group_name_H-M   'P 1'
_cell_length_a   8.80617621
_cell_length_b   8.80617513
_cell_length_c   5.95936007
_cell_angle_alpha   89.96553524
_cell_angle_beta   89.96552547
_cell_angle_gamma   119.95070974
_symmetry_Int_Tables_number   1
_chemical_formula_structural   Zr10CuSiBiPb5
_chemical_formula_sum   'Zr10 Cu1 Si1 Bi1 Pb5'
_cell_volume   400.42402411
_cell_formula_units_Z   1
loop_
 _symmetry_equiv_pos_site_id
 _symmetry_equiv_pos_as_xyz
  1  'x, y, z'
loop_
 _atom_site_type_symbol
 _atom_site_label
 _atom_site_symmetry_multiplicity
 _atom_site_fract_x
 _atom_site_fract_y
 _atom_site_fract_z
 _atom_site_occupancy
  Zr  Zr0  1  0.742748  0.000017  0.252911  1
  Zr  Zr1  1  0.000017  0.742748  0.252911  1
  Zr  Zr2  1  0.257517  0.257517  0.252401  1
  Zr  Zr3  1  0.256541  0.998583  0.747202  1
  Zr  Zr4  1  0.998583  0.256541  0.747202  1
  Zr  Zr5  1  0.742619  0.742619  0.747077  1
  Zr  Zr6  1  0.333569  0.666955  0.499271  1
  Zr  Zr7  1  0.666955  0.333569  0.499271  1
  Zr  Zr8  1  0.667011  0.333343  0.000753  1
  Zr  Zr9  1  0.333343  0.667011  0.000753  1
  Cu  Cu10  1  0.999475  0.999475  0.000496  1
  Si  Si11  1  0.999645  0.999645  0.499595  1
  Bi  Bi12  1  0.390404  0.390404  0.753477  1
  Pb  Pb13  1  0.389804  0.999743  0.246733  1
  Pb  Pb14  1  0.999743  0.389804  0.246733  1
  Pb  Pb15  1  0.611402  0.611402  0.247117  1
  Pb  Pb16  1  0.610473  0.000151  0.753049  1
  Pb  Pb17  1  0.000151  0.610473  0.753049  1
