# generated using pymatgen
data_Ce3Sm(B4Ru)4
_symmetry_space_group_name_H-M   'P 1'
_cell_length_a   3.62358600
_cell_length_b   6.00279151
_cell_length_c   11.64361769
_cell_angle_alpha   90.00373233
_cell_angle_beta   90.00000000
_cell_angle_gamma   90.00000000
_symmetry_Int_Tables_number   1
_chemical_formula_structural   Ce3Sm(B4Ru)4
_chemical_formula_sum   'Ce3 Sm1 B16 Ru4'
_cell_volume   253.26767806
_cell_formula_units_Z   1
loop_
 _symmetry_equiv_pos_site_id
 _symmetry_equiv_pos_as_xyz
  1  'x, y, z'
loop_
 _atom_site_type_symbol
 _atom_site_label
 _atom_site_symmetry_multiplicity
 _atom_site_fract_x
 _atom_site_fract_y
 _atom_site_fract_z
 _atom_site_occupancy
  Ce  Ce0  1  0.500000  0.628504  0.149616  1
  Ce  Ce1  1  0.500000  0.371677  0.850015  1
  Ce  Ce2  1  0.500000  0.128169  0.350836  1
  Sm  Sm3  1  0.500000  0.872138  0.649503  1
  B  B4  1  0.000000  0.974612  0.190306  1
  B  B5  1  0.000000  0.025619  0.810018  1
  B  B6  1  0.000000  0.473388  0.309602  1
  B  B7  1  0.000000  0.524975  0.690442  1
  B  B8  1  0.000000  0.786326  0.314809  1
  B  B9  1  0.000000  0.216029  0.685712  1
  B  B10  1  0.000000  0.285271  0.186019  1
  B  B11  1  0.000000  0.714190  0.815007  1
  B  B12  1  0.000000  0.862343  0.467915  1
  B  B13  1  0.000000  0.138190  0.531140  1
  B  B14  1  0.000000  0.362287  0.031416  1
  B  B15  1  0.000000  0.636984  0.968605  1
  B  B16  1  0.000000  0.888224  0.045837  1
  B  B17  1  0.000000  0.111298  0.953996  1
  B  B18  1  0.000000  0.388112  0.454222  1
  B  B19  1  0.000000  0.610995  0.545610  1
  Ru  Ru20  1  0.500000  0.638415  0.405250  1
  Ru  Ru21  1  0.500000  0.361027  0.592423  1
  Ru  Ru22  1  0.500000  0.140798  0.093912  1
  Ru  Ru23  1  0.500000  0.860428  0.907788  1
