# generated using pymatgen
data_Tb2Ho2Al15(GaIr2)3
_symmetry_space_group_name_H-M   'P 1'
_cell_length_a   7.53674906
_cell_length_b   7.53637653
_cell_length_c   9.53253800
_cell_angle_alpha   90.00000000
_cell_angle_beta   90.00000000
_cell_angle_gamma   119.42753513
_symmetry_Int_Tables_number   1
_chemical_formula_structural   Tb2Ho2Al15(GaIr2)3
_chemical_formula_sum   'Tb2 Ho2 Al15 Ga3 Ir6'
_cell_volume   471.58748499
_cell_formula_units_Z   1
loop_
 _symmetry_equiv_pos_site_id
 _symmetry_equiv_pos_as_xyz
  1  'x, y, z'
loop_
 _atom_site_type_symbol
 _atom_site_label
 _atom_site_symmetry_multiplicity
 _atom_site_fract_x
 _atom_site_fract_y
 _atom_site_fract_z
 _atom_site_occupancy
  Tb  Tb0  1  0.998072  0.674690  0.250000  1
  Tb  Tb1  1  0.670039  0.991310  0.250000  1
  Ho  Ho2  1  0.005679  0.325945  0.750000  1
  Ho  Ho3  1  0.325025  0.003729  0.750000  1
  Al  Al4  1  0.001735  0.335242  0.071696  1
  Al  Al5  1  0.998624  0.664251  0.926031  1
  Al  Al6  1  0.998624  0.664251  0.573969  1
  Al  Al7  1  0.336042  0.003499  0.428104  1
  Al  Al8  1  0.001735  0.335242  0.428304  1
  Al  Al9  1  0.664358  0.999284  0.573763  1
  Al  Al10  1  0.664358  0.999284  0.926237  1
  Al  Al11  1  0.336042  0.003499  0.071896  1
  Al  Al12  1  0.334127  0.334205  0.556948  1
  Al  Al13  1  0.666041  0.665642  0.449008  1
  Al  Al14  1  0.666041  0.665642  0.050992  1
  Al  Al15  1  0.334127  0.334205  0.943052  1
  Al  Al16  1  0.662475  0.450060  0.750000  1
  Al  Al17  1  0.549973  0.339379  0.250000  1
  Al  Al18  1  0.450631  0.662458  0.750000  1
  Ga  Ga19  1  0.131679  0.132351  0.250000  1
  Ga  Ga20  1  0.865379  0.865291  0.750000  1
  Ga  Ga21  1  0.338836  0.545447  0.250000  1
  Ir  Ir22  1  0.671364  0.329076  0.999915  1
  Ir  Ir23  1  0.328367  0.672637  0.997574  1
  Ir  Ir24  1  0.328367  0.672637  0.502426  1
  Ir  Ir25  1  0.671364  0.329076  0.500085  1
  Ir  Ir26  1  0.000447  0.000834  0.999463  1
  Ir  Ir27  1  0.000447  0.000834  0.500537  1
