# generated using pymatgen
data_TaNb5(SiTc)6
_symmetry_space_group_name_H-M   'P 1'
_cell_length_a   7.57784057
_cell_length_b   7.57174039
_cell_length_c   7.57784048
_cell_angle_alpha   127.26481278
_cell_angle_beta   125.35386268
_cell_angle_gamma   79.40969671
_symmetry_Int_Tables_number   1
_chemical_formula_structural   TaNb5(SiTc)6
_chemical_formula_sum   'Ta1 Nb5 Si6 Tc6'
_cell_volume   272.76975324
_cell_formula_units_Z   1
loop_
 _symmetry_equiv_pos_site_id
 _symmetry_equiv_pos_as_xyz
  1  'x, y, z'
loop_
 _atom_site_type_symbol
 _atom_site_label
 _atom_site_symmetry_multiplicity
 _atom_site_fract_x
 _atom_site_fract_y
 _atom_site_fract_z
 _atom_site_occupancy
  Ta  Ta0  1  0.253205  0.097180  0.343975  1
  Nb  Nb1  1  0.944419  0.904109  0.459691  1
  Nb  Nb2  1  0.052066  0.508289  0.956224  1
  Nb  Nb3  1  0.538764  0.501722  0.462957  1
  Nb  Nb4  1  0.462672  0.924798  0.962125  1
  Nb  Nb5  1  0.747202  0.088986  0.841784  1
  Si  Si6  1  0.727258  0.474124  0.246867  1
  Si  Si7  1  0.274151  0.513679  0.739528  1
  Si  Si8  1  0.670386  0.174099  0.508554  1
  Si  Si9  1  0.327723  0.838451  0.501855  1
  Si  Si10  1  0.165546  0.174099  0.003713  1
  Si  Si11  1  0.836596  0.838451  0.010728  1
  Tc  Tc12  1  0.489915  0.755062  0.245222  1
  Tc  Tc13  1  0.009840  0.755062  0.765147  1
  Tc  Tc14  1  0.905191  0.251285  0.408901  1
  Tc  Tc15  1  0.094096  0.503557  0.344974  1
  Tc  Tc16  1  0.342384  0.251285  0.846094  1
  Tc  Tc17  1  0.658583  0.503557  0.909461  1
