# generated using pymatgen
data_Zr3Mn5(Ni2P3)2
_symmetry_space_group_name_H-M   'P 1'
_cell_length_a   3.61517900
_cell_length_b   10.56926200
_cell_length_c   12.17775600
_cell_angle_alpha   90.00000000
_cell_angle_beta   90.00000000
_cell_angle_gamma   90.00000000
_symmetry_Int_Tables_number   1
_chemical_formula_structural   Zr3Mn5(Ni2P3)2
_chemical_formula_sum   'Zr6 Mn10 Ni8 P12'
_cell_volume   465.30930493
_cell_formula_units_Z   2
loop_
 _symmetry_equiv_pos_site_id
 _symmetry_equiv_pos_as_xyz
  1  'x, y, z'
loop_
 _atom_site_type_symbol
 _atom_site_label
 _atom_site_symmetry_multiplicity
 _atom_site_fract_x
 _atom_site_fract_y
 _atom_site_fract_z
 _atom_site_occupancy
  Zr  Zr0  1  0.751892  0.000000  0.470875  1
  Zr  Zr1  1  0.251892  0.500000  0.529125  1
  Zr  Zr2  1  0.251807  0.677525  0.795130  1
  Zr  Zr3  1  0.251807  0.322475  0.795130  1
  Zr  Zr4  1  0.751807  0.822475  0.204870  1
  Zr  Zr5  1  0.751807  0.177525  0.204870  1
  Mn  Mn6  1  0.251918  0.201873  0.567682  1
  Mn  Mn7  1  0.251918  0.798127  0.567682  1
  Mn  Mn8  1  0.751918  0.298127  0.432318  1
  Mn  Mn9  1  0.751918  0.701873  0.432318  1
  Mn  Mn10  1  0.251914  0.619792  0.295624  1
  Mn  Mn11  1  0.251914  0.380208  0.295624  1
  Mn  Mn12  1  0.751914  0.880208  0.704376  1
  Mn  Mn13  1  0.751914  0.119792  0.704376  1
  Mn  Mn14  1  0.251854  0.000000  0.836172  1
  Mn  Mn15  1  0.751854  0.500000  0.163828  1
  Ni  Ni16  1  0.751733  0.000000  0.010861  1
  Ni  Ni17  1  0.251733  0.500000  0.989139  1
  Ni  Ni18  1  0.251710  0.169021  0.006715  1
  Ni  Ni19  1  0.251710  0.830979  0.006715  1
  Ni  Ni20  1  0.751710  0.330979  0.993285  1
  Ni  Ni21  1  0.751710  0.669021  0.993285  1
  Ni  Ni22  1  0.251768  0.000000  0.295763  1
  Ni  Ni23  1  0.751768  0.500000  0.704237  1
  P  P24  1  0.251849  0.180263  0.379844  1
  P  P25  1  0.251849  0.819737  0.379844  1
  P  P26  1  0.751849  0.319737  0.620156  1
  P  P27  1  0.751849  0.680263  0.620156  1
  P  P28  1  0.251755  0.000000  0.119636  1
  P  P29  1  0.751755  0.500000  0.880364  1
  P  P30  1  0.251753  0.655609  0.113334  1
  P  P31  1  0.251753  0.344391  0.113334  1
  P  P32  1  0.751753  0.844391  0.886666  1
  P  P33  1  0.751753  0.155609  0.886666  1
  P  P34  1  0.251900  0.000000  0.641121  1
  P  P35  1  0.751900  0.500000  0.358879  1
