# generated using pymatgen
data_Ba3YScSe6
_symmetry_space_group_name_H-M   'P 1'
_cell_length_a   8.74447263
_cell_length_b   8.74447192
_cell_length_c   8.74447319
_cell_angle_alpha   92.76564438
_cell_angle_beta   92.76564410
_cell_angle_gamma   92.76564277
_symmetry_Int_Tables_number   1
_chemical_formula_structural   Ba3YScSe6
_chemical_formula_sum   'Ba6 Y2 Sc2 Se12'
_cell_volume   666.23854312
_cell_formula_units_Z   2
loop_
 _symmetry_equiv_pos_site_id
 _symmetry_equiv_pos_as_xyz
  1  'x, y, z'
loop_
 _atom_site_type_symbol
 _atom_site_label
 _atom_site_symmetry_multiplicity
 _atom_site_fract_x
 _atom_site_fract_y
 _atom_site_fract_z
 _atom_site_occupancy
  Ba  Ba0  1  0.367111  0.750000  0.132889  1
  Ba  Ba1  1  0.132889  0.367111  0.750000  1
  Ba  Ba2  1  0.750000  0.132889  0.367111  1
  Ba  Ba3  1  0.632889  0.250000  0.867111  1
  Ba  Ba4  1  0.867111  0.632889  0.250000  1
  Ba  Ba5  1  0.250000  0.867111  0.632889  1
  Y  Y6  1  0.250000  0.250000  0.250000  1
  Y  Y7  1  0.750000  0.750000  0.750000  1
  Sc  Sc8  1  0.500000  0.500000  0.500000  1
  Sc  Sc9  1  0.000000  0.000000  0.000000  1
  Se  Se10  1  0.539022  0.412304  0.200903  1
  Se  Se11  1  0.200903  0.539022  0.412304  1
  Se  Se12  1  0.412304  0.200903  0.539022  1
  Se  Se13  1  0.960978  0.299097  0.087696  1
  Se  Se14  1  0.087696  0.960978  0.299097  1
  Se  Se15  1  0.299097  0.087696  0.960978  1
  Se  Se16  1  0.460978  0.587696  0.799097  1
  Se  Se17  1  0.799097  0.460978  0.587696  1
  Se  Se18  1  0.587696  0.799097  0.460978  1
  Se  Se19  1  0.039022  0.700903  0.912304  1
  Se  Se20  1  0.700903  0.912304  0.039022  1
  Se  Se21  1  0.912304  0.039022  0.700903  1
