# generated using pymatgen
data_La2Nd2PaPd15
_symmetry_space_group_name_H-M   'P 1'
_cell_length_a   4.20488500
_cell_length_b   4.20488500
_cell_length_c   21.04605500
_cell_angle_alpha   90.00000000
_cell_angle_beta   90.00000000
_cell_angle_gamma   90.00000000
_symmetry_Int_Tables_number   1
_chemical_formula_structural   La2Nd2PaPd15
_chemical_formula_sum   'La2 Nd2 Pa1 Pd15'
_cell_volume   372.11651625
_cell_formula_units_Z   1
loop_
 _symmetry_equiv_pos_site_id
 _symmetry_equiv_pos_as_xyz
  1  'x, y, z'
loop_
 _atom_site_type_symbol
 _atom_site_label
 _atom_site_symmetry_multiplicity
 _atom_site_fract_x
 _atom_site_fract_y
 _atom_site_fract_z
 _atom_site_occupancy
  La  La0  1  0.000000  0.000000  0.597969  1
  La  La1  1  0.000000  0.000000  0.798654  1
  Nd  Nd2  1  0.000000  0.000000  0.201966  1
  Nd  Nd3  1  0.000000  0.000000  0.398865  1
  Pa  Pa4  1  0.000000  0.000000  0.001406  1
  Pd  Pd5  1  0.500000  0.500000  0.000997  1
  Pd  Pd6  1  0.500000  0.500000  0.195954  1
  Pd  Pd7  1  0.500000  0.500000  0.398549  1
  Pd  Pd8  1  0.500000  0.500000  0.600157  1
  Pd  Pd9  1  0.500000  0.500000  0.804914  1
  Pd  Pd10  1  0.500000  0.000000  0.094666  1
  Pd  Pd11  1  0.500000  0.000000  0.298017  1
  Pd  Pd12  1  0.500000  0.000000  0.498630  1
  Pd  Pd13  1  0.500000  0.000000  0.701648  1
  Pd  Pd14  1  0.500000  0.000000  0.907323  1
  Pd  Pd15  1  0.000000  0.500000  0.094666  1
  Pd  Pd16  1  0.000000  0.500000  0.298017  1
  Pd  Pd17  1  0.000000  0.500000  0.498630  1
  Pd  Pd18  1  0.000000  0.500000  0.701648  1
  Pd  Pd19  1  0.000000  0.500000  0.907323  1
