# generated using pymatgen
data_CaSm3(Mo2O7)2
_symmetry_space_group_name_H-M   'P 1'
_cell_length_a   7.48475863
_cell_length_b   7.48475798
_cell_length_c   7.48475791
_cell_angle_alpha   59.40738611
_cell_angle_beta   59.40739277
_cell_angle_gamma   59.40739016
_symmetry_Int_Tables_number   1
_chemical_formula_structural   CaSm3(Mo2O7)2
_chemical_formula_sum   'Ca1 Sm3 Mo4 O14'
_cell_volume   292.49737478
_cell_formula_units_Z   1
loop_
 _symmetry_equiv_pos_site_id
 _symmetry_equiv_pos_as_xyz
  1  'x, y, z'
loop_
 _atom_site_type_symbol
 _atom_site_label
 _atom_site_symmetry_multiplicity
 _atom_site_fract_x
 _atom_site_fract_y
 _atom_site_fract_z
 _atom_site_occupancy
  Ca  Ca0  1  0.125000  0.125000  0.125000  1
  Sm  Sm1  1  0.125000  0.125000  0.625000  1
  Sm  Sm2  1  0.625000  0.125000  0.125000  1
  Sm  Sm3  1  0.125000  0.625000  0.125000  1
  Mo  Mo4  1  0.625000  0.625000  0.625000  1
  Mo  Mo5  1  0.125000  0.625000  0.625000  1
  Mo  Mo6  1  0.625000  0.125000  0.625000  1
  Mo  Mo7  1  0.625000  0.625000  0.125000  1
  O  O8  1  0.293164  0.293164  0.694504  1
  O  O9  1  0.293164  0.694504  0.293164  1
  O  O10  1  0.956836  0.555496  0.956836  1
  O  O11  1  0.694504  0.293164  0.293164  1
  O  O12  1  0.999842  0.999842  0.999842  1
  O  O13  1  0.543494  0.543494  0.950059  1
  O  O14  1  0.299941  0.706506  0.706506  1
  O  O15  1  0.543494  0.950059  0.543494  1
  O  O16  1  0.555496  0.956836  0.956836  1
  O  O17  1  0.706506  0.706506  0.299941  1
  O  O18  1  0.250158  0.250158  0.250158  1
  O  O19  1  0.956836  0.956836  0.555496  1
  O  O20  1  0.950059  0.543494  0.543494  1
  O  O21  1  0.706506  0.299941  0.706506  1
