# generated using pymatgen
data_La12RuPt2AuBr12
_symmetry_space_group_name_H-M   'P 1'
_cell_length_a   10.72490228
_cell_length_b   10.72486539
_cell_length_c   10.60480083
_cell_angle_alpha   109.01777688
_cell_angle_beta   109.01769957
_cell_angle_gamma   109.27348304
_symmetry_Int_Tables_number   1
_chemical_formula_structural   La12RuPt2AuBr12
_chemical_formula_sum   'La12 Ru1 Pt2 Au1 Br12'
_cell_volume   951.58227803
_cell_formula_units_Z   1
loop_
 _symmetry_equiv_pos_site_id
 _symmetry_equiv_pos_as_xyz
  1  'x, y, z'
loop_
 _atom_site_type_symbol
 _atom_site_label
 _atom_site_symmetry_multiplicity
 _atom_site_fract_x
 _atom_site_fract_y
 _atom_site_fract_z
 _atom_site_occupancy
  La  La0  1  0.259734  0.740779  0.233646  1
  La  La1  1  0.482075  0.741490  0.006884  1
  La  La2  1  0.239081  0.471167  0.481251  1
  La  La3  1  0.019212  0.029665  0.261908  1
  La  La4  1  0.235905  0.264092  0.749996  1
  La  La5  1  0.013432  0.486568  0.750009  1
  La  La6  1  0.474742  0.242225  0.469993  1
  La  La7  1  0.257780  0.025269  0.030011  1
  La  La8  1  0.759229  0.240253  0.266355  1
  La  La9  1  0.758504  0.017914  0.493111  1
  La  La10  1  0.470328  0.480799  0.238099  1
  La  La11  1  0.028828  0.260917  0.018743  1
  Ru  Ru12  1  0.249680  0.250316  0.249997  1
  Pt  Pt13  1  0.248707  0.497687  0.999312  1
  Pt  Pt14  1  0.002314  0.251292  0.500685  1
  Au  Au15  1  0.500087  0.999919  0.250000  1
  Br  Br16  1  0.248630  0.994909  0.502368  1
  Br  Br17  1  0.511893  0.506309  0.756526  1
  Br  Br18  1  0.248527  0.752787  0.746335  1
  Br  Br19  1  0.994392  0.746497  0.996648  1
  Br  Br20  1  0.993843  0.506158  0.249999  1
  Br  Br21  1  0.745649  0.994459  0.992951  1
  Br  Br22  1  0.752384  0.747615  0.249998  1
  Br  Br23  1  0.505541  0.754353  0.507051  1
  Br  Br24  1  0.505092  0.251371  0.997633  1
  Br  Br25  1  0.753505  0.505606  0.503351  1
  Br  Br26  1  0.747212  0.251474  0.753665  1
  Br  Br27  1  0.993693  0.988108  0.743475  1
