# generated using pymatgen
data_Y5Ti3(Co4As3)4
_symmetry_space_group_name_H-M   'P 1'
_cell_length_a   12.60276100
_cell_length_b   12.60276159
_cell_length_c   3.81212200
_cell_angle_alpha   90.00000000
_cell_angle_beta   90.00000000
_cell_angle_gamma   120.00000632
_symmetry_Int_Tables_number   1
_chemical_formula_structural   Y5Ti3(Co4As3)4
_chemical_formula_sum   'Y5 Ti3 Co16 As12'
_cell_volume   524.35910804
_cell_formula_units_Z   1
loop_
 _symmetry_equiv_pos_site_id
 _symmetry_equiv_pos_as_xyz
  1  'x, y, z'
loop_
 _atom_site_type_symbol
 _atom_site_label
 _atom_site_symmetry_multiplicity
 _atom_site_fract_x
 _atom_site_fract_y
 _atom_site_fract_z
 _atom_site_occupancy
  Y  Y0  1  0.186066  0.186066  0.500000  1
  Y  Y1  1  0.813934  0.000000  0.500000  1
  Y  Y2  1  0.000000  0.813934  0.500000  1
  Y  Y3  1  0.333333  0.666667  0.000000  1
  Y  Y4  1  0.666667  0.333333  0.000000  1
  Ti  Ti5  1  0.564223  0.564223  0.000000  1
  Ti  Ti6  1  0.435777  0.000000  0.000000  1
  Ti  Ti7  1  0.000000  0.435777  0.000000  1
  Co  Co8  1  0.716549  0.716549  0.500000  1
  Co  Co9  1  0.283451  0.000000  0.500000  1
  Co  Co10  1  0.000000  0.283451  0.500000  1
  Co  Co11  1  0.177131  0.376019  0.000000  1
  Co  Co12  1  0.623981  0.801112  0.000000  1
  Co  Co13  1  0.198888  0.822869  0.000000  1
  Co  Co14  1  0.801112  0.623981  0.000000  1
  Co  Co15  1  0.822869  0.198888  0.000000  1
  Co  Co16  1  0.376019  0.177131  0.000000  1
  Co  Co17  1  0.356407  0.479973  0.500000  1
  Co  Co18  1  0.520027  0.876434  0.500000  1
  Co  Co19  1  0.123566  0.643593  0.500000  1
  Co  Co20  1  0.876434  0.520027  0.500000  1
  Co  Co21  1  0.643593  0.123566  0.500000  1
  Co  Co22  1  0.479973  0.356407  0.500000  1
  Co  Co23  1  0.000000  0.000000  0.000000  1
  As  As24  1  0.821730  0.821730  0.000000  1
  As  As25  1  0.178270  0.000000  0.000000  1
  As  As26  1  0.000000  0.178270  0.000000  1
  As  As27  1  0.168816  0.482611  0.500000  1
  As  As28  1  0.517389  0.686206  0.500000  1
  As  As29  1  0.313794  0.831184  0.500000  1
  As  As30  1  0.686206  0.517389  0.500000  1
  As  As31  1  0.831184  0.313794  0.500000  1
  As  As32  1  0.482611  0.168816  0.500000  1
  As  As33  1  0.359990  0.359990  0.000000  1
  As  As34  1  0.640010  0.000000  0.000000  1
  As  As35  1  0.000000  0.640010  0.000000  1
