# generated using pymatgen
data_RbCrHgF6
_symmetry_space_group_name_H-M   'P 1'
_cell_length_a   7.53885800
_cell_length_b   7.60305000
_cell_length_c   10.66236600
_cell_angle_alpha   90.00000000
_cell_angle_beta   90.00000000
_cell_angle_gamma   90.00000000
_symmetry_Int_Tables_number   1
_chemical_formula_structural   RbCrHgF6
_chemical_formula_sum   'Rb4 Cr4 Hg4 F24'
_cell_volume   611.14884575
_cell_formula_units_Z   4
loop_
 _symmetry_equiv_pos_site_id
 _symmetry_equiv_pos_as_xyz
  1  'x, y, z'
loop_
 _atom_site_type_symbol
 _atom_site_label
 _atom_site_symmetry_multiplicity
 _atom_site_fract_x
 _atom_site_fract_y
 _atom_site_fract_z
 _atom_site_occupancy
  Rb  Rb0  1  0.017142  0.250000  0.625631  1
  Rb  Rb1  1  0.982858  0.750000  0.374369  1
  Rb  Rb2  1  0.482858  0.750000  0.125631  1
  Rb  Rb3  1  0.517142  0.250000  0.874369  1
  Cr  Cr4  1  0.000000  0.000000  0.000000  1
  Cr  Cr5  1  0.500000  0.000000  0.500000  1
  Cr  Cr6  1  0.000000  0.500000  0.000000  1
  Cr  Cr7  1  0.500000  0.500000  0.500000  1
  Hg  Hg8  1  0.207043  0.250000  0.257868  1
  Hg  Hg9  1  0.792957  0.750000  0.742132  1
  Hg  Hg10  1  0.292957  0.750000  0.757868  1
  Hg  Hg11  1  0.707043  0.250000  0.242132  1
  F  F12  1  0.272647  0.037989  0.418950  1
  F  F13  1  0.727353  0.962011  0.581050  1
  F  F14  1  0.227353  0.962011  0.918950  1
  F  F15  1  0.727353  0.537989  0.581050  1
  F  F16  1  0.772647  0.037989  0.081050  1
  F  F17  1  0.272647  0.462011  0.418950  1
  F  F18  1  0.772647  0.462011  0.081050  1
  F  F19  1  0.227353  0.537989  0.918950  1
  F  F20  1  0.562835  0.250000  0.481815  1
  F  F21  1  0.437165  0.750000  0.518185  1
  F  F22  1  0.937165  0.750000  0.981815  1
  F  F23  1  0.062835  0.250000  0.018185  1
  F  F24  1  0.113001  0.533782  0.161886  1
  F  F25  1  0.886999  0.466218  0.838114  1
  F  F26  1  0.386999  0.466218  0.661886  1
  F  F27  1  0.886999  0.033782  0.838114  1
  F  F28  1  0.613001  0.533782  0.338114  1
  F  F29  1  0.113001  0.966218  0.161886  1
  F  F30  1  0.613001  0.966218  0.338114  1
  F  F31  1  0.386999  0.033782  0.661886  1
  F  F32  1  0.446163  0.250000  0.139685  1
  F  F33  1  0.553837  0.750000  0.860315  1
  F  F34  1  0.053837  0.750000  0.639685  1
  F  F35  1  0.946163  0.250000  0.360315  1
