# generated using pymatgen
data_LaBi5(PtO6)3
_symmetry_space_group_name_H-M   'P 1'
_cell_length_a   9.29104865
_cell_length_b   9.27802257
_cell_length_c   5.26600831
_cell_angle_alpha   90.00006447
_cell_angle_beta   90.21582159
_cell_angle_gamma   119.95427290
_symmetry_Int_Tables_number   1
_chemical_formula_structural   LaBi5(PtO6)3
_chemical_formula_sum   'La1 Bi5 Pt3 O18'
_cell_volume   393.30380975
_cell_formula_units_Z   1
loop_
 _symmetry_equiv_pos_site_id
 _symmetry_equiv_pos_as_xyz
  1  'x, y, z'
loop_
 _atom_site_type_symbol
 _atom_site_label
 _atom_site_symmetry_multiplicity
 _atom_site_fract_x
 _atom_site_fract_y
 _atom_site_fract_z
 _atom_site_occupancy
  La  La0  1  0.000007  0.378810  0.499992  1
  Bi  Bi1  1  0.293911  0.293536  0.998248  1
  Bi  Bi2  1  0.999988  0.707991  0.999994  1
  Bi  Bi3  1  0.626950  0.627706  0.502159  1
  Bi  Bi4  1  0.373052  0.000768  0.497820  1
  Bi  Bi5  1  0.706096  0.999648  0.001737  1
  Pt  Pt6  1  0.999992  0.998457  0.500022  1
  Pt  Pt7  1  0.335239  0.668199  0.000972  1
  Pt  Pt8  1  0.664755  0.332951  0.999063  1
  O  O9  1  0.091060  0.202841  0.719961  1
  O  O10  1  0.226278  0.456781  0.205998  1
  O  O11  1  0.130364  0.594893  0.793865  1
  O  O12  1  0.407102  0.537991  0.783889  1
  O  O13  1  0.233032  0.774555  0.217131  1
  O  O14  1  0.117642  0.911885  0.714857  1
  O  O15  1  0.544185  0.766216  0.211295  1
  O  O16  1  0.204802  0.087643  0.282163  1
  O  O17  1  0.463208  0.872000  0.789876  1
  O  O18  1  0.795194  0.882835  0.717864  1
  O  O19  1  0.455870  0.222044  0.788723  1
  O  O20  1  0.592908  0.130934  0.216070  1
  O  O21  1  0.536824  0.408780  0.210086  1
  O  O22  1  0.773723  0.230553  0.794017  1
  O  O23  1  0.908931  0.111770  0.280053  1
  O  O24  1  0.766921  0.541477  0.782885  1
  O  O25  1  0.869601  0.464495  0.206089  1
  O  O26  1  0.882364  0.794240  0.285174  1
