# generated using pymatgen
data_Tb4Y2Al23VOs8
_symmetry_space_group_name_H-M   'P 1'
_cell_length_a   8.84772007
_cell_length_b   8.84772054
_cell_length_c   9.55045204
_cell_angle_alpha   90.00875141
_cell_angle_beta   89.99124917
_cell_angle_gamma   119.98836567
_symmetry_Int_Tables_number   1
_chemical_formula_structural   Tb4Y2Al23VOs8
_chemical_formula_sum   'Tb4 Y2 Al23 V1 Os8'
_cell_volume   647.54242270
_cell_formula_units_Z   1
loop_
 _symmetry_equiv_pos_site_id
 _symmetry_equiv_pos_as_xyz
  1  'x, y, z'
loop_
 _atom_site_type_symbol
 _atom_site_label
 _atom_site_symmetry_multiplicity
 _atom_site_fract_x
 _atom_site_fract_y
 _atom_site_fract_z
 _atom_site_occupancy
  Tb  Tb0  1  0.194997  0.390053  0.247003  1
  Tb  Tb1  1  0.807592  0.615096  0.750528  1
  Tb  Tb2  1  0.609947  0.805003  0.247003  1
  Tb  Tb3  1  0.384904  0.192408  0.750528  1
  Y  Y4  1  0.195126  0.804874  0.247069  1
  Y  Y5  1  0.807404  0.192596  0.750586  1
  Al  Al6  1  0.666773  0.333227  0.978047  1
  Al  Al7  1  0.666740  0.333260  0.518906  1
  Al  Al8  1  0.333281  0.666719  0.483697  1
  Al  Al9  1  0.162237  0.324496  0.575328  1
  Al  Al10  1  0.837016  0.674013  0.425333  1
  Al  Al11  1  0.675504  0.837763  0.575328  1
  Al  Al12  1  0.835567  0.671103  0.075965  1
  Al  Al13  1  0.325987  0.162984  0.425333  1
  Al  Al14  1  0.160558  0.321154  0.925982  1
  Al  Al15  1  0.162249  0.837751  0.575362  1
  Al  Al16  1  0.328897  0.164433  0.075965  1
  Al  Al17  1  0.836990  0.163010  0.425359  1
  Al  Al18  1  0.678846  0.839442  0.925982  1
  Al  Al19  1  0.835519  0.164481  0.075952  1
  Al  Al20  1  0.160586  0.839414  0.925965  1
  Al  Al21  1  0.562048  0.124127  0.252983  1
  Al  Al22  1  0.441508  0.882993  0.750883  1
  Al  Al23  1  0.875873  0.437952  0.252983  1
  Al  Al24  1  0.117007  0.558492  0.750883  1
  Al  Al25  1  0.562107  0.437893  0.253009  1
  Al  Al26  1  0.441429  0.558571  0.750862  1
  Al  Al27  1  0.999995  0.000005  0.250344  1
  Al  Al28  1  0.000019  0.999981  0.749526  1
  V  V29  1  0.333432  0.666568  0.982538  1
  Os  Os30  1  0.495234  0.990540  0.005027  1
  Os  Os31  1  0.009460  0.504766  0.005027  1
  Os  Os32  1  0.499289  0.998600  0.503141  1
  Os  Os33  1  0.495204  0.504796  0.005120  1
  Os  Os34  1  0.001400  0.500711  0.503141  1
  Os  Os35  1  0.499293  0.500707  0.503141  1
  Os  Os36  1  0.999989  0.000011  0.000969  1
  Os  Os37  1  0.999997  0.000003  0.499199  1
