# generated using pymatgen
data_NdEr3Re16Si7P
_symmetry_space_group_name_H-M   'P 1'
_cell_length_a   4.12537400
_cell_length_b   7.28779748
_cell_length_c   15.38877401
_cell_angle_alpha   90.22996861
_cell_angle_beta   90.00000000
_cell_angle_gamma   90.00000000
_symmetry_Int_Tables_number   1
_chemical_formula_structural   NdEr3Re16Si7P
_chemical_formula_sum   'Nd1 Er3 Re16 Si7 P1'
_cell_volume   462.65807474
_cell_formula_units_Z   1
loop_
 _symmetry_equiv_pos_site_id
 _symmetry_equiv_pos_as_xyz
  1  'x, y, z'
loop_
 _atom_site_type_symbol
 _atom_site_label
 _atom_site_symmetry_multiplicity
 _atom_site_fract_x
 _atom_site_fract_y
 _atom_site_fract_z
 _atom_site_occupancy
  Nd  Nd0  1  0.500000  0.921654  0.617824  1
  Er  Er1  1  0.000000  0.578229  0.119280  1
  Er  Er2  1  0.000000  0.418907  0.882980  1
  Er  Er3  1  0.500000  0.081298  0.379989  1
  Re  Re4  1  0.000000  0.141414  0.051470  1
  Re  Re5  1  0.000000  0.855036  0.949895  1
  Re  Re6  1  0.500000  0.650983  0.447183  1
  Re  Re7  1  0.500000  0.364744  0.547972  1
  Re  Re8  1  0.000000  0.740394  0.324598  1
  Re  Re9  1  0.000000  0.269349  0.678936  1
  Re  Re10  1  0.500000  0.235696  0.177103  1
  Re  Re11  1  0.500000  0.762356  0.823566  1
  Re  Re12  1  0.000000  0.426801  0.414907  1
  Re  Re13  1  0.000000  0.574708  0.577736  1
  Re  Re14  1  0.500000  0.927087  0.082819  1
  Re  Re15  1  0.500000  0.068233  0.919245  1
  Re  Re16  1  0.000000  0.984868  0.205633  1
  Re  Re17  1  0.000000  0.010416  0.795222  1
  Re  Re18  1  0.500000  0.485996  0.294577  1
  Re  Re19  1  0.500000  0.506355  0.706742  1
  Si  Si20  1  0.000000  0.173325  0.522228  1
  Si  Si21  1  0.500000  0.335567  0.022861  1
  Si  Si22  1  0.500000  0.661457  0.978285  1
  Si  Si23  1  0.000000  0.286142  0.271524  1
  Si  Si24  1  0.000000  0.703859  0.727679  1
  Si  Si25  1  0.500000  0.787257  0.227720  1
  Si  Si26  1  0.500000  0.210511  0.776376  1
  P  P27  1  0.000000  0.837359  0.475648  1
