# generated using pymatgen
data_Dy15Y3Ho2(CoBi2)4
_symmetry_space_group_name_H-M   'P 1'
_cell_length_a   8.01875937
_cell_length_b   8.87751587
_cell_length_c   12.42054304
_cell_angle_alpha   90.01997369
_cell_angle_beta   89.98736678
_cell_angle_gamma   89.98307974
_symmetry_Int_Tables_number   1
_chemical_formula_structural   Dy15Y3Ho2(CoBi2)4
_chemical_formula_sum   'Dy15 Y3 Ho2 Co4 Bi8'
_cell_volume   884.17690507
_cell_formula_units_Z   1
loop_
 _symmetry_equiv_pos_site_id
 _symmetry_equiv_pos_as_xyz
  1  'x, y, z'
loop_
 _atom_site_type_symbol
 _atom_site_label
 _atom_site_symmetry_multiplicity
 _atom_site_fract_x
 _atom_site_fract_y
 _atom_site_fract_z
 _atom_site_occupancy
  Dy  Dy0  1  0.153049  0.750165  0.199525  1
  Dy  Dy1  1  0.884631  0.750387  0.810652  1
  Dy  Dy2  1  0.115483  0.249624  0.189504  1
  Dy  Dy3  1  0.384477  0.250089  0.689839  1
  Dy  Dy4  1  0.615372  0.749911  0.310219  1
  Dy  Dy5  1  0.676270  0.537545  0.562899  1
  Dy  Dy6  1  0.323813  0.462499  0.437075  1
  Dy  Dy7  1  0.176168  0.462463  0.937082  1
  Dy  Dy8  1  0.323856  0.037507  0.437036  1
  Dy  Dy9  1  0.823914  0.537532  0.062988  1
  Dy  Dy10  1  0.676225  0.962454  0.562936  1
  Dy  Dy11  1  0.051407  0.750033  0.497906  1
  Dy  Dy12  1  0.948612  0.249970  0.501914  1
  Dy  Dy13  1  0.551607  0.249700  0.002064  1
  Dy  Dy14  1  0.448218  0.750299  0.998083  1
  Y  Y15  1  0.346471  0.750013  0.700574  1
  Y  Y16  1  0.653569  0.249994  0.299381  1
  Y  Y17  1  0.846624  0.249825  0.799574  1
  Ho  Ho18  1  0.824925  0.962334  0.062972  1
  Ho  Ho19  1  0.175179  0.037650  0.937130  1
  Co  Co20  1  0.065283  0.750479  0.991722  1
  Co  Co21  1  0.934941  0.249522  0.008940  1
  Co  Co22  1  0.565231  0.250002  0.509145  1
  Co  Co23  1  0.434672  0.750002  0.490920  1
  Bi  Bi24  1  0.572466  0.509575  0.826623  1
  Bi  Bi25  1  0.427515  0.490525  0.173425  1
  Bi  Bi26  1  0.072298  0.490592  0.673520  1
  Bi  Bi27  1  0.428125  0.009353  0.173405  1
  Bi  Bi28  1  0.927724  0.509508  0.326390  1
  Bi  Bi29  1  0.571846  0.990549  0.826641  1
  Bi  Bi30  1  0.927533  0.990426  0.326355  1
  Bi  Bi31  1  0.072493  0.009477  0.673559  1
