# generated using pymatgen
data_Tb2NdSiPd5
_symmetry_space_group_name_H-M   'P 1'
_cell_length_a   8.31214329
_cell_length_b   8.31214335
_cell_length_c   8.31214215
_cell_angle_alpha   127.51168658
_cell_angle_beta   126.18137519
_cell_angle_gamma   78.50592638
_symmetry_Int_Tables_number   1
_chemical_formula_structural   Tb2NdSiPd5
_chemical_formula_sum   'Tb4 Nd2 Si2 Pd10'
_cell_volume   356.00237474
_cell_formula_units_Z   2
loop_
 _symmetry_equiv_pos_site_id
 _symmetry_equiv_pos_as_xyz
  1  'x, y, z'
loop_
 _atom_site_type_symbol
 _atom_site_label
 _atom_site_symmetry_multiplicity
 _atom_site_fract_x
 _atom_site_fract_y
 _atom_site_fract_z
 _atom_site_occupancy
  Tb  Tb0  1  0.223296  0.450057  0.773238  1
  Tb  Tb1  1  0.776704  0.549943  0.226762  1
  Tb  Tb2  1  0.823181  0.049943  0.773238  1
  Tb  Tb3  1  0.176819  0.950057  0.226762  1
  Nd  Nd4  1  0.384361  0.250000  0.134361  1
  Nd  Nd5  1  0.615639  0.750000  0.865639  1
  Si  Si6  1  0.783523  0.250000  0.533523  1
  Si  Si7  1  0.216477  0.750000  0.466477  1
  Pd  Pd8  1  0.163778  0.401884  0.357778  1
  Pd  Pd9  1  0.836222  0.194001  0.238107  1
  Pd  Pd10  1  0.455894  0.098116  0.761893  1
  Pd  Pd11  1  0.544106  0.305999  0.642222  1
  Pd  Pd12  1  0.000000  0.500000  0.000000  1
  Pd  Pd13  1  0.000000  0.000000  0.500000  1
  Pd  Pd14  1  0.455894  0.694001  0.357778  1
  Pd  Pd15  1  0.544106  0.901884  0.238107  1
  Pd  Pd16  1  0.163778  0.805999  0.761893  1
  Pd  Pd17  1  0.836222  0.598116  0.642222  1
