# generated using pymatgen
data_TiMn3Be2(B2Ir5)2
_symmetry_space_group_name_H-M   'P 1'
_cell_length_a   9.20112251
_cell_length_b   9.20112251
_cell_length_c   2.89247500
_cell_angle_alpha   90.00000000
_cell_angle_beta   90.00000000
_cell_angle_gamma   89.34674236
_symmetry_Int_Tables_number   1
_chemical_formula_structural   TiMn3Be2(B2Ir5)2
_chemical_formula_sum   'Ti1 Mn3 Be2 B4 Ir10'
_cell_volume   244.86291318
_cell_formula_units_Z   1
loop_
 _symmetry_equiv_pos_site_id
 _symmetry_equiv_pos_as_xyz
  1  'x, y, z'
loop_
 _atom_site_type_symbol
 _atom_site_label
 _atom_site_symmetry_multiplicity
 _atom_site_fract_x
 _atom_site_fract_y
 _atom_site_fract_z
 _atom_site_occupancy
  Ti  Ti0  1  0.675522  0.175522  0.000000  1
  Mn  Mn1  1  0.321449  0.821449  0.000000  1
  Mn  Mn2  1  0.177762  0.323728  0.000000  1
  Mn  Mn3  1  0.823728  0.677762  0.000000  1
  Be  Be4  1  0.998807  0.000901  0.000000  1
  Be  Be5  1  0.500901  0.498807  0.000000  1
  B  B6  1  0.131870  0.631870  0.000000  1
  B  B7  1  0.872647  0.372647  0.000000  1
  B  B8  1  0.631103  0.867355  0.000000  1
  B  B9  1  0.367355  0.131103  0.000000  1
  Ir  Ir10  1  0.203950  0.068940  0.500000  1
  Ir  Ir11  1  0.793250  0.935247  0.500000  1
  Ir  Ir12  1  0.066674  0.795934  0.500000  1
  Ir  Ir13  1  0.706349  0.428525  0.500000  1
  Ir  Ir14  1  0.928525  0.206349  0.500000  1
  Ir  Ir15  1  0.295934  0.566674  0.500000  1
  Ir  Ir16  1  0.568940  0.703950  0.500000  1
  Ir  Ir17  1  0.435247  0.293250  0.500000  1
  Ir  Ir18  1  0.499284  0.999284  0.500000  1
  Ir  Ir19  1  0.000704  0.500704  0.500000  1
