# generated using pymatgen
data_TbThSi2(Os2C)2
_symmetry_space_group_name_H-M   'P 1'
_cell_length_a   3.94069300
_cell_length_b   5.93926303
_cell_length_c   7.15392200
_cell_angle_alpha   90.00000000
_cell_angle_beta   90.00000000
_cell_angle_gamma   70.62500807
_symmetry_Int_Tables_number   1
_chemical_formula_structural   TbThSi2(Os2C)2
_chemical_formula_sum   'Tb1 Th1 Si2 Os4 C2'
_cell_volume   157.95387857
_cell_formula_units_Z   1
loop_
 _symmetry_equiv_pos_site_id
 _symmetry_equiv_pos_as_xyz
  1  'x, y, z'
loop_
 _atom_site_type_symbol
 _atom_site_label
 _atom_site_symmetry_multiplicity
 _atom_site_fract_x
 _atom_site_fract_y
 _atom_site_fract_z
 _atom_site_occupancy
  Tb  Tb0  1  0.949288  0.101423  0.250001  1
  Th  Th1  1  0.052004  0.895996  0.750000  1
  Si  Si2  1  0.230470  0.539062  0.250001  1
  Si  Si3  1  0.772342  0.455315  0.750000  1
  Os  Os4  1  0.664754  0.670492  0.058765  1
  Os  Os5  1  0.664754  0.670492  0.441235  1
  Os  Os6  1  0.334499  0.331006  0.555442  1
  Os  Os7  1  0.334499  0.331006  0.944559  1
  C  C8  1  0.498699  0.002604  0.006220  1
  C  C9  1  0.498699  0.002604  0.493780  1
