# generated using pymatgen
data_Yb2YEr(B4Ru)4
_symmetry_space_group_name_H-M   'P 1'
_cell_length_a   3.54237000
_cell_length_b   5.95116926
_cell_length_c   11.50769011
_cell_angle_alpha   89.97061430
_cell_angle_beta   90.00000000
_cell_angle_gamma   90.00000000
_symmetry_Int_Tables_number   1
_chemical_formula_structural   Yb2YEr(B4Ru)4
_chemical_formula_sum   'Yb2 Y1 Er1 B16 Ru4'
_cell_volume   242.59638493
_cell_formula_units_Z   1
loop_
 _symmetry_equiv_pos_site_id
 _symmetry_equiv_pos_as_xyz
  1  'x, y, z'
loop_
 _atom_site_type_symbol
 _atom_site_label
 _atom_site_symmetry_multiplicity
 _atom_site_fract_x
 _atom_site_fract_y
 _atom_site_fract_z
 _atom_site_occupancy
  Yb  Yb0  1  0.000000  0.370389  0.649855  1
  Yb  Yb1  1  0.000000  0.129822  0.149731  1
  Y  Y2  1  0.000000  0.629116  0.349643  1
  Er  Er3  1  0.000000  0.871206  0.849676  1
  B  B4  1  0.500000  0.788255  0.184932  1
  B  B5  1  0.500000  0.211201  0.814869  1
  B  B6  1  0.500000  0.287560  0.314891  1
  B  B7  1  0.500000  0.711735  0.685673  1
  B  B8  1  0.500000  0.864591  0.030544  1
  B  B9  1  0.500000  0.135557  0.969337  1
  B  B10  1  0.500000  0.363960  0.469936  1
  B  B11  1  0.500000  0.635719  0.531453  1
  B  B12  1  0.500000  0.889116  0.453854  1
  B  B13  1  0.500000  0.113773  0.547815  1
  B  B14  1  0.500000  0.386306  0.047036  1
  B  B15  1  0.500000  0.611738  0.953010  1
  B  B16  1  0.500000  0.976011  0.308097  1
  B  B17  1  0.500000  0.023119  0.692247  1
  B  B18  1  0.500000  0.476267  0.191279  1
  B  B19  1  0.500000  0.524493  0.807861  1
  Ru  Ru20  1  0.000000  0.638508  0.089366  1
  Ru  Ru21  1  0.000000  0.361505  0.908828  1
  Ru  Ru22  1  0.000000  0.138115  0.409386  1
  Ru  Ru23  1  0.000000  0.861940  0.590684  1
