# generated using pymatgen
data_TbDy(H2Cl)2
_symmetry_space_group_name_H-M   'P 1'
_cell_length_a   11.09592494
_cell_length_b   11.09592495
_cell_length_c   11.09592395
_cell_angle_alpha   19.36831875
_cell_angle_beta   19.36831842
_cell_angle_gamma   19.36832053
_symmetry_Int_Tables_number   1
_chemical_formula_structural   TbDy(H2Cl)2
_chemical_formula_sum   'Tb1 Dy1 H4 Cl2'
_cell_volume   131.36171309
_cell_formula_units_Z   1
loop_
 _symmetry_equiv_pos_site_id
 _symmetry_equiv_pos_as_xyz
  1  'x, y, z'
loop_
 _atom_site_type_symbol
 _atom_site_label
 _atom_site_symmetry_multiplicity
 _atom_site_fract_x
 _atom_site_fract_y
 _atom_site_fract_z
 _atom_site_occupancy
  Tb  Tb0  1  0.116976  0.116976  0.116976  1
  Dy  Dy1  1  0.882920  0.882920  0.882920  1
  H  H2  1  0.815061  0.815061  0.815061  1
  H  H3  1  0.185175  0.185175  0.185175  1
  H  H4  1  0.542426  0.542426  0.542426  1
  H  H5  1  0.457860  0.457860  0.457860  1
  Cl  Cl6  1  0.729278  0.729278  0.729278  1
  Cl  Cl7  1  0.270305  0.270305  0.270305  1
