# generated using pymatgen
data_Sc7V(TeO5)4
_symmetry_space_group_name_H-M   'P 1'
_cell_length_a   5.21785282
_cell_length_b   8.01326500
_cell_length_c   11.36763363
_cell_angle_alpha   76.74204506
_cell_angle_beta   89.73810351
_cell_angle_gamma   89.90564981
_symmetry_Int_Tables_number   1
_chemical_formula_structural   Sc7V(TeO5)4
_chemical_formula_sum   'Sc7 V1 Te4 O20'
_cell_volume   462.63092914
_cell_formula_units_Z   1
loop_
 _symmetry_equiv_pos_site_id
 _symmetry_equiv_pos_as_xyz
  1  'x, y, z'
loop_
 _atom_site_type_symbol
 _atom_site_label
 _atom_site_symmetry_multiplicity
 _atom_site_fract_x
 _atom_site_fract_y
 _atom_site_fract_z
 _atom_site_occupancy
  Sc  Sc0  1  0.034251  0.185025  0.907887  1
  Sc  Sc1  1  0.961827  0.814563  0.095309  1
  Sc  Sc2  1  0.538633  0.813704  0.589579  1
  Sc  Sc3  1  0.435699  0.035736  0.134051  1
  Sc  Sc4  1  0.560879  0.963611  0.867540  1
  Sc  Sc5  1  0.062644  0.033288  0.632240  1
  Sc  Sc6  1  0.464701  0.185266  0.407057  1
  V  V7  1  0.942058  0.975177  0.366370  1
  Te  Te8  1  0.038650  0.643110  0.832633  1
  Te  Te9  1  0.958198  0.356049  0.167599  1
  Te  Te10  1  0.541300  0.355375  0.667306  1
  Te  Te11  1  0.465313  0.645544  0.334867  1
  O  O12  1  0.864030  0.098525  0.770303  1
  O  O13  1  0.708416  0.741307  0.430658  1
  O  O14  1  0.246092  0.952929  0.483127  1
  O  O15  1  0.199125  0.263150  0.067019  1
  O  O16  1  0.870858  0.430137  0.841664  1
  O  O17  1  0.374168  0.569269  0.656718  1
  O  O18  1  0.747968  0.045668  0.015414  1
  O  O19  1  0.123027  0.568955  0.160139  1
  O  O20  1  0.127105  0.904411  0.233107  1
  O  O21  1  0.602897  0.770144  0.185635  1
  O  O22  1  0.248889  0.954344  0.987014  1
  O  O23  1  0.801783  0.737833  0.933638  1
  O  O24  1  0.887883  0.770140  0.687762  1
  O  O25  1  0.112194  0.227015  0.311907  1
  O  O26  1  0.627859  0.430374  0.340786  1
  O  O27  1  0.366077  0.900693  0.728256  1
  O  O28  1  0.304437  0.259960  0.567289  1
  O  O29  1  0.752832  0.045389  0.511967  1
  O  O30  1  0.388451  0.229412  0.812601  1
  O  O31  1  0.641755  0.093897  0.272556  1
