# generated using pymatgen
data_Hf8Zr6CuPd19
_symmetry_space_group_name_H-M   'P 1'
_cell_length_a   8.14378673
_cell_length_b   8.14326849
_cell_length_c   9.65192556
_cell_angle_alpha   90.27072377
_cell_angle_beta   90.28625131
_cell_angle_gamma   107.04963399
_symmetry_Int_Tables_number   1
_chemical_formula_structural   Hf8Zr6CuPd19
_chemical_formula_sum   'Hf8 Zr6 Cu1 Pd19'
_cell_volume   611.93557611
_cell_formula_units_Z   1
loop_
 _symmetry_equiv_pos_site_id
 _symmetry_equiv_pos_as_xyz
  1  'x, y, z'
loop_
 _atom_site_type_symbol
 _atom_site_label
 _atom_site_symmetry_multiplicity
 _atom_site_fract_x
 _atom_site_fract_y
 _atom_site_fract_z
 _atom_site_occupancy
  Hf  Hf0  1  0.690240  0.308761  0.499645  1
  Hf  Hf1  1  0.194582  0.810228  0.998516  1
  Hf  Hf2  1  0.504639  0.002226  0.749985  1
  Hf  Hf3  1  0.997839  0.494852  0.250431  1
  Hf  Hf4  1  0.002055  0.504913  0.749420  1
  Hf  Hf5  1  0.494655  0.997809  0.250889  1
  Hf  Hf6  1  0.999059  0.998651  0.500413  1
  Hf  Hf7  1  0.498455  0.497858  0.002165  1
  Zr  Zr8  1  0.815610  0.815169  0.811764  1
  Zr  Zr9  1  0.187572  0.187084  0.186265  1
  Zr  Zr10  1  0.311935  0.311580  0.688526  1
  Zr  Zr11  1  0.686503  0.686188  0.312013  1
  Zr  Zr12  1  0.308663  0.690081  0.499446  1
  Zr  Zr13  1  0.810345  0.194481  0.998695  1
  Cu  Cu14  1  0.896945  0.896979  0.102941  1
  Pd  Pd15  1  0.359963  0.652017  0.794713  1
  Pd  Pd16  1  0.347471  0.644960  0.206782  1
  Pd  Pd17  1  0.859956  0.153359  0.706364  1
  Pd  Pd18  1  0.848588  0.131510  0.288473  1
  Pd  Pd19  1  0.152195  0.859711  0.707569  1
  Pd  Pd20  1  0.131302  0.849455  0.286570  1
  Pd  Pd21  1  0.650601  0.359592  0.793346  1
  Pd  Pd22  1  0.645216  0.348719  0.208472  1
  Pd  Pd23  1  0.645600  0.939187  0.503360  1
  Pd  Pd24  1  0.060482  0.351552  0.494847  1
  Pd  Pd25  1  0.144691  0.440480  0.994455  1
  Pd  Pd26  1  0.571796  0.853432  0.008968  1
  Pd  Pd27  1  0.937333  0.644405  0.502286  1
  Pd  Pd28  1  0.352826  0.062349  0.495777  1
  Pd  Pd29  1  0.438892  0.143398  0.995630  1
  Pd  Pd30  1  0.854948  0.573818  0.008412  1
  Pd  Pd31  1  0.605130  0.603935  0.603396  1
  Pd  Pd32  1  0.396322  0.395164  0.394854  1
  Pd  Pd33  1  0.097592  0.096096  0.904616  1
