# generated using pymatgen
data_TbCo4As3Rh
_symmetry_space_group_name_H-M   'P 1'
_cell_length_a   3.82891900
_cell_length_b   10.84306200
_cell_length_c   12.28410000
_cell_angle_alpha   90.00000000
_cell_angle_beta   90.00000000
_cell_angle_gamma   90.00000000
_symmetry_Int_Tables_number   1
_chemical_formula_structural   TbCo4As3Rh
_chemical_formula_sum   'Tb4 Co16 As12 Rh4'
_cell_volume   510.00151158
_cell_formula_units_Z   4
loop_
 _symmetry_equiv_pos_site_id
 _symmetry_equiv_pos_as_xyz
  1  'x, y, z'
loop_
 _atom_site_type_symbol
 _atom_site_label
 _atom_site_symmetry_multiplicity
 _atom_site_fract_x
 _atom_site_fract_y
 _atom_site_fract_z
 _atom_site_occupancy
  Tb  Tb0  1  0.250000  0.583626  0.703048  1
  Tb  Tb1  1  0.250000  0.916374  0.203048  1
  Tb  Tb2  1  0.750000  0.416374  0.296952  1
  Tb  Tb3  1  0.750000  0.083626  0.796952  1
  Co  Co4  1  0.250000  0.407297  0.488248  1
  Co  Co5  1  0.250000  0.092703  0.988248  1
  Co  Co6  1  0.750000  0.592703  0.511752  1
  Co  Co7  1  0.750000  0.907297  0.011752  1
  Co  Co8  1  0.250000  0.216997  0.174845  1
  Co  Co9  1  0.250000  0.283003  0.674845  1
  Co  Co10  1  0.750000  0.783003  0.825155  1
  Co  Co11  1  0.750000  0.716997  0.325155  1
  Co  Co12  1  0.250000  0.884775  0.699965  1
  Co  Co13  1  0.250000  0.615225  0.199965  1
  Co  Co14  1  0.750000  0.115225  0.300035  1
  Co  Co15  1  0.750000  0.384775  0.800035  1
  Co  Co16  1  0.250000  0.466195  0.930213  1
  Co  Co17  1  0.250000  0.033805  0.430213  1
  Co  Co18  1  0.750000  0.533805  0.069787  1
  Co  Co19  1  0.750000  0.966195  0.569787  1
  As  As20  1  0.250000  0.418856  0.113771  1
  As  As21  1  0.250000  0.081144  0.613771  1
  As  As22  1  0.750000  0.581144  0.886229  1
  As  As23  1  0.750000  0.918856  0.386229  1
  As  As24  1  0.250000  0.269709  0.865609  1
  As  As25  1  0.250000  0.230291  0.365609  1
  As  As26  1  0.750000  0.730291  0.134391  1
  As  As27  1  0.750000  0.769709  0.634391  1
  As  As28  1  0.250000  0.594892  0.389090  1
  As  As29  1  0.250000  0.905108  0.889090  1
  As  As30  1  0.750000  0.405108  0.610910  1
  As  As31  1  0.750000  0.094892  0.110910  1
  Rh  Rh32  1  0.250000  0.713848  0.991928  1
  Rh  Rh33  1  0.250000  0.786152  0.491928  1
  Rh  Rh34  1  0.750000  0.286152  0.008072  1
  Rh  Rh35  1  0.750000  0.213848  0.508072  1
