# generated using pymatgen
data_Cs2La10Si2Br17
_symmetry_space_group_name_H-M   'P 1'
_cell_length_a   9.71192355
_cell_length_b   11.29407336
_cell_length_c   11.29406946
_cell_angle_alpha   106.96250746
_cell_angle_beta   93.94027415
_cell_angle_gamma   93.94012191
_symmetry_Int_Tables_number   1
_chemical_formula_structural   Cs2La10Si2Br17
_chemical_formula_sum   'Cs2 La10 Si2 Br17'
_cell_volume   1176.99491122
_cell_formula_units_Z   1
loop_
 _symmetry_equiv_pos_site_id
 _symmetry_equiv_pos_as_xyz
  1  'x, y, z'
loop_
 _atom_site_type_symbol
 _atom_site_label
 _atom_site_symmetry_multiplicity
 _atom_site_fract_x
 _atom_site_fract_y
 _atom_site_fract_z
 _atom_site_occupancy
  Cs  Cs0  1  0.000002  0.822428  0.177577  1
  Cs  Cs1  1  0.000004  0.177573  0.822419  1
  La  La2  1  0.434864  0.158317  0.158312  1
  La  La3  1  0.573094  0.515555  0.199023  1
  La  La4  1  0.840218  0.289490  0.289495  1
  La  La5  1  0.300646  0.433570  0.433577  1
  La  La6  1  0.426889  0.800990  0.484460  1
  La  La7  1  0.573105  0.199013  0.515561  1
  La  La8  1  0.699364  0.566426  0.566433  1
  La  La9  1  0.159794  0.710505  0.710509  1
  La  La10  1  0.426879  0.484446  0.800980  1
  La  La11  1  0.565124  0.841679  0.841680  1
  Si  Si12  1  0.572878  0.357604  0.357600  1
  Si  Si13  1  0.427124  0.642394  0.642396  1
  Br  Br14  1  0.579548  0.689305  0.022624  1
  Br  Br15  1  0.715712  0.067225  0.067231  1
  Br  Br16  1  0.856701  0.449598  0.118075  1
  Br  Br17  1  0.135537  0.206752  0.206751  1
  Br  Br18  1  0.283248  0.602523  0.256477  1
  Br  Br19  1  0.420455  0.977376  0.310700  1
  Br  Br20  1  0.716751  0.743526  0.397471  1
  Br  Br21  1  0.856699  0.118086  0.449597  1
  Br  Br22  1  0.000000  0.499999  0.499998  1
  Br  Br23  1  0.143304  0.881914  0.550402  1
  Br  Br24  1  0.283253  0.256475  0.602527  1
  Br  Br25  1  0.579547  0.022626  0.689300  1
  Br  Br26  1  0.716754  0.397479  0.743522  1
  Br  Br27  1  0.864465  0.793250  0.793250  1
  Br  Br28  1  0.143301  0.550405  0.881921  1
  Br  Br29  1  0.284290  0.932776  0.932762  1
  Br  Br30  1  0.420454  0.310697  0.977371  1
