# generated using pymatgen
data_Dy5TmAl24Os7Pt
_symmetry_space_group_name_H-M   'P 1'
_cell_length_a   8.83388612
_cell_length_b   8.83388476
_cell_length_c   9.55094158
_cell_angle_alpha   89.61250670
_cell_angle_beta   90.38750249
_cell_angle_gamma   119.92708386
_symmetry_Int_Tables_number   1
_chemical_formula_structural   Dy5TmAl24Os7Pt
_chemical_formula_sum   'Dy5 Tm1 Al24 Os7 Pt1'
_cell_volume   645.93039718
_cell_formula_units_Z   1
loop_
 _symmetry_equiv_pos_site_id
 _symmetry_equiv_pos_as_xyz
  1  'x, y, z'
loop_
 _atom_site_type_symbol
 _atom_site_label
 _atom_site_symmetry_multiplicity
 _atom_site_fract_x
 _atom_site_fract_y
 _atom_site_fract_z
 _atom_site_occupancy
  Dy  Dy0  1  0.190591  0.386995  0.251499  1
  Dy  Dy1  1  0.809458  0.613033  0.748470  1
  Dy  Dy2  1  0.613005  0.809409  0.251499  1
  Dy  Dy3  1  0.386967  0.190542  0.748470  1
  Dy  Dy4  1  0.194973  0.805027  0.251682  1
  Tm  Tm5  1  0.804068  0.195932  0.748187  1
  Al  Al6  1  0.331723  0.668277  0.020595  1
  Al  Al7  1  0.668509  0.331491  0.978758  1
  Al  Al8  1  0.666598  0.333402  0.517394  1
  Al  Al9  1  0.333662  0.666338  0.483205  1
  Al  Al10  1  0.163367  0.325320  0.577673  1
  Al  Al11  1  0.836187  0.674261  0.422853  1
  Al  Al12  1  0.674680  0.836633  0.577673  1
  Al  Al13  1  0.841836  0.675203  0.077135  1
  Al  Al14  1  0.325739  0.163813  0.422853  1
  Al  Al15  1  0.157578  0.324382  0.922342  1
  Al  Al16  1  0.163533  0.836467  0.575698  1
  Al  Al17  1  0.324797  0.158164  0.077135  1
  Al  Al18  1  0.836551  0.163449  0.425277  1
  Al  Al19  1  0.675618  0.842422  0.922342  1
  Al  Al20  1  0.836799  0.163201  0.074505  1
  Al  Al21  1  0.163257  0.836743  0.924443  1
  Al  Al22  1  0.560629  0.122447  0.248929  1
  Al  Al23  1  0.440363  0.878177  0.751034  1
  Al  Al24  1  0.877553  0.439371  0.248929  1
  Al  Al25  1  0.121823  0.559637  0.751034  1
  Al  Al26  1  0.561723  0.438277  0.251881  1
  Al  Al27  1  0.438257  0.561743  0.748244  1
  Al  Al28  1  0.999718  0.000282  0.250105  1
  Al  Al29  1  0.999434  0.000566  0.749926  1
  Os  Os30  1  0.500378  0.000182  0.999691  1
  Os  Os31  1  0.999818  0.499622  0.999691  1
  Os  Os32  1  0.500496  0.000204  0.500353  1
  Os  Os33  1  0.999796  0.499504  0.500353  1
  Os  Os34  1  0.500152  0.499848  0.500122  1
  Os  Os35  1  0.000093  0.999907  0.999963  1
  Os  Os36  1  0.000107  0.999893  0.500070  1
  Pt  Pt37  1  0.500167  0.499833  0.999987  1
