# generated using pymatgen
data_Dy2ErIn3CoAu2
_symmetry_space_group_name_H-M   'P 1'
_cell_length_a   7.75486300
_cell_length_b   7.74154679
_cell_length_c   3.80453400
_cell_angle_alpha   90.00000000
_cell_angle_beta   90.00000000
_cell_angle_gamma   120.05691242
_symmetry_Int_Tables_number   1
_chemical_formula_structural   Dy2ErIn3CoAu2
_chemical_formula_sum   'Dy2 Er1 In3 Co1 Au2'
_cell_volume   197.68996558
_cell_formula_units_Z   1
loop_
 _symmetry_equiv_pos_site_id
 _symmetry_equiv_pos_as_xyz
  1  'x, y, z'
loop_
 _atom_site_type_symbol
 _atom_site_label
 _atom_site_symmetry_multiplicity
 _atom_site_fract_x
 _atom_site_fract_y
 _atom_site_fract_z
 _atom_site_occupancy
  Dy  Dy0  1  0.401046  0.401129  0.500000  1
  Dy  Dy1  1  0.999918  0.598871  0.500000  1
  Er  Er2  1  0.599547  0.000000  0.500000  1
  In  In3  1  0.754603  0.755008  0.000000  1
  In  In4  1  0.999595  0.244992  0.000000  1
  In  In5  1  0.245533  0.000000  0.000000  1
  Co  Co6  1  0.998990  0.000000  0.500000  1
  Au  Au7  1  0.334584  0.668399  0.000000  1
  Au  Au8  1  0.666185  0.331601  0.000000  1
