# generated using pymatgen
data_MoWBr8N
_symmetry_space_group_name_H-M   'P 1'
_cell_length_a   7.21201990
_cell_length_b   7.25535761
_cell_length_c   7.21601746
_cell_angle_alpha   91.56398008
_cell_angle_beta   96.30327276
_cell_angle_gamma   95.67814739
_symmetry_Int_Tables_number   1
_chemical_formula_structural   MoWBr8N
_chemical_formula_sum   'Mo1 W1 Br8 N1'
_cell_volume   373.18169746
_cell_formula_units_Z   1
loop_
 _symmetry_equiv_pos_site_id
 _symmetry_equiv_pos_as_xyz
  1  'x, y, z'
loop_
 _atom_site_type_symbol
 _atom_site_label
 _atom_site_symmetry_multiplicity
 _atom_site_fract_x
 _atom_site_fract_y
 _atom_site_fract_z
 _atom_site_occupancy
  Mo  Mo0  1  0.950259  0.585790  0.227697  1
  W  W1  1  0.048478  0.416083  0.771737  1
  Br  Br2  1  0.655750  0.380479  0.209433  1
  Br  Br3  1  0.892406  0.683592  0.597407  1
  Br  Br4  1  0.261113  0.764004  0.286513  1
  Br  Br5  1  0.793381  0.856478  0.128993  1
  Br  Br6  1  0.205995  0.144635  0.868327  1
  Br  Br7  1  0.345273  0.619042  0.791567  1
  Br  Br8  1  0.108820  0.314598  0.405874  1
  Br  Br9  1  0.738863  0.234831  0.714282  1
  N  N10  1  0.999663  0.500468  0.998172  1
