# generated using pymatgen
data_Tm2GeB2Ru3Rh2
_symmetry_space_group_name_H-M   'P 1'
_cell_length_a   9.55301600
_cell_length_b   9.55301600
_cell_length_c   3.07865700
_cell_angle_alpha   90.00000000
_cell_angle_beta   90.00000000
_cell_angle_gamma   90.00000000
_symmetry_Int_Tables_number   1
_chemical_formula_structural   Tm2GeB2Ru3Rh2
_chemical_formula_sum   'Tm4 Ge2 B4 Ru6 Rh4'
_cell_volume   280.95859093
_cell_formula_units_Z   2
loop_
 _symmetry_equiv_pos_site_id
 _symmetry_equiv_pos_as_xyz
  1  'x, y, z'
loop_
 _atom_site_type_symbol
 _atom_site_label
 _atom_site_symmetry_multiplicity
 _atom_site_fract_x
 _atom_site_fract_y
 _atom_site_fract_z
 _atom_site_occupancy
  Tm  Tm0  1  0.827036  0.323063  0.000000  1
  Tm  Tm1  1  0.323063  0.172964  0.000000  1
  Tm  Tm2  1  0.676937  0.827036  0.000000  1
  Tm  Tm3  1  0.172964  0.676937  0.000000  1
  Ge  Ge4  1  0.000000  0.000000  0.000000  1
  Ge  Ge5  1  0.500000  0.500000  0.000000  1
  B  B6  1  0.625260  0.117185  0.000000  1
  B  B7  1  0.117185  0.374740  0.000000  1
  B  B8  1  0.882815  0.625260  0.000000  1
  B  B9  1  0.374740  0.882815  0.000000  1
  Ru  Ru10  1  0.070019  0.215526  0.500000  1
  Ru  Ru11  1  0.215526  0.929981  0.500000  1
  Ru  Ru12  1  0.784474  0.070019  0.500000  1
  Ru  Ru13  1  0.929981  0.784474  0.500000  1
  Ru  Ru14  1  0.500000  0.000000  0.500000  1
  Ru  Ru15  1  0.000000  0.500000  0.500000  1
  Rh  Rh16  1  0.430781  0.715206  0.500000  1
  Rh  Rh17  1  0.569219  0.284794  0.500000  1
  Rh  Rh18  1  0.715206  0.569219  0.500000  1
  Rh  Rh19  1  0.284794  0.430781  0.500000  1
