# generated using pymatgen
data_Li2PrHoPd2
_symmetry_space_group_name_H-M   'P 1'
_cell_length_a   4.08422900
_cell_length_b   7.24583455
_cell_length_c   8.55863874
_cell_angle_alpha   91.33164705
_cell_angle_beta   90.00000000
_cell_angle_gamma   90.00000000
_symmetry_Int_Tables_number   1
_chemical_formula_structural   Li2PrHoPd2
_chemical_formula_sum   'Li4 Pr2 Ho2 Pd4'
_cell_volume   253.21293404
_cell_formula_units_Z   2
loop_
 _symmetry_equiv_pos_site_id
 _symmetry_equiv_pos_as_xyz
  1  'x, y, z'
loop_
 _atom_site_type_symbol
 _atom_site_label
 _atom_site_symmetry_multiplicity
 _atom_site_fract_x
 _atom_site_fract_y
 _atom_site_fract_z
 _atom_site_occupancy
  Li  Li0  1  0.250000  0.364742  0.555524  1
  Li  Li1  1  0.750000  0.119421  0.056860  1
  Li  Li2  1  0.250000  0.880579  0.943140  1
  Li  Li3  1  0.750000  0.635258  0.444476  1
  Pr  Pr4  1  0.250000  0.455222  0.187438  1
  Pr  Pr5  1  0.750000  0.544778  0.812562  1
  Ho  Ho6  1  0.250000  0.952077  0.322672  1
  Ho  Ho7  1  0.750000  0.047923  0.677328  1
  Pd  Pd8  1  0.750000  0.231858  0.382666  1
  Pd  Pd9  1  0.250000  0.242085  0.871133  1
  Pd  Pd10  1  0.750000  0.757915  0.128867  1
  Pd  Pd11  1  0.250000  0.768142  0.617334  1
