# generated using pymatgen
data_Hf6Ti3NbGa5Te
_symmetry_space_group_name_H-M   'P 1'
_cell_length_a   7.97526951
_cell_length_b   7.96654971
_cell_length_c   5.43200853
_cell_angle_alpha   89.95369455
_cell_angle_beta   90.04082079
_cell_angle_gamma   120.04026110
_symmetry_Int_Tables_number   1
_chemical_formula_structural   Hf6Ti3NbGa5Te
_chemical_formula_sum   'Hf6 Ti3 Nb1 Ga5 Te1'
_cell_volume   298.76533703
_cell_formula_units_Z   1
loop_
 _symmetry_equiv_pos_site_id
 _symmetry_equiv_pos_as_xyz
  1  'x, y, z'
loop_
 _atom_site_type_symbol
 _atom_site_label
 _atom_site_symmetry_multiplicity
 _atom_site_fract_x
 _atom_site_fract_y
 _atom_site_fract_z
 _atom_site_occupancy
  Hf  Hf0  1  0.233606  0.998422  0.248671  1
  Hf  Hf1  1  0.756578  0.998701  0.752072  1
  Hf  Hf2  1  0.012782  0.253668  0.247306  1
  Hf  Hf3  1  0.998353  0.751997  0.751540  1
  Hf  Hf4  1  0.756851  0.746769  0.248169  1
  Hf  Hf5  1  0.245100  0.248955  0.751857  1
  Ti  Ti6  1  0.669614  0.340945  0.995466  1
  Ti  Ti7  1  0.669416  0.340398  0.504336  1
  Ti  Ti8  1  0.328688  0.659152  0.503331  1
  Nb  Nb9  1  0.329872  0.660817  0.996495  1
  Ga  Ga10  1  0.394569  0.001881  0.748876  1
  Ga  Ga11  1  0.000393  0.599793  0.251751  1
  Ga  Ga12  1  0.996431  0.396437  0.747813  1
  Ga  Ga13  1  0.402750  0.397738  0.252098  1
  Ga  Ga14  1  0.602133  0.601387  0.747734  1
  Te  Te15  1  0.602867  0.002940  0.252485  1
