# generated using pymatgen
data_Nd2Sm2SiI5
_symmetry_space_group_name_H-M   'P 1'
_cell_length_a   10.02268089
_cell_length_b   10.02268106
_cell_length_c   9.03409862
_cell_angle_alpha   78.15177909
_cell_angle_beta   78.15177886
_cell_angle_gamma   24.86838355
_symmetry_Int_Tables_number   1
_chemical_formula_structural   Nd2Sm2SiI5
_chemical_formula_sum   'Nd2 Sm2 Si1 I5'
_cell_volume   373.11030941
_cell_formula_units_Z   1
loop_
 _symmetry_equiv_pos_site_id
 _symmetry_equiv_pos_as_xyz
  1  'x, y, z'
loop_
 _atom_site_type_symbol
 _atom_site_label
 _atom_site_symmetry_multiplicity
 _atom_site_fract_x
 _atom_site_fract_y
 _atom_site_fract_z
 _atom_site_occupancy
  Nd  Nd0  1  0.501690  0.501690  0.213781  1
  Nd  Nd1  1  0.498310  0.498310  0.786219  1
  Sm  Sm2  1  0.855437  0.855437  0.073327  1
  Sm  Sm3  1  0.144563  0.144563  0.926673  1
  Si  Si4  1  0.000000  0.000000  0.000000  1
  I  I5  1  0.673970  0.673970  0.165132  1
  I  I6  1  0.326030  0.326030  0.834868  1
  I  I7  1  0.665639  0.665639  0.668056  1
  I  I8  1  0.334361  0.334361  0.331944  1
  I  I9  1  0.000000  0.000000  0.500000  1
