# generated using pymatgen
data_Nd3HoCrMo5O24
_symmetry_space_group_name_H-M   'P 1'
_cell_length_a   7.53614818
_cell_length_b   7.53658736
_cell_length_c   10.85947805
_cell_angle_alpha   89.61420537
_cell_angle_beta   90.38342337
_cell_angle_gamma   89.59172409
_symmetry_Int_Tables_number   1
_chemical_formula_structural   Nd3HoCrMo5O24
_chemical_formula_sum   'Nd3 Ho1 Cr1 Mo5 O24'
_cell_volume   616.74037662
_cell_formula_units_Z   1
loop_
 _symmetry_equiv_pos_site_id
 _symmetry_equiv_pos_as_xyz
  1  'x, y, z'
loop_
 _atom_site_type_symbol
 _atom_site_label
 _atom_site_symmetry_multiplicity
 _atom_site_fract_x
 _atom_site_fract_y
 _atom_site_fract_z
 _atom_site_occupancy
  Nd  Nd0  1  0.187179  0.691881  0.736832  1
  Nd  Nd1  1  0.808120  0.312836  0.736834  1
  Nd  Nd2  1  0.685394  0.814625  0.263494  1
  Ho  Ho3  1  0.309208  0.190802  0.263722  1
  Cr  Cr4  1  0.708936  0.790975  0.645741  1
  Mo  Mo5  1  0.210168  0.706452  0.353816  1
  Mo  Mo6  1  0.793550  0.289851  0.353807  1
  Mo  Mo7  1  0.289344  0.210657  0.637797  1
  Mo  Mo8  1  0.004410  0.002933  0.003785  1
  Mo  Mo9  1  0.497082  0.495602  0.003777  1
  O  O10  1  0.004734  0.221372  0.296310  1
  O  O11  1  0.997811  0.770515  0.295802  1
  O  O12  1  0.222983  0.001541  0.698586  1
  O  O13  1  0.513126  0.731309  0.699851  1
  O  O14  1  0.768647  0.986811  0.699840  1
  O  O15  1  0.498441  0.277019  0.698574  1
  O  O16  1  0.278665  0.495236  0.296304  1
  O  O17  1  0.729477  0.502217  0.295797  1
  O  O18  1  0.188629  0.050770  0.103192  1
  O  O19  1  0.811669  0.961027  0.094915  1
  O  O20  1  0.053948  0.813194  0.911739  1
  O  O21  1  0.312614  0.536473  0.902422  1
  O  O22  1  0.963539  0.187398  0.902414  1
  O  O23  1  0.686802  0.446070  0.911743  1
  O  O24  1  0.449237  0.311387  0.103198  1
  O  O25  1  0.538983  0.688361  0.094926  1
  O  O26  1  0.621257  0.131289  0.308929  1
  O  O27  1  0.368737  0.878746  0.308926  1
  O  O28  1  0.124033  0.375965  0.683571  1
  O  O29  1  0.864188  0.635781  0.691792  1
  O  O30  1  0.201129  0.693728  0.517104  1
  O  O31  1  0.806278  0.298899  0.517122  1
  O  O32  1  0.699592  0.800367  0.493176  1
  O  O33  1  0.302089  0.197912  0.474158  1
