# generated using pymatgen
data_EuBeRe2C
_symmetry_space_group_name_H-M   'P 1'
_cell_length_a   5.61093160
_cell_length_b   5.61093073
_cell_length_c   7.32781200
_cell_angle_alpha   90.00000000
_cell_angle_beta   90.00000000
_cell_angle_gamma   138.63783347
_symmetry_Int_Tables_number   1
_chemical_formula_structural   EuBeRe2C
_chemical_formula_sum   'Eu2 Be2 Re4 C2'
_cell_volume   152.44915423
_cell_formula_units_Z   2
loop_
 _symmetry_equiv_pos_site_id
 _symmetry_equiv_pos_as_xyz
  1  'x, y, z'
loop_
 _atom_site_type_symbol
 _atom_site_label
 _atom_site_symmetry_multiplicity
 _atom_site_fract_x
 _atom_site_fract_y
 _atom_site_fract_z
 _atom_site_occupancy
  Eu  Eu0  1  0.531653  0.468347  0.250000  1
  Eu  Eu1  1  0.468347  0.531653  0.750000  1
  Be  Be2  1  0.255685  0.744315  0.250000  1
  Be  Be3  1  0.744315  0.255685  0.750000  1
  Re  Re4  1  0.817851  0.182149  0.065754  1
  Re  Re5  1  0.182149  0.817851  0.934246  1
  Re  Re6  1  0.182149  0.817851  0.565754  1
  Re  Re7  1  0.817851  0.182149  0.434246  1
  C  C8  1  0.000000  0.000000  0.000000  1
  C  C9  1  0.000000  0.000000  0.500000  1
