# generated using pymatgen
data_Pr5Nd9(Er3Pb8)2
_symmetry_space_group_name_H-M   'P 1'
_cell_length_a   8.35099210
_cell_length_b   8.45757405
_cell_length_c   16.05045337
_cell_angle_alpha   90.03234802
_cell_angle_beta   89.98540275
_cell_angle_gamma   89.98996423
_symmetry_Int_Tables_number   1
_chemical_formula_structural   Pr5Nd9(Er3Pb8)2
_chemical_formula_sum   'Pr5 Nd9 Er6 Pb16'
_cell_volume   1133.62938839
_cell_formula_units_Z   1
loop_
 _symmetry_equiv_pos_site_id
 _symmetry_equiv_pos_as_xyz
  1  'x, y, z'
loop_
 _atom_site_type_symbol
 _atom_site_label
 _atom_site_symmetry_multiplicity
 _atom_site_fract_x
 _atom_site_fract_y
 _atom_site_fract_z
 _atom_site_occupancy
  Pr  Pr0  1  0.027793  0.178576  0.401915  1
  Pr  Pr1  1  0.524777  0.319183  0.403663  1
  Pr  Pr2  1  0.024780  0.180884  0.096371  1
  Pr  Pr3  1  0.475161  0.676209  0.899573  1
  Pr  Pr4  1  0.975167  0.823747  0.600453  1
  Nd  Nd5  1  0.367040  0.842464  0.117468  1
  Nd  Nd6  1  0.867002  0.657557  0.382530  1
  Nd  Nd7  1  0.371370  0.839740  0.379490  1
  Nd  Nd8  1  0.871311  0.660191  0.120484  1
  Nd  Nd9  1  0.627648  0.158141  0.879974  1
  Nd  Nd10  1  0.127677  0.341902  0.620075  1
  Nd  Nd11  1  0.471666  0.678207  0.599533  1
  Nd  Nd12  1  0.971649  0.821811  0.900468  1
  Nd  Nd13  1  0.527812  0.321453  0.098195  1
  Er  Er14  1  0.633942  0.156005  0.625407  1
  Er  Er15  1  0.133908  0.343985  0.874560  1
  Er  Er16  1  0.798313  0.494815  0.750307  1
  Er  Er17  1  0.298310  0.005193  0.749673  1
  Er  Er18  1  0.201306  0.504147  0.248844  1
  Er  Er19  1  0.701182  0.995854  0.251072  1
  Pb  Pb20  1  0.711880  0.969298  0.459854  1
  Pb  Pb21  1  0.212190  0.530467  0.040208  1
  Pb  Pb22  1  0.280412  0.041087  0.952462  1
  Pb  Pb23  1  0.780377  0.458951  0.547550  1
  Pb  Pb24  1  0.298196  0.037240  0.546765  1
  Pb  Pb25  1  0.797990  0.462635  0.953341  1
  Pb  Pb26  1  0.711960  0.966595  0.045955  1
  Pb  Pb27  1  0.212057  0.533633  0.454084  1
  Pb  Pb28  1  0.436567  0.373407  0.748925  1
  Pb  Pb29  1  0.936543  0.126584  0.751088  1
  Pb  Pb30  1  0.563862  0.623352  0.248611  1
  Pb  Pb31  1  0.063880  0.876478  0.251334  1
  Pb  Pb32  1  0.663243  0.847833  0.748825  1
  Pb  Pb33  1  0.163248  0.652155  0.751184  1
  Pb  Pb34  1  0.335097  0.153577  0.249448  1
  Pb  Pb35  1  0.834685  0.346645  0.250311  1
