# generated using pymatgen
data_Ac12MgNi6
_symmetry_space_group_name_H-M   'P 1'
_cell_length_a   9.26696863
_cell_length_b   9.26696914
_cell_length_c   9.26696900
_cell_angle_alpha   109.47121595
_cell_angle_beta   109.47121708
_cell_angle_gamma   109.47122305
_symmetry_Int_Tables_number   1
_chemical_formula_structural   Ac12MgNi6
_chemical_formula_sum   'Ac12 Mg1 Ni6'
_cell_volume   612.62012607
_cell_formula_units_Z   1
loop_
 _symmetry_equiv_pos_site_id
 _symmetry_equiv_pos_as_xyz
  1  'x, y, z'
loop_
 _atom_site_type_symbol
 _atom_site_label
 _atom_site_symmetry_multiplicity
 _atom_site_fract_x
 _atom_site_fract_y
 _atom_site_fract_z
 _atom_site_occupancy
  Ac  Ac0  1  0.816034  0.688417  0.504452  1
  Ac  Ac1  1  0.183966  0.311583  0.495548  1
  Ac  Ac2  1  0.183966  0.688417  0.872383  1
  Ac  Ac3  1  0.816034  0.311583  0.127617  1
  Ac  Ac4  1  0.688417  0.504452  0.816034  1
  Ac  Ac5  1  0.311583  0.495548  0.183966  1
  Ac  Ac6  1  0.688417  0.872383  0.183966  1
  Ac  Ac7  1  0.311583  0.127617  0.816034  1
  Ac  Ac8  1  0.504452  0.816034  0.688417  1
  Ac  Ac9  1  0.495548  0.183966  0.311583  1
  Ac  Ac10  1  0.127617  0.816034  0.311583  1
  Ac  Ac11  1  0.872383  0.183966  0.688417  1
  Mg  Mg12  1  0.000000  0.000000  0.000000  1
  Ni  Ni13  1  0.881182  0.381182  0.500000  1
  Ni  Ni14  1  0.118818  0.618818  0.500000  1
  Ni  Ni15  1  0.381182  0.500000  0.881182  1
  Ni  Ni16  1  0.618818  0.500000  0.118818  1
  Ni  Ni17  1  0.500000  0.881182  0.381182  1
  Ni  Ni18  1  0.500000  0.118818  0.618818  1
