# generated using pymatgen
data_Dy12In2Fe2Tc
_symmetry_space_group_name_H-M   'P 1'
_cell_length_a   8.39593623
_cell_length_b   8.39593648
_cell_length_c   8.39593710
_cell_angle_alpha   108.89603421
_cell_angle_beta   108.89604096
_cell_angle_gamma   110.62782298
_symmetry_Int_Tables_number   1
_chemical_formula_structural   Dy12In2Fe2Tc
_chemical_formula_sum   'Dy12 In2 Fe2 Tc1'
_cell_volume   455.46232722
_cell_formula_units_Z   1
loop_
 _symmetry_equiv_pos_site_id
 _symmetry_equiv_pos_as_xyz
  1  'x, y, z'
loop_
 _atom_site_type_symbol
 _atom_site_label
 _atom_site_symmetry_multiplicity
 _atom_site_fract_x
 _atom_site_fract_y
 _atom_site_fract_z
 _atom_site_occupancy
  Dy  Dy0  1  0.193087  0.431965  0.238877  1
  Dy  Dy1  1  0.806913  0.568035  0.761123  1
  Dy  Dy2  1  0.193087  0.954211  0.761123  1
  Dy  Dy3  1  0.954211  0.193087  0.761123  1
  Dy  Dy4  1  0.806913  0.045789  0.238877  1
  Dy  Dy5  1  0.045789  0.806913  0.238877  1
  Dy  Dy6  1  0.431965  0.193087  0.238877  1
  Dy  Dy7  1  0.568035  0.806913  0.761123  1
  Dy  Dy8  1  0.307304  0.307304  0.614608  1
  Dy  Dy9  1  0.692696  0.692696  0.385392  1
  Dy  Dy10  1  0.692696  0.307304  0.000000  1
  Dy  Dy11  1  0.307304  0.692696  0.000000  1
  In  In12  1  0.000000  0.500000  0.500000  1
  In  In13  1  0.500000  0.000000  0.500000  1
  Fe  Fe14  1  0.386123  0.386123  0.000000  1
  Fe  Fe15  1  0.613877  0.613877  0.000000  1
  Tc  Tc16  1  0.000000  0.000000  0.000000  1
