# generated using pymatgen
data_Sr6NdFe(BO3)6
_symmetry_space_group_name_H-M   'P 1'
_cell_length_a   7.84845728
_cell_length_b   7.84845676
_cell_length_c   7.84845665
_cell_angle_alpha   105.33361912
_cell_angle_beta   105.33362264
_cell_angle_gamma   105.33363209
_symmetry_Int_Tables_number   1
_chemical_formula_structural   Sr6NdFe(BO3)6
_chemical_formula_sum   'Sr6 Nd1 Fe1 B6 O18'
_cell_volume   419.58250426
_cell_formula_units_Z   1
loop_
 _symmetry_equiv_pos_site_id
 _symmetry_equiv_pos_as_xyz
  1  'x, y, z'
loop_
 _atom_site_type_symbol
 _atom_site_label
 _atom_site_symmetry_multiplicity
 _atom_site_fract_x
 _atom_site_fract_y
 _atom_site_fract_z
 _atom_site_occupancy
  Sr  Sr0  1  0.357067  0.730631  0.842362  1
  Sr  Sr1  1  0.842362  0.357067  0.730631  1
  Sr  Sr2  1  0.730631  0.842362  0.357067  1
  Sr  Sr3  1  0.642933  0.269369  0.157638  1
  Sr  Sr4  1  0.157638  0.642933  0.269369  1
  Sr  Sr5  1  0.269369  0.157638  0.642933  1
  Nd  Nd6  1  0.000000  0.000000  0.000000  1
  Fe  Fe7  1  0.500000  0.500000  0.500000  1
  B  B8  1  0.386824  0.048268  0.297925  1
  B  B9  1  0.297925  0.386824  0.048268  1
  B  B10  1  0.048268  0.297925  0.386824  1
  B  B11  1  0.702075  0.613176  0.951732  1
  B  B12  1  0.951732  0.702075  0.613176  1
  B  B13  1  0.613176  0.951732  0.702075  1
  O  O14  1  0.432326  0.500610  0.229364  1
  O  O15  1  0.229364  0.432326  0.500610  1
  O  O16  1  0.803084  0.021928  0.722873  1
  O  O17  1  0.021928  0.722873  0.803084  1
  O  O18  1  0.722873  0.803084  0.021928  1
  O  O19  1  0.277127  0.196916  0.978072  1
  O  O20  1  0.196916  0.978072  0.277127  1
  O  O21  1  0.978072  0.277127  0.196916  1
  O  O22  1  0.535627  0.056131  0.805974  1
  O  O23  1  0.056131  0.805974  0.535627  1
  O  O24  1  0.805974  0.535627  0.056131  1
  O  O25  1  0.464373  0.943869  0.194026  1
  O  O26  1  0.943869  0.194026  0.464373  1
  O  O27  1  0.194026  0.464373  0.943869  1
  O  O28  1  0.499390  0.770636  0.567674  1
  O  O29  1  0.770636  0.567674  0.499390  1
  O  O30  1  0.567674  0.499390  0.770636  1
  O  O31  1  0.500610  0.229364  0.432326  1
