# generated using pymatgen
data_Er2Fe10Mo2P7
_symmetry_space_group_name_H-M   'P 1'
_cell_length_a   9.13092016
_cell_length_b   9.02612179
_cell_length_c   3.67803600
_cell_angle_alpha   90.00000000
_cell_angle_beta   90.00000000
_cell_angle_gamma   119.71397594
_symmetry_Int_Tables_number   1
_chemical_formula_structural   Er2Fe10Mo2P7
_chemical_formula_sum   'Er2 Fe10 Mo2 P7'
_cell_volume   263.27332004
_cell_formula_units_Z   1
loop_
 _symmetry_equiv_pos_site_id
 _symmetry_equiv_pos_as_xyz
  1  'x, y, z'
loop_
 _atom_site_type_symbol
 _atom_site_label
 _atom_site_symmetry_multiplicity
 _atom_site_fract_x
 _atom_site_fract_y
 _atom_site_fract_z
 _atom_site_occupancy
  Er  Er0  1  0.661589  0.332878  0.500000  1
  Er  Er1  1  0.339278  0.665236  0.000000  1
  Fe  Fe2  1  0.723880  0.878986  0.000000  1
  Fe  Fe3  1  0.947335  0.380654  0.000000  1
  Fe  Fe4  1  0.156807  0.276069  0.000000  1
  Fe  Fe5  1  0.390248  0.440274  0.500000  1
  Fe  Fe6  1  0.116270  0.835606  0.000000  1
  Fe  Fe7  1  0.427774  0.050601  0.000000  1
  Fe  Fe8  1  0.043094  0.609214  0.500000  1
  Fe  Fe9  1  0.563944  0.950170  0.500000  1
  Fe  Fe10  1  0.631837  0.576550  0.000000  1
  Fe  Fe11  1  0.877713  0.785155  0.500000  1
  Mo  Mo12  1  0.219763  0.099524  0.500000  1
  Mo  Mo13  1  0.897769  0.118438  0.500000  1
  P  P14  1  0.414841  0.307377  0.000000  1
  P  P15  1  0.288646  0.874998  0.500000  1
  P  P16  1  0.697064  0.112893  0.000000  1
  P  P17  1  0.600063  0.712606  0.500000  1
  P  P18  1  0.878696  0.590660  0.000000  1
  P  P19  1  0.127606  0.409833  0.500000  1
  P  P20  1  0.995785  0.992276  0.000000  1
