# generated using pymatgen
data_Nd2Co2Se
_symmetry_space_group_name_H-M   'P 1'
_cell_length_a   4.00156000
_cell_length_b   4.00155847
_cell_length_c   16.14176000
_cell_angle_alpha   90.00000000
_cell_angle_beta   90.00000000
_cell_angle_gamma   119.99997960
_symmetry_Int_Tables_number   1
_chemical_formula_structural   Nd2Co2Se
_chemical_formula_sum   'Nd4 Co4 Se2'
_cell_volume   223.84124195
_cell_formula_units_Z   2
loop_
 _symmetry_equiv_pos_site_id
 _symmetry_equiv_pos_as_xyz
  1  'x, y, z'
loop_
 _atom_site_type_symbol
 _atom_site_label
 _atom_site_symmetry_multiplicity
 _atom_site_fract_x
 _atom_site_fract_y
 _atom_site_fract_z
 _atom_site_occupancy
  Nd  Nd0  1  0.000000  0.000000  0.121868  1
  Nd  Nd1  1  0.000000  0.000000  0.878132  1
  Nd  Nd2  1  0.000000  0.000000  0.621868  1
  Nd  Nd3  1  0.000000  0.000000  0.378132  1
  Co  Co4  1  0.333333  0.666667  0.501747  1
  Co  Co5  1  0.666667  0.333333  0.498253  1
  Co  Co6  1  0.666667  0.333333  0.001747  1
  Co  Co7  1  0.333333  0.666667  0.998253  1
  Se  Se8  1  0.333333  0.666667  0.250000  1
  Se  Se9  1  0.666667  0.333333  0.750000  1
