# generated using pymatgen
data_CaCd3Ag2
_symmetry_space_group_name_H-M   'P 1'
_cell_length_a   5.72980078
_cell_length_b   5.72980107
_cell_length_c   5.75985600
_cell_angle_alpha   59.82633232
_cell_angle_beta   59.82633064
_cell_angle_gamma   60.15854503
_symmetry_Int_Tables_number   1
_chemical_formula_structural   CaCd3Ag2
_chemical_formula_sum   'Ca1 Cd3 Ag2'
_cell_volume   133.51977238
_cell_formula_units_Z   1
loop_
 _symmetry_equiv_pos_site_id
 _symmetry_equiv_pos_as_xyz
  1  'x, y, z'
loop_
 _atom_site_type_symbol
 _atom_site_label
 _atom_site_symmetry_multiplicity
 _atom_site_fract_x
 _atom_site_fract_y
 _atom_site_fract_z
 _atom_site_occupancy
  Ca  Ca0  1  0.998611  0.998611  0.001389  1
  Cd  Cd1  1  0.375544  0.375544  0.375630  1
  Cd  Cd2  1  0.750529  0.750529  0.749471  1
  Cd  Cd3  1  0.375544  0.375544  0.873283  1
  Ag  Ag4  1  0.874564  0.375209  0.375114  1
  Ag  Ag5  1  0.375209  0.874564  0.375114  1
