# generated using pymatgen
data_Er6Zn21Ru2Se
_symmetry_space_group_name_H-M   'P 1'
_cell_length_a   9.04181779
_cell_length_b   9.04181821
_cell_length_c   8.92653200
_cell_angle_alpha   60.42088895
_cell_angle_beta   60.42088744
_cell_angle_gamma   59.15822171
_symmetry_Int_Tables_number   1
_chemical_formula_structural   Er6Zn21Ru2Se
_chemical_formula_sum   'Er6 Zn21 Ru2 Se1'
_cell_volume   515.86947065
_cell_formula_units_Z   1
loop_
 _symmetry_equiv_pos_site_id
 _symmetry_equiv_pos_as_xyz
  1  'x, y, z'
loop_
 _atom_site_type_symbol
 _atom_site_label
 _atom_site_symmetry_multiplicity
 _atom_site_fract_x
 _atom_site_fract_y
 _atom_site_fract_z
 _atom_site_occupancy
  Er  Er0  1  0.720822  0.279178  0.279178  1
  Er  Er1  1  0.720822  0.279178  0.720822  1
  Er  Er2  1  0.722519  0.722519  0.277481  1
  Er  Er3  1  0.279178  0.720822  0.720822  1
  Er  Er4  1  0.279178  0.720822  0.279178  1
  Er  Er5  1  0.277481  0.277481  0.722519  1
  Zn  Zn6  1  0.623272  0.129111  0.123809  1
  Zn  Zn7  1  0.129111  0.623272  0.123809  1
  Zn  Zn8  1  0.123809  0.123809  0.623272  1
  Zn  Zn9  1  0.123809  0.123809  0.129111  1
  Zn  Zn10  1  0.376728  0.870889  0.876191  1
  Zn  Zn11  1  0.870889  0.376728  0.876191  1
  Zn  Zn12  1  0.876191  0.876191  0.376728  1
  Zn  Zn13  1  0.876191  0.876191  0.870889  1
  Zn  Zn14  1  0.500000  0.000000  0.000000  1
  Zn  Zn15  1  0.500000  0.000000  0.500000  1
  Zn  Zn16  1  0.000000  0.500000  0.500000  1
  Zn  Zn17  1  0.000000  0.500000  0.000000  1
  Zn  Zn18  1  0.000000  0.000000  0.000000  1
  Zn  Zn19  1  0.005174  0.328634  0.333095  1
  Zn  Zn20  1  0.328634  0.005174  0.333095  1
  Zn  Zn21  1  0.333095  0.333095  0.005174  1
  Zn  Zn22  1  0.333095  0.333095  0.328634  1
  Zn  Zn23  1  0.994826  0.671366  0.666905  1
  Zn  Zn24  1  0.671366  0.994826  0.666905  1
  Zn  Zn25  1  0.666905  0.666905  0.994826  1
  Zn  Zn26  1  0.666905  0.666905  0.671366  1
  Ru  Ru27  1  0.500000  0.500000  0.000000  1
  Ru  Ru28  1  0.000000  0.000000  0.500000  1
  Se  Se29  1  0.500000  0.500000  0.500000  1
