# generated using pymatgen
data_SmDy2(Co3P2)3
_symmetry_space_group_name_H-M   'P 1'
_cell_length_a   3.71646800
_cell_length_b   10.54798500
_cell_length_c   12.22089400
_cell_angle_alpha   90.00000000
_cell_angle_beta   90.00000000
_cell_angle_gamma   90.00000000
_symmetry_Int_Tables_number   1
_chemical_formula_structural   SmDy2(Co3P2)3
_chemical_formula_sum   'Sm2 Dy4 Co18 P12'
_cell_volume   479.07430524
_cell_formula_units_Z   2
loop_
 _symmetry_equiv_pos_site_id
 _symmetry_equiv_pos_as_xyz
  1  'x, y, z'
loop_
 _atom_site_type_symbol
 _atom_site_label
 _atom_site_symmetry_multiplicity
 _atom_site_fract_x
 _atom_site_fract_y
 _atom_site_fract_z
 _atom_site_occupancy
  Sm  Sm0  1  0.000000  0.500000  0.522021  1
  Sm  Sm1  1  0.500000  0.000000  0.477979  1
  Dy  Dy2  1  0.500000  0.817310  0.205222  1
  Dy  Dy3  1  0.500000  0.182690  0.205222  1
  Dy  Dy4  1  0.000000  0.682690  0.794778  1
  Dy  Dy5  1  0.000000  0.317310  0.794778  1
  Co  Co6  1  0.500000  0.500000  0.157335  1
  Co  Co7  1  0.000000  0.000000  0.842665  1
  Co  Co8  1  0.500000  0.500000  0.705196  1
  Co  Co9  1  0.000000  0.000000  0.294804  1
  Co  Co10  1  0.000000  0.500000  0.986445  1
  Co  Co11  1  0.500000  0.000000  0.013555  1
  Co  Co12  1  0.500000  0.333379  0.994946  1
  Co  Co13  1  0.500000  0.666621  0.994946  1
  Co  Co14  1  0.000000  0.166621  0.005054  1
  Co  Co15  1  0.000000  0.833379  0.005054  1
  Co  Co16  1  0.500000  0.296904  0.429588  1
  Co  Co17  1  0.500000  0.703096  0.429588  1
  Co  Co18  1  0.000000  0.203096  0.570412  1
  Co  Co19  1  0.000000  0.796904  0.570412  1
  Co  Co20  1  0.500000  0.879618  0.711598  1
  Co  Co21  1  0.500000  0.120382  0.711598  1
  Co  Co22  1  0.000000  0.620382  0.288402  1
  Co  Co23  1  0.000000  0.379618  0.288402  1
  P  P24  1  0.500000  0.500000  0.883456  1
  P  P25  1  0.000000  0.000000  0.116544  1
  P  P26  1  0.500000  0.500000  0.341035  1
  P  P27  1  0.000000  0.000000  0.658965  1
  P  P28  1  0.500000  0.308503  0.616786  1
  P  P29  1  0.500000  0.691497  0.616786  1
  P  P30  1  0.000000  0.191497  0.383214  1
  P  P31  1  0.000000  0.808503  0.383214  1
  P  P32  1  0.500000  0.847022  0.893974  1
  P  P33  1  0.500000  0.152978  0.893974  1
  P  P34  1  0.000000  0.652978  0.106026  1
  P  P35  1  0.000000  0.347022  0.106026  1
