# generated using pymatgen
data_Tb2CeHo13(CdRu)4
_symmetry_space_group_name_H-M   'P 1'
_cell_length_a   9.63641836
_cell_length_b   9.63282092
_cell_length_c   9.63519334
_cell_angle_alpha   59.38676931
_cell_angle_beta   59.38126920
_cell_angle_gamma   59.38165599
_symmetry_Int_Tables_number   1
_chemical_formula_structural   Tb2CeHo13(CdRu)4
_chemical_formula_sum   'Tb2 Ce1 Ho13 Cd4 Ru4'
_cell_volume   623.55568412
_cell_formula_units_Z   1
loop_
 _symmetry_equiv_pos_site_id
 _symmetry_equiv_pos_as_xyz
  1  'x, y, z'
loop_
 _atom_site_type_symbol
 _atom_site_label
 _atom_site_symmetry_multiplicity
 _atom_site_fract_x
 _atom_site_fract_y
 _atom_site_fract_z
 _atom_site_occupancy
  Tb  Tb0  1  0.562170  0.562452  0.937892  1
  Tb  Tb1  1  0.938681  0.561267  0.938367  1
  Ce  Ce2  1  0.342466  0.342390  0.342442  1
  Ho  Ho3  1  0.561055  0.938958  0.938326  1
  Ho  Ho4  1  0.938305  0.938656  0.561072  1
  Ho  Ho5  1  0.562380  0.938167  0.562087  1
  Ho  Ho6  1  0.938126  0.562363  0.561887  1
  Ho  Ho7  1  0.189239  0.188897  0.812368  1
  Ho  Ho8  1  0.811252  0.187466  0.811163  1
  Ho  Ho9  1  0.187569  0.811415  0.811119  1
  Ho  Ho10  1  0.811056  0.811277  0.187793  1
  Ho  Ho11  1  0.188842  0.812583  0.189227  1
  Ho  Ho12  1  0.812493  0.188620  0.189353  1
  Ho  Ho13  1  0.346793  0.346482  0.957128  1
  Ho  Ho14  1  0.346808  0.956795  0.346850  1
  Ho  Ho15  1  0.957000  0.346572  0.346944  1
  Cd  Cd16  1  0.579567  0.579965  0.258160  1
  Cd  Cd17  1  0.579894  0.257623  0.579922  1
  Cd  Cd18  1  0.257959  0.579904  0.579529  1
  Cd  Cd19  1  0.579748  0.579779  0.579455  1
  Ru  Ru20  1  0.146965  0.147052  0.574873  1
  Ru  Ru21  1  0.146750  0.575068  0.147174  1
  Ru  Ru22  1  0.575004  0.146719  0.147046  1
  Ru  Ru23  1  0.139877  0.139532  0.139822  1
