# generated using pymatgen
data_CaY3Ho4(B6Ru)4
_symmetry_space_group_name_H-M   'P 1'
_cell_length_a   3.65801500
_cell_length_b   9.14309973
_cell_length_c   11.53679301
_cell_angle_alpha   89.89931613
_cell_angle_beta   90.00000000
_cell_angle_gamma   90.00000000
_symmetry_Int_Tables_number   1
_chemical_formula_structural   CaY3Ho4(B6Ru)4
_chemical_formula_sum   'Ca1 Y3 Ho4 B24 Ru4'
_cell_volume   385.85432170
_cell_formula_units_Z   1
loop_
 _symmetry_equiv_pos_site_id
 _symmetry_equiv_pos_as_xyz
  1  'x, y, z'
loop_
 _atom_site_type_symbol
 _atom_site_label
 _atom_site_symmetry_multiplicity
 _atom_site_fract_x
 _atom_site_fract_y
 _atom_site_fract_z
 _atom_site_occupancy
  Ca  Ca0  1  0.000000  0.322798  0.413860  1
  Y  Y1  1  0.000000  0.675907  0.585056  1
  Y  Y2  1  0.000000  0.822647  0.086345  1
  Y  Y3  1  0.000000  0.177784  0.914488  1
  Ho  Ho4  1  0.000000  0.943997  0.371042  1
  Ho  Ho5  1  0.000000  0.057878  0.628277  1
  Ho  Ho6  1  0.000000  0.442991  0.129577  1
  Ho  Ho7  1  0.000000  0.556202  0.872169  1
  B  B8  1  0.500000  0.554590  0.432420  1
  B  B9  1  0.500000  0.445978  0.567922  1
  B  B10  1  0.500000  0.053374  0.066635  1
  B  B11  1  0.500000  0.945689  0.932329  1
  B  B12  1  0.500000  0.748507  0.418997  1
  B  B13  1  0.500000  0.252186  0.581534  1
  B  B14  1  0.500000  0.247581  0.080478  1
  B  B15  1  0.500000  0.751777  0.919403  1
  B  B16  1  0.500000  0.791535  0.266165  1
  B  B17  1  0.500000  0.209646  0.734169  1
  B  B18  1  0.500000  0.289702  0.233008  1
  B  B19  1  0.500000  0.709342  0.766539  1
  B  B20  1  0.500000  0.632064  0.185860  1
  B  B21  1  0.500000  0.368596  0.815169  1
  B  B22  1  0.500000  0.130853  0.313536  1
  B  B23  1  0.500000  0.868600  0.685359  1
  B  B24  1  0.500000  0.983453  0.211861  1
  B  B25  1  0.500000  0.016241  0.787194  1
  B  B26  1  0.500000  0.484451  0.287414  1
  B  B27  1  0.500000  0.516268  0.713071  1
  B  B28  1  0.500000  0.608015  0.030036  1
  B  B29  1  0.500000  0.392227  0.970592  1
  B  B30  1  0.500000  0.104040  0.471150  1
  B  B31  1  0.500000  0.894562  0.529155  1
  Ru  Ru32  1  0.000000  0.640044  0.320179  1
  Ru  Ru33  1  0.000000  0.361892  0.680802  1
  Ru  Ru34  1  0.000000  0.136552  0.177380  1
  Ru  Ru35  1  0.000000  0.862034  0.820830  1
