# generated using pymatgen
data_Ac8Si5Pb
_symmetry_space_group_name_H-M   'P 1'
_cell_length_a   8.47933117
_cell_length_b   8.47933181
_cell_length_c   8.47933027
_cell_angle_alpha   109.39625542
_cell_angle_beta   109.62126727
_cell_angle_gamma   109.39625218
_symmetry_Int_Tables_number   1
_chemical_formula_structural   Ac8Si5Pb
_chemical_formula_sum   'Ac8 Si5 Pb1'
_cell_volume   469.31086383
_cell_formula_units_Z   1
loop_
 _symmetry_equiv_pos_site_id
 _symmetry_equiv_pos_as_xyz
  1  'x, y, z'
loop_
 _atom_site_type_symbol
 _atom_site_label
 _atom_site_symmetry_multiplicity
 _atom_site_fract_x
 _atom_site_fract_y
 _atom_site_fract_z
 _atom_site_occupancy
  Ac  Ac0  1  0.372433  0.496315  0.001068  1
  Ac  Ac1  1  0.859485  0.491486  0.004818  1
  Ac  Ac2  1  0.132001  0.145333  0.140515  1
  Ac  Ac3  1  0.504754  0.003685  0.376119  1
  Ac  Ac4  1  0.995182  0.354667  0.486668  1
  Ac  Ac5  1  0.998932  0.871365  0.495245  1
  Ac  Ac6  1  0.623882  0.628636  0.627568  1
  Ac  Ac7  1  0.513331  0.008513  0.867999  1
  Si  Si8  1  0.749376  0.875255  0.123360  1
  Si  Si9  1  0.625881  0.373984  0.250624  1
  Si  Si10  1  0.248104  0.624744  0.374119  1
  Si  Si11  1  0.375000  0.250000  0.625000  1
  Si  Si12  1  0.876639  0.126016  0.751896  1
  Pb  Pb13  1  0.125000  0.750000  0.874999  1
