# generated using pymatgen
data_La3Tb2Nd5Ir4
_symmetry_space_group_name_H-M   'P 1'
_cell_length_a   6.70184111
_cell_length_b   7.28308911
_cell_length_c   9.01231207
_cell_angle_alpha   95.97254118
_cell_angle_beta   111.58324991
_cell_angle_gamma   90.58836979
_symmetry_Int_Tables_number   1
_chemical_formula_structural   La3Tb2Nd5Ir4
_chemical_formula_sum   'La3 Tb2 Nd5 Ir4'
_cell_volume   406.26727903
_cell_formula_units_Z   1
loop_
 _symmetry_equiv_pos_site_id
 _symmetry_equiv_pos_as_xyz
  1  'x, y, z'
loop_
 _atom_site_type_symbol
 _atom_site_label
 _atom_site_symmetry_multiplicity
 _atom_site_fract_x
 _atom_site_fract_y
 _atom_site_fract_z
 _atom_site_occupancy
  La  La0  1  0.980030  0.917847  0.185053  1
  La  La1  1  0.793660  0.580963  0.815562  1
  La  La2  1  0.021210  0.083798  0.817112  1
  Tb  Tb3  1  0.435317  0.749925  0.000512  1
  Tb  Tb4  1  0.564906  0.249693  0.000505  1
  Nd  Nd5  1  0.209442  0.422935  0.185264  1
  Nd  Nd6  1  0.644232  0.814092  0.429926  1
  Nd  Nd7  1  0.213040  0.682744  0.567199  1
  Nd  Nd8  1  0.353921  0.185362  0.569143  1
  Nd  Nd9  1  0.782861  0.316334  0.429997  1
  Ir  Ir10  1  0.814228  0.574325  0.214571  1
  Ir  Ir11  1  0.600638  0.925720  0.785485  1
  Ir  Ir12  1  0.185511  0.424851  0.785787  1
  Ir  Ir13  1  0.401003  0.071410  0.213883  1
