# generated using pymatgen
data_HfZr5CuSb2
_symmetry_space_group_name_H-M   'P 1'
_cell_length_a   7.73423897
_cell_length_b   7.73423825
_cell_length_c   3.76293500
_cell_angle_alpha   90.00000000
_cell_angle_beta   90.00000000
_cell_angle_gamma   120.09068615
_symmetry_Int_Tables_number   1
_chemical_formula_structural   HfZr5CuSb2
_chemical_formula_sum   'Hf1 Zr5 Cu1 Sb2'
_cell_volume   194.75781381
_cell_formula_units_Z   1
loop_
 _symmetry_equiv_pos_site_id
 _symmetry_equiv_pos_as_xyz
  1  'x, y, z'
loop_
 _atom_site_type_symbol
 _atom_site_label
 _atom_site_symmetry_multiplicity
 _atom_site_fract_x
 _atom_site_fract_y
 _atom_site_fract_z
 _atom_site_occupancy
  Hf  Hf0  1  0.758596  0.758596  0.500000  1
  Zr  Zr1  1  0.243008  0.999018  0.500000  1
  Zr  Zr2  1  0.999018  0.243008  0.500000  1
  Zr  Zr3  1  0.598971  0.000253  0.000000  1
  Zr  Zr4  1  0.000253  0.598971  0.000000  1
  Zr  Zr5  1  0.402164  0.402164  0.000000  1
  Cu  Cu6  1  0.997094  0.997094  0.000000  1
  Sb  Sb7  1  0.334406  0.666492  0.500000  1
  Sb  Sb8  1  0.666492  0.334406  0.500000  1
