# generated using pymatgen
data_Li2HfCr(PO4)3
_symmetry_space_group_name_H-M   'P 1'
_cell_length_a   8.72265700
_cell_length_b   8.85654700
_cell_length_c   12.29982800
_cell_angle_alpha   90.00000000
_cell_angle_beta   90.00000000
_cell_angle_gamma   90.00000000
_symmetry_Int_Tables_number   1
_chemical_formula_structural   Li2HfCr(PO4)3
_chemical_formula_sum   'Li8 Hf4 Cr4 P12 O48'
_cell_volume   950.19395928
_cell_formula_units_Z   4
loop_
 _symmetry_equiv_pos_site_id
 _symmetry_equiv_pos_as_xyz
  1  'x, y, z'
loop_
 _atom_site_type_symbol
 _atom_site_label
 _atom_site_symmetry_multiplicity
 _atom_site_fract_x
 _atom_site_fract_y
 _atom_site_fract_z
 _atom_site_occupancy
  Li  Li0  1  0.468735  0.785782  0.684760  1
  Li  Li1  1  0.533415  0.276765  0.821659  1
  Li  Li2  1  0.531265  0.214218  0.184760  1
  Li  Li3  1  0.466585  0.723235  0.321659  1
  Li  Li4  1  0.033415  0.223235  0.321659  1
  Li  Li5  1  0.968735  0.714218  0.184760  1
  Li  Li6  1  0.966585  0.776765  0.821659  1
  Li  Li7  1  0.031265  0.285782  0.684760  1
  Hf  Hf8  1  0.502007  0.463543  0.613656  1
  Hf  Hf9  1  0.497993  0.536457  0.113656  1
  Hf  Hf10  1  0.002007  0.036457  0.113656  1
  Hf  Hf11  1  0.997993  0.963543  0.613656  1
  Cr  Cr12  1  0.497232  0.964357  0.887368  1
  Cr  Cr13  1  0.502768  0.035643  0.387368  1
  Cr  Cr14  1  0.997232  0.535643  0.387368  1
  Cr  Cr15  1  0.002768  0.464357  0.887368  1
  P  P16  1  0.709484  0.750353  0.494712  1
  P  P17  1  0.290516  0.249647  0.994712  1
  P  P18  1  0.790516  0.250353  0.494712  1
  P  P19  1  0.209484  0.749647  0.994712  1
  P  P20  1  0.650150  0.611437  0.852944  1
  P  P21  1  0.359688  0.103792  0.647793  1
  P  P22  1  0.349850  0.388563  0.352944  1
  P  P23  1  0.640312  0.896208  0.147793  1
  P  P24  1  0.859688  0.396208  0.147793  1
  P  P25  1  0.150150  0.888563  0.352944  1
  P  P26  1  0.140312  0.603792  0.647793  1
  P  P27  1  0.849850  0.111437  0.852944  1
  O  O28  1  0.598642  0.568574  0.969062  1
  O  O29  1  0.408207  0.063178  0.532652  1
  O  O30  1  0.401358  0.431426  0.469062  1
  O  O31  1  0.591793  0.936822  0.032652  1
  O  O32  1  0.908207  0.436822  0.032652  1
  O  O33  1  0.098642  0.931426  0.469062  1
  O  O34  1  0.091793  0.563178  0.532652  1
  O  O35  1  0.901358  0.068574  0.969062  1
  O  O36  1  0.603285  0.667312  0.578496  1
  O  O37  1  0.399604  0.164162  0.917680  1
  O  O38  1  0.396715  0.332688  0.078496  1
  O  O39  1  0.600396  0.835838  0.417680  1
  O  O40  1  0.899604  0.335838  0.417680  1
  O  O41  1  0.103285  0.832688  0.078496  1
  O  O42  1  0.100396  0.664162  0.917680  1
  O  O43  1  0.896715  0.167312  0.578496  1
  O  O44  1  0.588093  0.768824  0.821553  1
  O  O45  1  0.418365  0.264432  0.680830  1
  O  O46  1  0.411907  0.231176  0.321553  1
  O  O47  1  0.581635  0.735568  0.180830  1
  O  O48  1  0.918365  0.235568  0.180830  1
  O  O49  1  0.088093  0.731176  0.321553  1
  O  O50  1  0.081635  0.764432  0.680830  1
  O  O51  1  0.911907  0.268824  0.821553  1
  O  O52  1  0.304395  0.860183  0.928532  1
  O  O53  1  0.693776  0.360297  0.563218  1
  O  O54  1  0.695605  0.139817  0.428532  1
  O  O55  1  0.306224  0.639703  0.063218  1
  O  O56  1  0.193776  0.139703  0.063218  1
  O  O57  1  0.804395  0.639817  0.428532  1
  O  O58  1  0.806224  0.860297  0.563218  1
  O  O59  1  0.195605  0.360183  0.928532  1
  O  O60  1  0.423164  0.985857  0.728893  1
  O  O61  1  0.580794  0.489070  0.775510  1
  O  O62  1  0.576836  0.014143  0.228893  1
  O  O63  1  0.419206  0.510930  0.275510  1
  O  O64  1  0.080794  0.010930  0.275510  1
  O  O65  1  0.923164  0.514143  0.228893  1
  O  O66  1  0.919206  0.989070  0.775510  1
  O  O67  1  0.076836  0.485857  0.728893  1
  O  O68  1  0.318947  0.608717  0.656546  1
  O  O69  1  0.673919  0.108705  0.844136  1
  O  O70  1  0.681053  0.391283  0.156546  1
  O  O71  1  0.326081  0.891295  0.344136  1
  O  O72  1  0.173919  0.391295  0.344136  1
  O  O73  1  0.818947  0.891283  0.156546  1
  O  O74  1  0.826081  0.608705  0.844136  1
  O  O75  1  0.181053  0.108717  0.656546  1
