# generated using pymatgen
data_TmNb(SiTc)2
_symmetry_space_group_name_H-M   'P 1'
_cell_length_a   3.40135400
_cell_length_b   7.02434027
_cell_length_c   12.16499981
_cell_angle_alpha   89.58290702
_cell_angle_beta   90.00000000
_cell_angle_gamma   90.00000000
_symmetry_Int_Tables_number   1
_chemical_formula_structural   TmNb(SiTc)2
_chemical_formula_sum   'Tm3 Nb3 Si6 Tc6'
_cell_volume   290.64173289
_cell_formula_units_Z   3
loop_
 _symmetry_equiv_pos_site_id
 _symmetry_equiv_pos_as_xyz
  1  'x, y, z'
loop_
 _atom_site_type_symbol
 _atom_site_label
 _atom_site_symmetry_multiplicity
 _atom_site_fract_x
 _atom_site_fract_y
 _atom_site_fract_z
 _atom_site_occupancy
  Tm  Tm0  1  0.500000  0.300373  0.299219  1
  Tm  Tm1  1  0.500000  0.295692  0.701029  1
  Tm  Tm2  1  0.500000  0.802840  0.201022  1
  Nb  Nb3  1  0.500000  0.404201  0.995309  1
  Nb  Nb4  1  0.500000  0.899980  0.506090  1
  Nb  Nb5  1  0.500000  0.795447  0.799658  1
  Si  Si6  1  0.000000  0.988892  0.668488  1
  Si  Si7  1  0.000000  0.497556  0.155579  1
  Si  Si8  1  0.000000  0.504159  0.834600  1
  Si  Si9  1  0.000000  0.994790  0.344774  1
  Si  Si10  1  0.500000  0.005420  0.997478  1
  Si  Si11  1  0.500000  0.501283  0.500251  1
  Tc  Tc12  1  0.000000  0.744244  0.991861  1
  Tc  Tc13  1  0.000000  0.238619  0.503683  1
  Tc  Tc14  1  0.000000  0.632370  0.629185  1
  Tc  Tc15  1  0.000000  0.136759  0.118493  1
  Tc  Tc16  1  0.000000  0.122312  0.872254  1
  Tc  Tc17  1  0.000000  0.635259  0.381026  1
