# generated using pymatgen
data_Y4Ga18RePd5
_symmetry_space_group_name_H-M   'P 1'
_cell_length_a   7.67486980
_cell_length_b   7.67486892
_cell_length_c   9.60752900
_cell_angle_alpha   90.16088882
_cell_angle_beta   90.16090144
_cell_angle_gamma   120.03740182
_symmetry_Int_Tables_number   1
_chemical_formula_structural   Y4Ga18RePd5
_chemical_formula_sum   'Y4 Ga18 Re1 Pd5'
_cell_volume   489.90701665
_cell_formula_units_Z   1
loop_
 _symmetry_equiv_pos_site_id
 _symmetry_equiv_pos_as_xyz
  1  'x, y, z'
loop_
 _atom_site_type_symbol
 _atom_site_label
 _atom_site_symmetry_multiplicity
 _atom_site_fract_x
 _atom_site_fract_y
 _atom_site_fract_z
 _atom_site_occupancy
  Y  Y0  1  0.994352  0.666476  0.249145  1
  Y  Y1  1  0.002151  0.330741  0.750759  1
  Y  Y2  1  0.669259  0.997849  0.249241  1
  Y  Y3  1  0.333524  0.005648  0.750855  1
  Ga  Ga4  1  0.126729  0.129116  0.249776  1
  Ga  Ga5  1  0.870884  0.873271  0.750224  1
  Ga  Ga6  1  0.998641  0.333754  0.077781  1
  Ga  Ga7  1  0.998421  0.662253  0.920968  1
  Ga  Ga8  1  0.001082  0.667201  0.581981  1
  Ga  Ga9  1  0.332799  0.998918  0.418019  1
  Ga  Ga10  1  0.000355  0.334735  0.420208  1
  Ga  Ga11  1  0.665265  0.999645  0.579792  1
  Ga  Ga12  1  0.666246  0.001359  0.922219  1
  Ga  Ga13  1  0.337747  0.001579  0.079032  1
  Ga  Ga14  1  0.332822  0.334242  0.568408  1
  Ga  Ga15  1  0.665758  0.667178  0.431592  1
  Ga  Ga16  1  0.668628  0.663586  0.062459  1
  Ga  Ga17  1  0.336414  0.331372  0.937541  1
  Ga  Ga18  1  0.336460  0.545200  0.249260  1
  Ga  Ga19  1  0.661366  0.456281  0.752884  1
  Ga  Ga20  1  0.543719  0.338634  0.247116  1
  Ga  Ga21  1  0.454800  0.663540  0.750740  1
  Re  Re22  1  0.673477  0.326523  0.000000  1
  Pd  Pd23  1  0.329107  0.670893  0.000000  1
  Pd  Pd24  1  0.329118  0.670882  0.500000  1
  Pd  Pd25  1  0.669908  0.330092  0.500000  1
  Pd  Pd26  1  0.000665  0.999335  0.000000  1
  Pd  Pd27  1  0.000301  0.999699  0.500000  1
