# generated using pymatgen
data_Tb13Dy3In4(RuRh)2
_symmetry_space_group_name_H-M   'P 1'
_cell_length_a   9.67822013
_cell_length_b   9.69134657
_cell_length_c   9.67723039
_cell_angle_alpha   59.95849129
_cell_angle_beta   59.87659512
_cell_angle_gamma   59.94836693
_symmetry_Int_Tables_number   1
_chemical_formula_structural   Tb13Dy3In4(RuRh)2
_chemical_formula_sum   'Tb13 Dy3 In4 Ru2 Rh2'
_cell_volume   640.77199799
_cell_formula_units_Z   1
loop_
 _symmetry_equiv_pos_site_id
 _symmetry_equiv_pos_as_xyz
  1  'x, y, z'
loop_
 _atom_site_type_symbol
 _atom_site_label
 _atom_site_symmetry_multiplicity
 _atom_site_fract_x
 _atom_site_fract_y
 _atom_site_fract_z
 _atom_site_occupancy
  Tb  Tb0  1  0.651162  0.047165  0.651275  1
  Tb  Tb1  1  0.061220  0.060348  0.441239  1
  Tb  Tb2  1  0.441239  0.437193  0.061220  1
  Tb  Tb3  1  0.651275  0.650397  0.651162  1
  Tb  Tb4  1  0.810682  0.192395  0.188467  1
  Tb  Tb5  1  0.188467  0.808456  0.810682  1
  Tb  Tb6  1  0.045741  0.651043  0.651979  1
  Tb  Tb7  1  0.441263  0.060342  0.061226  1
  Tb  Tb8  1  0.437084  0.062916  0.437084  1
  Tb  Tb9  1  0.058833  0.441167  0.058833  1
  Tb  Tb10  1  0.651979  0.651236  0.045741  1
  Tb  Tb11  1  0.191475  0.808525  0.191475  1
  Tb  Tb12  1  0.061226  0.437169  0.441263  1
  Dy  Dy13  1  0.810502  0.808322  0.188708  1
  Dy  Dy14  1  0.809774  0.190226  0.809774  1
  Dy  Dy15  1  0.188708  0.192467  0.810502  1
  In  In16  1  0.418487  0.417404  0.418549  1
  In  In17  1  0.417918  0.417319  0.747332  1
  In  In18  1  0.418549  0.745560  0.418487  1
  In  In19  1  0.747332  0.417429  0.417918  1
  Ru  Ru20  1  0.858289  0.422455  0.858143  1
  Ru  Ru21  1  0.858143  0.861114  0.858289  1
  Rh  Rh22  1  0.858023  0.859554  0.422626  1
  Rh  Rh23  1  0.422626  0.859797  0.858023  1
