# generated using pymatgen
data_CsSm2YSe5
_symmetry_space_group_name_H-M   'P 1'
_cell_length_a   4.22276800
_cell_length_b   12.83196200
_cell_length_c   22.47155200
_cell_angle_alpha   90.00000000
_cell_angle_beta   90.00000000
_cell_angle_gamma   90.00000000
_symmetry_Int_Tables_number   1
_chemical_formula_structural   CsSm2YSe5
_chemical_formula_sum   'Cs4 Sm8 Y4 Se20'
_cell_volume   1217.65247183
_cell_formula_units_Z   4
loop_
 _symmetry_equiv_pos_site_id
 _symmetry_equiv_pos_as_xyz
  1  'x, y, z'
loop_
 _atom_site_type_symbol
 _atom_site_label
 _atom_site_symmetry_multiplicity
 _atom_site_fract_x
 _atom_site_fract_y
 _atom_site_fract_z
 _atom_site_occupancy
  Cs  Cs0  1  0.250000  0.846808  0.095067  1
  Cs  Cs1  1  0.750000  0.153192  0.904933  1
  Cs  Cs2  1  0.750000  0.346808  0.404933  1
  Cs  Cs3  1  0.250000  0.653192  0.595067  1
  Sm  Sm4  1  0.750000  0.798407  0.828970  1
  Sm  Sm5  1  0.250000  0.201593  0.171030  1
  Sm  Sm6  1  0.250000  0.298407  0.671030  1
  Sm  Sm7  1  0.750000  0.701593  0.328970  1
  Sm  Sm8  1  0.250000  0.960418  0.699309  1
  Sm  Sm9  1  0.750000  0.039582  0.300691  1
  Sm  Sm10  1  0.750000  0.460418  0.800691  1
  Sm  Sm11  1  0.250000  0.539582  0.199309  1
  Y  Y12  1  0.750000  0.393660  0.052842  1
  Y  Y13  1  0.250000  0.606340  0.947158  1
  Y  Y14  1  0.250000  0.893660  0.447158  1
  Y  Y15  1  0.750000  0.106340  0.552842  1
  Se  Se16  1  0.250000  0.950782  0.568919  1
  Se  Se17  1  0.750000  0.049218  0.431081  1
  Se  Se18  1  0.750000  0.450782  0.931081  1
  Se  Se19  1  0.250000  0.549218  0.068919  1
  Se  Se20  1  0.750000  0.757487  0.956449  1
  Se  Se21  1  0.250000  0.242513  0.043551  1
  Se  Se22  1  0.250000  0.257487  0.543551  1
  Se  Se23  1  0.750000  0.742513  0.456449  1
  Se  Se24  1  0.250000  0.950748  0.828934  1
  Se  Se25  1  0.750000  0.049252  0.171066  1
  Se  Se26  1  0.750000  0.450748  0.671066  1
  Se  Se27  1  0.250000  0.549252  0.328934  1
  Se  Se28  1  0.750000  0.128368  0.683013  1
  Se  Se29  1  0.250000  0.871632  0.316987  1
  Se  Se30  1  0.250000  0.628368  0.816987  1
  Se  Se31  1  0.750000  0.371632  0.183013  1
  Se  Se32  1  0.750000  0.690251  0.199369  1
  Se  Se33  1  0.250000  0.309749  0.800631  1
  Se  Se34  1  0.250000  0.190251  0.300631  1
  Se  Se35  1  0.750000  0.809749  0.699369  1
