# generated using pymatgen
data_Y5ErHf2(Co4P3)4
_symmetry_space_group_name_H-M   'P 1'
_cell_length_a   3.71686600
_cell_length_b   10.68123307
_cell_length_c   12.39442908
_cell_angle_alpha   90.01274807
_cell_angle_beta   90.00000000
_cell_angle_gamma   90.00000000
_symmetry_Int_Tables_number   1
_chemical_formula_structural   Y5ErHf2(Co4P3)4
_chemical_formula_sum   'Y5 Er1 Hf2 Co16 P12'
_cell_volume   492.06764726
_cell_formula_units_Z   1
loop_
 _symmetry_equiv_pos_site_id
 _symmetry_equiv_pos_as_xyz
  1  'x, y, z'
loop_
 _atom_site_type_symbol
 _atom_site_label
 _atom_site_symmetry_multiplicity
 _atom_site_fract_x
 _atom_site_fract_y
 _atom_site_fract_z
 _atom_site_occupancy
  Y  Y0  1  0.000000  0.500010  0.528102  1
  Y  Y1  1  0.500000  0.999889  0.471784  1
  Y  Y2  1  0.500000  0.178337  0.204465  1
  Y  Y3  1  0.000000  0.678570  0.795498  1
  Y  Y4  1  0.000000  0.321500  0.795599  1
  Er  Er5  1  0.500000  0.821672  0.204340  1
  Hf  Hf6  1  0.500000  0.500350  0.156935  1
  Hf  Hf7  1  0.000000  0.999870  0.843103  1
  Co  Co8  1  0.500000  0.500095  0.702907  1
  Co  Co9  1  0.000000  0.998827  0.296603  1
  Co  Co10  1  0.000000  0.500368  0.986865  1
  Co  Co11  1  0.500000  0.999567  0.013784  1
  Co  Co12  1  0.500000  0.332207  0.993366  1
  Co  Co13  1  0.500000  0.668196  0.993769  1
  Co  Co14  1  0.000000  0.167536  0.006979  1
  Co  Co15  1  0.000000  0.832090  0.007256  1
  Co  Co16  1  0.500000  0.295130  0.433018  1
  Co  Co17  1  0.500000  0.704971  0.432490  1
  Co  Co18  1  0.000000  0.204694  0.566881  1
  Co  Co19  1  0.000000  0.795292  0.566589  1
  Co  Co20  1  0.500000  0.878067  0.703007  1
  Co  Co21  1  0.500000  0.121921  0.703127  1
  Co  Co22  1  0.000000  0.622697  0.296195  1
  Co  Co23  1  0.000000  0.378216  0.296933  1
  P  P24  1  0.500000  0.500199  0.883562  1
  P  P25  1  0.000000  0.999135  0.117045  1
  P  P26  1  0.500000  0.499913  0.360966  1
  P  P27  1  0.000000  0.999968  0.638938  1
  P  P28  1  0.500000  0.309859  0.615613  1
  P  P29  1  0.500000  0.690289  0.615364  1
  P  P30  1  0.000000  0.189898  0.384293  1
  P  P31  1  0.000000  0.809938  0.383434  1
  P  P32  1  0.500000  0.838789  0.893663  1
  P  P33  1  0.500000  0.161042  0.893839  1
  P  P34  1  0.000000  0.661995  0.107264  1
  P  P35  1  0.000000  0.338902  0.106421  1
