# generated using pymatgen
data_Sc12MnFe2Si12Ru
_symmetry_space_group_name_H-M   'P 1'
_cell_length_a   3.97333400
_cell_length_b   10.21547089
_cell_length_c   11.73330895
_cell_angle_alpha   89.77284584
_cell_angle_beta   90.00000000
_cell_angle_gamma   90.00000000
_symmetry_Int_Tables_number   1
_chemical_formula_structural   Sc12MnFe2Si12Ru
_chemical_formula_sum   'Sc12 Mn1 Fe2 Si12 Ru1'
_cell_volume   476.24514037
_cell_formula_units_Z   1
loop_
 _symmetry_equiv_pos_site_id
 _symmetry_equiv_pos_as_xyz
  1  'x, y, z'
loop_
 _atom_site_type_symbol
 _atom_site_label
 _atom_site_symmetry_multiplicity
 _atom_site_fract_x
 _atom_site_fract_y
 _atom_site_fract_z
 _atom_site_occupancy
  Sc  Sc0  1  0.250000  0.878298  0.021779  1
  Sc  Sc1  1  0.250000  0.618524  0.523199  1
  Sc  Sc2  1  0.750000  0.123296  0.979054  1
  Sc  Sc3  1  0.750000  0.380670  0.476585  1
  Sc  Sc4  1  0.250000  0.921235  0.604340  1
  Sc  Sc5  1  0.250000  0.577896  0.101819  1
  Sc  Sc6  1  0.750000  0.077801  0.397261  1
  Sc  Sc7  1  0.750000  0.422954  0.898401  1
  Sc  Sc8  1  0.250000  0.655255  0.797935  1
  Sc  Sc9  1  0.250000  0.834530  0.299887  1
  Sc  Sc10  1  0.750000  0.342090  0.201399  1
  Sc  Sc11  1  0.750000  0.166806  0.700241  1
  Mn  Mn12  1  0.250000  0.113382  0.177724  1
  Fe  Fe13  1  0.250000  0.389004  0.675854  1
  Fe  Fe14  1  0.750000  0.610482  0.323853  1
  Si  Si15  1  0.250000  0.017178  0.822619  1
  Si  Si16  1  0.250000  0.495084  0.321726  1
  Si  Si17  1  0.750000  0.983394  0.177712  1
  Si  Si18  1  0.750000  0.504701  0.678380  1
  Si  Si19  1  0.250000  0.257421  0.839051  1
  Si  Si20  1  0.250000  0.249808  0.342481  1
  Si  Si21  1  0.750000  0.742763  0.161675  1
  Si  Si22  1  0.750000  0.748159  0.656789  1
  Si  Si23  1  0.250000  0.199253  0.545598  1
  Si  Si24  1  0.250000  0.306904  0.043988  1
  Si  Si25  1  0.750000  0.798638  0.453799  1
  Si  Si26  1  0.750000  0.694927  0.955941  1
  Ru  Ru27  1  0.750000  0.889543  0.820912  1
