# generated using pymatgen
data_YbDy2Ho5(B6Os)4
_symmetry_space_group_name_H-M   'P 1'
_cell_length_a   3.64767200
_cell_length_b   9.14168923
_cell_length_c   11.52607059
_cell_angle_alpha   90.10386957
_cell_angle_beta   90.00000000
_cell_angle_gamma   90.00000000
_symmetry_Int_Tables_number   1
_chemical_formula_structural   YbDy2Ho5(B6Os)4
_chemical_formula_sum   'Yb1 Dy2 Ho5 B24 Os4'
_cell_volume   384.34637909
_cell_formula_units_Z   1
loop_
 _symmetry_equiv_pos_site_id
 _symmetry_equiv_pos_as_xyz
  1  'x, y, z'
loop_
 _atom_site_type_symbol
 _atom_site_label
 _atom_site_symmetry_multiplicity
 _atom_site_fract_x
 _atom_site_fract_y
 _atom_site_fract_z
 _atom_site_occupancy
  Yb  Yb0  1  0.000000  0.822835  0.086257  1
  Dy  Dy1  1  0.000000  0.322107  0.413588  1
  Dy  Dy2  1  0.000000  0.678384  0.585528  1
  Ho  Ho3  1  0.000000  0.176479  0.914991  1
  Ho  Ho4  1  0.000000  0.942978  0.371018  1
  Ho  Ho5  1  0.000000  0.056220  0.627255  1
  Ho  Ho6  1  0.000000  0.443881  0.127941  1
  Ho  Ho7  1  0.000000  0.558126  0.872931  1
  B  B8  1  0.500000  0.553119  0.433219  1
  B  B9  1  0.500000  0.446089  0.567691  1
  B  B10  1  0.500000  0.053483  0.067185  1
  B  B11  1  0.500000  0.946314  0.932894  1
  B  B12  1  0.500000  0.747501  0.419022  1
  B  B13  1  0.500000  0.251813  0.580808  1
  B  B14  1  0.500000  0.248093  0.080686  1
  B  B15  1  0.500000  0.752507  0.919167  1
  B  B16  1  0.500000  0.789743  0.266039  1
  B  B17  1  0.500000  0.209449  0.733953  1
  B  B18  1  0.500000  0.290884  0.233595  1
  B  B19  1  0.500000  0.710164  0.766154  1
  B  B20  1  0.500000  0.631042  0.185867  1
  B  B21  1  0.500000  0.368789  0.815005  1
  B  B22  1  0.500000  0.131422  0.313750  1
  B  B23  1  0.500000  0.868951  0.685147  1
  B  B24  1  0.500000  0.983165  0.212069  1
  B  B25  1  0.500000  0.017021  0.787357  1
  B  B26  1  0.500000  0.483030  0.287909  1
  B  B27  1  0.500000  0.516948  0.713032  1
  B  B28  1  0.500000  0.604060  0.028988  1
  B  B29  1  0.500000  0.394880  0.970930  1
  B  B30  1  0.500000  0.107467  0.469953  1
  B  B31  1  0.500000  0.892694  0.529309  1
  Os  Os32  1  0.000000  0.636360  0.322448  1
  Os  Os33  1  0.000000  0.362586  0.678787  1
  Os  Os34  1  0.000000  0.138706  0.179117  1
  Os  Os35  1  0.000000  0.862707  0.820413  1
