# generated using pymatgen
data_Zn3FeP7N12
_symmetry_space_group_name_H-M   'P 1'
_cell_length_a   7.15616483
_cell_length_b   7.13987720
_cell_length_c   7.15616532
_cell_angle_alpha   109.42512266
_cell_angle_beta   109.51728392
_cell_angle_gamma   109.42512767
_symmetry_Int_Tables_number   1
_chemical_formula_structural   Zn3FeP7N12
_chemical_formula_sum   'Zn3 Fe1 P7 N12'
_cell_volume   281.62827714
_cell_formula_units_Z   1
loop_
 _symmetry_equiv_pos_site_id
 _symmetry_equiv_pos_as_xyz
  1  'x, y, z'
loop_
 _atom_site_type_symbol
 _atom_site_label
 _atom_site_symmetry_multiplicity
 _atom_site_fract_x
 _atom_site_fract_y
 _atom_site_fract_z
 _atom_site_occupancy
  Zn  Zn0  1  0.677745  0.677998  0.677745  1
  Zn  Zn1  1  0.322255  0.000254  0.000000  1
  Zn  Zn2  1  0.000000  0.000254  0.322255  1
  Fe  Fe3  1  0.000000  0.338106  0.000000  1
  P  P4  1  0.750137  0.248476  0.498390  1
  P  P5  1  0.251747  0.750086  0.501610  1
  P  P6  1  0.501610  0.750086  0.251747  1
  P  P7  1  0.498390  0.248476  0.750137  1
  P  P8  1  0.748253  0.498339  0.249863  1
  P  P9  1  0.249863  0.498339  0.748253  1
  P  P10  1  0.000000  0.011836  0.000000  1
  N  N11  1  0.556027  0.268186  0.000000  1
  N  N12  1  0.448172  0.446970  0.719544  1
  N  N13  1  0.000000  0.268186  0.556027  1
  N  N14  1  0.271373  0.998798  0.551828  1
  N  N15  1  0.719544  0.446970  0.448172  1
  N  N16  1  0.000000  0.551144  0.270599  1
  N  N17  1  0.551828  0.998798  0.271373  1
  N  N18  1  0.443973  0.712159  0.443973  1
  N  N19  1  0.270599  0.551144  0.000000  1
  N  N20  1  0.729401  0.280545  0.729401  1
  N  N21  1  0.728627  0.727426  0.280456  1
  N  N22  1  0.280456  0.727426  0.728627  1
