# generated using pymatgen
data_Ca10Si5SbF
_symmetry_space_group_name_H-M   'P 1'
_cell_length_a   9.18501617
_cell_length_b   9.18501559
_cell_length_c   9.18501611
_cell_angle_alpha   130.20356268
_cell_angle_beta   130.19904037
_cell_angle_gamma   73.08515697
_symmetry_Int_Tables_number   1
_chemical_formula_structural   Ca10Si5SbF
_chemical_formula_sum   'Ca10 Si5 Sb1 F1'
_cell_volume   441.42434613
_cell_formula_units_Z   1
loop_
 _symmetry_equiv_pos_site_id
 _symmetry_equiv_pos_as_xyz
  1  'x, y, z'
loop_
 _atom_site_type_symbol
 _atom_site_label
 _atom_site_symmetry_multiplicity
 _atom_site_fract_x
 _atom_site_fract_y
 _atom_site_fract_z
 _atom_site_occupancy
  Ca  Ca0  1  0.761797  0.431143  0.983515  1
  Ca  Ca1  1  0.447628  0.778283  0.016485  1
  Ca  Ca2  1  0.928132  0.943327  0.644575  1
  Ca  Ca3  1  0.298752  0.283557  0.355425  1
  Ca  Ca4  1  0.701248  0.056673  0.984805  1
  Ca  Ca5  1  0.071868  0.716443  0.015195  1
  Ca  Ca6  1  0.552372  0.568857  0.330654  1
  Ca  Ca7  1  0.238202  0.221717  0.669346  1
  Ca  Ca8  1  0.246420  0.746420  0.500000  1
  Ca  Ca9  1  0.753580  0.253580  0.500000  1
  Si  Si10  1  0.500000  0.000000  0.500000  1
  Si  Si11  1  0.132794  0.361385  0.000066  1
  Si  Si12  1  0.361319  0.132728  0.999934  1
  Si  Si13  1  0.867206  0.867272  0.228591  1
  Si  Si14  1  0.638681  0.638615  0.771409  1
  Sb  Sb15  1  0.000000  0.500000  0.500000  1
  F  F16  1  0.500000  0.500000  0.000000  1
