# generated using pymatgen
data_HoEr3Tc3PtF28
_symmetry_space_group_name_H-M   'P 1'
_cell_length_a   5.54857147
_cell_length_b   8.84164582
_cell_length_c   11.95079930
_cell_angle_alpha   62.64018170
_cell_angle_beta   89.98213798
_cell_angle_gamma   89.98301981
_symmetry_Int_Tables_number   1
_chemical_formula_structural   HoEr3Tc3PtF28
_chemical_formula_sum   'Ho1 Er3 Tc3 Pt1 F28'
_cell_volume   520.70485907
_cell_formula_units_Z   1
loop_
 _symmetry_equiv_pos_site_id
 _symmetry_equiv_pos_as_xyz
  1  'x, y, z'
loop_
 _atom_site_type_symbol
 _atom_site_label
 _atom_site_symmetry_multiplicity
 _atom_site_fract_x
 _atom_site_fract_y
 _atom_site_fract_z
 _atom_site_occupancy
  Ho  Ho0  1  0.741351  0.813402  0.265253  1
  Er  Er1  1  0.759193  0.814547  0.764690  1
  Er  Er2  1  0.259593  0.185010  0.735588  1
  Er  Er3  1  0.240016  0.185154  0.236688  1
  Tc  Tc4  1  0.758172  0.273008  0.956975  1
  Tc  Tc5  1  0.257883  0.726638  0.543677  1
  Tc  Tc6  1  0.242111  0.726368  0.043248  1
  Pt  Pt7  1  0.740638  0.271938  0.457013  1
  F  F8  1  0.444619  0.706547  0.916609  1
  F  F9  1  0.937437  0.297412  0.584115  1
  F  F10  1  0.555278  0.293088  0.083274  1
  F  F11  1  0.056867  0.706499  0.416993  1
  F  F12  1  0.440066  0.277193  0.543714  1
  F  F13  1  0.944090  0.723776  0.953824  1
  F  F14  1  0.555322  0.723171  0.454695  1
  F  F15  1  0.055367  0.275676  0.046879  1
  F  F16  1  0.774946  0.522167  0.859075  1
  F  F17  1  0.273790  0.477268  0.641023  1
  F  F18  1  0.225229  0.477315  0.141496  1
  F  F19  1  0.724877  0.521343  0.358003  1
  F  F20  1  0.755901  0.025021  0.053302  1
  F  F21  1  0.255764  0.974762  0.446916  1
  F  F22  1  0.244486  0.974624  0.946462  1
  F  F23  1  0.745418  0.022333  0.550942  1
  F  F24  1  0.971534  0.728583  0.639581  1
  F  F25  1  0.472643  0.271267  0.860507  1
  F  F26  1  0.033118  0.274906  0.362976  1
  F  F27  1  0.527658  0.728211  0.139117  1
  F  F28  1  0.046964  0.746823  0.173348  1
  F  F29  1  0.550030  0.254035  0.324235  1
  F  F30  1  0.955539  0.252562  0.827020  1
  F  F31  1  0.454964  0.747208  0.673471  1
  F  F32  1  0.417525  0.971589  0.232239  1
  F  F33  1  0.918840  0.029968  0.267989  1
  F  F34  1  0.581494  0.029439  0.767134  1
  F  F35  1  0.081274  0.971152  0.731931  1
