# generated using pymatgen
data_La6Zr2Bi7Sb3
_symmetry_space_group_name_H-M   'P 1'
_cell_length_a   9.77777300
_cell_length_b   9.77146473
_cell_length_c   6.57283000
_cell_angle_alpha   90.00000000
_cell_angle_beta   90.00000000
_cell_angle_gamma   120.02136809
_symmetry_Int_Tables_number   1
_chemical_formula_structural   La6Zr2Bi7Sb3
_chemical_formula_sum   'La6 Zr2 Bi7 Sb3'
_cell_volume   543.73726549
_cell_formula_units_Z   1
loop_
 _symmetry_equiv_pos_site_id
 _symmetry_equiv_pos_as_xyz
  1  'x, y, z'
loop_
 _atom_site_type_symbol
 _atom_site_label
 _atom_site_symmetry_multiplicity
 _atom_site_fract_x
 _atom_site_fract_y
 _atom_site_fract_z
 _atom_site_occupancy
  La  La0  1  0.614756  0.000000  0.250000  1
  La  La1  1  0.618788  0.615735  0.750000  1
  La  La2  1  0.376391  0.000000  0.750000  1
  La  La3  1  0.380215  0.377084  0.250000  1
  La  La4  1  0.003130  0.622916  0.250000  1
  La  La5  1  0.003053  0.384265  0.750000  1
  Zr  Zr6  1  0.005419  0.000000  0.998492  1
  Zr  Zr7  1  0.005419  0.000000  0.501508  1
  Bi  Bi8  1  0.333608  0.666471  0.500384  1
  Bi  Bi9  1  0.667137  0.333529  0.999616  1
  Bi  Bi10  1  0.667137  0.333529  0.500384  1
  Bi  Bi11  1  0.333608  0.666471  0.999616  1
  Bi  Bi12  1  0.738024  0.000000  0.750000  1
  Bi  Bi13  1  0.737252  0.738390  0.250000  1
  Bi  Bi14  1  0.998862  0.261610  0.250000  1
  Sb  Sb15  1  0.998853  0.740262  0.750000  1
  Sb  Sb16  1  0.259759  0.000000  0.250000  1
  Sb  Sb17  1  0.258591  0.259738  0.750000  1
