# generated using pymatgen
data_Ho16MgZn2HgRh4
_symmetry_space_group_name_H-M   'P 1'
_cell_length_a   9.53776142
_cell_length_b   9.52668412
_cell_length_c   9.55179800
_cell_angle_alpha   59.91275808
_cell_angle_beta   59.95130510
_cell_angle_gamma   59.87984047
_symmetry_Int_Tables_number   1
_chemical_formula_structural   Ho16MgZn2HgRh4
_chemical_formula_sum   'Ho16 Mg1 Zn2 Hg1 Rh4'
_cell_volume   612.51424303
_cell_formula_units_Z   1
loop_
 _symmetry_equiv_pos_site_id
 _symmetry_equiv_pos_as_xyz
  1  'x, y, z'
loop_
 _atom_site_type_symbol
 _atom_site_label
 _atom_site_symmetry_multiplicity
 _atom_site_fract_x
 _atom_site_fract_y
 _atom_site_fract_z
 _atom_site_occupancy
  Ho  Ho0  1  0.808596  0.190991  0.190274  1
  Ho  Ho1  1  0.187804  0.811236  0.812391  1
  Ho  Ho2  1  0.187804  0.811236  0.188567  1
  Ho  Ho3  1  0.808596  0.190991  0.810140  1
  Ho  Ho4  1  0.186999  0.188532  0.812234  1
  Ho  Ho5  1  0.808625  0.809226  0.191075  1
  Ho  Ho6  1  0.932035  0.564274  0.564605  1
  Ho  Ho7  1  0.563205  0.934052  0.937544  1
  Ho  Ho8  1  0.563205  0.934052  0.565198  1
  Ho  Ho9  1  0.932035  0.564274  0.939086  1
  Ho  Ho10  1  0.563745  0.565501  0.935377  1
  Ho  Ho11  1  0.934492  0.937626  0.563941  1
  Ho  Ho12  1  0.352105  0.349681  0.347792  1
  Ho  Ho13  1  0.352105  0.349681  0.950422  1
  Ho  Ho14  1  0.353701  0.948594  0.348853  1
  Ho  Ho15  1  0.938723  0.354951  0.353162  1
  Mg  Mg16  1  0.283876  0.573183  0.571471  1
  Zn  Zn17  1  0.581973  0.585101  0.584241  1
  Zn  Zn18  1  0.581973  0.585101  0.248686  1
  Hg  Hg19  1  0.582022  0.249340  0.584320  1
  Rh  Rh20  1  0.141214  0.144291  0.143904  1
  Rh  Rh21  1  0.141214  0.144291  0.570592  1
  Rh  Rh22  1  0.141598  0.570929  0.143736  1
  Rh  Rh23  1  0.572356  0.142866  0.142389  1
