# generated using pymatgen
data_Nd3YNi16(SnPd)4
_symmetry_space_group_name_H-M   'P 1'
_cell_length_a   4.94819400
_cell_length_b   4.94819389
_cell_length_c   20.22682000
_cell_angle_alpha   90.00000000
_cell_angle_beta   90.00000000
_cell_angle_gamma   120.00001412
_symmetry_Int_Tables_number   1
_chemical_formula_structural   Nd3YNi16(SnPd)4
_chemical_formula_sum   'Nd3 Y1 Ni16 Sn4 Pd4'
_cell_volume   428.89561533
_cell_formula_units_Z   1
loop_
 _symmetry_equiv_pos_site_id
 _symmetry_equiv_pos_as_xyz
  1  'x, y, z'
loop_
 _atom_site_type_symbol
 _atom_site_label
 _atom_site_symmetry_multiplicity
 _atom_site_fract_x
 _atom_site_fract_y
 _atom_site_fract_z
 _atom_site_occupancy
  Nd  Nd0  1  0.666667  0.333333  0.750000  1
  Nd  Nd1  1  0.000000  0.000000  0.499861  1
  Nd  Nd2  1  0.000000  0.000000  0.000139  1
  Y  Y3  1  0.333333  0.666667  0.250000  1
  Ni  Ni4  1  0.000000  0.000000  0.250000  1
  Ni  Ni5  1  0.000000  0.000000  0.750000  1
  Ni  Ni6  1  0.333333  0.666667  0.750000  1
  Ni  Ni7  1  0.666667  0.333333  0.250000  1
  Ni  Ni8  1  0.834533  0.165467  0.349504  1
  Ni  Ni9  1  0.834533  0.669065  0.349504  1
  Ni  Ni10  1  0.330935  0.165467  0.349504  1
  Ni  Ni11  1  0.165391  0.834609  0.649633  1
  Ni  Ni12  1  0.165391  0.330782  0.649633  1
  Ni  Ni13  1  0.669218  0.834609  0.649633  1
  Ni  Ni14  1  0.165391  0.834609  0.850367  1
  Ni  Ni15  1  0.165391  0.330782  0.850367  1
  Ni  Ni16  1  0.669218  0.834609  0.850367  1
  Ni  Ni17  1  0.834533  0.165467  0.150496  1
  Ni  Ni18  1  0.834533  0.669065  0.150496  1
  Ni  Ni19  1  0.330935  0.165467  0.150496  1
  Sn  Sn20  1  0.333333  0.666667  0.405241  1
  Sn  Sn21  1  0.666667  0.333333  0.593675  1
  Sn  Sn22  1  0.666667  0.333333  0.906325  1
  Sn  Sn23  1  0.333333  0.666667  0.094759  1
  Pd  Pd24  1  0.333333  0.666667  0.960118  1
  Pd  Pd25  1  0.666667  0.333333  0.040292  1
  Pd  Pd26  1  0.666667  0.333333  0.459708  1
  Pd  Pd27  1  0.333333  0.666667  0.539882  1
