# generated using pymatgen
data_Ce16YAl12
_symmetry_space_group_name_H-M   'P 1'
_cell_length_a   9.58982199
_cell_length_b   9.58982178
_cell_length_c   9.58982200
_cell_angle_alpha   109.47121898
_cell_angle_beta   109.47121854
_cell_angle_gamma   109.47122019
_symmetry_Int_Tables_number   1
_chemical_formula_structural   Ce16YAl12
_chemical_formula_sum   'Ce16 Y1 Al12'
_cell_volume   678.90617685
_cell_formula_units_Z   1
loop_
 _symmetry_equiv_pos_site_id
 _symmetry_equiv_pos_as_xyz
  1  'x, y, z'
loop_
 _atom_site_type_symbol
 _atom_site_label
 _atom_site_symmetry_multiplicity
 _atom_site_fract_x
 _atom_site_fract_y
 _atom_site_fract_z
 _atom_site_occupancy
  Ce  Ce0  1  0.309260  0.587231  0.000000  1
  Ce  Ce1  1  0.376508  0.000000  0.000000  1
  Ce  Ce2  1  0.000000  0.376508  0.000000  1
  Ce  Ce3  1  0.587231  0.309260  0.000000  1
  Ce  Ce4  1  0.412769  0.412769  0.722029  1
  Ce  Ce5  1  0.690740  0.277971  0.690740  1
  Ce  Ce6  1  0.277971  0.690740  0.690740  1
  Ce  Ce7  1  0.623492  0.623492  0.623492  1
  Ce  Ce8  1  0.000000  0.309260  0.587231  1
  Ce  Ce9  1  0.309260  0.000000  0.587231  1
  Ce  Ce10  1  0.722029  0.412769  0.412769  1
  Ce  Ce11  1  0.412769  0.722029  0.412769  1
  Ce  Ce12  1  0.000000  0.000000  0.376508  1
  Ce  Ce13  1  0.000000  0.587231  0.309260  1
  Ce  Ce14  1  0.587231  0.000000  0.309260  1
  Ce  Ce15  1  0.690740  0.690740  0.277971  1
  Y  Y16  1  0.000000  0.000000  0.000000  1
  Al  Al17  1  0.643590  0.820504  0.000000  1
  Al  Al18  1  0.820504  0.643590  0.000000  1
  Al  Al19  1  0.179496  0.179496  0.823085  1
  Al  Al20  1  0.000000  0.643590  0.820504  1
  Al  Al21  1  0.643590  0.000000  0.820504  1
  Al  Al22  1  0.820504  0.000000  0.643590  1
  Al  Al23  1  0.000000  0.820504  0.643590  1
  Al  Al24  1  0.356410  0.176915  0.356410  1
  Al  Al25  1  0.176915  0.356410  0.356410  1
  Al  Al26  1  0.823085  0.179496  0.179496  1
  Al  Al27  1  0.179496  0.823085  0.179496  1
  Al  Al28  1  0.356410  0.356410  0.176915  1
