# generated using pymatgen
data_Nd3Ag5Pt
_symmetry_space_group_name_H-M   'P 1'
_cell_length_a   7.83364000
_cell_length_b   7.83363842
_cell_length_c   3.98544600
_cell_angle_alpha   90.00000000
_cell_angle_beta   90.00000000
_cell_angle_gamma   119.99999822
_symmetry_Int_Tables_number   1
_chemical_formula_structural   Nd3Ag5Pt
_chemical_formula_sum   'Nd3 Ag5 Pt1'
_cell_volume   211.80426447
_cell_formula_units_Z   1
loop_
 _symmetry_equiv_pos_site_id
 _symmetry_equiv_pos_as_xyz
  1  'x, y, z'
loop_
 _atom_site_type_symbol
 _atom_site_label
 _atom_site_symmetry_multiplicity
 _atom_site_fract_x
 _atom_site_fract_y
 _atom_site_fract_z
 _atom_site_occupancy
  Nd  Nd0  1  0.019829  0.605884  0.500000  1
  Nd  Nd1  1  0.586055  0.980171  0.500000  1
  Nd  Nd2  1  0.394116  0.413945  0.500000  1
  Ag  Ag3  1  0.997050  0.256496  0.000000  1
  Ag  Ag4  1  0.259445  0.002950  0.000000  1
  Ag  Ag5  1  0.743504  0.740555  0.000000  1
  Ag  Ag6  1  0.000000  0.000000  0.500000  1
  Ag  Ag7  1  0.666667  0.333333  0.000000  1
  Pt  Pt8  1  0.333333  0.666667  0.000000  1
