# generated using pymatgen
data_Y10Ga3Sn2Os
_symmetry_space_group_name_H-M   'P 1'
_cell_length_a   8.86830163
_cell_length_b   8.86830168
_cell_length_c   8.90093600
_cell_angle_alpha   127.22218432
_cell_angle_beta   127.22218456
_cell_angle_gamma   77.62747404
_symmetry_Int_Tables_number   1
_chemical_formula_structural   Y10Ga3Sn2Os
_chemical_formula_sum   'Y10 Ga3 Sn2 Os1'
_cell_volume   430.99887591
_cell_formula_units_Z   1
loop_
 _symmetry_equiv_pos_site_id
 _symmetry_equiv_pos_as_xyz
  1  'x, y, z'
loop_
 _atom_site_type_symbol
 _atom_site_label
 _atom_site_symmetry_multiplicity
 _atom_site_fract_x
 _atom_site_fract_y
 _atom_site_fract_z
 _atom_site_occupancy
  Y  Y0  1  0.509082  0.496938  0.006020  1
  Y  Y1  1  0.996938  0.009082  0.006020  1
  Y  Y2  1  0.541087  0.041087  0.853521  1
  Y  Y3  1  0.190378  0.690378  0.165615  1
  Y  Y4  1  0.015989  0.196997  0.491567  1
  Y  Y5  1  0.696997  0.515989  0.491567  1
  Y  Y6  1  0.475234  0.975234  0.165615  1
  Y  Y7  1  0.812437  0.312437  0.853521  1
  Y  Y8  1  0.975578  0.794571  0.491567  1
  Y  Y9  1  0.294571  0.475578  0.491567  1
  Ga  Ga10  1  0.130177  0.630177  0.760354  1
  Ga  Ga11  1  0.368689  0.124266  0.492955  1
  Ga  Ga12  1  0.624266  0.868689  0.492955  1
  Sn  Sn13  1  0.245617  0.245617  0.991234  1
  Sn  Sn14  1  0.745617  0.745617  0.991234  1
  Os  Os15  1  0.877345  0.377345  0.254688  1
