# generated using pymatgen
data_La2Sm2Gd2OsI10
_symmetry_space_group_name_H-M   'P 1'
_cell_length_a   7.99110758
_cell_length_b   10.06426247
_cell_length_c   9.92162700
_cell_angle_alpha   107.13995912
_cell_angle_beta   96.29672735
_cell_angle_gamma   105.77878556
_symmetry_Int_Tables_number   1
_chemical_formula_structural   La2Sm2Gd2OsI10
_chemical_formula_sum   'La2 Sm2 Gd2 Os1 I10'
_cell_volume   717.97015066
_cell_formula_units_Z   1
loop_
 _symmetry_equiv_pos_site_id
 _symmetry_equiv_pos_as_xyz
  1  'x, y, z'
loop_
 _atom_site_type_symbol
 _atom_site_label
 _atom_site_symmetry_multiplicity
 _atom_site_fract_x
 _atom_site_fract_y
 _atom_site_fract_z
 _atom_site_occupancy
  La  La0  1  0.385622  0.957569  0.729370  1
  La  La1  1  0.614378  0.042431  0.270630  1
  Sm  Sm2  1  0.857026  0.132294  0.673806  1
  Sm  Sm3  1  0.142974  0.867706  0.326194  1
  Gd  Gd4  1  0.470459  0.291823  0.588965  1
  Gd  Gd5  1  0.529541  0.708177  0.411035  1
  Os  Os6  1  0.500000  0.000000  0.500000  1
  I  I7  1  0.416239  0.626494  0.677233  1
  I  I8  1  0.583761  0.373506  0.322767  1
  I  I9  1  0.288180  0.263910  0.849201  1
  I  I10  1  0.711820  0.736090  0.150799  1
  I  I11  1  0.853812  0.453243  0.770377  1
  I  I12  1  0.146188  0.546757  0.229623  1
  I  I13  1  0.049892  0.179700  0.413024  1
  I  I14  1  0.234248  0.911716  0.041112  1
  I  I15  1  0.765752  0.088284  0.958888  1
  I  I16  1  0.950108  0.820300  0.586976  1
