# generated using pymatgen
data_La5(PdO6)2
_symmetry_space_group_name_H-M   'P 1'
_cell_length_a   7.21658541
_cell_length_b   7.21658533
_cell_length_c   7.71024101
_cell_angle_alpha   74.49998389
_cell_angle_beta   74.49997609
_cell_angle_gamma   50.47840347
_symmetry_Int_Tables_number   1
_chemical_formula_structural   La5(PdO6)2
_chemical_formula_sum   'La5 Pd2 O12'
_cell_volume   295.91687948
_cell_formula_units_Z   1
loop_
 _symmetry_equiv_pos_site_id
 _symmetry_equiv_pos_as_xyz
  1  'x, y, z'
loop_
 _atom_site_type_symbol
 _atom_site_label
 _atom_site_symmetry_multiplicity
 _atom_site_fract_x
 _atom_site_fract_y
 _atom_site_fract_z
 _atom_site_occupancy
  La  La0  1  0.305363  0.305363  0.356529  1
  La  La1  1  0.694637  0.694637  0.643471  1
  La  La2  1  0.694743  0.694743  0.162952  1
  La  La3  1  0.305257  0.305257  0.837048  1
  La  La4  1  0.000000  0.000000  0.500000  1
  Pd  Pd5  1  0.753747  0.246253  0.000000  1
  Pd  Pd6  1  0.246253  0.753747  0.000000  1
  O  O7  1  0.094653  0.599072  0.576179  1
  O  O8  1  0.999569  0.999569  0.172251  1
  O  O9  1  0.400928  0.905347  0.423821  1
  O  O10  1  0.500439  0.500439  0.173835  1
  O  O11  1  0.100217  0.576089  0.080247  1
  O  O12  1  0.905347  0.400928  0.423821  1
  O  O13  1  0.000431  0.000431  0.827749  1
  O  O14  1  0.599072  0.094652  0.576179  1
  O  O15  1  0.499561  0.499561  0.826165  1
  O  O16  1  0.576089  0.100217  0.080247  1
  O  O17  1  0.423911  0.899783  0.919753  1
  O  O18  1  0.899783  0.423911  0.919753  1
