# generated using pymatgen
data_Dy3Y6Er(CoSb2)2
_symmetry_space_group_name_H-M   'P 1'
_cell_length_a   7.91096300
_cell_length_b   8.74922127
_cell_length_c   12.24991637
_cell_angle_alpha   89.97161548
_cell_angle_beta   90.00000000
_cell_angle_gamma   90.00000000
_symmetry_Int_Tables_number   1
_chemical_formula_structural   Dy3Y6Er(CoSb2)2
_chemical_formula_sum   'Dy6 Y12 Er2 Co4 Sb8'
_cell_volume   847.87498816
_cell_formula_units_Z   2
loop_
 _symmetry_equiv_pos_site_id
 _symmetry_equiv_pos_as_xyz
  1  'x, y, z'
loop_
 _atom_site_type_symbol
 _atom_site_label
 _atom_site_symmetry_multiplicity
 _atom_site_fract_x
 _atom_site_fract_y
 _atom_site_fract_z
 _atom_site_occupancy
  Dy  Dy0  1  0.823349  0.966324  0.065594  1
  Dy  Dy1  1  0.323349  0.033676  0.434406  1
  Dy  Dy2  1  0.176424  0.466484  0.934500  1
  Dy  Dy3  1  0.676424  0.533516  0.565500  1
  Dy  Dy4  1  0.176665  0.033540  0.934441  1
  Dy  Dy5  1  0.676665  0.966460  0.565559  1
  Y  Y6  1  0.154861  0.749872  0.203978  1
  Y  Y7  1  0.654861  0.250128  0.296022  1
  Y  Y8  1  0.845005  0.250063  0.796082  1
  Y  Y9  1  0.345005  0.749937  0.703918  1
  Y  Y10  1  0.457199  0.749932  0.998471  1
  Y  Y11  1  0.957199  0.250068  0.501529  1
  Y  Y12  1  0.543117  0.250114  0.001541  1
  Y  Y13  1  0.043117  0.749886  0.498459  1
  Y  Y14  1  0.625915  0.749914  0.306522  1
  Y  Y15  1  0.125915  0.250086  0.193478  1
  Y  Y16  1  0.373851  0.250140  0.693421  1
  Y  Y17  1  0.873851  0.749860  0.806579  1
  Er  Er18  1  0.824073  0.533695  0.065536  1
  Er  Er19  1  0.324073  0.466305  0.434464  1
  Co  Co20  1  0.438316  0.749818  0.491469  1
  Co  Co21  1  0.938316  0.250182  0.008531  1
  Co  Co22  1  0.561157  0.250251  0.508435  1
  Co  Co23  1  0.061157  0.749749  0.991565  1
  Sb  Sb24  1  0.930664  0.992685  0.326698  1
  Sb  Sb25  1  0.430664  0.007315  0.173302  1
  Sb  Sb26  1  0.069242  0.492704  0.673317  1
  Sb  Sb27  1  0.569242  0.507296  0.826683  1
  Sb  Sb28  1  0.069313  0.007314  0.673332  1
  Sb  Sb29  1  0.569313  0.992686  0.826668  1
  Sb  Sb30  1  0.930851  0.507276  0.326661  1
  Sb  Sb31  1  0.430851  0.492724  0.173339  1
