# generated using pymatgen
data_Tm4Al18RePd5
_symmetry_space_group_name_H-M   'P 1'
_cell_length_a   7.61602583
_cell_length_b   7.61602693
_cell_length_c   9.47281200
_cell_angle_alpha   89.76543053
_cell_angle_beta   89.76543050
_cell_angle_gamma   119.31568591
_symmetry_Int_Tables_number   1
_chemical_formula_structural   Tm4Al18RePd5
_chemical_formula_sum   'Tm4 Al18 Re1 Pd5'
_cell_volume   479.07750131
_cell_formula_units_Z   1
loop_
 _symmetry_equiv_pos_site_id
 _symmetry_equiv_pos_as_xyz
  1  'x, y, z'
loop_
 _atom_site_type_symbol
 _atom_site_label
 _atom_site_symmetry_multiplicity
 _atom_site_fract_x
 _atom_site_fract_y
 _atom_site_fract_z
 _atom_site_occupancy
  Tm  Tm0  1  0.995802  0.674965  0.247747  1
  Tm  Tm1  1  0.004198  0.325035  0.752253  1
  Tm  Tm2  1  0.674965  0.995802  0.247747  1
  Tm  Tm3  1  0.325035  0.004198  0.752253  1
  Al  Al4  1  0.131553  0.131553  0.247695  1
  Al  Al5  1  0.868447  0.868447  0.752305  1
  Al  Al6  1  0.999531  0.331563  0.075528  1
  Al  Al7  1  0.000469  0.668437  0.924472  1
  Al  Al8  1  0.999110  0.662658  0.578994  1
  Al  Al9  1  0.337342  0.000890  0.421006  1
  Al  Al10  1  0.000890  0.337342  0.421006  1
  Al  Al11  1  0.662658  0.999110  0.578994  1
  Al  Al12  1  0.668437  0.000469  0.924472  1
  Al  Al13  1  0.331563  0.999531  0.075528  1
  Al  Al14  1  0.333308  0.333308  0.557265  1
  Al  Al15  1  0.666692  0.666692  0.442735  1
  Al  Al16  1  0.670321  0.670321  0.053765  1
  Al  Al17  1  0.329679  0.329679  0.946235  1
  Al  Al18  1  0.342241  0.550512  0.249076  1
  Al  Al19  1  0.657759  0.449488  0.750924  1
  Al  Al20  1  0.550512  0.342241  0.249076  1
  Al  Al21  1  0.449488  0.657759  0.750924  1
  Re  Re22  1  0.000000  0.000000  0.000000  1
  Pd  Pd23  1  0.672304  0.327696  0.000000  1
  Pd  Pd24  1  0.327696  0.672304  0.000000  1
  Pd  Pd25  1  0.327382  0.672618  0.500000  1
  Pd  Pd26  1  0.672618  0.327382  0.500000  1
  Pd  Pd27  1  0.000000  0.000000  0.500000  1
