# generated using pymatgen
data_Nd5Gd3Te8
_symmetry_space_group_name_H-M   'P 1'
_cell_length_a   9.06079657
_cell_length_b   9.02176246
_cell_length_c   9.02176200
_cell_angle_alpha   60.00000167
_cell_angle_beta   60.14240786
_cell_angle_gamma   60.14240809
_symmetry_Int_Tables_number   1
_chemical_formula_structural   Nd5Gd3Te8
_chemical_formula_sum   'Nd5 Gd3 Te8'
_cell_volume   522.59543579
_cell_formula_units_Z   1
loop_
 _symmetry_equiv_pos_site_id
 _symmetry_equiv_pos_as_xyz
  1  'x, y, z'
loop_
 _atom_site_type_symbol
 _atom_site_label
 _atom_site_symmetry_multiplicity
 _atom_site_fract_x
 _atom_site_fract_y
 _atom_site_fract_z
 _atom_site_occupancy
  Nd  Nd0  1  0.125000  0.625000  0.625000  1
  Nd  Nd1  1  0.125000  0.625000  0.125000  1
  Nd  Nd2  1  0.125000  0.125000  0.625000  1
  Nd  Nd3  1  0.625000  0.125000  0.125000  1
  Nd  Nd4  1  0.125000  0.125000  0.125000  1
  Gd  Gd5  1  0.625000  0.125000  0.625000  1
  Gd  Gd6  1  0.625000  0.625000  0.625000  1
  Gd  Gd7  1  0.625000  0.625000  0.125000  1
  Te  Te8  1  0.380312  0.869206  0.375241  1
  Te  Te9  1  0.869688  0.380794  0.874759  1
  Te  Te10  1  0.869688  0.874759  0.380794  1
  Te  Te11  1  0.869688  0.874759  0.874759  1
  Te  Te12  1  0.866716  0.377761  0.377761  1
  Te  Te13  1  0.380312  0.375241  0.869206  1
  Te  Te14  1  0.380312  0.375241  0.375241  1
  Te  Te15  1  0.383284  0.872239  0.872239  1
