# generated using pymatgen
data_Li2Sc5Cr(P3Ir4)4
_symmetry_space_group_name_H-M   'P 1'
_cell_length_a   12.57794741
_cell_length_b   12.57794788
_cell_length_c   3.90025300
_cell_angle_alpha   90.00000000
_cell_angle_beta   90.00000000
_cell_angle_gamma   119.59850691
_symmetry_Int_Tables_number   1
_chemical_formula_structural   Li2Sc5Cr(P3Ir4)4
_chemical_formula_sum   'Li2 Sc5 Cr1 P12 Ir16'
_cell_volume   536.51989092
_cell_formula_units_Z   1
loop_
 _symmetry_equiv_pos_site_id
 _symmetry_equiv_pos_as_xyz
  1  'x, y, z'
loop_
 _atom_site_type_symbol
 _atom_site_label
 _atom_site_symmetry_multiplicity
 _atom_site_fract_x
 _atom_site_fract_y
 _atom_site_fract_z
 _atom_site_occupancy
  Li  Li0  1  0.442747  0.998692  0.000000  1
  Li  Li1  1  0.998692  0.442747  0.000000  1
  Sc  Sc2  1  0.332535  0.664932  0.000000  1
  Sc  Sc3  1  0.664932  0.332535  0.000000  1
  Sc  Sc4  1  0.804915  0.995961  0.500000  1
  Sc  Sc5  1  0.995961  0.804915  0.500000  1
  Sc  Sc6  1  0.192007  0.192007  0.500000  1
  Cr  Cr7  1  0.549866  0.549866  0.000000  1
  P  P8  1  0.179926  0.003251  0.000000  1
  P  P9  1  0.003251  0.179926  0.000000  1
  P  P10  1  0.826350  0.826350  0.000000  1
  P  P11  1  0.172493  0.486843  0.500000  1
  P  P12  1  0.517350  0.685797  0.500000  1
  P  P13  1  0.310312  0.826714  0.500000  1
  P  P14  1  0.685797  0.517350  0.500000  1
  P  P15  1  0.826714  0.310312  0.500000  1
  P  P16  1  0.486843  0.172493  0.500000  1
  P  P17  1  0.634046  0.999917  0.000000  1
  P  P18  1  0.999917  0.634046  0.000000  1
  P  P19  1  0.369527  0.369527  0.000000  1
  Ir  Ir20  1  0.362454  0.493965  0.500000  1
  Ir  Ir21  1  0.504162  0.862268  0.500000  1
  Ir  Ir22  1  0.127467  0.640988  0.500000  1
  Ir  Ir23  1  0.862268  0.504162  0.500000  1
  Ir  Ir24  1  0.640988  0.127467  0.500000  1
  Ir  Ir25  1  0.493965  0.362454  0.500000  1
  Ir  Ir26  1  0.183968  0.374356  0.000000  1
  Ir  Ir27  1  0.631506  0.810320  0.000000  1
  Ir  Ir28  1  0.192090  0.820892  0.000000  1
  Ir  Ir29  1  0.810320  0.631506  0.000000  1
  Ir  Ir30  1  0.820892  0.192090  0.000000  1
  Ir  Ir31  1  0.374356  0.183968  0.000000  1
  Ir  Ir32  1  0.279156  0.002275  0.500000  1
  Ir  Ir33  1  0.002275  0.279156  0.500000  1
  Ir  Ir34  1  0.716411  0.716411  0.500000  1
  Ir  Ir35  1  0.003544  0.003544  0.000000  1
