# generated using pymatgen
data_Eu3Y(Al3Ni)4
_symmetry_space_group_name_H-M   'P 1'
_cell_length_a   4.19872100
_cell_length_b   8.43864795
_cell_length_c   11.11325083
_cell_angle_alpha   90.33356295
_cell_angle_beta   90.00000000
_cell_angle_gamma   90.00000000
_symmetry_Int_Tables_number   1
_chemical_formula_structural   Eu3Y(Al3Ni)4
_chemical_formula_sum   'Eu3 Y1 Al12 Ni4'
_cell_volume   393.75278883
_cell_formula_units_Z   1
loop_
 _symmetry_equiv_pos_site_id
 _symmetry_equiv_pos_as_xyz
  1  'x, y, z'
loop_
 _atom_site_type_symbol
 _atom_site_label
 _atom_site_symmetry_multiplicity
 _atom_site_fract_x
 _atom_site_fract_y
 _atom_site_fract_z
 _atom_site_occupancy
  Eu  Eu0  1  0.250000  0.184460  0.991503  1
  Eu  Eu1  1  0.750000  0.315268  0.491426  1
  Eu  Eu2  1  0.250000  0.684645  0.508446  1
  Y  Y3  1  0.750000  0.815746  0.008591  1
  Al  Al4  1  0.750000  0.444058  0.916814  1
  Al  Al5  1  0.250000  0.555660  0.083171  1
  Al  Al6  1  0.750000  0.944539  0.583343  1
  Al  Al7  1  0.250000  0.055798  0.416649  1
  Al  Al8  1  0.750000  0.614762  0.285820  1
  Al  Al9  1  0.250000  0.885316  0.786279  1
  Al  Al10  1  0.750000  0.114645  0.213642  1
  Al  Al11  1  0.250000  0.355887  0.277943  1
  Al  Al12  1  0.750000  0.644098  0.722199  1
  Al  Al13  1  0.250000  0.856012  0.221722  1
  Al  Al14  1  0.250000  0.385167  0.714104  1
  Al  Al15  1  0.750000  0.144009  0.778263  1
  Ni  Ni16  1  0.750000  0.894503  0.356934  1
  Ni  Ni17  1  0.750000  0.394311  0.143049  1
  Ni  Ni18  1  0.250000  0.605524  0.856917  1
  Ni  Ni19  1  0.250000  0.105593  0.643186  1
