# generated using pymatgen
data_La21Fe8Ge7C12
_symmetry_space_group_name_H-M   'P 1'
_cell_length_a   11.37191854
_cell_length_b   11.37189942
_cell_length_c   11.37264200
_cell_angle_alpha   60.00289553
_cell_angle_beta   60.00274754
_cell_angle_gamma   60.00071392
_symmetry_Int_Tables_number   1
_chemical_formula_structural   La21Fe8Ge7C12
_chemical_formula_sum   'La21 Fe8 Ge7 C12'
_cell_volume   1040.00154372
_cell_formula_units_Z   1
loop_
 _symmetry_equiv_pos_site_id
 _symmetry_equiv_pos_as_xyz
  1  'x, y, z'
loop_
 _atom_site_type_symbol
 _atom_site_label
 _atom_site_symmetry_multiplicity
 _atom_site_fract_x
 _atom_site_fract_y
 _atom_site_fract_z
 _atom_site_occupancy
  La  La0  1  0.999976  0.000016  0.667646  1
  La  La1  1  0.999978  0.667645  0.332427  1
  La  La2  1  0.631682  0.631682  0.631727  1
  La  La3  1  0.999983  0.332365  0.667668  1
  La  La4  1  0.667672  0.999999  0.999985  1
  La  La5  1  0.368297  0.368331  0.895018  1
  La  La6  1  0.631666  0.104872  0.631767  1
  La  La7  1  0.667650  0.999957  0.332425  1
  La  La8  1  0.000003  0.000001  0.332416  1
  La  La9  1  0.895134  0.368251  0.368323  1
  La  La10  1  0.000001  0.667663  0.999986  1
  La  La11  1  0.368301  0.895004  0.368368  1
  La  La12  1  0.667699  0.332347  0.999982  1
  La  La13  1  0.000005  0.332376  0.000006  1
  La  La14  1  0.631725  0.631698  0.104897  1
  La  La15  1  0.368319  0.368297  0.368363  1
  La  La16  1  0.332394  0.667675  0.999962  1
  La  La17  1  0.332370  0.999999  0.000012  1
  La  La18  1  0.104967  0.631704  0.631671  1
  La  La19  1  0.332406  0.999967  0.667636  1
  La  La20  1  0.499935  0.500043  0.499969  1
  Fe  Fe21  1  0.196006  0.412112  0.195926  1
  Fe  Fe22  1  0.804015  0.587821  0.804097  1
  Fe  Fe23  1  0.195926  0.195958  0.195907  1
  Fe  Fe24  1  0.804059  0.804037  0.587930  1
  Fe  Fe25  1  0.195944  0.195948  0.412161  1
  Fe  Fe26  1  0.587810  0.804015  0.804165  1
  Fe  Fe27  1  0.804044  0.804081  0.804070  1
  Fe  Fe28  1  0.412184  0.195930  0.195904  1
  Ge  Ge29  1  0.291227  0.291449  0.708629  1
  Ge  Ge30  1  0.291386  0.708703  0.291173  1
  Ge  Ge31  1  0.291237  0.708622  0.708646  1
  Ge  Ge32  1  0.708828  0.291339  0.291182  1
  Ge  Ge33  1  0.999650  0.000319  0.999833  1
  Ge  Ge34  1  0.708465  0.291420  0.708655  1
  Ge  Ge35  1  0.708806  0.708557  0.291202  1
  C  C36  1  0.392966  0.392929  0.107043  1
  C  C37  1  0.392977  0.107021  0.392954  1
  C  C38  1  0.607075  0.892911  0.892963  1
  C  C39  1  0.392981  0.107056  0.107050  1
  C  C40  1  0.892911  0.892948  0.607110  1
  C  C41  1  0.892912  0.607048  0.607123  1
  C  C42  1  0.607072  0.607028  0.892967  1
  C  C43  1  0.892944  0.607067  0.892943  1
  C  C44  1  0.107083  0.392922  0.392950  1
  C  C45  1  0.607102  0.892888  0.607123  1
  C  C46  1  0.107101  0.107061  0.392944  1
  C  C47  1  0.107121  0.392915  0.107097  1
