# generated using pymatgen
data_Ho6Tm2Re(TcB8)3
_symmetry_space_group_name_H-M   'P 1'
_cell_length_a   3.66472400
_cell_length_b   9.13088744
_cell_length_c   11.50681602
_cell_angle_alpha   90.03589961
_cell_angle_beta   90.00000000
_cell_angle_gamma   90.00000000
_symmetry_Int_Tables_number   1
_chemical_formula_structural   Ho6Tm2Re(TcB8)3
_chemical_formula_sum   'Ho6 Tm2 Re1 Tc3 B24'
_cell_volume   385.04310028
_cell_formula_units_Z   1
loop_
 _symmetry_equiv_pos_site_id
 _symmetry_equiv_pos_as_xyz
  1  'x, y, z'
loop_
 _atom_site_type_symbol
 _atom_site_label
 _atom_site_symmetry_multiplicity
 _atom_site_fract_x
 _atom_site_fract_y
 _atom_site_fract_z
 _atom_site_occupancy
  Ho  Ho0  1  0.000000  0.324082  0.413962  1
  Ho  Ho1  1  0.000000  0.676130  0.585978  1
  Ho  Ho2  1  0.000000  0.823509  0.085976  1
  Ho  Ho3  1  0.000000  0.176802  0.914350  1
  Ho  Ho4  1  0.000000  0.942840  0.369018  1
  Ho  Ho5  1  0.000000  0.057788  0.630043  1
  Tm  Tm6  1  0.000000  0.442789  0.130673  1
  Tm  Tm7  1  0.000000  0.556101  0.869831  1
  Re  Re8  1  0.000000  0.860430  0.820845  1
  Tc  Tc9  1  0.000000  0.638528  0.319916  1
  Tc  Tc10  1  0.000000  0.361515  0.679981  1
  Tc  Tc11  1  0.000000  0.139770  0.179313  1
  B  B12  1  0.500000  0.553287  0.432892  1
  B  B13  1  0.500000  0.446873  0.567157  1
  B  B14  1  0.500000  0.053649  0.067002  1
  B  B15  1  0.500000  0.946565  0.933344  1
  B  B16  1  0.500000  0.748958  0.418555  1
  B  B17  1  0.500000  0.251309  0.581377  1
  B  B18  1  0.500000  0.250026  0.081270  1
  B  B19  1  0.500000  0.749542  0.918963  1
  B  B20  1  0.500000  0.791795  0.264874  1
  B  B21  1  0.500000  0.208203  0.734960  1
  B  B22  1  0.500000  0.292842  0.234708  1
  B  B23  1  0.500000  0.706772  0.765449  1
  B  B24  1  0.500000  0.630139  0.184907  1
  B  B25  1  0.500000  0.369666  0.815076  1
  B  B26  1  0.500000  0.131193  0.314449  1
  B  B27  1  0.500000  0.869009  0.685392  1
  B  B28  1  0.500000  0.982328  0.211445  1
  B  B29  1  0.500000  0.018025  0.788338  1
  B  B30  1  0.500000  0.481676  0.287863  1
  B  B31  1  0.500000  0.518193  0.712265  1
  B  B32  1  0.500000  0.598700  0.027715  1
  B  B33  1  0.500000  0.400774  0.972535  1
  B  B34  1  0.500000  0.100439  0.471760  1
  B  B35  1  0.500000  0.899755  0.527815  1
