# generated using pymatgen
data_CePa5Sb8
_symmetry_space_group_name_H-M   'P 1'
_cell_length_a   7.97486891
_cell_length_b   7.97486871
_cell_length_c   7.97486918
_cell_angle_alpha   109.45919574
_cell_angle_beta   109.49525327
_cell_angle_gamma   109.45920964
_symmetry_Int_Tables_number   1
_chemical_formula_structural   CePa5Sb8
_chemical_formula_sum   'Ce1 Pa5 Sb8'
_cell_volume   390.43500319
_cell_formula_units_Z   1
loop_
 _symmetry_equiv_pos_site_id
 _symmetry_equiv_pos_as_xyz
  1  'x, y, z'
loop_
 _atom_site_type_symbol
 _atom_site_label
 _atom_site_symmetry_multiplicity
 _atom_site_fract_x
 _atom_site_fract_y
 _atom_site_fract_z
 _atom_site_occupancy
  Ce  Ce0  1  0.875000  0.750000  0.125000  1
  Pa  Pa1  1  0.123000  0.374852  0.248902  1
  Pa  Pa2  1  0.625001  0.250000  0.375000  1
  Pa  Pa3  1  0.751099  0.874099  0.625951  1
  Pa  Pa4  1  0.374050  0.125148  0.748148  1
  Pa  Pa5  1  0.251853  0.625901  0.877000  1
  Sb  Sb6  1  0.161151  0.002567  0.999543  1
  Sb  Sb7  1  0.657338  0.002093  0.998981  1
  Sb  Sb8  1  0.496975  0.497432  0.158584  1
  Sb  Sb9  1  0.344755  0.841641  0.342662  1
  Sb  Sb10  1  0.000457  0.161609  0.503023  1
  Sb  Sb11  1  0.001019  0.658358  0.503113  1
  Sb  Sb12  1  0.496886  0.497906  0.655245  1
  Sb  Sb13  1  0.841415  0.338391  0.838848  1
