# generated using pymatgen
data_Li6NdTm5Au6
_symmetry_space_group_name_H-M   'P 1'
_cell_length_a   7.27018500
_cell_length_b   7.27155116
_cell_length_c   8.21243500
_cell_angle_alpha   90.00000000
_cell_angle_beta   90.00000000
_cell_angle_gamma   120.32352602
_symmetry_Int_Tables_number   1
_chemical_formula_structural   Li6NdTm5Au6
_chemical_formula_sum   'Li6 Nd1 Tm5 Au6'
_cell_volume   374.75723376
_cell_formula_units_Z   1
loop_
 _symmetry_equiv_pos_site_id
 _symmetry_equiv_pos_as_xyz
  1  'x, y, z'
loop_
 _atom_site_type_symbol
 _atom_site_label
 _atom_site_symmetry_multiplicity
 _atom_site_fract_x
 _atom_site_fract_y
 _atom_site_fract_z
 _atom_site_occupancy
  Li  Li0  1  0.761238  0.761216  0.996754  1
  Li  Li1  1  0.239360  0.999170  0.998821  1
  Li  Li2  1  0.999191  0.239412  0.998995  1
  Li  Li3  1  0.761238  0.761216  0.503246  1
  Li  Li4  1  0.239360  0.999170  0.501179  1
  Li  Li5  1  0.999191  0.239412  0.501005  1
  Nd  Nd6  1  0.414465  0.412989  0.250000  1
  Tm  Tm7  1  0.589837  0.997672  0.750000  1
  Tm  Tm8  1  0.000242  0.591292  0.750000  1
  Tm  Tm9  1  0.409579  0.410763  0.750000  1
  Tm  Tm10  1  0.000329  0.590528  0.250000  1
  Tm  Tm11  1  0.591462  0.002150  0.250000  1
  Au  Au12  1  0.999428  0.999553  0.750000  1
  Au  Au13  1  0.989968  0.990026  0.250000  1
  Au  Au14  1  0.671083  0.331531  0.993205  1
  Au  Au15  1  0.671083  0.331531  0.506795  1
  Au  Au16  1  0.331476  0.671184  0.504089  1
  Au  Au17  1  0.331476  0.671184  0.995911  1
