# generated using pymatgen
data_Cs4Li2NbVS8
_symmetry_space_group_name_H-M   'P 1'
_cell_length_a   5.97690974
_cell_length_b   7.72938192
_cell_length_c   12.86733102
_cell_angle_alpha   84.84655836
_cell_angle_beta   76.55045563
_cell_angle_gamma   67.26621022
_symmetry_Int_Tables_number   1
_chemical_formula_structural   Cs4Li2NbVS8
_chemical_formula_sum   'Cs4 Li2 Nb1 V1 S8'
_cell_volume   533.22459261
_cell_formula_units_Z   1
loop_
 _symmetry_equiv_pos_site_id
 _symmetry_equiv_pos_as_xyz
  1  'x, y, z'
loop_
 _atom_site_type_symbol
 _atom_site_label
 _atom_site_symmetry_multiplicity
 _atom_site_fract_x
 _atom_site_fract_y
 _atom_site_fract_z
 _atom_site_occupancy
  Cs  Cs0  1  0.199111  0.249964  0.101801  1
  Cs  Cs1  1  0.550953  0.249961  0.398191  1
  Cs  Cs2  1  0.446996  0.749978  0.606084  1
  Cs  Cs3  1  0.803049  0.749977  0.893905  1
  Li  Li4  1  0.125018  0.750000  0.249989  1
  Li  Li5  1  0.875042  0.249893  0.750010  1
  Nb  Nb6  1  0.625011  0.749987  0.249979  1
  V  V7  1  0.374928  0.250105  0.750008  1
  S  S8  1  0.540516  0.565940  0.146787  1
  S  S9  1  0.812823  0.933999  0.146749  1
  S  S10  1  0.893654  0.565918  0.353280  1
  S  S11  1  0.253133  0.934024  0.353280  1
  S  S12  1  0.724166  0.075442  0.651919  1
  S  S13  1  0.123649  0.424741  0.651817  1
  S  S14  1  0.200416  0.075395  0.848073  1
  S  S15  1  0.451530  0.424669  0.848126  1
