# generated using pymatgen
data_Y(AlBr4)3
_symmetry_space_group_name_H-M   'P 1'
_cell_length_a   11.61025900
_cell_length_b   11.61025904
_cell_length_c   17.17868900
_cell_angle_alpha   90.00000000
_cell_angle_beta   90.00000000
_cell_angle_gamma   120.00000273
_symmetry_Int_Tables_number   1
_chemical_formula_structural   Y(AlBr4)3
_chemical_formula_sum   'Y3 Al9 Br36'
_cell_volume   2005.41590404
_cell_formula_units_Z   3
loop_
 _symmetry_equiv_pos_site_id
 _symmetry_equiv_pos_as_xyz
  1  'x, y, z'
loop_
 _atom_site_type_symbol
 _atom_site_label
 _atom_site_symmetry_multiplicity
 _atom_site_fract_x
 _atom_site_fract_y
 _atom_site_fract_z
 _atom_site_occupancy
  Y  Y0  1  0.986663  0.493332  0.000000  1
  Y  Y1  1  0.506668  0.013337  0.666667  1
  Y  Y2  1  0.506668  0.493332  0.333333  1
  Al  Al3  1  0.730972  0.269028  0.833333  1
  Al  Al4  1  0.136363  0.768497  0.604533  1
  Al  Al5  1  0.231503  0.367866  0.937866  1
  Al  Al6  1  0.632134  0.863637  0.271199  1
  Al  Al7  1  0.730972  0.461943  0.166667  1
  Al  Al8  1  0.538057  0.269028  0.500000  1
  Al  Al9  1  0.136363  0.367866  0.395467  1
  Al  Al10  1  0.632134  0.768497  0.728801  1
  Al  Al11  1  0.231503  0.863637  0.062134  1
  Br  Br12  1  0.012675  0.843419  0.544205  1
  Br  Br13  1  0.830744  0.987325  0.210872  1
  Br  Br14  1  0.156581  0.169256  0.877539  1
  Br  Br15  1  0.789659  0.589862  0.280375  1
  Br  Br16  1  0.410138  0.199797  0.613709  1
  Br  Br17  1  0.800203  0.210341  0.947042  1
  Br  Br18  1  0.410138  0.210341  0.386291  1
  Br  Br19  1  0.800203  0.589862  0.052958  1
  Br  Br20  1  0.789659  0.199797  0.719625  1
  Br  Br21  1  0.230193  0.342541  0.276582  1
  Br  Br22  1  0.657459  0.887652  0.609915  1
  Br  Br23  1  0.112348  0.769807  0.943249  1
  Br  Br24  1  0.657459  0.769807  0.390085  1
  Br  Br25  1  0.112348  0.342541  0.056751  1
  Br  Br26  1  0.230193  0.887652  0.723418  1
  Br  Br27  1  0.501534  0.654894  0.205634  1
  Br  Br28  1  0.345106  0.846640  0.538968  1
  Br  Br29  1  0.153360  0.498466  0.872301  1
  Br  Br30  1  0.345106  0.498466  0.461032  1
  Br  Br31  1  0.153360  0.654894  0.127699  1
  Br  Br32  1  0.501534  0.846640  0.794366  1
  Br  Br33  1  0.663949  0.498240  0.482915  1
  Br  Br34  1  0.501760  0.165708  0.816249  1
  Br  Br35  1  0.834292  0.336051  0.149582  1
  Br  Br36  1  0.501760  0.336051  0.183751  1
  Br  Br37  1  0.834292  0.498240  0.850418  1
  Br  Br38  1  0.663949  0.165708  0.517085  1
  Br  Br39  1  0.036167  0.490248  0.375081  1
  Br  Br40  1  0.509752  0.545919  0.708414  1
  Br  Br41  1  0.454081  0.963833  0.041747  1
  Br  Br42  1  0.509752  0.963833  0.291586  1
  Br  Br43  1  0.454081  0.490248  0.958253  1
  Br  Br44  1  0.036167  0.545919  0.624919  1
  Br  Br45  1  0.012675  0.169256  0.455795  1
  Br  Br46  1  0.830744  0.843419  0.789128  1
  Br  Br47  1  0.156581  0.987325  0.122461  1
