# generated using pymatgen
data_Hf8ZnCu8Hg3
_symmetry_space_group_name_H-M   'P 1'
_cell_length_a   7.12235300
_cell_length_b   7.12235300
_cell_length_c   6.76916300
_cell_angle_alpha   90.00000000
_cell_angle_beta   90.00000000
_cell_angle_gamma   90.00000000
_symmetry_Int_Tables_number   1
_chemical_formula_structural   Hf8ZnCu8Hg3
_chemical_formula_sum   'Hf8 Zn1 Cu8 Hg3'
_cell_volume   343.38550671
_cell_formula_units_Z   1
loop_
 _symmetry_equiv_pos_site_id
 _symmetry_equiv_pos_as_xyz
  1  'x, y, z'
loop_
 _atom_site_type_symbol
 _atom_site_label
 _atom_site_symmetry_multiplicity
 _atom_site_fract_x
 _atom_site_fract_y
 _atom_site_fract_z
 _atom_site_occupancy
  Hf  Hf0  1  0.146746  0.152925  0.998027  1
  Hf  Hf1  1  0.853254  0.847075  0.998027  1
  Hf  Hf2  1  0.652925  0.353254  0.501973  1
  Hf  Hf3  1  0.347075  0.646746  0.501973  1
  Hf  Hf4  1  0.695789  0.309554  0.997598  1
  Hf  Hf5  1  0.304211  0.690446  0.997598  1
  Hf  Hf6  1  0.809554  0.804211  0.502402  1
  Hf  Hf7  1  0.190446  0.195789  0.502402  1
  Zn  Zn8  1  0.000000  0.500000  0.750000  1
  Cu  Cu9  1  0.377344  0.375553  0.204096  1
  Cu  Cu10  1  0.627608  0.621794  0.794797  1
  Cu  Cu11  1  0.622656  0.624447  0.204096  1
  Cu  Cu12  1  0.878206  0.127608  0.705203  1
  Cu  Cu13  1  0.875553  0.122656  0.295904  1
  Cu  Cu14  1  0.372392  0.378206  0.794797  1
  Cu  Cu15  1  0.124447  0.877344  0.295904  1
  Cu  Cu16  1  0.121794  0.872392  0.705203  1
  Hg  Hg17  1  0.500000  0.000000  0.250000  1
  Hg  Hg18  1  0.500000  0.000000  0.750000  1
  Hg  Hg19  1  0.000000  0.500000  0.250000  1
