# generated using pymatgen
data_Cs3MnPtS4
_symmetry_space_group_name_H-M   'P 1'
_cell_length_a   6.89834326
_cell_length_b   6.89834440
_cell_length_c   13.34870100
_cell_angle_alpha   90.00000000
_cell_angle_beta   90.00000000
_cell_angle_gamma   110.50688837
_symmetry_Int_Tables_number   1
_chemical_formula_structural   Cs3MnPtS4
_chemical_formula_sum   'Cs6 Mn2 Pt2 S8'
_cell_volume   594.97234507
_cell_formula_units_Z   2
loop_
 _symmetry_equiv_pos_site_id
 _symmetry_equiv_pos_as_xyz
  1  'x, y, z'
loop_
 _atom_site_type_symbol
 _atom_site_label
 _atom_site_symmetry_multiplicity
 _atom_site_fract_x
 _atom_site_fract_y
 _atom_site_fract_z
 _atom_site_occupancy
  Cs  Cs0  1  0.340521  0.659479  0.927714  1
  Cs  Cs1  1  0.659479  0.340521  0.427714  1
  Cs  Cs2  1  0.659479  0.340521  0.072286  1
  Cs  Cs3  1  0.340521  0.659479  0.572286  1
  Cs  Cs4  1  0.744521  0.255479  0.750000  1
  Cs  Cs5  1  0.255479  0.744521  0.250000  1
  Mn  Mn6  1  0.000000  0.000000  0.000000  1
  Mn  Mn7  1  0.000000  0.000000  0.500000  1
  Pt  Pt8  1  0.070150  0.929850  0.750000  1
  Pt  Pt9  1  0.929850  0.070150  0.250000  1
  S  S10  1  0.738020  0.864336  0.116631  1
  S  S11  1  0.261980  0.135664  0.616631  1
  S  S12  1  0.864336  0.738020  0.883369  1
  S  S13  1  0.135664  0.261980  0.383369  1
  S  S14  1  0.261980  0.135664  0.883369  1
  S  S15  1  0.738020  0.864336  0.383369  1
  S  S16  1  0.135664  0.261980  0.116631  1
  S  S17  1  0.864336  0.738020  0.616631  1
