# generated using pymatgen
data_Be8AlFe3
_symmetry_space_group_name_H-M   'P 1'
_cell_length_a   4.21737800
_cell_length_b   4.21737795
_cell_length_c   6.84459600
_cell_angle_alpha   90.00000000
_cell_angle_beta   90.00000000
_cell_angle_gamma   119.99998474
_symmetry_Int_Tables_number   1
_chemical_formula_structural   Be8AlFe3
_chemical_formula_sum   'Be8 Al1 Fe3'
_cell_volume   105.42984510
_cell_formula_units_Z   1
loop_
 _symmetry_equiv_pos_site_id
 _symmetry_equiv_pos_as_xyz
  1  'x, y, z'
loop_
 _atom_site_type_symbol
 _atom_site_label
 _atom_site_symmetry_multiplicity
 _atom_site_fract_x
 _atom_site_fract_y
 _atom_site_fract_z
 _atom_site_occupancy
  Be  Be0  1  0.000000  0.000000  0.996451  1
  Be  Be1  1  0.000000  0.000000  0.496169  1
  Be  Be2  1  0.828626  0.657253  0.252979  1
  Be  Be3  1  0.168587  0.831413  0.747433  1
  Be  Be4  1  0.662825  0.831413  0.747433  1
  Be  Be5  1  0.342747  0.171374  0.252979  1
  Be  Be6  1  0.828626  0.171374  0.252979  1
  Be  Be7  1  0.168587  0.337175  0.747433  1
  Al  Al8  1  0.333333  0.666667  0.061274  1
  Fe  Fe9  1  0.666667  0.333333  0.562354  1
  Fe  Fe10  1  0.666667  0.333333  0.936321  1
  Fe  Fe11  1  0.333333  0.666667  0.446195  1
