# generated using pymatgen
data_TbDy3Al2(ZnRh2)2
_symmetry_space_group_name_H-M   'P 1'
_cell_length_a   4.07532700
_cell_length_b   6.98131365
_cell_length_c   8.11934146
_cell_angle_alpha   90.08430111
_cell_angle_beta   90.00000000
_cell_angle_gamma   90.00000000
_symmetry_Int_Tables_number   1
_chemical_formula_structural   TbDy3Al2(ZnRh2)2
_chemical_formula_sum   'Tb1 Dy3 Al2 Zn2 Rh4'
_cell_volume   231.00423826
_cell_formula_units_Z   1
loop_
 _symmetry_equiv_pos_site_id
 _symmetry_equiv_pos_as_xyz
  1  'x, y, z'
loop_
 _atom_site_type_symbol
 _atom_site_label
 _atom_site_symmetry_multiplicity
 _atom_site_fract_x
 _atom_site_fract_y
 _atom_site_fract_z
 _atom_site_occupancy
  Tb  Tb0  1  0.250000  0.539774  0.186252  1
  Dy  Dy1  1  0.750000  0.459997  0.813470  1
  Dy  Dy2  1  0.250000  0.040396  0.320266  1
  Dy  Dy3  1  0.750000  0.959641  0.679881  1
  Al  Al4  1  0.250000  0.136419  0.938576  1
  Al  Al5  1  0.750000  0.863770  0.061208  1
  Zn  Zn6  1  0.250000  0.636754  0.564047  1
  Zn  Zn7  1  0.750000  0.363101  0.436338  1
  Rh  Rh8  1  0.750000  0.747607  0.370480  1
  Rh  Rh9  1  0.250000  0.252728  0.629790  1
  Rh  Rh10  1  0.750000  0.234052  0.112387  1
  Rh  Rh11  1  0.250000  0.765761  0.887305  1
