# generated using pymatgen
data_Ho10CdHg7Pt4
_symmetry_space_group_name_H-M   'P 1'
_cell_length_a   3.64066500
_cell_length_b   7.95012797
_cell_length_c   18.14590941
_cell_angle_alpha   90.14243214
_cell_angle_beta   90.00000000
_cell_angle_gamma   90.00000000
_symmetry_Int_Tables_number   1
_chemical_formula_structural   Ho10CdHg7Pt4
_chemical_formula_sum   'Ho10 Cd1 Hg7 Pt4'
_cell_volume   525.20909076
_cell_formula_units_Z   1
loop_
 _symmetry_equiv_pos_site_id
 _symmetry_equiv_pos_as_xyz
  1  'x, y, z'
loop_
 _atom_site_type_symbol
 _atom_site_label
 _atom_site_symmetry_multiplicity
 _atom_site_fract_x
 _atom_site_fract_y
 _atom_site_fract_z
 _atom_site_occupancy
  Ho  Ho0  1  0.000000  0.108805  0.415399  1
  Ho  Ho1  1  0.000000  0.887071  0.586836  1
  Ho  Ho2  1  0.000000  0.387872  0.913666  1
  Ho  Ho3  1  0.000000  0.611506  0.086796  1
  Ho  Ho4  1  0.000000  0.236199  0.215221  1
  Ho  Ho5  1  0.000000  0.762578  0.783709  1
  Ho  Ho6  1  0.000000  0.262976  0.716736  1
  Ho  Ho7  1  0.000000  0.743921  0.281654  1
  Ho  Ho8  1  0.000000  0.999687  0.000206  1
  Ho  Ho9  1  0.000000  0.499660  0.501905  1
  Cd  Cd10  1  0.500000  0.422660  0.352539  1
  Hg  Hg11  1  0.500000  0.577252  0.645384  1
  Hg  Hg12  1  0.500000  0.077286  0.855740  1
  Hg  Hg13  1  0.500000  0.923138  0.144209  1
  Hg  Hg14  1  0.500000  0.288292  0.062261  1
  Hg  Hg15  1  0.500000  0.711308  0.938286  1
  Hg  Hg16  1  0.500000  0.210939  0.561657  1
  Hg  Hg17  1  0.500000  0.781570  0.435736  1
  Pt  Pt18  1  0.500000  0.031075  0.303478  1
  Pt  Pt19  1  0.500000  0.975678  0.697444  1
  Pt  Pt20  1  0.500000  0.475832  0.803083  1
  Pt  Pt21  1  0.500000  0.524695  0.198054  1
