# generated using pymatgen
data_Ho8Tm2RuRh3
_symmetry_space_group_name_H-M   'P 1'
_cell_length_a   6.39472069
_cell_length_b   7.15636664
_cell_length_c   8.48621827
_cell_angle_alpha   96.64758023
_cell_angle_beta   111.82542010
_cell_angle_gamma   90.04282844
_symmetry_Int_Tables_number   1
_chemical_formula_structural   Ho8Tm2RuRh3
_chemical_formula_sum   'Ho8 Tm2 Ru1 Rh3'
_cell_volume   357.68991680
_cell_formula_units_Z   1
loop_
 _symmetry_equiv_pos_site_id
 _symmetry_equiv_pos_as_xyz
  1  'x, y, z'
loop_
 _atom_site_type_symbol
 _atom_site_label
 _atom_site_symmetry_multiplicity
 _atom_site_fract_x
 _atom_site_fract_y
 _atom_site_fract_z
 _atom_site_occupancy
  Ho  Ho0  1  0.791690  0.082467  0.812715  1
  Ho  Ho1  1  0.977676  0.417749  0.186513  1
  Ho  Ho2  1  0.208063  0.917437  0.181861  1
  Ho  Ho3  1  0.023719  0.583122  0.812200  1
  Ho  Ho4  1  0.210766  0.183932  0.563600  1
  Ho  Ho5  1  0.648098  0.314138  0.437068  1
  Ho  Ho6  1  0.791365  0.813725  0.440344  1
  Ho  Ho7  1  0.348549  0.688041  0.563745  1
  Tm  Tm8  1  0.424237  0.248639  0.998803  1
  Tm  Tm9  1  0.574884  0.750475  0.999644  1
  Ru  Ru10  1  0.177641  0.926573  0.783012  1
  Rh  Rh11  1  0.602193  0.427161  0.779374  1
  Rh  Rh12  1  0.821623  0.073885  0.220233  1
  Rh  Rh13  1  0.399495  0.572655  0.220885  1
