# generated using pymatgen
data_TbCe2Y(MnC4)2
_symmetry_space_group_name_H-M   'P 1'
_cell_length_a   6.61929884
_cell_length_b   6.77858076
_cell_length_c   6.77858103
_cell_angle_alpha   135.99650113
_cell_angle_beta   111.43658337
_cell_angle_gamma   85.52559164
_symmetry_Int_Tables_number   1
_chemical_formula_structural   TbCe2Y(MnC4)2
_chemical_formula_sum   'Tb1 Ce2 Y1 Mn2 C8'
_cell_volume   188.46895368
_cell_formula_units_Z   1
loop_
 _symmetry_equiv_pos_site_id
 _symmetry_equiv_pos_as_xyz
  1  'x, y, z'
loop_
 _atom_site_type_symbol
 _atom_site_label
 _atom_site_symmetry_multiplicity
 _atom_site_fract_x
 _atom_site_fract_y
 _atom_site_fract_z
 _atom_site_occupancy
  Tb  Tb0  1  0.192784  0.857295  0.335489  1
  Ce  Ce1  1  0.507375  0.352982  0.154393  1
  Ce  Ce2  1  0.492751  0.647003  0.845748  1
  Y  Y3  1  0.806182  0.142322  0.663860  1
  Mn  Mn4  1  0.000151  0.252011  0.251967  1
  Mn  Mn5  1  0.000151  0.748184  0.748141  1
  C  C6  1  0.246753  0.075964  0.170790  1
  C  C7  1  0.753501  0.924197  0.829303  1
  C  C8  1  0.919513  0.580952  0.338561  1
  C  C9  1  0.080395  0.418889  0.661506  1
  C  C10  1  0.470276  0.125045  0.345229  1
  C  C11  1  0.530053  0.875088  0.654966  1
  C  C12  1  0.790668  0.626154  0.164513  1
  C  C13  1  0.209448  0.373914  0.835535  1
