# generated using pymatgen
data_NdDyHoGa8Ag3
_symmetry_space_group_name_H-M   'P 1'
_cell_length_a   4.36469231
_cell_length_b   8.40532181
_cell_length_c   8.40532160
_cell_angle_alpha   69.18451939
_cell_angle_beta   74.95137446
_cell_angle_gamma   74.95137343
_symmetry_Int_Tables_number   1
_chemical_formula_structural   NdDyHoGa8Ag3
_chemical_formula_sum   'Nd1 Dy1 Ho1 Ga8 Ag3'
_cell_volume   273.52449002
_cell_formula_units_Z   1
loop_
 _symmetry_equiv_pos_site_id
 _symmetry_equiv_pos_as_xyz
  1  'x, y, z'
loop_
 _atom_site_type_symbol
 _atom_site_label
 _atom_site_symmetry_multiplicity
 _atom_site_fract_x
 _atom_site_fract_y
 _atom_site_fract_z
 _atom_site_occupancy
  Nd  Nd0  1  0.500050  0.499950  0.499950  1
  Dy  Dy1  1  0.200315  0.799685  0.799685  1
  Ho  Ho2  1  0.799721  0.200279  0.200279  1
  Ga  Ga3  1  0.355518  0.361025  0.927938  1
  Ga  Ga4  1  0.644449  0.638789  0.072313  1
  Ga  Ga5  1  0.355518  0.927938  0.361025  1
  Ga  Ga6  1  0.644449  0.072313  0.638789  1
  Ga  Ga7  1  0.160154  0.472158  0.207532  1
  Ga  Ga8  1  0.840001  0.527605  0.792395  1
  Ga  Ga9  1  0.160154  0.207532  0.472158  1
  Ga  Ga10  1  0.840001  0.792395  0.527605  1
  Ag  Ag11  1  0.499900  0.000100  0.000100  1
  Ag  Ag12  1  0.999885  0.806981  0.193249  1
  Ag  Ag13  1  0.999885  0.193249  0.806981  1
