# generated using pymatgen
data_ReNiF6
_symmetry_space_group_name_H-M   'P 1'
_cell_length_a   5.53901274
_cell_length_b   5.53901299
_cell_length_c   5.53901244
_cell_angle_alpha   55.55905092
_cell_angle_beta   55.55905237
_cell_angle_gamma   55.55906569
_symmetry_Int_Tables_number   1
_chemical_formula_structural   ReNiF6
_chemical_formula_sum   'Re1 Ni1 F6'
_cell_volume   107.77887391
_cell_formula_units_Z   1
loop_
 _symmetry_equiv_pos_site_id
 _symmetry_equiv_pos_as_xyz
  1  'x, y, z'
loop_
 _atom_site_type_symbol
 _atom_site_label
 _atom_site_symmetry_multiplicity
 _atom_site_fract_x
 _atom_site_fract_y
 _atom_site_fract_z
 _atom_site_occupancy
  Re  Re0  1  0.500000  0.500000  0.500000  1
  Ni  Ni1  1  0.000000  0.000000  0.000000  1
  F  F2  1  0.253678  0.616762  0.876728  1
  F  F3  1  0.616762  0.876728  0.253678  1
  F  F4  1  0.876728  0.253678  0.616762  1
  F  F5  1  0.746322  0.383238  0.123272  1
  F  F6  1  0.383238  0.123272  0.746322  1
  F  F7  1  0.123272  0.746322  0.383238  1
