# generated using pymatgen
data_Y5ErAl24Os5Rh3
_symmetry_space_group_name_H-M   'P 1'
_cell_length_a   8.78640535
_cell_length_b   8.80849439
_cell_length_c   9.57499232
_cell_angle_alpha   90.01226569
_cell_angle_beta   89.81198213
_cell_angle_gamma   119.36466707
_symmetry_Int_Tables_number   1
_chemical_formula_structural   Y5ErAl24Os5Rh3
_chemical_formula_sum   'Y5 Er1 Al24 Os5 Rh3'
_cell_volume   645.83861443
_cell_formula_units_Z   1
loop_
 _symmetry_equiv_pos_site_id
 _symmetry_equiv_pos_as_xyz
  1  'x, y, z'
loop_
 _atom_site_type_symbol
 _atom_site_label
 _atom_site_symmetry_multiplicity
 _atom_site_fract_x
 _atom_site_fract_y
 _atom_site_fract_z
 _atom_site_occupancy
  Y  Y0  1  0.187098  0.383471  0.251681  1
  Y  Y1  1  0.812873  0.616303  0.748347  1
  Y  Y2  1  0.614592  0.814339  0.251362  1
  Y  Y3  1  0.385820  0.185737  0.748653  1
  Y  Y4  1  0.195705  0.809380  0.251606  1
  Er  Er5  1  0.803075  0.191101  0.748039  1
  Al  Al6  1  0.333691  0.667730  0.023859  1
  Al  Al7  1  0.666717  0.332206  0.975427  1
  Al  Al8  1  0.667746  0.332579  0.522435  1
  Al  Al9  1  0.332438  0.667291  0.478174  1
  Al  Al10  1  0.161658  0.325669  0.577057  1
  Al  Al11  1  0.837797  0.673851  0.423476  1
  Al  Al12  1  0.673365  0.837009  0.576517  1
  Al  Al13  1  0.835543  0.673993  0.076859  1
  Al  Al14  1  0.327082  0.163427  0.423983  1
  Al  Al15  1  0.163909  0.325618  0.922662  1
  Al  Al16  1  0.163953  0.834183  0.575709  1
  Al  Al17  1  0.326823  0.163176  0.076118  1
  Al  Al18  1  0.836125  0.165741  0.424979  1
  Al  Al19  1  0.673655  0.837317  0.923349  1
  Al  Al20  1  0.833860  0.163038  0.075488  1
  Al  Al21  1  0.166300  0.837004  0.923771  1
  Al  Al22  1  0.561686  0.126425  0.249593  1
  Al  Al23  1  0.438935  0.873832  0.750429  1
  Al  Al24  1  0.875558  0.439206  0.250211  1
  Al  Al25  1  0.123994  0.560038  0.749960  1
  Al  Al26  1  0.560501  0.440054  0.249624  1
  Al  Al27  1  0.439483  0.559942  0.750393  1
  Al  Al28  1  0.999002  0.002055  0.250073  1
  Al  Al29  1  0.000219  0.998759  0.749942  1
  Os  Os30  1  0.500408  0.000253  0.999680  1
  Os  Os31  1  0.500395  0.000215  0.500366  1
  Os  Os32  1  0.999824  0.499648  0.500314  1
  Os  Os33  1  0.000074  0.999935  0.000019  1
  Os  Os34  1  0.000070  0.999919  0.500001  1
  Rh  Rh35  1  0.999918  0.499744  0.999828  1
  Rh  Rh36  1  0.500064  0.499894  0.999968  1
  Rh  Rh37  1  0.500048  0.499919  0.500049  1
