# generated using pymatgen
data_RbLi4CdTe8
_symmetry_space_group_name_H-M   'P 1'
_cell_length_a   11.71517879
_cell_length_b   11.71517829
_cell_length_c   10.85904300
_cell_angle_alpha   81.59540585
_cell_angle_beta   81.59540621
_cell_angle_gamma   15.17071143
_symmetry_Int_Tables_number   1
_chemical_formula_structural   RbLi4CdTe8
_chemical_formula_sum   'Rb1 Li4 Cd1 Te8'
_cell_volume   385.75613734
_cell_formula_units_Z   1
loop_
 _symmetry_equiv_pos_site_id
 _symmetry_equiv_pos_as_xyz
  1  'x, y, z'
loop_
 _atom_site_type_symbol
 _atom_site_label
 _atom_site_symmetry_multiplicity
 _atom_site_fract_x
 _atom_site_fract_y
 _atom_site_fract_z
 _atom_site_occupancy
  Rb  Rb0  1  0.000000  0.000000  0.000000  1
  Li  Li1  1  0.230052  0.230052  0.126861  1
  Li  Li2  1  0.835266  0.835266  0.470186  1
  Li  Li3  1  0.164734  0.164734  0.529814  1
  Li  Li4  1  0.769948  0.769948  0.873139  1
  Cd  Cd5  1  0.500000  0.500000  0.500000  1
  Te  Te6  1  0.920913  0.920913  0.682172  1
  Te  Te7  1  0.079087  0.079087  0.317828  1
  Te  Te8  1  0.593290  0.593290  0.722700  1
  Te  Te9  1  0.406710  0.406710  0.277300  1
  Te  Te10  1  0.650528  0.650528  0.982355  1
  Te  Te11  1  0.349472  0.349472  0.017645  1
  Te  Te12  1  0.731785  0.731785  0.337049  1
  Te  Te13  1  0.268215  0.268215  0.662951  1
