# generated using pymatgen
data_LiGaCoF6
_symmetry_space_group_name_H-M   'P 1'
_cell_length_a   8.70237800
_cell_length_b   8.70237850
_cell_length_c   4.63467000
_cell_angle_alpha   90.00000000
_cell_angle_beta   90.00000000
_cell_angle_gamma   119.99999810
_symmetry_Int_Tables_number   1
_chemical_formula_structural   LiGaCoF6
_chemical_formula_sum   'Li3 Ga3 Co3 F18'
_cell_volume   303.96625225
_cell_formula_units_Z   3
loop_
 _symmetry_equiv_pos_site_id
 _symmetry_equiv_pos_as_xyz
  1  'x, y, z'
loop_
 _atom_site_type_symbol
 _atom_site_label
 _atom_site_symmetry_multiplicity
 _atom_site_fract_x
 _atom_site_fract_y
 _atom_site_fract_z
 _atom_site_occupancy
  Li  Li0  1  0.699645  0.000000  0.500000  1
  Li  Li1  1  0.300355  0.300355  0.500000  1
  Li  Li2  1  0.000000  0.699645  0.500000  1
  Ga  Ga3  1  0.666667  0.333333  0.492460  1
  Ga  Ga4  1  0.333333  0.666667  0.507540  1
  Ga  Ga5  1  0.000000  0.000000  0.000000  1
  Co  Co6  1  0.644297  0.644297  0.000000  1
  Co  Co7  1  0.000000  0.355703  0.000000  1
  Co  Co8  1  0.355703  0.000000  0.000000  1
  F  F9  1  0.884180  0.786166  0.225699  1
  F  F10  1  0.901986  0.115820  0.225699  1
  F  F11  1  0.213834  0.098014  0.225699  1
  F  F12  1  0.098014  0.213834  0.774301  1
  F  F13  1  0.115820  0.901986  0.774301  1
  F  F14  1  0.786166  0.884180  0.774301  1
  F  F15  1  0.543356  0.422197  0.262251  1
  F  F16  1  0.577803  0.121159  0.262251  1
  F  F17  1  0.878841  0.456644  0.262251  1
  F  F18  1  0.121159  0.577803  0.737749  1
  F  F19  1  0.456644  0.878841  0.737749  1
  F  F20  1  0.422197  0.543356  0.737749  1
  F  F21  1  0.216605  0.453667  0.276470  1
  F  F22  1  0.546333  0.762938  0.276470  1
  F  F23  1  0.237062  0.783395  0.276470  1
  F  F24  1  0.762938  0.546333  0.723530  1
  F  F25  1  0.783395  0.237062  0.723530  1
  F  F26  1  0.453667  0.216605  0.723530  1
