# generated using pymatgen
data_Ba8ErUSe12
_symmetry_space_group_name_H-M   'P 1'
_cell_length_a   9.06072988
_cell_length_b   9.06072969
_cell_length_c   9.06073001
_cell_angle_alpha   89.51345069
_cell_angle_beta   89.51344927
_cell_angle_gamma   89.51345336
_symmetry_Int_Tables_number   1
_chemical_formula_structural   Ba8ErUSe12
_chemical_formula_sum   'Ba8 Er1 U1 Se12'
_cell_volume   743.77715054
_cell_formula_units_Z   1
loop_
 _symmetry_equiv_pos_site_id
 _symmetry_equiv_pos_as_xyz
  1  'x, y, z'
loop_
 _atom_site_type_symbol
 _atom_site_label
 _atom_site_symmetry_multiplicity
 _atom_site_fract_x
 _atom_site_fract_y
 _atom_site_fract_z
 _atom_site_occupancy
  Ba  Ba0  1  0.870981  0.621403  0.258070  1
  Ba  Ba1  1  0.258070  0.870981  0.621403  1
  Ba  Ba2  1  0.621403  0.258070  0.870981  1
  Ba  Ba3  1  0.741930  0.129019  0.378597  1
  Ba  Ba4  1  0.378597  0.741930  0.129019  1
  Ba  Ba5  1  0.129019  0.378597  0.741930  1
  Ba  Ba6  1  0.255273  0.255273  0.255273  1
  Ba  Ba7  1  0.744727  0.744727  0.744727  1
  Er  Er8  1  0.500000  0.500000  0.500000  1
  U  U9  1  0.000000  0.000000  0.000000  1
  Se  Se10  1  0.200645  0.564580  0.421070  1
  Se  Se11  1  0.421070  0.200645  0.564580  1
  Se  Se12  1  0.564580  0.421070  0.200645  1
  Se  Se13  1  0.927589  0.058041  0.708205  1
  Se  Se14  1  0.708205  0.927589  0.058041  1
  Se  Se15  1  0.058041  0.708205  0.927589  1
  Se  Se16  1  0.799355  0.435420  0.578930  1
  Se  Se17  1  0.578930  0.799355  0.435420  1
  Se  Se18  1  0.435420  0.578930  0.799355  1
  Se  Se19  1  0.072411  0.941959  0.291795  1
  Se  Se20  1  0.291795  0.072411  0.941959  1
  Se  Se21  1  0.941959  0.291795  0.072411  1
