# generated using pymatgen
data_Y4Si8PdAu15
_symmetry_space_group_name_H-M   'P 1'
_cell_length_a   4.37526200
_cell_length_b   4.41597000
_cell_length_c   27.07713600
_cell_angle_alpha   90.00000000
_cell_angle_beta   90.00000000
_cell_angle_gamma   90.00000000
_symmetry_Int_Tables_number   1
_chemical_formula_structural   Y4Si8PdAu15
_chemical_formula_sum   'Y4 Si8 Pd1 Au15'
_cell_volume   523.15804146
_cell_formula_units_Z   1
loop_
 _symmetry_equiv_pos_site_id
 _symmetry_equiv_pos_as_xyz
  1  'x, y, z'
loop_
 _atom_site_type_symbol
 _atom_site_label
 _atom_site_symmetry_multiplicity
 _atom_site_fract_x
 _atom_site_fract_y
 _atom_site_fract_z
 _atom_site_occupancy
  Y  Y0  1  0.000000  0.500000  0.747943  1
  Y  Y1  1  0.500000  0.000000  0.250472  1
  Y  Y2  1  0.500000  0.500000  0.999827  1
  Y  Y3  1  0.500000  0.500000  0.500126  1
  Si  Si4  1  0.000000  0.000000  0.957098  1
  Si  Si5  1  0.000000  0.000000  0.458198  1
  Si  Si6  1  0.500000  0.000000  0.791557  1
  Si  Si7  1  0.500000  0.000000  0.704755  1
  Si  Si8  1  0.000000  0.500000  0.207417  1
  Si  Si9  1  0.000000  0.500000  0.293375  1
  Si  Si10  1  0.000000  0.000000  0.042876  1
  Si  Si11  1  0.000000  0.000000  0.544410  1
  Pd  Pd12  1  0.000000  0.000000  0.662572  1
  Au  Au13  1  0.500000  0.000000  0.086331  1
  Au  Au14  1  0.500000  0.500000  0.663735  1
  Au  Au15  1  0.500000  0.500000  0.835681  1
  Au  Au16  1  0.000000  0.500000  0.085236  1
  Au  Au17  1  0.500000  0.000000  0.913769  1
  Au  Au18  1  0.000000  0.500000  0.415225  1
  Au  Au19  1  0.500000  0.500000  0.337215  1
  Au  Au20  1  0.500000  0.000000  0.414303  1
  Au  Au21  1  0.000000  0.000000  0.335499  1
  Au  Au22  1  0.000000  0.000000  0.165219  1
  Au  Au23  1  0.500000  0.000000  0.587980  1
  Au  Au24  1  0.000000  0.000000  0.835178  1
  Au  Au25  1  0.500000  0.500000  0.163664  1
  Au  Au26  1  0.000000  0.500000  0.586090  1
  Au  Au27  1  0.000000  0.500000  0.914250  1
