# generated using pymatgen
data_Y2Ga2Fe2C
_symmetry_space_group_name_H-M   'P 1'
_cell_length_a   5.74726721
_cell_length_b   5.74726682
_cell_length_c   6.97435733
_cell_angle_alpha   53.95375191
_cell_angle_beta   53.95375240
_cell_angle_gamma   40.37814685
_symmetry_Int_Tables_number   1
_chemical_formula_structural   Y2Ga2Fe2C
_chemical_formula_sum   'Y2 Ga2 Fe2 C1'
_cell_volume   116.26636809
_cell_formula_units_Z   1
loop_
 _symmetry_equiv_pos_site_id
 _symmetry_equiv_pos_as_xyz
  1  'x, y, z'
loop_
 _atom_site_type_symbol
 _atom_site_label
 _atom_site_symmetry_multiplicity
 _atom_site_fract_x
 _atom_site_fract_y
 _atom_site_fract_z
 _atom_site_occupancy
  Y  Y0  1  0.442366  0.442366  0.286376  1
  Y  Y1  1  0.557634  0.557634  0.713624  1
  Ga  Ga2  1  0.839862  0.839862  0.709533  1
  Ga  Ga3  1  0.160138  0.160138  0.290467  1
  Fe  Fe4  1  0.806520  0.806520  0.086812  1
  Fe  Fe5  1  0.193480  0.193480  0.913188  1
  C  C6  1  0.000000  0.000000  0.000000  1
