# generated using pymatgen
data_Ac7CeSi12PtRh3
_symmetry_space_group_name_H-M   'P 1'
_cell_length_a   8.37682900
_cell_length_b   8.37682949
_cell_length_c   8.93921500
_cell_angle_alpha   90.00000000
_cell_angle_beta   90.00000000
_cell_angle_gamma   120.00000199
_symmetry_Int_Tables_number   1
_chemical_formula_structural   Ac7CeSi12PtRh3
_chemical_formula_sum   'Ac7 Ce1 Si12 Pt1 Rh3'
_cell_volume   543.23698671
_cell_formula_units_Z   1
loop_
 _symmetry_equiv_pos_site_id
 _symmetry_equiv_pos_as_xyz
  1  'x, y, z'
loop_
 _atom_site_type_symbol
 _atom_site_label
 _atom_site_symmetry_multiplicity
 _atom_site_fract_x
 _atom_site_fract_y
 _atom_site_fract_z
 _atom_site_occupancy
  Ac  Ac0  1  0.000000  0.000000  0.250543  1
  Ac  Ac1  1  0.499106  0.500894  0.747599  1
  Ac  Ac2  1  0.499106  0.998215  0.747599  1
  Ac  Ac3  1  0.001785  0.500894  0.747599  1
  Ac  Ac4  1  0.499001  0.500999  0.252793  1
  Ac  Ac5  1  0.002001  0.500999  0.252793  1
  Ac  Ac6  1  0.499001  0.997999  0.252793  1
  Ce  Ce7  1  0.000000  0.000000  0.748854  1
  Si  Si8  1  0.837212  0.162788  0.995495  1
  Si  Si9  1  0.837212  0.674425  0.995495  1
  Si  Si10  1  0.325575  0.162788  0.995495  1
  Si  Si11  1  0.835086  0.164914  0.504621  1
  Si  Si12  1  0.835086  0.670173  0.504621  1
  Si  Si13  1  0.329827  0.164914  0.504621  1
  Si  Si14  1  0.164522  0.835478  0.504679  1
  Si  Si15  1  0.670956  0.835478  0.504679  1
  Si  Si16  1  0.164522  0.329044  0.504679  1
  Si  Si17  1  0.166009  0.833991  0.995138  1
  Si  Si18  1  0.667981  0.833991  0.995138  1
  Si  Si19  1  0.166009  0.332019  0.995138  1
  Pt  Pt20  1  0.666667  0.333333  0.999461  1
  Rh  Rh21  1  0.666667  0.333333  0.499592  1
  Rh  Rh22  1  0.333333  0.666667  0.499982  1
  Rh  Rh23  1  0.333333  0.666667  0.000596  1
