# generated using pymatgen
data_Li(PaZn8)2
_symmetry_space_group_name_H-M   'P 1'
_cell_length_a   6.78036350
_cell_length_b   6.76130581
_cell_length_c   6.78036275
_cell_angle_alpha   82.78088203
_cell_angle_beta   81.96365474
_cell_angle_gamma   82.78089396
_symmetry_Int_Tables_number   1
_chemical_formula_structural   Li(PaZn8)2
_chemical_formula_sum   'Li1 Pa2 Zn16'
_cell_volume   303.49290702
_cell_formula_units_Z   1
loop_
 _symmetry_equiv_pos_site_id
 _symmetry_equiv_pos_as_xyz
  1  'x, y, z'
loop_
 _atom_site_type_symbol
 _atom_site_label
 _atom_site_symmetry_multiplicity
 _atom_site_fract_x
 _atom_site_fract_y
 _atom_site_fract_z
 _atom_site_occupancy
  Li  Li0  1  0.000000  0.500000  0.000000  1
  Pa  Pa1  1  0.658886  0.661290  0.658886  1
  Pa  Pa2  1  0.341114  0.338710  0.341114  1
  Zn  Zn3  1  0.347823  0.353830  0.849120  1
  Zn  Zn4  1  0.849120  0.353830  0.347823  1
  Zn  Zn5  1  0.100415  0.109837  0.100415  1
  Zn  Zn6  1  0.899585  0.890163  0.899585  1
  Zn  Zn7  1  0.000000  0.000000  0.500000  1
  Zn  Zn8  1  0.500000  0.000000  0.000000  1
  Zn  Zn9  1  0.292259  0.702177  0.001134  1
  Zn  Zn10  1  0.703315  0.000000  0.296685  1
  Zn  Zn11  1  0.998866  0.297823  0.707741  1
  Zn  Zn12  1  0.707741  0.297823  0.998866  1
  Zn  Zn13  1  0.296685  0.000000  0.703315  1
  Zn  Zn14  1  0.001134  0.702177  0.292259  1
  Zn  Zn15  1  0.150880  0.646170  0.652177  1
  Zn  Zn16  1  0.652177  0.646170  0.150880  1
  Zn  Zn17  1  0.646459  0.164725  0.646459  1
  Zn  Zn18  1  0.353541  0.835275  0.353541  1
