# generated using pymatgen
data_Al2PbI8
_symmetry_space_group_name_H-M   'P 1'
_cell_length_a   8.33124000
_cell_length_b   8.57571143
_cell_length_c   15.76453629
_cell_angle_alpha   87.41766704
_cell_angle_beta   90.00000000
_cell_angle_gamma   90.00000000
_symmetry_Int_Tables_number   1
_chemical_formula_structural   Al2PbI8
_chemical_formula_sum   'Al4 Pb2 I16'
_cell_volume   1125.17418308
_cell_formula_units_Z   2
loop_
 _symmetry_equiv_pos_site_id
 _symmetry_equiv_pos_as_xyz
  1  'x, y, z'
loop_
 _atom_site_type_symbol
 _atom_site_label
 _atom_site_symmetry_multiplicity
 _atom_site_fract_x
 _atom_site_fract_y
 _atom_site_fract_z
 _atom_site_occupancy
  Al  Al0  1  0.933420  0.221539  0.579627  1
  Al  Al1  1  0.066580  0.221539  0.079627  1
  Al  Al2  1  0.570689  0.641693  0.777392  1
  Al  Al3  1  0.429311  0.641693  0.277392  1
  Pb  Pb4  1  0.753814  0.075674  0.812384  1
  Pb  Pb5  1  0.246186  0.075674  0.312384  1
  I  I6  1  0.423157  0.615549  0.640669  1
  I  I7  1  0.576843  0.615549  0.140669  1
  I  I8  1  0.868580  0.728012  0.760100  1
  I  I9  1  0.131420  0.728012  0.260100  1
  I  I10  1  0.938722  0.476400  0.496352  1
  I  I11  1  0.061278  0.476400  0.996352  1
  I  I12  1  0.922696  0.999282  0.002957  1
  I  I13  1  0.077304  0.999282  0.502957  1
  I  I14  1  0.642209  0.128790  0.614857  1
  I  I15  1  0.357791  0.128790  0.114857  1
  I  I16  1  0.559047  0.388539  0.874184  1
  I  I17  1  0.440953  0.388539  0.374184  1
  I  I18  1  0.442122  0.858212  0.866221  1
  I  I19  1  0.557878  0.858212  0.366221  1
  I  I20  1  0.928100  0.233709  0.227459  1
  I  I21  1  0.071900  0.233709  0.727459  1
