# generated using pymatgen
data_PrTiMnO5
_symmetry_space_group_name_H-M   'P 1'
_cell_length_a   5.88282000
_cell_length_b   7.68852300
_cell_length_c   8.86376500
_cell_angle_alpha   90.00000000
_cell_angle_beta   90.00000000
_cell_angle_gamma   90.00000000
_symmetry_Int_Tables_number   1
_chemical_formula_structural   PrTiMnO5
_chemical_formula_sum   'Pr4 Ti4 Mn4 O20'
_cell_volume   400.90983600
_cell_formula_units_Z   4
loop_
 _symmetry_equiv_pos_site_id
 _symmetry_equiv_pos_as_xyz
  1  'x, y, z'
loop_
 _atom_site_type_symbol
 _atom_site_label
 _atom_site_symmetry_multiplicity
 _atom_site_fract_x
 _atom_site_fract_y
 _atom_site_fract_z
 _atom_site_occupancy
  Pr  Pr0  1  0.000000  0.357973  0.672751  1
  Pr  Pr1  1  0.000000  0.642027  0.327249  1
  Pr  Pr2  1  0.000000  0.857973  0.827249  1
  Pr  Pr3  1  0.000000  0.142027  0.172751  1
  Ti  Ti4  1  0.258681  0.500000  0.000000  1
  Ti  Ti5  1  0.741319  0.000000  0.500000  1
  Ti  Ti6  1  0.741319  0.500000  0.000000  1
  Ti  Ti7  1  0.258681  0.000000  0.500000  1
  Mn  Mn8  1  0.500000  0.090223  0.853818  1
  Mn  Mn9  1  0.500000  0.909777  0.146182  1
  Mn  Mn10  1  0.500000  0.590223  0.646182  1
  Mn  Mn11  1  0.500000  0.409777  0.353818  1
  O  O12  1  0.249868  0.901155  0.291221  1
  O  O13  1  0.249868  0.098845  0.708779  1
  O  O14  1  0.750132  0.401155  0.208779  1
  O  O15  1  0.750132  0.598845  0.791221  1
  O  O16  1  0.750132  0.098845  0.708779  1
  O  O17  1  0.750132  0.901155  0.291221  1
  O  O18  1  0.249868  0.598845  0.791221  1
  O  O19  1  0.249868  0.401155  0.208779  1
  O  O20  1  0.500000  0.347653  0.934306  1
  O  O21  1  0.500000  0.652347  0.065694  1
  O  O22  1  0.500000  0.847653  0.565694  1
  O  O23  1  0.500000  0.152347  0.434306  1
  O  O24  1  0.278118  0.000000  0.000000  1
  O  O25  1  0.721882  0.500000  0.500000  1
  O  O26  1  0.721882  0.000000  0.000000  1
  O  O27  1  0.278118  0.500000  0.500000  1
  O  O28  1  0.000000  0.160127  0.449375  1
  O  O29  1  0.000000  0.839873  0.550625  1
  O  O30  1  0.000000  0.660127  0.050625  1
  O  O31  1  0.000000  0.339873  0.949375  1
