# generated using pymatgen
data_Mn(OsO3)2
_symmetry_space_group_name_H-M   'P 1'
_cell_length_a   4.65687100
_cell_length_b   10.48928135
_cell_length_c   9.30906100
_cell_angle_alpha   63.66023956
_cell_angle_beta   90.00187058
_cell_angle_gamma   90.00089617
_symmetry_Int_Tables_number   1
_chemical_formula_structural   Mn(OsO3)2
_chemical_formula_sum   'Mn4 Os8 O24'
_cell_volume   407.51205235
_cell_formula_units_Z   4
loop_
 _symmetry_equiv_pos_site_id
 _symmetry_equiv_pos_as_xyz
  1  'x, y, z'
loop_
 _atom_site_type_symbol
 _atom_site_label
 _atom_site_symmetry_multiplicity
 _atom_site_fract_x
 _atom_site_fract_y
 _atom_site_fract_z
 _atom_site_occupancy
  Mn  Mn0  1  0.000013  0.333395  0.333350  1
  Mn  Mn1  1  0.499853  0.833167  0.833366  1
  Mn  Mn2  1  0.000093  0.333462  0.833290  1
  Mn  Mn3  1  0.500128  0.833272  0.333361  1
  Os  Os4  1  0.999987  0.002674  0.498660  1
  Os  Os5  1  0.000003  0.002668  0.998639  1
  Os  Os6  1  0.999953  0.663973  0.168029  1
  Os  Os7  1  0.000015  0.663981  0.668002  1
  Os  Os8  1  0.500006  0.163921  0.168045  1
  Os  Os9  1  0.500009  0.163939  0.668047  1
  Os  Os10  1  0.500017  0.502706  0.998655  1
  Os  Os11  1  0.499972  0.502736  0.498618  1
  O  O12  1  0.180885  0.833317  0.673789  1
  O  O13  1  0.180802  0.833305  0.173806  1
  O  O14  1  0.319050  0.333338  0.173804  1
  O  O15  1  0.319216  0.333357  0.673795  1
  O  O16  1  0.680929  0.333332  0.992852  1
  O  O17  1  0.680776  0.333349  0.492853  1
  O  O18  1  0.819188  0.833291  0.992881  1
  O  O19  1  0.819100  0.833312  0.492861  1
  O  O20  1  0.206234  0.155336  0.025647  1
  O  O21  1  0.206166  0.155289  0.525731  1
  O  O22  1  0.206289  0.511385  0.847637  1
  O  O23  1  0.206219  0.511414  0.347677  1
  O  O24  1  0.293691  0.011349  0.347687  1
  O  O25  1  0.293802  0.011321  0.847691  1
  O  O26  1  0.293738  0.655322  0.025752  1
  O  O27  1  0.293787  0.655355  0.525643  1
  O  O28  1  0.706262  0.655336  0.818986  1
  O  O29  1  0.706203  0.655351  0.318959  1
  O  O30  1  0.706280  0.011345  0.140953  1
  O  O31  1  0.706260  0.011293  0.641020  1
  O  O32  1  0.793740  0.511359  0.141020  1
  O  O33  1  0.793721  0.511403  0.640894  1
  O  O34  1  0.793753  0.155323  0.319025  1
  O  O35  1  0.793861  0.155320  0.818978  1
