# generated using pymatgen
data_La20Tc3Bi8As
_symmetry_space_group_name_H-M   'P 1'
_cell_length_a   8.53604029
_cell_length_b   9.30968600
_cell_length_c   13.02893100
_cell_angle_alpha   90.00000000
_cell_angle_beta   90.27634988
_cell_angle_gamma   90.00000000
_symmetry_Int_Tables_number   1
_chemical_formula_structural   La20Tc3Bi8As
_chemical_formula_sum   'La20 Tc3 Bi8 As1'
_cell_volume   1035.36915328
_cell_formula_units_Z   1
loop_
 _symmetry_equiv_pos_site_id
 _symmetry_equiv_pos_as_xyz
  1  'x, y, z'
loop_
 _atom_site_type_symbol
 _atom_site_label
 _atom_site_symmetry_multiplicity
 _atom_site_fract_x
 _atom_site_fract_y
 _atom_site_fract_z
 _atom_site_occupancy
  La  La0  1  0.837707  0.750000  0.785247  1
  La  La1  1  0.144389  0.250000  0.199862  1
  La  La2  1  0.351784  0.250000  0.702821  1
  La  La3  1  0.643825  0.750000  0.303944  1
  La  La4  1  0.375091  0.750000  0.697675  1
  La  La5  1  0.618238  0.250000  0.305498  1
  La  La6  1  0.879065  0.250000  0.807479  1
  La  La7  1  0.129770  0.750000  0.203549  1
  La  La8  1  0.961882  0.750000  0.501550  1
  La  La9  1  0.052319  0.250000  0.495861  1
  La  La10  1  0.450234  0.250000  0.996685  1
  La  La11  1  0.553557  0.750000  0.006912  1
  La  La12  1  0.680076  0.029782  0.561398  1
  La  La13  1  0.318924  0.968003  0.438318  1
  La  La14  1  0.186255  0.972976  0.935724  1
  La  La15  1  0.318924  0.531997  0.438318  1
  La  La16  1  0.813316  0.045290  0.063111  1
  La  La17  1  0.680076  0.470218  0.561398  1
  La  La18  1  0.813316  0.454710  0.063111  1
  La  La19  1  0.186255  0.527024  0.935724  1
  Tc  Tc20  1  0.588044  0.750000  0.521224  1
  Tc  Tc21  1  0.413337  0.250000  0.482466  1
  Tc  Tc22  1  0.079537  0.250000  0.983913  1
  Bi  Bi23  1  0.576197  0.493382  0.830191  1
  Bi  Bi24  1  0.421670  0.507781  0.172551  1
  Bi  Bi25  1  0.072167  0.506381  0.674888  1
  Bi  Bi26  1  0.421670  0.992219  0.172551  1
  Bi  Bi27  1  0.921379  0.494096  0.323138  1
  Bi  Bi28  1  0.576197  0.006618  0.830191  1
  Bi  Bi29  1  0.921379  0.005904  0.323138  1
  Bi  Bi30  1  0.072167  0.993619  0.674888  1
  As  As31  1  0.941253  0.750000  0.006669  1
