# generated using pymatgen
data_Cs4Nb2PtS8
_symmetry_space_group_name_H-M   'P 1'
_cell_length_a   14.01262000
_cell_length_b   7.76585243
_cell_length_c   10.00208600
_cell_angle_alpha   83.86471039
_cell_angle_beta   90.00000000
_cell_angle_gamma   90.00000000
_symmetry_Int_Tables_number   1
_chemical_formula_structural   Cs4Nb2PtS8
_chemical_formula_sum   'Cs8 Nb4 Pt2 S16'
_cell_volume   1082.19221536
_cell_formula_units_Z   2
loop_
 _symmetry_equiv_pos_site_id
 _symmetry_equiv_pos_as_xyz
  1  'x, y, z'
loop_
 _atom_site_type_symbol
 _atom_site_label
 _atom_site_symmetry_multiplicity
 _atom_site_fract_x
 _atom_site_fract_y
 _atom_site_fract_z
 _atom_site_occupancy
  Cs  Cs0  1  0.134986  0.820844  0.683615  1
  Cs  Cs1  1  0.634986  0.179156  0.816385  1
  Cs  Cs2  1  0.865014  0.179156  0.316385  1
  Cs  Cs3  1  0.365014  0.820844  0.183615  1
  Cs  Cs4  1  0.347885  0.276631  0.540706  1
  Cs  Cs5  1  0.847885  0.723369  0.959294  1
  Cs  Cs6  1  0.652115  0.723369  0.459294  1
  Cs  Cs7  1  0.152115  0.276631  0.040706  1
  Nb  Nb8  1  0.427002  0.746932  0.772058  1
  Nb  Nb9  1  0.927002  0.253068  0.727942  1
  Nb  Nb10  1  0.572998  0.253068  0.227942  1
  Nb  Nb11  1  0.072998  0.746932  0.272058  1
  Pt  Pt12  1  0.000000  0.500000  0.500000  1
  Pt  Pt13  1  0.500000  0.500000  0.000000  1
  S  S14  1  0.084843  0.308994  0.662275  1
  S  S15  1  0.584843  0.691006  0.837725  1
  S  S16  1  0.915157  0.691006  0.337725  1
  S  S17  1  0.415157  0.308994  0.162275  1
  S  S18  1  0.403264  0.748495  0.547441  1
  S  S19  1  0.903264  0.251505  0.952559  1
  S  S20  1  0.596736  0.251505  0.452559  1
  S  S21  1  0.096736  0.748495  0.047441  1
  S  S22  1  0.151348  0.516429  0.391259  1
  S  S23  1  0.651348  0.483571  0.108741  1
  S  S24  1  0.848652  0.483571  0.608741  1
  S  S25  1  0.348652  0.516429  0.891259  1
  S  S26  1  0.374044  0.000444  0.837515  1
  S  S27  1  0.874044  0.999556  0.662485  1
  S  S28  1  0.625956  0.999556  0.162485  1
  S  S29  1  0.125956  0.000444  0.337515  1
