# generated using pymatgen
data_HoTm2Ga2Co9B4
_symmetry_space_group_name_H-M   'P 1'
_cell_length_a   5.11636204
_cell_length_b   5.11779296
_cell_length_c   9.53156100
_cell_angle_alpha   90.00004167
_cell_angle_beta   90.00009996
_cell_angle_gamma   119.99676963
_symmetry_Int_Tables_number   1
_chemical_formula_structural   HoTm2Ga2Co9B4
_chemical_formula_sum   'Ho1 Tm2 Ga2 Co9 B4'
_cell_volume   216.14877542
_cell_formula_units_Z   1
loop_
 _symmetry_equiv_pos_site_id
 _symmetry_equiv_pos_as_xyz
  1  'x, y, z'
loop_
 _atom_site_type_symbol
 _atom_site_label
 _atom_site_symmetry_multiplicity
 _atom_site_fract_x
 _atom_site_fract_y
 _atom_site_fract_z
 _atom_site_occupancy
  Ho  Ho0  1  0.999995  0.000003  0.999886  1
  Tm  Tm1  1  0.999993  0.999998  0.340367  1
  Tm  Tm2  1  0.999999  0.999999  0.659606  1
  Ga  Ga3  1  0.333487  0.666717  0.000023  1
  Ga  Ga4  1  0.666491  0.333284  0.000025  1
  Co  Co5  1  0.499998  0.000000  0.499995  1
  Co  Co6  1  0.499996  0.500001  0.499998  1
  Co  Co7  1  0.999996  0.499999  0.500005  1
  Co  Co8  1  0.499992  0.000000  0.207817  1
  Co  Co9  1  0.499991  0.499999  0.207769  1
  Co  Co10  1  0.999991  0.499998  0.207719  1
  Co  Co11  1  0.499998  0.000000  0.792243  1
  Co  Co12  1  0.499998  0.500002  0.792257  1
  Co  Co13  1  0.999996  0.500000  0.792300  1
  B  B14  1  0.333227  0.666605  0.349359  1
  B  B15  1  0.666759  0.333395  0.349358  1
  B  B16  1  0.666702  0.333343  0.650636  1
  B  B17  1  0.333289  0.666656  0.650637  1
