# generated using pymatgen
data_TbNd2Pa3(Ni3Bi4)2
_symmetry_space_group_name_H-M   'P 1'
_cell_length_a   8.40225526
_cell_length_b   8.43143825
_cell_length_c   8.40225503
_cell_angle_alpha   109.79317825
_cell_angle_beta   109.03196401
_cell_angle_gamma   109.44767830
_symmetry_Int_Tables_number   1
_chemical_formula_structural   TbNd2Pa3(Ni3Bi4)2
_chemical_formula_sum   'Tb1 Nd2 Pa3 Ni6 Bi8'
_cell_volume   458.99681633
_cell_formula_units_Z   1
loop_
 _symmetry_equiv_pos_site_id
 _symmetry_equiv_pos_as_xyz
  1  'x, y, z'
loop_
 _atom_site_type_symbol
 _atom_site_label
 _atom_site_symmetry_multiplicity
 _atom_site_fract_x
 _atom_site_fract_y
 _atom_site_fract_z
 _atom_site_occupancy
  Tb  Tb0  1  0.627680  0.750000  0.377680  1
  Nd  Nd1  1  0.251505  0.126690  0.876635  1
  Nd  Nd2  1  0.749945  0.373310  0.624814  1
  Pa  Pa3  1  0.125812  0.878953  0.249795  1
  Pa  Pa4  1  0.370842  0.621047  0.746859  1
  Pa  Pa5  1  0.871504  0.250000  0.121504  1
  Ni  Ni6  1  0.642917  0.362835  0.238768  1
  Ni  Ni7  1  0.875933  0.137165  0.780082  1
  Ni  Ni8  1  0.366478  0.250000  0.616478  1
  Ni  Ni9  1  0.130801  0.750000  0.880801  1
  Ni  Ni10  1  0.234177  0.614401  0.371218  1
  Ni  Ni11  1  0.756818  0.885599  0.119775  1
  Bi  Bi12  1  0.337688  0.337097  0.332709  1
  Bi  Bi13  1  0.169250  0.503914  0.003286  1
  Bi  Bi14  1  0.995612  0.162903  0.500591  1
  Bi  Bi15  1  0.833689  0.831667  0.831463  1
  Bi  Bi16  1  0.499371  0.996086  0.165336  1
  Bi  Bi17  1  0.664844  0.504725  0.000064  1
  Bi  Bi18  1  0.495339  0.995275  0.660119  1
  Bi  Bi19  1  0.999796  0.668333  0.502021  1
