# generated using pymatgen
data_MnCo2Mo3N
_symmetry_space_group_name_H-M   'P 1'
_cell_length_a   7.80838991
_cell_length_b   7.80839020
_cell_length_c   7.80839000
_cell_angle_alpha   60.00000087
_cell_angle_beta   59.99999962
_cell_angle_gamma   60.00000099
_symmetry_Int_Tables_number   1
_chemical_formula_structural   MnCo2Mo3N
_chemical_formula_sum   'Mn4 Co8 Mo12 N4'
_cell_volume   336.64293400
_cell_formula_units_Z   4
loop_
 _symmetry_equiv_pos_site_id
 _symmetry_equiv_pos_as_xyz
  1  'x, y, z'
loop_
 _atom_site_type_symbol
 _atom_site_label
 _atom_site_symmetry_multiplicity
 _atom_site_fract_x
 _atom_site_fract_y
 _atom_site_fract_z
 _atom_site_occupancy
  Mn  Mn0  1  0.625000  0.125000  0.125000  1
  Mn  Mn1  1  0.125000  0.125000  0.625000  1
  Mn  Mn2  1  0.125000  0.625000  0.125000  1
  Mn  Mn3  1  0.125000  0.125000  0.125000  1
  Co  Co4  1  0.238684  0.920439  0.920439  1
  Co  Co5  1  0.920439  0.238684  0.920439  1
  Co  Co6  1  0.920439  0.920439  0.920439  1
  Co  Co7  1  0.920439  0.920439  0.238684  1
  Co  Co8  1  0.011316  0.329561  0.329561  1
  Co  Co9  1  0.329561  0.329561  0.011316  1
  Co  Co10  1  0.329561  0.011316  0.329561  1
  Co  Co11  1  0.329561  0.329561  0.329561  1
  Mo  Mo12  1  0.699968  0.300032  0.699968  1
  Mo  Mo13  1  0.550032  0.550032  0.949968  1
  Mo  Mo14  1  0.550032  0.949968  0.550032  1
  Mo  Mo15  1  0.949968  0.949968  0.550032  1
  Mo  Mo16  1  0.949968  0.550032  0.550032  1
  Mo  Mo17  1  0.949968  0.550032  0.949968  1
  Mo  Mo18  1  0.699968  0.300032  0.300032  1
  Mo  Mo19  1  0.300032  0.699968  0.300032  1
  Mo  Mo20  1  0.300032  0.300032  0.699968  1
  Mo  Mo21  1  0.300032  0.699968  0.699968  1
  Mo  Mo22  1  0.699968  0.699968  0.300032  1
  Mo  Mo23  1  0.550032  0.949968  0.949968  1
  N  N24  1  0.625000  0.625000  0.625000  1
  N  N25  1  0.125000  0.625000  0.625000  1
  N  N26  1  0.625000  0.125000  0.625000  1
  N  N27  1  0.625000  0.625000  0.125000  1
