# generated using pymatgen
data_Tb4Dy7Lu5(CdPt)4
_symmetry_space_group_name_H-M   'P 1'
_cell_length_a   9.63144354
_cell_length_b   9.63144485
_cell_length_c   9.62889600
_cell_angle_alpha   60.00876064
_cell_angle_beta   60.00875615
_cell_angle_gamma   60.14315008
_symmetry_Int_Tables_number   1
_chemical_formula_structural   Tb4Dy7Lu5(CdPt)4
_chemical_formula_sum   'Tb4 Dy7 Lu5 Cd4 Pt4'
_cell_volume   632.36754306
_cell_formula_units_Z   1
loop_
 _symmetry_equiv_pos_site_id
 _symmetry_equiv_pos_as_xyz
  1  'x, y, z'
loop_
 _atom_site_type_symbol
 _atom_site_label
 _atom_site_symmetry_multiplicity
 _atom_site_fract_x
 _atom_site_fract_y
 _atom_site_fract_z
 _atom_site_occupancy
  Tb  Tb0  1  0.352499  0.352499  0.352056  1
  Tb  Tb1  1  0.352499  0.352499  0.942947  1
  Tb  Tb2  1  0.353397  0.939615  0.353495  1
  Tb  Tb3  1  0.939615  0.353397  0.353495  1
  Dy  Dy4  1  0.813704  0.813704  0.186296  1
  Dy  Dy5  1  0.936580  0.563619  0.564765  1
  Dy  Dy6  1  0.563619  0.936580  0.935035  1
  Dy  Dy7  1  0.563619  0.936580  0.564765  1
  Dy  Dy8  1  0.936580  0.563618  0.935035  1
  Dy  Dy9  1  0.565368  0.565368  0.934632  1
  Dy  Dy10  1  0.936919  0.936919  0.563080  1
  Lu  Lu11  1  0.812633  0.188892  0.186860  1
  Lu  Lu12  1  0.188892  0.812633  0.811616  1
  Lu  Lu13  1  0.188892  0.812633  0.186860  1
  Lu  Lu14  1  0.812633  0.188892  0.811616  1
  Lu  Lu15  1  0.187453  0.187453  0.812547  1
  Cd  Cd16  1  0.580753  0.580753  0.583084  1
  Cd  Cd17  1  0.580753  0.580753  0.255408  1
  Cd  Cd18  1  0.580744  0.254194  0.582530  1
  Cd  Cd19  1  0.254194  0.580744  0.582530  1
  Pt  Pt20  1  0.140891  0.140891  0.143488  1
  Pt  Pt21  1  0.140891  0.140891  0.574732  1
  Pt  Pt22  1  0.143304  0.573573  0.141562  1
  Pt  Pt23  1  0.573573  0.143304  0.141562  1
