# generated using pymatgen
data_Er5Bi2As
_symmetry_space_group_name_H-M   'P 1'
_cell_length_a   7.98737100
_cell_length_b   9.08463700
_cell_length_c   12.00111900
_cell_angle_alpha   90.00000000
_cell_angle_beta   90.00000000
_cell_angle_gamma   90.00000000
_symmetry_Int_Tables_number   1
_chemical_formula_structural   Er5Bi2As
_chemical_formula_sum   'Er20 Bi8 As4'
_cell_volume   870.82959072
_cell_formula_units_Z   4
loop_
 _symmetry_equiv_pos_site_id
 _symmetry_equiv_pos_as_xyz
  1  'x, y, z'
loop_
 _atom_site_type_symbol
 _atom_site_label
 _atom_site_symmetry_multiplicity
 _atom_site_fract_x
 _atom_site_fract_y
 _atom_site_fract_z
 _atom_site_occupancy
  Er  Er0  1  0.655369  0.750000  0.711753  1
  Er  Er1  1  0.344631  0.250000  0.288247  1
  Er  Er2  1  0.155369  0.250000  0.788247  1
  Er  Er3  1  0.844631  0.750000  0.211753  1
  Er  Er4  1  0.133034  0.750000  0.793427  1
  Er  Er5  1  0.866966  0.250000  0.206573  1
  Er  Er6  1  0.633034  0.250000  0.706573  1
  Er  Er7  1  0.366966  0.750000  0.293427  1
  Er  Er8  1  0.537667  0.750000  0.999819  1
  Er  Er9  1  0.462333  0.250000  0.000181  1
  Er  Er10  1  0.037667  0.250000  0.500181  1
  Er  Er11  1  0.962333  0.750000  0.499819  1
  Er  Er12  1  0.816750  0.443176  0.936925  1
  Er  Er13  1  0.183250  0.556824  0.063075  1
  Er  Er14  1  0.316750  0.556824  0.563075  1
  Er  Er15  1  0.183250  0.943176  0.063075  1
  Er  Er16  1  0.683250  0.443176  0.436925  1
  Er  Er17  1  0.816750  0.056824  0.936925  1
  Er  Er18  1  0.683250  0.056824  0.436925  1
  Er  Er19  1  0.316750  0.943176  0.563075  1
  Bi  Bi20  1  0.925106  0.009708  0.673213  1
  Bi  Bi21  1  0.074894  0.990292  0.326787  1
  Bi  Bi22  1  0.425106  0.990292  0.826787  1
  Bi  Bi23  1  0.074894  0.509708  0.326787  1
  Bi  Bi24  1  0.574894  0.009708  0.173213  1
  Bi  Bi25  1  0.925106  0.490292  0.673213  1
  Bi  Bi26  1  0.574894  0.490292  0.173213  1
  Bi  Bi27  1  0.425106  0.509708  0.826787  1
  As  As28  1  0.913423  0.750000  0.980181  1
  As  As29  1  0.086577  0.250000  0.019819  1
  As  As30  1  0.413423  0.250000  0.519819  1
  As  As31  1  0.586577  0.750000  0.480181  1
