# generated using pymatgen
data_Ac2Pr(SnPd)3
_symmetry_space_group_name_H-M   'P 1'
_cell_length_a   7.80431200
_cell_length_b   7.86503905
_cell_length_c   4.29175600
_cell_angle_alpha   90.00000000
_cell_angle_beta   90.00000000
_cell_angle_gamma   119.74491383
_symmetry_Int_Tables_number   1
_chemical_formula_structural   Ac2Pr(SnPd)3
_chemical_formula_sum   'Ac2 Pr1 Sn3 Pd3'
_cell_volume   228.72400664
_cell_formula_units_Z   1
loop_
 _symmetry_equiv_pos_site_id
 _symmetry_equiv_pos_as_xyz
  1  'x, y, z'
loop_
 _atom_site_type_symbol
 _atom_site_label
 _atom_site_symmetry_multiplicity
 _atom_site_fract_x
 _atom_site_fract_y
 _atom_site_fract_z
 _atom_site_occupancy
  Ac  Ac0  1  0.000984  0.585772  0.000000  1
  Ac  Ac1  1  0.415212  0.414228  0.000000  1
  Pr  Pr2  1  0.588926  0.000000  0.000000  1
  Sn  Sn3  1  0.753458  0.760676  0.500000  1
  Sn  Sn4  1  0.992782  0.239324  0.500000  1
  Sn  Sn5  1  0.250751  0.000000  0.500000  1
  Pd  Pd6  1  0.664615  0.328692  0.500000  1
  Pd  Pd7  1  0.997350  0.000000  0.000000  1
  Pd  Pd8  1  0.335922  0.671308  0.500000  1
