# generated using pymatgen
data_Lu12Tc2IrPb2
_symmetry_space_group_name_H-M   'P 1'
_cell_length_a   8.33757152
_cell_length_b   8.33740725
_cell_length_c   8.33757206
_cell_angle_alpha   109.58479094
_cell_angle_beta   109.58478355
_cell_angle_gamma   109.24512270
_symmetry_Int_Tables_number   1
_chemical_formula_structural   Lu12Tc2IrPb2
_chemical_formula_sum   'Lu12 Tc2 Ir1 Pb2'
_cell_volume   446.14798587
_cell_formula_units_Z   1
loop_
 _symmetry_equiv_pos_site_id
 _symmetry_equiv_pos_as_xyz
  1  'x, y, z'
loop_
 _atom_site_type_symbol
 _atom_site_label
 _atom_site_symmetry_multiplicity
 _atom_site_fract_x
 _atom_site_fract_y
 _atom_site_fract_z
 _atom_site_occupancy
  Lu  Lu0  1  0.321077  0.321073  0.642152  1
  Lu  Lu1  1  0.678923  0.678927  0.357848  1
  Lu  Lu2  1  0.321081  0.678927  0.000005  1
  Lu  Lu3  1  0.678919  0.321073  0.999995  1
  Lu  Lu4  1  0.426216  0.186544  0.239680  1
  Lu  Lu5  1  0.573784  0.813456  0.760320  1
  Lu  Lu6  1  0.946863  0.186544  0.760327  1
  Lu  Lu7  1  0.186541  0.946870  0.760331  1
  Lu  Lu8  1  0.053137  0.813456  0.239673  1
  Lu  Lu9  1  0.813459  0.053130  0.239669  1
  Lu  Lu10  1  0.186540  0.426217  0.239677  1
  Lu  Lu11  1  0.813460  0.573783  0.760323  1
  Tc  Tc12  1  0.342808  0.342804  0.999996  1
  Tc  Tc13  1  0.657192  0.657196  0.000004  1
  Ir  Ir14  1  0.000000  0.000000  0.000000  1
  Pb  Pb15  1  0.500000  0.000000  0.500000  1
  Pb  Pb16  1  0.000000  0.500000  0.500000  1
