# generated using pymatgen
data_Mg4P6Ir3OsRh3
_symmetry_space_group_name_H-M   'P 1'
_cell_length_a   6.84629586
_cell_length_b   6.84629401
_cell_length_c   6.84854000
_cell_angle_alpha   109.47786926
_cell_angle_beta   109.47786378
_cell_angle_gamma   109.46457796
_symmetry_Int_Tables_number   1
_chemical_formula_structural   Mg4P6Ir3OsRh3
_chemical_formula_sum   'Mg4 P6 Ir3 Os1 Rh3'
_cell_volume   247.08800698
_cell_formula_units_Z   1
loop_
 _symmetry_equiv_pos_site_id
 _symmetry_equiv_pos_as_xyz
  1  'x, y, z'
loop_
 _atom_site_type_symbol
 _atom_site_label
 _atom_site_symmetry_multiplicity
 _atom_site_fract_x
 _atom_site_fract_y
 _atom_site_fract_z
 _atom_site_occupancy
  Mg  Mg0  1  0.500330  0.499670  0.500000  1
  Mg  Mg1  1  0.000000  0.000000  0.500000  1
  Mg  Mg2  1  0.500330  0.000661  0.000330  1
  Mg  Mg3  1  0.999339  0.499670  0.999670  1
  P  P4  1  0.315001  0.999874  0.314914  1
  P  P5  1  0.684873  0.999874  0.684961  1
  P  P6  1  0.000126  0.684999  0.685086  1
  P  P7  1  0.000126  0.315127  0.315039  1
  P  P8  1  0.684873  0.684999  0.999912  1
  P  P9  1  0.315001  0.315127  0.000088  1
  Ir  Ir10  1  0.249722  0.750278  0.500000  1
  Ir  Ir11  1  0.249722  0.499444  0.749722  1
  Ir  Ir12  1  0.500556  0.750278  0.250278  1
  Os  Os13  1  0.000000  0.000000  0.000000  1
  Rh  Rh14  1  0.500435  0.250218  0.750218  1
  Rh  Rh15  1  0.749782  0.250218  0.500000  1
  Rh  Rh16  1  0.749782  0.499565  0.249782  1
