# generated using pymatgen
data_Eu2Sb2PdAu
_symmetry_space_group_name_H-M   'P 1'
_cell_length_a   4.78069000
_cell_length_b   7.77318700
_cell_length_c   8.06711900
_cell_angle_alpha   90.00000000
_cell_angle_beta   90.00000000
_cell_angle_gamma   90.00000000
_symmetry_Int_Tables_number   1
_chemical_formula_structural   Eu2Sb2PdAu
_chemical_formula_sum   'Eu4 Sb4 Pd2 Au2'
_cell_volume   299.78380128
_cell_formula_units_Z   2
loop_
 _symmetry_equiv_pos_site_id
 _symmetry_equiv_pos_as_xyz
  1  'x, y, z'
loop_
 _atom_site_type_symbol
 _atom_site_label
 _atom_site_symmetry_multiplicity
 _atom_site_fract_x
 _atom_site_fract_y
 _atom_site_fract_z
 _atom_site_occupancy
  Eu  Eu0  1  0.250000  0.007081  0.293918  1
  Eu  Eu1  1  0.250000  0.507081  0.206082  1
  Eu  Eu2  1  0.750000  0.996615  0.705883  1
  Eu  Eu3  1  0.750000  0.496615  0.794117  1
  Sb  Sb4  1  0.250000  0.705040  0.584642  1
  Sb  Sb5  1  0.250000  0.205040  0.915358  1
  Sb  Sb6  1  0.750000  0.302663  0.396846  1
  Sb  Sb7  1  0.750000  0.802663  0.103154  1
  Pd  Pd8  1  0.750000  0.685496  0.423537  1
  Pd  Pd9  1  0.750000  0.185496  0.076463  1
  Au  Au10  1  0.250000  0.303105  0.582131  1
  Au  Au11  1  0.250000  0.803105  0.917869  1
