# generated using pymatgen
data_La2LuThBi5
_symmetry_space_group_name_H-M   'P 1'
_cell_length_a   9.84779600
_cell_length_b   9.87536877
_cell_length_c   6.68066300
_cell_angle_alpha   90.00000000
_cell_angle_beta   90.00000000
_cell_angle_gamma   119.90768180
_symmetry_Int_Tables_number   1
_chemical_formula_structural   La2LuThBi5
_chemical_formula_sum   'La4 Lu2 Th2 Bi10'
_cell_volume   563.17817682
_cell_formula_units_Z   2
loop_
 _symmetry_equiv_pos_site_id
 _symmetry_equiv_pos_as_xyz
  1  'x, y, z'
loop_
 _atom_site_type_symbol
 _atom_site_label
 _atom_site_symmetry_multiplicity
 _atom_site_fract_x
 _atom_site_fract_y
 _atom_site_fract_z
 _atom_site_occupancy
  La  La0  1  0.386466  0.000000  0.750000  1
  La  La1  1  0.616728  0.618147  0.750000  1
  La  La2  1  0.621615  0.000000  0.250000  1
  La  La3  1  0.998581  0.381853  0.750000  1
  Lu  Lu4  1  0.999867  0.000000  0.997735  1
  Lu  Lu5  1  0.999867  0.000000  0.502265  1
  Th  Th6  1  0.999345  0.619586  0.250000  1
  Th  Th7  1  0.379759  0.380414  0.250000  1
  Bi  Bi8  1  0.002922  0.269829  0.250000  1
  Bi  Bi9  1  0.329378  0.663212  0.495753  1
  Bi  Bi10  1  0.666167  0.336788  0.004247  1
  Bi  Bi11  1  0.329378  0.663212  0.004247  1
  Bi  Bi12  1  0.269385  0.268049  0.750000  1
  Bi  Bi13  1  0.732887  0.000000  0.750000  1
  Bi  Bi14  1  0.001335  0.731951  0.750000  1
  Bi  Bi15  1  0.733093  0.730171  0.250000  1
  Bi  Bi16  1  0.267054  0.000000  0.250000  1
  Bi  Bi17  1  0.666167  0.336788  0.495753  1
