# generated using pymatgen
data_Er2U2Ga12Pd
_symmetry_space_group_name_H-M   'P 1'
_cell_length_a   7.44270638
_cell_length_b   7.48126394
_cell_length_c   7.44270538
_cell_angle_alpha   109.38512988
_cell_angle_beta   109.43447318
_cell_angle_gamma   109.38511520
_symmetry_Int_Tables_number   1
_chemical_formula_structural   Er2U2Ga12Pd
_chemical_formula_sum   'Er2 U2 Ga12 Pd1'
_cell_volume   319.83764421
_cell_formula_units_Z   1
loop_
 _symmetry_equiv_pos_site_id
 _symmetry_equiv_pos_as_xyz
  1  'x, y, z'
loop_
 _atom_site_type_symbol
 _atom_site_label
 _atom_site_symmetry_multiplicity
 _atom_site_fract_x
 _atom_site_fract_y
 _atom_site_fract_z
 _atom_site_occupancy
  Er  Er0  1  0.000000  0.500000  0.000000  1
  Er  Er1  1  0.500000  0.500000  0.500000  1
  U  U2  1  0.000000  0.000000  0.500000  1
  U  U3  1  0.500000  0.000000  0.000000  1
  Ga  Ga4  1  0.749376  0.250054  0.500679  1
  Ga  Ga5  1  0.750000  0.500000  0.250000  1
  Ga  Ga6  1  0.500679  0.250054  0.749376  1
  Ga  Ga7  1  0.250000  0.500000  0.750000  1
  Ga  Ga8  1  0.250624  0.749946  0.499321  1
  Ga  Ga9  1  0.499321  0.749946  0.250624  1
  Ga  Ga10  1  0.704559  0.706235  0.001676  1
  Ga  Ga11  1  0.295881  0.000000  0.295881  1
  Ga  Ga12  1  0.998324  0.293765  0.295441  1
  Ga  Ga13  1  0.295441  0.293765  0.998324  1
  Ga  Ga14  1  0.704119  0.000000  0.704119  1
  Ga  Ga15  1  0.001676  0.706235  0.704559  1
  Pd  Pd16  1  0.000000  0.000000  0.000000  1
