# generated using pymatgen
data_Nd2(SbRh3)3
_symmetry_space_group_name_H-M   'P 1'
_cell_length_a   7.95587167
_cell_length_b   7.95587222
_cell_length_c   9.21279200
_cell_angle_alpha   90.00000000
_cell_angle_beta   90.00000000
_cell_angle_gamma   120.05759426
_symmetry_Int_Tables_number   1
_chemical_formula_structural   Nd2(SbRh3)3
_chemical_formula_sum   'Nd4 Sb6 Rh18'
_cell_volume   504.71373946
_cell_formula_units_Z   2
loop_
 _symmetry_equiv_pos_site_id
 _symmetry_equiv_pos_as_xyz
  1  'x, y, z'
loop_
 _atom_site_type_symbol
 _atom_site_label
 _atom_site_symmetry_multiplicity
 _atom_site_fract_x
 _atom_site_fract_y
 _atom_site_fract_z
 _atom_site_occupancy
  Nd  Nd0  1  0.330098  0.020178  0.750000  1
  Nd  Nd1  1  0.669902  0.979822  0.250000  1
  Nd  Nd2  1  0.020178  0.330098  0.750000  1
  Nd  Nd3  1  0.979822  0.669902  0.250000  1
  Sb  Sb4  1  0.000000  0.000000  0.500000  1
  Sb  Sb5  1  0.680318  0.319682  0.000000  1
  Sb  Sb6  1  0.319682  0.680318  0.500000  1
  Sb  Sb7  1  0.319682  0.680318  0.000000  1
  Sb  Sb8  1  0.000000  0.000000  0.000000  1
  Sb  Sb9  1  0.680318  0.319682  0.500000  1
  Rh  Rh10  1  0.334688  0.334688  0.963252  1
  Rh  Rh11  1  0.459676  0.652814  0.750000  1
  Rh  Rh12  1  0.540324  0.347186  0.250000  1
  Rh  Rh13  1  0.652814  0.459676  0.750000  1
  Rh  Rh14  1  0.006321  0.336921  0.088456  1
  Rh  Rh15  1  0.993679  0.663079  0.588456  1
  Rh  Rh16  1  0.336921  0.006321  0.411544  1
  Rh  Rh17  1  0.663079  0.993679  0.911544  1
  Rh  Rh18  1  0.993679  0.663079  0.911544  1
  Rh  Rh19  1  0.006321  0.336921  0.411544  1
  Rh  Rh20  1  0.663079  0.993679  0.588456  1
  Rh  Rh21  1  0.855423  0.855423  0.750000  1
  Rh  Rh22  1  0.334688  0.334688  0.536748  1
  Rh  Rh23  1  0.665312  0.665312  0.036748  1
  Rh  Rh24  1  0.336921  0.006321  0.088456  1
  Rh  Rh25  1  0.665312  0.665312  0.463252  1
  Rh  Rh26  1  0.144577  0.144577  0.250000  1
  Rh  Rh27  1  0.347186  0.540324  0.250000  1
