# generated using pymatgen
data_Te11Ir2Br7
_symmetry_space_group_name_H-M   'P 1'
_cell_length_a   9.47399197
_cell_length_b   9.90112626
_cell_length_c   9.56937878
_cell_angle_alpha   108.58882590
_cell_angle_beta   109.74951274
_cell_angle_gamma   107.32900707
_symmetry_Int_Tables_number   1
_chemical_formula_structural   Te11Ir2Br7
_chemical_formula_sum   'Te11 Ir2 Br7'
_cell_volume   713.22003151
_cell_formula_units_Z   1
loop_
 _symmetry_equiv_pos_site_id
 _symmetry_equiv_pos_as_xyz
  1  'x, y, z'
loop_
 _atom_site_type_symbol
 _atom_site_label
 _atom_site_symmetry_multiplicity
 _atom_site_fract_x
 _atom_site_fract_y
 _atom_site_fract_z
 _atom_site_occupancy
  Te  Te0  1  0.194403  0.946335  0.179247  1
  Te  Te1  1  0.160998  0.169439  0.919866  1
  Te  Te2  1  0.683508  0.650275  0.422755  1
  Te  Te3  1  0.425885  0.678491  0.655503  1
  Te  Te4  1  0.673989  0.441632  0.695788  1
  Te  Te5  1  0.073849  0.829482  0.819204  1
  Te  Te6  1  0.801441  0.041169  0.808884  1
  Te  Te7  1  0.826797  0.792403  0.055915  1
  Te  Te8  1  0.312230  0.338790  0.565325  1
  Te  Te9  1  0.562265  0.318523  0.330959  1
  Te  Te10  1  0.308561  0.553494  0.298875  1
  Ir  Ir11  1  0.246201  0.250646  0.244889  1
  Ir  Ir12  1  0.748722  0.744417  0.744370  1
  Br  Br13  1  0.016565  0.561369  0.281078  1
  Br  Br14  1  0.266313  0.024405  0.527023  1
  Br  Br15  1  0.514887  0.249056  0.995407  1
  Br  Br16  1  0.734229  0.007955  0.503274  1
  Br  Br17  1  0.492518  0.727328  0.006359  1
  Br  Br18  1  0.020399  0.505435  0.767342  1
  Br  Br19  1  0.936239  0.169359  0.177937  1
