# generated using pymatgen
data_Pr3YEr4(WO6)4
_symmetry_space_group_name_H-M   'P 1'
_cell_length_a   5.49744000
_cell_length_b   7.81596186
_cell_length_c   11.50676487
_cell_angle_alpha   76.07313225
_cell_angle_beta   90.00000000
_cell_angle_gamma   90.00000000
_symmetry_Int_Tables_number   1
_chemical_formula_structural   Pr3YEr4(WO6)4
_chemical_formula_sum   'Pr3 Y1 Er4 W4 O24'
_cell_volume   479.88604592
_cell_formula_units_Z   1
loop_
 _symmetry_equiv_pos_site_id
 _symmetry_equiv_pos_as_xyz
  1  'x, y, z'
loop_
 _atom_site_type_symbol
 _atom_site_label
 _atom_site_symmetry_multiplicity
 _atom_site_fract_x
 _atom_site_fract_y
 _atom_site_fract_z
 _atom_site_occupancy
  Pr  Pr0  1  0.682808  0.500000  0.250000  1
  Pr  Pr1  1  0.314531  0.500000  0.750000  1
  Pr  Pr2  1  0.745661  0.000000  0.250000  1
  Y  Y3  1  0.255956  0.000000  0.750000  1
  Er  Er4  1  0.184268  0.206317  0.423342  1
  Er  Er5  1  0.184268  0.793683  0.076658  1
  Er  Er6  1  0.818482  0.792794  0.579944  1
  Er  Er7  1  0.818482  0.207206  0.920056  1
  W  W8  1  0.254817  0.276569  0.112980  1
  W  W9  1  0.254817  0.723431  0.387020  1
  W  W10  1  0.744144  0.730287  0.883938  1
  W  W11  1  0.744144  0.269713  0.616062  1
  O  O12  1  0.445267  0.210610  0.272619  1
  O  O13  1  0.445267  0.789390  0.227381  1
  O  O14  1  0.547023  0.796435  0.726034  1
  O  O15  1  0.547023  0.203565  0.773966  1
  O  O16  1  0.059110  0.060519  0.098305  1
  O  O17  1  0.059110  0.939481  0.401695  1
  O  O18  1  0.950705  0.942985  0.895651  1
  O  O19  1  0.950705  0.057015  0.604349  1
  O  O20  1  0.988083  0.284946  0.228054  1
  O  O21  1  0.988083  0.715054  0.271946  1
  O  O22  1  0.013465  0.720864  0.769291  1
  O  O23  1  0.013465  0.279136  0.730709  1
  O  O24  1  0.851665  0.353729  0.454428  1
  O  O25  1  0.851665  0.646271  0.045572  1
  O  O26  1  0.140835  0.636245  0.547230  1
  O  O27  1  0.140835  0.363755  0.952770  1
  O  O28  1  0.656021  0.503164  0.614656  1
  O  O29  1  0.656021  0.496836  0.885344  1
  O  O30  1  0.347010  0.490180  0.389356  1
  O  O31  1  0.347010  0.509820  0.110644  1
  O  O32  1  0.460826  0.157394  0.568520  1
  O  O33  1  0.460826  0.842606  0.931480  1
  O  O34  1  0.538799  0.830740  0.436359  1
  O  O35  1  0.538799  0.169260  0.063641  1
