# generated using pymatgen
data_Cs8NaLi3(HoSb2)4
_symmetry_space_group_name_H-M   'P 1'
_cell_length_a   11.57084448
_cell_length_b   11.57084295
_cell_length_c   7.41228986
_cell_angle_alpha   90.06312865
_cell_angle_beta   89.93687033
_cell_angle_gamma   100.68970019
_symmetry_Int_Tables_number   1
_chemical_formula_structural   Cs8NaLi3(HoSb2)4
_chemical_formula_sum   'Cs8 Na1 Li3 Ho4 Sb8'
_cell_volume   975.16737883
_cell_formula_units_Z   1
loop_
 _symmetry_equiv_pos_site_id
 _symmetry_equiv_pos_as_xyz
  1  'x, y, z'
loop_
 _atom_site_type_symbol
 _atom_site_label
 _atom_site_symmetry_multiplicity
 _atom_site_fract_x
 _atom_site_fract_y
 _atom_site_fract_z
 _atom_site_occupancy
  Cs  Cs0  1  0.071634  0.429143  0.249507  1
  Cs  Cs1  1  0.429143  0.071634  0.750493  1
  Cs  Cs2  1  0.928859  0.569323  0.749263  1
  Cs  Cs3  1  0.569323  0.928859  0.250737  1
  Cs  Cs4  1  0.674856  0.323306  0.212370  1
  Cs  Cs5  1  0.823196  0.177964  0.712957  1
  Cs  Cs6  1  0.323306  0.674856  0.787630  1
  Cs  Cs7  1  0.177964  0.823196  0.287043  1
  Na  Na8  1  0.882624  0.882624  0.500000  1
  Li  Li9  1  0.378589  0.378589  0.000000  1
  Li  Li10  1  0.124682  0.124682  0.500000  1
  Li  Li11  1  0.620799  0.620799  0.000000  1
  Ho  Ho12  1  0.131010  0.131010  0.000000  1
  Ho  Ho13  1  0.370560  0.370560  0.500000  1
  Ho  Ho14  1  0.869525  0.869525  0.000000  1
  Ho  Ho15  1  0.628864  0.628864  0.500000  1
  Sb  Sb16  1  0.835818  0.654616  0.240867  1
  Sb  Sb17  1  0.654616  0.835818  0.759133  1
  Sb  Sb18  1  0.161067  0.339083  0.748879  1
  Sb  Sb19  1  0.339083  0.161067  0.251121  1
  Sb  Sb20  1  0.909004  0.095855  0.222767  1
  Sb  Sb21  1  0.589130  0.410492  0.733748  1
  Sb  Sb22  1  0.095855  0.909004  0.777233  1
  Sb  Sb23  1  0.410492  0.589130  0.266252  1
