# generated using pymatgen
data_Ti4GaSi5Mo6
_symmetry_space_group_name_H-M   'P 1'
_cell_length_a   7.32053888
_cell_length_b   7.32053896
_cell_length_c   7.36133540
_cell_angle_alpha   96.67343179
_cell_angle_beta   96.53734997
_cell_angle_gamma   140.23343007
_symmetry_Int_Tables_number   1
_chemical_formula_structural   Ti4GaSi5Mo6
_chemical_formula_sum   'Ti4 Ga1 Si5 Mo6'
_cell_volume   237.47228236
_cell_formula_units_Z   1
loop_
 _symmetry_equiv_pos_site_id
 _symmetry_equiv_pos_as_xyz
  1  'x, y, z'
loop_
 _atom_site_type_symbol
 _atom_site_label
 _atom_site_symmetry_multiplicity
 _atom_site_fract_x
 _atom_site_fract_y
 _atom_site_fract_z
 _atom_site_occupancy
  Ti  Ti0  1  0.724597  0.577319  0.301914  1
  Ti  Ti1  1  0.275809  0.421201  0.697012  1
  Ti  Ti2  1  0.575508  0.274665  0.850172  1
  Ti  Ti3  1  0.427313  0.726140  0.153453  1
  Ga  Ga4  1  0.167177  0.667428  0.834604  1
  Si  Si5  1  0.334129  0.166489  0.500618  1
  Si  Si6  1  0.666882  0.835658  0.502541  1
  Si  Si7  1  0.833693  0.332150  0.165844  1
  Si  Si8  1  0.752483  0.752293  0.999228  1
  Si  Si9  1  0.246935  0.246745  0.999228  1
  Mo  Mo10  1  0.075497  0.219620  0.295115  1
  Mo  Mo11  1  0.779751  0.072796  0.852547  1
  Mo  Mo12  1  0.222840  0.930933  0.153773  1
  Mo  Mo13  1  0.921317  0.780682  0.702000  1
  Mo  Mo14  1  0.747947  0.247853  0.495976  1
  Mo  Mo15  1  0.248123  0.748029  0.495976  1
