# generated using pymatgen
data_Lu4MgTlPd4
_symmetry_space_group_name_H-M   'P 1'
_cell_length_a   7.67536100
_cell_length_b   7.67536100
_cell_length_c   3.61269300
_cell_angle_alpha   90.00000000
_cell_angle_beta   90.00000000
_cell_angle_gamma   90.00000000
_symmetry_Int_Tables_number   1
_chemical_formula_structural   Lu4MgTlPd4
_chemical_formula_sum   'Lu4 Mg1 Tl1 Pd4'
_cell_volume   212.82795877
_cell_formula_units_Z   1
loop_
 _symmetry_equiv_pos_site_id
 _symmetry_equiv_pos_as_xyz
  1  'x, y, z'
loop_
 _atom_site_type_symbol
 _atom_site_label
 _atom_site_symmetry_multiplicity
 _atom_site_fract_x
 _atom_site_fract_y
 _atom_site_fract_z
 _atom_site_occupancy
  Lu  Lu0  1  0.651974  0.177113  0.500000  1
  Lu  Lu1  1  0.348026  0.822887  0.500000  1
  Lu  Lu2  1  0.177113  0.348026  0.500000  1
  Lu  Lu3  1  0.822887  0.651974  0.500000  1
  Mg  Mg4  1  0.000000  0.000000  0.000000  1
  Tl  Tl5  1  0.500000  0.500000  0.000000  1
  Pd  Pd6  1  0.117446  0.647500  0.000000  1
  Pd  Pd7  1  0.882554  0.352500  0.000000  1
  Pd  Pd8  1  0.647500  0.882554  0.000000  1
  Pd  Pd9  1  0.352500  0.117446  0.000000  1
