# generated using pymatgen
data_NaTlP2O7
_symmetry_space_group_name_H-M   'P 1'
_cell_length_a   8.41253500
_cell_length_b   7.60782297
_cell_length_c   10.00021600
_cell_angle_alpha   68.06733395
_cell_angle_beta   90.00000000
_cell_angle_gamma   90.00000000
_symmetry_Int_Tables_number   1
_chemical_formula_structural   NaTlP2O7
_chemical_formula_sum   'Na4 Tl4 P8 O28'
_cell_volume   593.70182308
_cell_formula_units_Z   4
loop_
 _symmetry_equiv_pos_site_id
 _symmetry_equiv_pos_as_xyz
  1  'x, y, z'
loop_
 _atom_site_type_symbol
 _atom_site_label
 _atom_site_symmetry_multiplicity
 _atom_site_fract_x
 _atom_site_fract_y
 _atom_site_fract_z
 _atom_site_occupancy
  Na  Na0  1  0.017843  0.205078  0.795361  1
  Na  Na1  1  0.517843  0.794922  0.704639  1
  Na  Na2  1  0.982157  0.794922  0.204639  1
  Na  Na3  1  0.482157  0.205078  0.295361  1
  Tl  Tl4  1  0.998163  0.745851  0.746722  1
  Tl  Tl5  1  0.498163  0.254149  0.753278  1
  Tl  Tl6  1  0.001837  0.254149  0.253278  1
  Tl  Tl7  1  0.501837  0.745851  0.246722  1
  P  P8  1  0.248679  0.420018  0.969474  1
  P  P9  1  0.748679  0.579982  0.530526  1
  P  P10  1  0.751321  0.579982  0.030526  1
  P  P11  1  0.251321  0.420018  0.469474  1
  P  P12  1  0.282205  0.825360  0.948073  1
  P  P13  1  0.782205  0.174640  0.551927  1
  P  P14  1  0.717795  0.174640  0.051927  1
  P  P15  1  0.217795  0.825360  0.448073  1
  O  O16  1  0.371535  0.304202  0.927952  1
  O  O17  1  0.871535  0.695798  0.572048  1
  O  O18  1  0.628465  0.695798  0.072048  1
  O  O19  1  0.128465  0.304202  0.427952  1
  O  O20  1  0.229793  0.336048  0.134225  1
  O  O21  1  0.729793  0.663952  0.365775  1
  O  O22  1  0.770207  0.663952  0.865775  1
  O  O23  1  0.270207  0.336048  0.634225  1
  O  O24  1  0.092372  0.447968  0.883977  1
  O  O25  1  0.592372  0.552032  0.616023  1
  O  O26  1  0.907628  0.552032  0.116023  1
  O  O27  1  0.407628  0.447968  0.383977  1
  O  O28  1  0.408923  0.952732  0.852011  1
  O  O29  1  0.908923  0.047268  0.647989  1
  O  O30  1  0.591077  0.047268  0.147989  1
  O  O31  1  0.091077  0.952732  0.352011  1
  O  O32  1  0.282575  0.797536  0.108261  1
  O  O33  1  0.782575  0.202464  0.391739  1
  O  O34  1  0.717425  0.202464  0.891739  1
  O  O35  1  0.217425  0.797536  0.608261  1
  O  O36  1  0.110397  0.878618  0.893348  1
  O  O37  1  0.610397  0.121382  0.606652  1
  O  O38  1  0.889603  0.121382  0.106652  1
  O  O39  1  0.389603  0.878618  0.393348  1
  O  O40  1  0.328794  0.627818  0.928880  1
  O  O41  1  0.828794  0.372182  0.571120  1
  O  O42  1  0.671206  0.372182  0.071120  1
  O  O43  1  0.171206  0.627818  0.428880  1
