# generated using pymatgen
data_V16Rh3
_symmetry_space_group_name_H-M   'P 1'
_cell_length_a   6.48183010
_cell_length_b   7.79699237
_cell_length_c   7.38572300
_cell_angle_alpha   108.78372136
_cell_angle_beta   101.11556907
_cell_angle_gamma   124.58097471
_symmetry_Int_Tables_number   1
_chemical_formula_structural   V16Rh3
_chemical_formula_sum   'V16 Rh3'
_cell_volume   254.95642068
_cell_formula_units_Z   1
loop_
 _symmetry_equiv_pos_site_id
 _symmetry_equiv_pos_as_xyz
  1  'x, y, z'
loop_
 _atom_site_type_symbol
 _atom_site_label
 _atom_site_symmetry_multiplicity
 _atom_site_fract_x
 _atom_site_fract_y
 _atom_site_fract_z
 _atom_site_occupancy
  V  V0  1  0.253169  0.496448  0.905021  1
  V  V1  1  0.873708  0.436719  0.325343  1
  V  V2  1  0.032279  0.176087  0.435040  1
  V  V3  1  0.722455  0.703188  0.220452  1
  V  V4  1  0.515990  0.391658  0.750424  1
  V  V5  1  0.780869  0.287138  0.593419  1
  V  V6  1  0.927256  0.020245  0.696613  1
  V  V7  1  0.468852  0.815884  0.382829  1
  V  V8  1  0.413803  0.232916  0.010706  1
  V  V9  1  0.356663  0.650477  0.641800  1
  V  V10  1  0.819882  0.854683  0.951803  1
  V  V11  1  0.565086  0.963289  0.115983  1
  V  V12  1  0.088760  0.752050  0.804205  1
  V  V13  1  0.668681  0.123250  0.854586  1
  V  V14  1  0.620118  0.552203  0.492361  1
  V  V15  1  0.978272  0.593471  0.062934  1
  Rh  Rh16  1  0.304804  0.076279  0.268153  1
  Rh  Rh17  1  0.143867  0.335795  0.170419  1
  Rh  Rh18  1  0.190863  0.909862  0.544821  1
