# generated using pymatgen
data_K8Li4Dy3AlSb8
_symmetry_space_group_name_H-M   'P 1'
_cell_length_a   10.81948687
_cell_length_b   10.81948708
_cell_length_c   7.04431049
_cell_angle_alpha   90.12937214
_cell_angle_beta   89.87063332
_cell_angle_gamma   99.00960720
_symmetry_Int_Tables_number   1
_chemical_formula_structural   K8Li4Dy3AlSb8
_chemical_formula_sum   'K8 Li4 Dy3 Al1 Sb8'
_cell_volume   814.43850748
_cell_formula_units_Z   1
loop_
 _symmetry_equiv_pos_site_id
 _symmetry_equiv_pos_as_xyz
  1  'x, y, z'
loop_
 _atom_site_type_symbol
 _atom_site_label
 _atom_site_symmetry_multiplicity
 _atom_site_fract_x
 _atom_site_fract_y
 _atom_site_fract_z
 _atom_site_occupancy
  K  K0  1  0.568158  0.931081  0.745945  1
  K  K1  1  0.931081  0.568158  0.254055  1
  K  K2  1  0.428939  0.080409  0.257085  1
  K  K3  1  0.080409  0.428939  0.742915  1
  K  K4  1  0.668696  0.321363  0.774377  1
  K  K5  1  0.823979  0.177228  0.282652  1
  K  K6  1  0.321363  0.668696  0.225623  1
  K  K7  1  0.177228  0.823979  0.717348  1
  Li  Li8  1  0.615858  0.615858  0.000000  1
  Li  Li9  1  0.878493  0.878493  0.500000  1
  Li  Li10  1  0.378706  0.378706  0.000000  1
  Li  Li11  1  0.126342  0.126342  0.500000  1
  Dy  Dy12  1  0.868708  0.868708  0.000000  1
  Dy  Dy13  1  0.624526  0.624526  0.500000  1
  Dy  Dy14  1  0.133906  0.133906  0.000000  1
  Al  Al15  1  0.375925  0.375925  0.500000  1
  Sb  Sb16  1  0.354021  0.164832  0.733324  1
  Sb  Sb17  1  0.164832  0.354021  0.266676  1
  Sb  Sb18  1  0.643455  0.850493  0.249024  1
  Sb  Sb19  1  0.850493  0.643455  0.750976  1
  Sb  Sb20  1  0.899770  0.103566  0.759877  1
  Sb  Sb21  1  0.588210  0.393332  0.266057  1
  Sb  Sb22  1  0.103566  0.899770  0.240123  1
  Sb  Sb23  1  0.393332  0.588210  0.733943  1
