# generated using pymatgen
data_Ho11Si12AgAu12
_symmetry_space_group_name_H-M   'P 1'
_cell_length_a   4.33165500
_cell_length_b   7.52836837
_cell_length_c   22.25944000
_cell_angle_alpha   89.98209214
_cell_angle_beta   90.00000000
_cell_angle_gamma   90.00000000
_symmetry_Int_Tables_number   1
_chemical_formula_structural   Ho11Si12AgAu12
_chemical_formula_sum   'Ho11 Si12 Ag1 Au12'
_cell_volume   725.88685795
_cell_formula_units_Z   1
loop_
 _symmetry_equiv_pos_site_id
 _symmetry_equiv_pos_as_xyz
  1  'x, y, z'
loop_
 _atom_site_type_symbol
 _atom_site_label
 _atom_site_symmetry_multiplicity
 _atom_site_fract_x
 _atom_site_fract_y
 _atom_site_fract_z
 _atom_site_occupancy
  Ho  Ho0  1  0.250000  0.726540  0.338413  1
  Ho  Ho1  1  0.750000  0.284109  0.661506  1
  Ho  Ho2  1  0.750000  0.238088  0.168945  1
  Ho  Ho3  1  0.250000  0.763727  0.830592  1
  Ho  Ho4  1  0.250000  0.759877  0.170232  1
  Ho  Ho5  1  0.750000  0.236182  0.830422  1
  Ho  Ho6  1  0.750000  0.265957  0.337324  1
  Ho  Ho7  1  0.250000  0.721125  0.661485  1
  Ho  Ho8  1  0.250000  0.735391  0.999316  1
  Ho  Ho9  1  0.750000  0.264346  0.001274  1
  Ho  Ho10  1  0.750000  0.207664  0.500865  1
  Si  Si11  1  0.250000  0.083396  0.085445  1
  Si  Si12  1  0.750000  0.913875  0.919925  1
  Si  Si13  1  0.750000  0.581109  0.419296  1
  Si  Si14  1  0.250000  0.418163  0.561593  1
  Si  Si15  1  0.250000  0.084535  0.261149  1
  Si  Si16  1  0.750000  0.911386  0.735550  1
  Si  Si17  1  0.750000  0.581497  0.256344  1
  Si  Si18  1  0.250000  0.415049  0.742388  1
  Si  Si19  1  0.250000  0.084755  0.407475  1
  Si  Si20  1  0.750000  0.914058  0.602278  1
  Si  Si21  1  0.750000  0.586319  0.085762  1
  Si  Si22  1  0.250000  0.415148  0.920088  1
  Ag  Ag23  1  0.250000  0.811227  0.497950  1
  Au  Au24  1  0.250000  0.414652  0.245245  1
  Au  Au25  1  0.750000  0.581694  0.758620  1
  Au  Au26  1  0.750000  0.916985  0.255648  1
  Au  Au27  1  0.250000  0.082358  0.742721  1
  Au  Au28  1  0.250000  0.419270  0.436401  1
  Au  Au29  1  0.750000  0.588636  0.569878  1
  Au  Au30  1  0.750000  0.917606  0.080707  1
  Au  Au31  1  0.250000  0.083255  0.915372  1
  Au  Au32  1  0.250000  0.417461  0.092203  1
  Au  Au33  1  0.750000  0.580080  0.903930  1
  Au  Au34  1  0.750000  0.910292  0.412966  1
  Au  Au35  1  0.250000  0.084193  0.590695  1
