# generated using pymatgen
data_Tb6Al24GaOs7
_symmetry_space_group_name_H-M   'P 1'
_cell_length_a   8.87231956
_cell_length_b   8.87231933
_cell_length_c   9.56568085
_cell_angle_alpha   90.11300023
_cell_angle_beta   89.88700064
_cell_angle_gamma   119.79334835
_symmetry_Int_Tables_number   1
_chemical_formula_structural   Tb6Al24GaOs7
_chemical_formula_sum   'Tb6 Al24 Ga1 Os7'
_cell_volume   653.46198285
_cell_formula_units_Z   1
loop_
 _symmetry_equiv_pos_site_id
 _symmetry_equiv_pos_as_xyz
  1  'x, y, z'
loop_
 _atom_site_type_symbol
 _atom_site_label
 _atom_site_symmetry_multiplicity
 _atom_site_fract_x
 _atom_site_fract_y
 _atom_site_fract_z
 _atom_site_occupancy
  Tb  Tb0  1  0.190997  0.384894  0.246162  1
  Tb  Tb1  1  0.809003  0.615106  0.753838  1
  Tb  Tb2  1  0.615106  0.809003  0.246162  1
  Tb  Tb3  1  0.384894  0.190997  0.753838  1
  Tb  Tb4  1  0.194211  0.805789  0.255077  1
  Tb  Tb5  1  0.805789  0.194211  0.744923  1
  Al  Al6  1  0.327269  0.672731  0.021452  1
  Al  Al7  1  0.672731  0.327269  0.978548  1
  Al  Al8  1  0.666079  0.333921  0.517899  1
  Al  Al9  1  0.333921  0.666079  0.482101  1
  Al  Al10  1  0.162554  0.325401  0.572267  1
  Al  Al11  1  0.837446  0.674599  0.427733  1
  Al  Al12  1  0.674599  0.837446  0.572267  1
  Al  Al13  1  0.852313  0.678805  0.081605  1
  Al  Al14  1  0.325401  0.162554  0.427733  1
  Al  Al15  1  0.147687  0.321195  0.918395  1
  Al  Al16  1  0.163063  0.836937  0.575874  1
  Al  Al17  1  0.321195  0.147687  0.081605  1
  Al  Al18  1  0.836937  0.163063  0.424126  1
  Al  Al19  1  0.678805  0.852313  0.918395  1
  Al  Al20  1  0.836792  0.163208  0.077239  1
  Al  Al21  1  0.163208  0.836792  0.922761  1
  Al  Al22  1  0.561956  0.121601  0.249407  1
  Al  Al23  1  0.438044  0.878399  0.750593  1
  Al  Al24  1  0.878399  0.438044  0.249407  1
  Al  Al25  1  0.121601  0.561956  0.750593  1
  Al  Al26  1  0.565482  0.434518  0.258006  1
  Al  Al27  1  0.434518  0.565482  0.741994  1
  Al  Al28  1  0.998786  0.001214  0.250734  1
  Al  Al29  1  0.001214  0.998786  0.749266  1
  Ga  Ga30  1  0.500000  0.500000  0.000000  1
  Os  Os31  1  0.500000  0.000000  0.000000  1
  Os  Os32  1  0.000000  0.500000  0.000000  1
  Os  Os33  1  0.500000  0.000000  0.500000  1
  Os  Os34  1  0.000000  0.500000  0.500000  1
  Os  Os35  1  0.500000  0.500000  0.500000  1
  Os  Os36  1  0.000000  0.000000  0.000000  1
  Os  Os37  1  0.000000  0.000000  0.500000  1
