# generated using pymatgen
data_Nd3Sc(Si5Pt3)2
_symmetry_space_group_name_H-M   'P 1'
_cell_length_a   8.21248445
_cell_length_b   8.19934777
_cell_length_c   8.19934786
_cell_angle_alpha   136.34907036
_cell_angle_beta   104.96523849
_cell_angle_gamma   91.01798632
_symmetry_Int_Tables_number   1
_chemical_formula_structural   Nd3Sc(Si5Pt3)2
_chemical_formula_sum   'Nd3 Sc1 Si10 Pt6'
_cell_volume   350.42155542
_cell_formula_units_Z   1
loop_
 _symmetry_equiv_pos_site_id
 _symmetry_equiv_pos_as_xyz
  1  'x, y, z'
loop_
 _atom_site_type_symbol
 _atom_site_label
 _atom_site_symmetry_multiplicity
 _atom_site_fract_x
 _atom_site_fract_y
 _atom_site_fract_z
 _atom_site_occupancy
  Nd  Nd0  1  0.638876  0.370841  0.268034  1
  Nd  Nd1  1  0.360589  0.629266  0.731324  1
  Nd  Nd2  1  0.101266  0.870382  0.230884  1
  Sc  Sc3  1  0.904559  0.130002  0.774556  1
  Si  Si4  1  0.269521  0.521265  0.249027  1
  Si  Si5  1  0.728238  0.477234  0.750145  1
  Si  Si6  1  0.728238  0.978094  0.251004  1
  Si  Si7  1  0.269521  0.020493  0.748255  1
  Si  Si8  1  0.461505  0.112702  0.348802  1
  Si  Si9  1  0.545171  0.893069  0.652103  1
  Si  Si10  1  0.763384  0.613037  0.150347  1
  Si  Si11  1  0.233092  0.383727  0.849365  1
  Si  Si12  1  0.999303  0.251104  0.249255  1
  Si  Si13  1  0.999303  0.750048  0.748199  1
  Pt  Pt14  1  0.245294  0.136549  0.108745  1
  Pt  Pt15  1  0.754743  0.865375  0.889368  1
  Pt  Pt16  1  0.024010  0.636348  0.387662  1
  Pt  Pt17  1  0.971547  0.359577  0.611968  1
  Pt  Pt18  1  0.500922  0.251063  0.751096  1
  Pt  Pt19  1  0.500922  0.749826  0.249859  1
