# generated using pymatgen
data_ZrSc3(V3Si4)2
_symmetry_space_group_name_H-M   'P 1'
_cell_length_a   6.62849252
_cell_length_b   6.62931339
_cell_length_c   12.26952807
_cell_angle_alpha   90.02028411
_cell_angle_beta   89.93931336
_cell_angle_gamma   90.00098205
_symmetry_Int_Tables_number   1
_chemical_formula_structural   ZrSc3(V3Si4)2
_chemical_formula_sum   'Zr2 Sc6 V12 Si16'
_cell_volume   539.15161177
_cell_formula_units_Z   2
loop_
 _symmetry_equiv_pos_site_id
 _symmetry_equiv_pos_as_xyz
  1  'x, y, z'
loop_
 _atom_site_type_symbol
 _atom_site_label
 _atom_site_symmetry_multiplicity
 _atom_site_fract_x
 _atom_site_fract_y
 _atom_site_fract_z
 _atom_site_occupancy
  Zr  Zr0  1  0.003498  0.660479  0.029940  1
  Zr  Zr1  1  0.838985  0.503596  0.280184  1
  Sc  Sc2  1  0.162326  0.498466  0.779351  1
  Sc  Sc3  1  0.501480  0.837667  0.720226  1
  Sc  Sc4  1  0.498543  0.162254  0.220508  1
  Sc  Sc5  1  0.998348  0.337561  0.529480  1
  Sc  Sc6  1  0.662335  0.001334  0.970383  1
  Sc  Sc7  1  0.337836  0.998268  0.470224  1
  V  V8  1  0.330160  0.333852  0.000007  1
  V  V9  1  0.166389  0.830310  0.249977  1
  V  V10  1  0.831683  0.168637  0.750244  1
  V  V11  1  0.668748  0.668155  0.500073  1
  V  V12  1  0.005562  0.158169  0.126119  1
  V  V13  1  0.342691  0.506093  0.375737  1
  V  V14  1  0.657400  0.493415  0.876987  1
  V  V15  1  0.507470  0.343533  0.623531  1
  V  V16  1  0.494250  0.657307  0.123197  1
  V  V17  1  0.992798  0.843024  0.626576  1
  V  V18  1  0.155964  0.005575  0.873953  1
  V  V19  1  0.842356  0.992519  0.372696  1
  Si  Si20  1  0.294550  0.961078  0.064700  1
  Si  Si21  1  0.538415  0.795072  0.314800  1
  Si  Si22  1  0.459557  0.206532  0.814719  1
  Si  Si23  1  0.794173  0.539811  0.685412  1
  Si  Si24  1  0.210460  0.457444  0.185816  1
  Si  Si25  1  0.705989  0.039730  0.564623  1
  Si  Si26  1  0.958966  0.291895  0.934354  1
  Si  Si27  1  0.041350  0.707950  0.436621  1
  Si  Si28  1  0.703016  0.368788  0.070688  1
  Si  Si29  1  0.129919  0.202725  0.320464  1
  Si  Si30  1  0.869141  0.796418  0.820434  1
  Si  Si31  1  0.203564  0.129706  0.680000  1
  Si  Si32  1  0.794023  0.873277  0.179054  1
  Si  Si33  1  0.297056  0.629471  0.569983  1
  Si  Si34  1  0.372365  0.704786  0.928933  1
  Si  Si35  1  0.628637  0.295102  0.430009  1
