# generated using pymatgen
data_Ca3Al2CdPd6
_symmetry_space_group_name_H-M   'P 1'
_cell_length_a   8.97262868
_cell_length_b   8.97262688
_cell_length_c   8.97262786
_cell_angle_alpha   36.96501930
_cell_angle_beta   36.96503802
_cell_angle_gamma   36.96502836
_symmetry_Int_Tables_number   1
_chemical_formula_structural   Ca3Al2CdPd6
_chemical_formula_sum   'Ca3 Al2 Cd1 Pd6'
_cell_volume   234.02875879
_cell_formula_units_Z   1
loop_
 _symmetry_equiv_pos_site_id
 _symmetry_equiv_pos_as_xyz
  1  'x, y, z'
loop_
 _atom_site_type_symbol
 _atom_site_label
 _atom_site_symmetry_multiplicity
 _atom_site_fract_x
 _atom_site_fract_y
 _atom_site_fract_z
 _atom_site_occupancy
  Ca  Ca0  1  0.362174  0.362174  0.362174  1
  Ca  Ca1  1  0.500000  0.500000  0.500000  1
  Ca  Ca2  1  0.637826  0.637826  0.637826  1
  Al  Al3  1  0.166039  0.166039  0.166039  1
  Al  Al4  1  0.833961  0.833961  0.833961  1
  Cd  Cd5  1  0.000000  0.000000  0.000000  1
  Pd  Pd6  1  0.572570  0.078542  0.078542  1
  Pd  Pd7  1  0.078542  0.572570  0.078542  1
  Pd  Pd8  1  0.921458  0.921458  0.427430  1
  Pd  Pd9  1  0.078542  0.078542  0.572570  1
  Pd  Pd10  1  0.921458  0.427430  0.921458  1
  Pd  Pd11  1  0.427430  0.921458  0.921458  1
