# generated using pymatgen
data_Nd12Os2I17
_symmetry_space_group_name_H-M   'P 1'
_cell_length_a   9.99305229
_cell_length_b   11.96784659
_cell_length_c   11.96793600
_cell_angle_alpha   92.96755583
_cell_angle_beta   104.50757774
_cell_angle_gamma   114.97515153
_symmetry_Int_Tables_number   1
_chemical_formula_structural   Nd12Os2I17
_chemical_formula_sum   'Nd12 Os2 I17'
_cell_volume   1235.69303622
_cell_formula_units_Z   1
loop_
 _symmetry_equiv_pos_site_id
 _symmetry_equiv_pos_as_xyz
  1  'x, y, z'
loop_
 _atom_site_type_symbol
 _atom_site_label
 _atom_site_symmetry_multiplicity
 _atom_site_fract_x
 _atom_site_fract_y
 _atom_site_fract_z
 _atom_site_occupancy
  Nd  Nd0  1  0.061232  0.513744  0.323917  1
  Nd  Nd1  1  0.989519  0.812666  0.579473  1
  Nd  Nd2  1  0.642366  0.238647  0.284616  1
  Nd  Nd3  1  0.010481  0.187334  0.420527  1
  Nd  Nd4  1  0.222262  0.666450  0.992814  1
  Nd  Nd5  1  0.263548  0.989335  0.893417  1
  Nd  Nd6  1  0.357634  0.761353  0.715384  1
  Nd  Nd7  1  0.938768  0.486256  0.676083  1
  Nd  Nd8  1  0.736452  0.010665  0.106583  1
  Nd  Nd9  1  0.154554  0.289531  0.150737  1
  Nd  Nd10  1  0.777738  0.333550  0.007186  1
  Nd  Nd11  1  0.845446  0.710469  0.849263  1
  Os  Os12  1  0.104201  0.738155  0.786082  1
  Os  Os13  1  0.895799  0.261845  0.213918  1
  I  I14  1  0.781908  0.528352  0.416972  1
  I  I15  1  0.634999  0.416340  0.756608  1
  I  I16  1  0.841720  0.892127  0.324256  1
  I  I17  1  0.326427  0.211837  0.370705  1
  I  I18  1  0.158280  0.107873  0.675744  1
  I  I19  1  0.590375  0.054793  0.840860  1
  I  I20  1  0.751760  0.179745  0.539916  1
  I  I21  1  0.547890  0.705026  0.954747  1
  I  I22  1  0.365001  0.583660  0.243392  1
  I  I23  1  0.218092  0.471648  0.583028  1
  I  I24  1  0.057165  0.364448  0.893778  1
  I  I25  1  0.452110  0.294974  0.045253  1
  I  I26  1  0.000000  0.000000  0.000000  1
  I  I27  1  0.248240  0.820255  0.460084  1
  I  I28  1  0.409625  0.945207  0.159140  1
  I  I29  1  0.673573  0.788163  0.629295  1
  I  I30  1  0.942835  0.635552  0.106222  1
