# generated using pymatgen
data_Ba14(SnSb4)3
_symmetry_space_group_name_H-M   'P 1'
_cell_length_a   10.57147693
_cell_length_b   10.57147634
_cell_length_c   10.57147680
_cell_angle_alpha   87.62363310
_cell_angle_beta   87.62363420
_cell_angle_gamma   87.62362324
_symmetry_Int_Tables_number   1
_chemical_formula_structural   Ba14(SnSb4)3
_chemical_formula_sum   'Ba14 Sn3 Sb12'
_cell_volume   1178.46099027
_cell_formula_units_Z   1
loop_
 _symmetry_equiv_pos_site_id
 _symmetry_equiv_pos_as_xyz
  1  'x, y, z'
loop_
 _atom_site_type_symbol
 _atom_site_label
 _atom_site_symmetry_multiplicity
 _atom_site_fract_x
 _atom_site_fract_y
 _atom_site_fract_z
 _atom_site_occupancy
  Ba  Ba0  1  0.416028  0.269436  0.770242  1
  Ba  Ba1  1  0.770242  0.416028  0.269436  1
  Ba  Ba2  1  0.269436  0.770242  0.416028  1
  Ba  Ba3  1  0.981644  0.537847  0.654976  1
  Ba  Ba4  1  0.654976  0.981644  0.537847  1
  Ba  Ba5  1  0.537847  0.654976  0.981644  1
  Ba  Ba6  1  0.178613  0.532583  0.020107  1
  Ba  Ba7  1  0.020107  0.178613  0.532583  1
  Ba  Ba8  1  0.532583  0.020107  0.178613  1
  Ba  Ba9  1  0.766576  0.259482  0.913015  1
  Ba  Ba10  1  0.913015  0.766576  0.259482  1
  Ba  Ba11  1  0.259482  0.913015  0.766576  1
  Ba  Ba12  1  0.183975  0.183975  0.183975  1
  Ba  Ba13  1  0.403375  0.403375  0.403375  1
  Sn  Sn14  1  0.997437  0.997437  0.997437  1
  Sn  Sn15  1  0.840989  0.840989  0.840989  1
  Sn  Sn16  1  0.607756  0.607756  0.607756  1
  Sb  Sb17  1  0.703620  0.335163  0.586937  1
  Sb  Sb18  1  0.586937  0.703620  0.335163  1
  Sb  Sb19  1  0.335163  0.586937  0.703620  1
  Sb  Sb20  1  0.593474  0.968262  0.859246  1
  Sb  Sb21  1  0.859246  0.593474  0.968262  1
  Sb  Sb22  1  0.968262  0.859246  0.593474  1
  Sb  Sb23  1  0.474856  0.341186  0.085130  1
  Sb  Sb24  1  0.085130  0.474856  0.341186  1
  Sb  Sb25  1  0.341186  0.085130  0.474856  1
  Sb  Sb26  1  0.095933  0.220388  0.856452  1
  Sb  Sb27  1  0.856452  0.095933  0.220388  1
  Sb  Sb28  1  0.220388  0.856452  0.095933  1
