# generated using pymatgen
data_Tb4Al24Cu2Ni7
_symmetry_space_group_name_H-M   'P 1'
_cell_length_a   7.34236973
_cell_length_b   7.36391772
_cell_length_c   12.80936287
_cell_angle_alpha   84.52221086
_cell_angle_beta   79.00579507
_cell_angle_gamma   59.90095505
_symmetry_Int_Tables_number   1
_chemical_formula_structural   Tb4Al24Cu2Ni7
_chemical_formula_sum   'Tb4 Al24 Cu2 Ni7'
_cell_volume   588.19879487
_cell_formula_units_Z   1
loop_
 _symmetry_equiv_pos_site_id
 _symmetry_equiv_pos_as_xyz
  1  'x, y, z'
loop_
 _atom_site_type_symbol
 _atom_site_label
 _atom_site_symmetry_multiplicity
 _atom_site_fract_x
 _atom_site_fract_y
 _atom_site_fract_z
 _atom_site_occupancy
  Tb  Tb0  1  0.392854  0.169787  0.805754  1
  Tb  Tb1  1  0.607146  0.830213  0.194246  1
  Tb  Tb2  1  0.735528  0.498230  0.806652  1
  Tb  Tb3  1  0.264472  0.501770  0.193348  1
  Al  Al4  1  0.679757  0.834395  0.948709  1
  Al  Al5  1  0.320243  0.165605  0.051291  1
  Al  Al6  1  0.145579  0.837063  0.560185  1
  Al  Al7  1  0.854421  0.162937  0.439815  1
  Al  Al8  1  0.486282  0.162116  0.558287  1
  Al  Al9  1  0.513718  0.837884  0.441713  1
  Al  Al10  1  0.219661  0.160752  0.334403  1
  Al  Al11  1  0.780339  0.839248  0.665597  1
  Al  Al12  1  0.441762  0.507089  0.665750  1
  Al  Al13  1  0.558238  0.492911  0.334250  1
  Al  Al14  1  0.112033  0.153551  0.664523  1
  Al  Al15  1  0.887967  0.846449  0.335477  1
  Al  Al16  1  0.353979  0.496766  0.948272  1
  Al  Al17  1  0.646021  0.503234  0.051728  1
  Al  Al18  1  0.013055  0.168677  0.960881  1
  Al  Al19  1  0.986945  0.831323  0.039119  1
  Al  Al20  1  0.192103  0.500055  0.439278  1
  Al  Al21  1  0.807897  0.499945  0.560722  1
  Al  Al22  1  0.727847  0.164723  0.184925  1
  Al  Al23  1  0.272153  0.835277  0.815075  1
  Al  Al24  1  0.060426  0.629330  0.817066  1
  Al  Al25  1  0.939574  0.370670  0.182934  1
  Al  Al26  1  0.850628  0.046391  0.815155  1
  Al  Al27  1  0.149372  0.953609  0.184846  1
  Cu  Cu28  1  0.119582  0.491626  0.638060  1
  Cu  Cu29  1  0.880418  0.508374  0.361940  1
  Ni  Ni30  1  0.659371  0.170572  0.000010  1
  Ni  Ni31  1  0.340629  0.829428  0.999990  1
  Ni  Ni32  1  0.537788  0.167532  0.364074  1
  Ni  Ni33  1  0.462212  0.832468  0.635926  1
  Ni  Ni34  1  0.780877  0.174372  0.636180  1
  Ni  Ni35  1  0.219123  0.825628  0.363820  1
  Ni  Ni36  1  0.000000  0.500000  0.000000  1
