# generated using pymatgen
data_Nd5Ho3(PBr6)2
_symmetry_space_group_name_H-M   'P 1'
_cell_length_a   4.10856900
_cell_length_b   13.49386480
_cell_length_c   14.21883800
_cell_angle_alpha   89.90959282
_cell_angle_beta   90.00000000
_cell_angle_gamma   90.00000000
_symmetry_Int_Tables_number   1
_chemical_formula_structural   Nd5Ho3(PBr6)2
_chemical_formula_sum   'Nd5 Ho3 P2 Br12'
_cell_volume   788.29814565
_cell_formula_units_Z   1
loop_
 _symmetry_equiv_pos_site_id
 _symmetry_equiv_pos_as_xyz
  1  'x, y, z'
loop_
 _atom_site_type_symbol
 _atom_site_label
 _atom_site_symmetry_multiplicity
 _atom_site_fract_x
 _atom_site_fract_y
 _atom_site_fract_z
 _atom_site_occupancy
  Nd  Nd0  1  0.500000  0.383458  0.844128  1
  Nd  Nd1  1  0.000000  0.115851  0.577385  1
  Nd  Nd2  1  0.000000  0.882742  0.421529  1
  Nd  Nd3  1  0.000000  0.617699  0.919933  1
  Nd  Nd4  1  0.000000  0.381189  0.078535  1
  Ho  Ho5  1  0.500000  0.114495  0.345864  1
  Ho  Ho6  1  0.500000  0.885030  0.653783  1
  Ho  Ho7  1  0.500000  0.617463  0.157579  1
  P  P8  1  0.500000  0.999126  0.499422  1
  P  P9  1  0.500000  0.503261  0.004416  1
  Br  Br10  1  0.500000  0.239718  0.171325  1
  Br  Br11  1  0.500000  0.761870  0.830814  1
  Br  Br12  1  0.500000  0.739364  0.330675  1
  Br  Br13  1  0.500000  0.258245  0.663062  1
  Br  Br14  1  0.000000  0.249897  0.406162  1
  Br  Br15  1  0.000000  0.749842  0.593540  1
  Br  Br16  1  0.000000  0.750733  0.093337  1
  Br  Br17  1  0.000000  0.240568  0.913971  1
  Br  Br18  1  0.000000  0.008709  0.245235  1
  Br  Br19  1  0.000000  0.990977  0.754285  1
  Br  Br20  1  0.000000  0.508425  0.255015  1
  Br  Br21  1  0.000000  0.501336  0.740008  1
