# generated using pymatgen
data_Li2Tb11Dy5(InRh2)2
_symmetry_space_group_name_H-M   'P 1'
_cell_length_a   9.67521573
_cell_length_b   9.67283795
_cell_length_c   9.69491618
_cell_angle_alpha   59.94622394
_cell_angle_beta   59.93563697
_cell_angle_gamma   59.95394039
_symmetry_Int_Tables_number   1
_chemical_formula_structural   Li2Tb11Dy5(InRh2)2
_chemical_formula_sum   'Li2 Tb11 Dy5 In2 Rh4'
_cell_volume   640.77293278
_cell_formula_units_Z   1
loop_
 _symmetry_equiv_pos_site_id
 _symmetry_equiv_pos_as_xyz
  1  'x, y, z'
loop_
 _atom_site_type_symbol
 _atom_site_label
 _atom_site_symmetry_multiplicity
 _atom_site_fract_x
 _atom_site_fract_y
 _atom_site_fract_z
 _atom_site_occupancy
  Li  Li0  1  0.427871  0.427663  0.424545  1
  Li  Li1  1  0.427674  0.427322  0.721005  1
  Tb  Tb2  1  0.438259  0.437782  0.062193  1
  Tb  Tb3  1  0.651276  0.651008  0.649312  1
  Tb  Tb4  1  0.811927  0.186939  0.189572  1
  Tb  Tb5  1  0.188099  0.811746  0.811332  1
  Tb  Tb6  1  0.042965  0.652919  0.650607  1
  Tb  Tb7  1  0.436750  0.063788  0.062367  1
  Tb  Tb8  1  0.435612  0.063460  0.436828  1
  Tb  Tb9  1  0.063841  0.436456  0.062748  1
  Tb  Tb10  1  0.650512  0.650468  0.049888  1
  Tb  Tb11  1  0.186948  0.812000  0.189640  1
  Tb  Tb12  1  0.063515  0.435272  0.436794  1
  Dy  Dy13  1  0.807892  0.808244  0.192589  1
  Dy  Dy14  1  0.811508  0.188250  0.811340  1
  Dy  Dy15  1  0.183110  0.183082  0.818209  1
  Dy  Dy16  1  0.653156  0.042889  0.650741  1
  Dy  Dy17  1  0.063919  0.064252  0.436550  1
  In  In18  1  0.415779  0.744148  0.420700  1
  In  In19  1  0.744203  0.415480  0.420900  1
  Rh  Rh20  1  0.856467  0.426313  0.857588  1
  Rh  Rh21  1  0.855866  0.857143  0.859972  1
  Rh  Rh22  1  0.855899  0.856535  0.427221  1
  Rh  Rh23  1  0.426954  0.856843  0.857361  1
