# generated using pymatgen
data_K8Hf3PaTe12
_symmetry_space_group_name_H-M   'P 1'
_cell_length_a   14.32983915
_cell_length_b   7.00137864
_cell_length_c   9.29339500
_cell_angle_alpha   73.92453665
_cell_angle_beta   89.99165543
_cell_angle_gamma   90.01901556
_symmetry_Int_Tables_number   1
_chemical_formula_structural   K8Hf3PaTe12
_chemical_formula_sum   'K8 Hf3 Pa1 Te12'
_cell_volume   895.93489189
_cell_formula_units_Z   1
loop_
 _symmetry_equiv_pos_site_id
 _symmetry_equiv_pos_as_xyz
  1  'x, y, z'
loop_
 _atom_site_type_symbol
 _atom_site_label
 _atom_site_symmetry_multiplicity
 _atom_site_fract_x
 _atom_site_fract_y
 _atom_site_fract_z
 _atom_site_occupancy
  K  K0  1  0.966087  0.666982  0.658097  1
  K  K1  1  0.460802  0.840393  0.345324  1
  K  K2  1  0.038430  0.339442  0.345212  1
  K  K3  1  0.534744  0.163297  0.657354  1
  K  K4  1  0.865327  0.059088  0.896485  1
  K  K5  1  0.361732  0.440961  0.101353  1
  K  K6  1  0.138477  0.938785  0.100969  1
  K  K7  1  0.634421  0.559866  0.899089  1
  Hf  Hf8  1  0.749801  0.676165  0.291826  1
  Hf  Hf9  1  0.249149  0.806499  0.707328  1
  Hf  Hf10  1  0.250937  0.306830  0.706798  1
  Pa  Pa11  1  0.750182  0.175297  0.293569  1
  Te  Te12  1  0.919138  0.917546  0.278321  1
  Te  Te13  1  0.413282  0.574002  0.725393  1
  Te  Te14  1  0.086736  0.074410  0.725021  1
  Te  Te15  1  0.581000  0.439755  0.279342  1
  Te  Te16  1  0.817498  0.347829  0.537088  1
  Te  Te17  1  0.312295  0.166260  0.467691  1
  Te  Te18  1  0.187979  0.666069  0.468050  1
  Te  Te19  1  0.681651  0.824999  0.536933  1
  Te  Te20  1  0.848912  0.517829  0.069935  1
  Te  Te21  1  0.348527  0.000705  0.919784  1
  Te  Te22  1  0.151447  0.499900  0.920249  1
  Te  Te23  1  0.651447  0.997092  0.068789  1
