# generated using pymatgen
data_U3PaB16
_symmetry_space_group_name_H-M   'P 1'
_cell_length_a   7.05474748
_cell_length_b   7.05474748
_cell_length_c   3.97463300
_cell_angle_alpha   90.00000000
_cell_angle_beta   90.00000000
_cell_angle_gamma   90.36849350
_symmetry_Int_Tables_number   1
_chemical_formula_structural   U3PaB16
_chemical_formula_sum   'U3 Pa1 B16'
_cell_volume   197.81125472
_cell_formula_units_Z   1
loop_
 _symmetry_equiv_pos_site_id
 _symmetry_equiv_pos_as_xyz
  1  'x, y, z'
loop_
 _atom_site_type_symbol
 _atom_site_label
 _atom_site_symmetry_multiplicity
 _atom_site_fract_x
 _atom_site_fract_y
 _atom_site_fract_z
 _atom_site_occupancy
  U  U0  1  0.310263  0.189389  0.000000  1
  U  U1  1  0.689389  0.810263  0.000000  1
  U  U2  1  0.190564  0.690564  0.000000  1
  Pa  Pa3  1  0.810826  0.310826  0.000000  1
  B  B4  1  0.000991  0.998791  0.199722  1
  B  B5  1  0.498791  0.500991  0.800278  1
  B  B6  1  0.000991  0.998791  0.800278  1
  B  B7  1  0.498791  0.500991  0.199722  1
  B  B8  1  0.587527  0.087527  0.500000  1
  B  B9  1  0.087322  0.413189  0.500000  1
  B  B10  1  0.913189  0.587322  0.500000  1
  B  B11  1  0.412778  0.912778  0.500000  1
  B  B12  1  0.040595  0.177713  0.500000  1
  B  B13  1  0.179556  0.961210  0.500000  1
  B  B14  1  0.821631  0.036091  0.500000  1
  B  B15  1  0.961508  0.820273  0.500000  1
  B  B16  1  0.461210  0.679556  0.500000  1
  B  B17  1  0.536091  0.321631  0.500000  1
  B  B18  1  0.677713  0.540595  0.500000  1
  B  B19  1  0.320273  0.461508  0.500000  1
