# generated using pymatgen
data_Yb2Ag3PtO6
_symmetry_space_group_name_H-M   'P 1'
_cell_length_a   5.77272300
_cell_length_b   5.77272468
_cell_length_c   18.88101100
_cell_angle_alpha   90.00000000
_cell_angle_beta   90.00000000
_cell_angle_gamma   119.99998462
_symmetry_Int_Tables_number   1
_chemical_formula_structural   Yb2Ag3PtO6
_chemical_formula_sum   'Yb6 Ag9 Pt3 O18'
_cell_volume   544.90087878
_cell_formula_units_Z   3
loop_
 _symmetry_equiv_pos_site_id
 _symmetry_equiv_pos_as_xyz
  1  'x, y, z'
loop_
 _atom_site_type_symbol
 _atom_site_label
 _atom_site_symmetry_multiplicity
 _atom_site_fract_x
 _atom_site_fract_y
 _atom_site_fract_z
 _atom_site_occupancy
  Yb  Yb0  1  0.107367  0.892633  0.333333  1
  Yb  Yb1  1  0.107367  0.214734  0.666667  1
  Yb  Yb2  1  0.785266  0.892633  0.000000  1
  Yb  Yb3  1  0.773896  0.226104  0.333333  1
  Yb  Yb4  1  0.773896  0.547790  0.666667  1
  Yb  Yb5  1  0.452210  0.226104  0.000000  1
  Ag  Ag6  1  0.442598  0.221299  0.500000  1
  Ag  Ag7  1  0.778701  0.221299  0.833333  1
  Ag  Ag8  1  0.778701  0.557402  0.166667  1
  Ag  Ag9  1  0.148942  0.574470  0.500000  1
  Ag  Ag10  1  0.425530  0.574470  0.833333  1
  Ag  Ag11  1  0.425530  0.851058  0.166667  1
  Ag  Ag12  1  0.732208  0.866103  0.500000  1
  Ag  Ag13  1  0.133897  0.866103  0.833333  1
  Ag  Ag14  1  0.133897  0.267792  0.166667  1
  Pt  Pt15  1  0.440588  0.559412  0.333333  1
  Pt  Pt16  1  0.440588  0.881177  0.666667  1
  Pt  Pt17  1  0.118823  0.559412  0.000000  1
  O  O18  1  0.738076  0.559277  0.276051  1
  O  O19  1  0.440723  0.178799  0.609384  1
  O  O20  1  0.821201  0.261924  0.942718  1
  O  O21  1  0.738076  0.178799  0.723949  1
  O  O22  1  0.440723  0.261924  0.390616  1
  O  O23  1  0.821201  0.559277  0.057282  1
  O  O24  1  0.441614  0.856951  0.276329  1
  O  O25  1  0.143049  0.584663  0.609662  1
  O  O26  1  0.415337  0.558386  0.942996  1
  O  O27  1  0.441614  0.584663  0.723671  1
  O  O28  1  0.143049  0.558386  0.390338  1
  O  O29  1  0.415337  0.856951  0.057004  1
  O  O30  1  0.143799  0.261429  0.276316  1
  O  O31  1  0.738571  0.882370  0.609649  1
  O  O32  1  0.117630  0.856201  0.942982  1
  O  O33  1  0.143799  0.882370  0.723684  1
  O  O34  1  0.738571  0.856201  0.390351  1
  O  O35  1  0.117630  0.261429  0.057018  1
