# generated using pymatgen
data_Pr4Ho3Au10
_symmetry_space_group_name_H-M   'P 1'
_cell_length_a   8.90228373
_cell_length_b   8.90228908
_cell_length_c   10.59434902
_cell_angle_alpha   90.00499972
_cell_angle_beta   90.00450724
_cell_angle_gamma   106.96259583
_symmetry_Int_Tables_number   1
_chemical_formula_structural   Pr4Ho3Au10
_chemical_formula_sum   'Pr8 Ho6 Au20'
_cell_volume   803.08273915
_cell_formula_units_Z   2
loop_
 _symmetry_equiv_pos_site_id
 _symmetry_equiv_pos_as_xyz
  1  'x, y, z'
loop_
 _atom_site_type_symbol
 _atom_site_label
 _atom_site_symmetry_multiplicity
 _atom_site_fract_x
 _atom_site_fract_y
 _atom_site_fract_z
 _atom_site_occupancy
  Pr  Pr0  1  0.696950  0.303045  0.000007  1
  Pr  Pr1  1  0.196974  0.803027  0.500007  1
  Pr  Pr2  1  0.807494  0.807475  0.303741  1
  Pr  Pr3  1  0.307516  0.307524  0.196264  1
  Pr  Pr4  1  0.803026  0.196973  0.499993  1
  Pr  Pr5  1  0.303050  0.696955  0.999993  1
  Pr  Pr6  1  0.692484  0.692476  0.803736  1
  Pr  Pr7  1  0.192506  0.192525  0.696259  1
  Ho  Ho8  1  0.505968  0.005950  0.249995  1
  Ho  Ho9  1  0.994041  0.494029  0.750006  1
  Ho  Ho10  1  0.000000  0.000000  0.000000  1
  Ho  Ho11  1  0.005959  0.505971  0.249994  1
  Ho  Ho12  1  0.494032  0.994050  0.750005  1
  Ho  Ho13  1  0.500000  0.500000  0.500000  1
  Au  Au14  1  0.147609  0.437150  0.493003  1
  Au  Au15  1  0.898504  0.898506  0.598473  1
  Au  Au16  1  0.562853  0.852389  0.506996  1
  Au  Au17  1  0.868404  0.155738  0.207991  1
  Au  Au18  1  0.368398  0.655729  0.291996  1
  Au  Au19  1  0.655738  0.368407  0.291991  1
  Au  Au20  1  0.398446  0.398445  0.901583  1
  Au  Au21  1  0.937147  0.647606  0.007018  1
  Au  Au22  1  0.344262  0.631593  0.708009  1
  Au  Au23  1  0.352393  0.062853  0.992983  1
  Au  Au24  1  0.601554  0.601555  0.098417  1
  Au  Au25  1  0.647607  0.937147  0.007017  1
  Au  Au26  1  0.101496  0.101494  0.401527  1
  Au  Au27  1  0.631602  0.344271  0.708004  1
  Au  Au28  1  0.131596  0.844262  0.792009  1
  Au  Au29  1  0.062853  0.352394  0.992982  1
  Au  Au30  1  0.852391  0.562850  0.506997  1
  Au  Au31  1  0.155737  0.868405  0.207985  1
  Au  Au32  1  0.437147  0.147611  0.493004  1
  Au  Au33  1  0.844263  0.131595  0.792015  1
