# generated using pymatgen
data_Dy7Ho2Tm7(Ga3Co)2
_symmetry_space_group_name_H-M   'P 1'
_cell_length_a   9.93103102
_cell_length_b   9.93103090
_cell_length_c   6.93629600
_cell_angle_alpha   89.99974674
_cell_angle_beta   90.00025083
_cell_angle_gamma   119.99325017
_symmetry_Int_Tables_number   1
_chemical_formula_structural   Dy7Ho2Tm7(Ga3Co)2
_chemical_formula_sum   'Dy7 Ho2 Tm7 Ga6 Co2'
_cell_volume   592.48376698
_cell_formula_units_Z   1
loop_
 _symmetry_equiv_pos_site_id
 _symmetry_equiv_pos_as_xyz
  1  'x, y, z'
loop_
 _atom_site_type_symbol
 _atom_site_label
 _atom_site_symmetry_multiplicity
 _atom_site_fract_x
 _atom_site_fract_y
 _atom_site_fract_z
 _atom_site_occupancy
  Dy  Dy0  1  0.073288  0.536603  0.207581  1
  Dy  Dy1  1  0.463397  0.926712  0.207581  1
  Dy  Dy2  1  0.536174  0.463826  0.708208  1
  Dy  Dy3  1  0.927576  0.463785  0.708232  1
  Dy  Dy4  1  0.536215  0.072424  0.708232  1
  Dy  Dy5  1  0.999994  0.000006  0.232098  1
  Dy  Dy6  1  0.000014  0.999986  0.731128  1
  Ho  Ho7  1  0.666613  0.333387  0.327354  1
  Ho  Ho8  1  0.463302  0.536698  0.207515  1
  Tm  Tm9  1  0.173496  0.826504  0.512393  1
  Tm  Tm10  1  0.652899  0.826392  0.512306  1
  Tm  Tm11  1  0.173608  0.347101  0.512306  1
  Tm  Tm12  1  0.827009  0.172991  0.011383  1
  Tm  Tm13  1  0.346018  0.173103  0.011475  1
  Tm  Tm14  1  0.826897  0.653982  0.011475  1
  Tm  Tm15  1  0.333395  0.666605  0.825663  1
  Ga  Ga16  1  0.163652  0.836348  0.957427  1
  Ga  Ga17  1  0.672613  0.836243  0.957527  1
  Ga  Ga18  1  0.163757  0.327387  0.957527  1
  Ga  Ga19  1  0.837097  0.162903  0.458430  1
  Ga  Ga20  1  0.325820  0.162924  0.458361  1
  Ga  Ga21  1  0.837076  0.674180  0.458361  1
  Co  Co22  1  0.333426  0.666574  0.445602  1
  Co  Co23  1  0.666661  0.333339  0.946670  1
