# generated using pymatgen
data_NaUH9W
_symmetry_space_group_name_H-M   'P 1'
_cell_length_a   8.62888800
_cell_length_b   8.62888695
_cell_length_c   4.92377900
_cell_angle_alpha   90.00000000
_cell_angle_beta   90.00000000
_cell_angle_gamma   120.00000403
_symmetry_Int_Tables_number   1
_chemical_formula_structural   NaUH9W
_chemical_formula_sum   'Na3 U3 H27 W3'
_cell_volume   317.49637923
_cell_formula_units_Z   3
loop_
 _symmetry_equiv_pos_site_id
 _symmetry_equiv_pos_as_xyz
  1  'x, y, z'
loop_
 _atom_site_type_symbol
 _atom_site_label
 _atom_site_symmetry_multiplicity
 _atom_site_fract_x
 _atom_site_fract_y
 _atom_site_fract_z
 _atom_site_occupancy
  Na  Na0  1  0.000000  0.596547  0.000000  1
  Na  Na1  1  0.403453  0.403453  0.000000  1
  Na  Na2  1  0.596547  0.000000  0.000000  1
  U  U3  1  0.000000  0.254972  0.500000  1
  U  U4  1  0.745028  0.745028  0.500000  1
  U  U5  1  0.254972  0.000000  0.500000  1
  H  H6  1  0.815915  0.335511  0.755352  1
  H  H7  1  0.664489  0.480403  0.755352  1
  H  H8  1  0.519597  0.184085  0.755352  1
  H  H9  1  0.184085  0.519597  0.244648  1
  H  H10  1  0.519597  0.184085  0.244648  1
  H  H11  1  0.815915  0.335511  0.244648  1
  H  H12  1  0.664489  0.480403  0.244648  1
  H  H13  1  0.335511  0.815915  0.755352  1
  H  H14  1  0.480403  0.664489  0.755352  1
  H  H15  1  0.213042  0.000000  0.000000  1
  H  H16  1  0.786958  0.786958  0.000000  1
  H  H17  1  0.000000  0.213042  0.000000  1
  H  H18  1  0.836125  0.000000  0.260795  1
  H  H19  1  0.163875  0.163875  0.739205  1
  H  H20  1  0.000000  0.836125  0.739205  1
  H  H21  1  0.000000  0.836125  0.260795  1
  H  H22  1  0.163875  0.163875  0.260795  1
  H  H23  1  0.836125  0.000000  0.739205  1
  H  H24  1  0.135358  0.683038  0.500000  1
  H  H25  1  0.547679  0.864642  0.500000  1
  H  H26  1  0.316962  0.452321  0.500000  1
  H  H27  1  0.452321  0.316962  0.500000  1
  H  H28  1  0.864642  0.547679  0.500000  1
  H  H29  1  0.683038  0.135358  0.500000  1
  H  H30  1  0.184085  0.519597  0.755352  1
  H  H31  1  0.335511  0.815915  0.244648  1
  H  H32  1  0.480403  0.664489  0.244648  1
  W  W33  1  0.666667  0.333333  0.500000  1
  W  W34  1  0.333333  0.666667  0.500000  1
  W  W35  1  0.000000  0.000000  0.000000  1
