# generated using pymatgen
data_Eu2Co4B4Rh
_symmetry_space_group_name_H-M   'P 1'
_cell_length_a   7.26625066
_cell_length_b   5.93174404
_cell_length_c   5.57124899
_cell_angle_alpha   78.27973385
_cell_angle_beta   53.06539490
_cell_angle_gamma   48.65486826
_symmetry_Int_Tables_number   1
_chemical_formula_structural   Eu2Co4B4Rh
_chemical_formula_sum   'Eu2 Co4 B4 Rh1'
_cell_volume   136.37523600
_cell_formula_units_Z   1
loop_
 _symmetry_equiv_pos_site_id
 _symmetry_equiv_pos_as_xyz
  1  'x, y, z'
loop_
 _atom_site_type_symbol
 _atom_site_label
 _atom_site_symmetry_multiplicity
 _atom_site_fract_x
 _atom_site_fract_y
 _atom_site_fract_z
 _atom_site_occupancy
  Eu  Eu0  1  0.851886  0.851886  0.148114  1
  Eu  Eu1  1  0.148114  0.148114  0.851886  1
  Co  Co2  1  0.500000  0.500000  0.000000  1
  Co  Co3  1  0.750000  0.750000  0.750000  1
  Co  Co4  1  0.250000  0.250000  0.250000  1
  Co  Co5  1  0.000000  0.000000  0.500000  1
  B  B6  1  0.199926  0.540206  0.459794  1
  B  B7  1  0.800074  0.459794  0.540206  1
  B  B8  1  0.540206  0.199926  0.800074  1
  B  B9  1  0.459794  0.800074  0.199926  1
  Rh  Rh10  1  0.500000  0.500000  0.500000  1
