# generated using pymatgen
data_Sr10HgBi6Pt
_symmetry_space_group_name_H-M   'P 1'
_cell_length_a   9.85273500
_cell_length_b   9.85273628
_cell_length_c   7.81242600
_cell_angle_alpha   90.00000000
_cell_angle_beta   90.00000000
_cell_angle_gamma   119.99999905
_symmetry_Int_Tables_number   1
_chemical_formula_structural   Sr10HgBi6Pt
_chemical_formula_sum   'Sr10 Hg1 Bi6 Pt1'
_cell_volume   656.79556775
_cell_formula_units_Z   1
loop_
 _symmetry_equiv_pos_site_id
 _symmetry_equiv_pos_as_xyz
  1  'x, y, z'
loop_
 _atom_site_type_symbol
 _atom_site_label
 _atom_site_symmetry_multiplicity
 _atom_site_fract_x
 _atom_site_fract_y
 _atom_site_fract_z
 _atom_site_occupancy
  Sr  Sr0  1  0.666667  0.333333  0.000000  1
  Sr  Sr1  1  0.333333  0.666667  0.000000  1
  Sr  Sr2  1  0.333333  0.666667  0.500000  1
  Sr  Sr3  1  0.666667  0.333333  0.500000  1
  Sr  Sr4  1  0.743197  0.743197  0.783724  1
  Sr  Sr5  1  0.256803  0.000000  0.783724  1
  Sr  Sr6  1  0.000000  0.256803  0.783724  1
  Sr  Sr7  1  0.256803  0.256803  0.216276  1
  Sr  Sr8  1  0.743197  0.000000  0.216276  1
  Sr  Sr9  1  0.000000  0.743197  0.216276  1
  Hg  Hg10  1  0.000000  0.000000  0.500000  1
  Bi  Bi11  1  0.391991  0.391991  0.749631  1
  Bi  Bi12  1  0.608009  0.000000  0.749631  1
  Bi  Bi13  1  0.000000  0.608009  0.749631  1
  Bi  Bi14  1  0.608009  0.608009  0.250369  1
  Bi  Bi15  1  0.391991  0.000000  0.250369  1
  Bi  Bi16  1  0.000000  0.391991  0.250369  1
  Pt  Pt17  1  0.000000  0.000000  0.000000  1
