# generated using pymatgen
data_Ba4CrGa3F20
_symmetry_space_group_name_H-M   'P 1'
_cell_length_a   5.13505985
_cell_length_b   5.76485731
_cell_length_c   14.17554034
_cell_angle_alpha   89.73038798
_cell_angle_beta   90.06254228
_cell_angle_gamma   89.97868008
_symmetry_Int_Tables_number   1
_chemical_formula_structural   Ba4CrGa3F20
_chemical_formula_sum   'Ba4 Cr1 Ga3 F20'
_cell_volume   419.63199765
_cell_formula_units_Z   1
loop_
 _symmetry_equiv_pos_site_id
 _symmetry_equiv_pos_as_xyz
  1  'x, y, z'
loop_
 _atom_site_type_symbol
 _atom_site_label
 _atom_site_symmetry_multiplicity
 _atom_site_fract_x
 _atom_site_fract_y
 _atom_site_fract_z
 _atom_site_occupancy
  Ba  Ba0  1  0.733748  0.657064  0.657345  1
  Ba  Ba1  1  0.232512  0.841499  0.342758  1
  Ba  Ba2  1  0.267558  0.158799  0.843625  1
  Ba  Ba3  1  0.766654  0.341489  0.156999  1
  Cr  Cr4  1  0.313207  0.147635  0.585354  1
  Ga  Ga5  1  0.813194  0.354231  0.412496  1
  Ga  Ga6  1  0.687321  0.646374  0.914056  1
  Ga  Ga7  1  0.186876  0.853912  0.086620  1
  F  F8  1  0.954636  0.604894  0.479607  1
  F  F9  1  0.453151  0.883877  0.520318  1
  F  F10  1  0.049317  0.109596  0.020583  1
  F  F11  1  0.549574  0.390531  0.979819  1
  F  F12  1  0.642365  0.562537  0.327469  1
  F  F13  1  0.138387  0.943694  0.672620  1
  F  F14  1  0.361761  0.056342  0.172000  1
  F  F15  1  0.861754  0.443120  0.828707  1
  F  F16  1  0.188468  0.412333  0.655204  1
  F  F17  1  0.683157  0.095927  0.346504  1
  F  F18  1  0.812011  0.910192  0.849374  1
  F  F19  1  0.310977  0.589892  0.151282  1
  F  F20  1  0.597400  0.145037  0.674647  1
  F  F21  1  0.098021  0.352505  0.324316  1
  F  F22  1  0.403354  0.647467  0.825596  1
  F  F23  1  0.902563  0.854134  0.174936  1
  F  F24  1  0.522821  0.358843  0.503179  1
  F  F25  1  0.017198  0.138280  0.493748  1
  F  F26  1  0.476073  0.857238  0.995572  1
  F  F27  1  0.975940  0.642555  0.005267  1
