# generated using pymatgen
data_ErTm3MoRu7
_symmetry_space_group_name_H-M   'P 1'
_cell_length_a   5.44308610
_cell_length_b   5.17931768
_cell_length_c   8.97057700
_cell_angle_alpha   89.99731736
_cell_angle_beta   90.00157114
_cell_angle_gamma   121.92593138
_symmetry_Int_Tables_number   1
_chemical_formula_structural   ErTm3MoRu7
_chemical_formula_sum   'Er1 Tm3 Mo1 Ru7'
_cell_volume   214.63914620
_cell_formula_units_Z   1
loop_
 _symmetry_equiv_pos_site_id
 _symmetry_equiv_pos_as_xyz
  1  'x, y, z'
loop_
 _atom_site_type_symbol
 _atom_site_label
 _atom_site_symmetry_multiplicity
 _atom_site_fract_x
 _atom_site_fract_y
 _atom_site_fract_z
 _atom_site_occupancy
  Er  Er0  1  0.672431  0.345206  0.563375  1
  Tm  Tm1  1  0.334570  0.669485  0.431658  1
  Tm  Tm2  1  0.334567  0.669505  0.068135  1
  Tm  Tm3  1  0.672449  0.345366  0.936745  1
  Mo  Mo4  1  0.162627  0.325453  0.750243  1
  Ru  Ru5  1  0.008499  0.017830  0.498223  1
  Ru  Ru6  1  0.008402  0.017666  0.001719  1
  Ru  Ru7  1  0.170575  0.820545  0.750363  1
  Ru  Ru8  1  0.651106  0.820868  0.750373  1
  Ru  Ru9  1  0.821189  0.642444  0.249674  1
  Ru  Ru10  1  0.831651  0.162326  0.249748  1
  Ru  Ru11  1  0.331936  0.163306  0.249743  1
