# generated using pymatgen
data_La2Tm18Si15Pt
_symmetry_space_group_name_H-M   'P 1'
_cell_length_a   7.33425762
_cell_length_b   7.67415922
_cell_length_c   14.47124713
_cell_angle_alpha   89.59662664
_cell_angle_beta   89.92214596
_cell_angle_gamma   89.94676149
_symmetry_Int_Tables_number   1
_chemical_formula_structural   La2Tm18Si15Pt
_chemical_formula_sum   'La2 Tm18 Si15 Pt1'
_cell_volume   814.48216528
_cell_formula_units_Z   1
loop_
 _symmetry_equiv_pos_site_id
 _symmetry_equiv_pos_as_xyz
  1  'x, y, z'
loop_
 _atom_site_type_symbol
 _atom_site_label
 _atom_site_symmetry_multiplicity
 _atom_site_fract_x
 _atom_site_fract_y
 _atom_site_fract_z
 _atom_site_occupancy
  La  La0  1  0.518808  0.572242  0.340654  1
  La  La1  1  0.020984  0.424781  0.658216  1
  Tm  Tm2  1  0.811073  0.577166  0.876390  1
  Tm  Tm3  1  0.321089  0.427321  0.123695  1
  Tm  Tm4  1  0.181622  0.926284  0.373836  1
  Tm  Tm5  1  0.680579  0.069232  0.626971  1
  Tm  Tm6  1  0.182150  0.924918  0.628003  1
  Tm  Tm7  1  0.680585  0.072318  0.371329  1
  Tm  Tm8  1  0.815471  0.572869  0.125227  1
  Tm  Tm9  1  0.325982  0.433254  0.874821  1
  Tm  Tm10  1  0.647122  0.234949  0.998673  1
  Tm  Tm11  1  0.157072  0.761197  0.001231  1
  Tm  Tm12  1  0.347306  0.260836  0.499582  1
  Tm  Tm13  1  0.848037  0.737696  0.499952  1
  Tm  Tm14  1  0.479847  0.928677  0.846871  1
  Tm  Tm15  1  0.978242  0.069305  0.153459  1
  Tm  Tm16  1  0.476461  0.932851  0.152366  1
  Tm  Tm17  1  0.975609  0.068007  0.847832  1
  Tm  Tm18  1  0.525831  0.565414  0.651359  1
  Tm  Tm19  1  0.025190  0.433543  0.348039  1
  Si  Si20  1  0.020884  0.352836  0.000194  1
  Si  Si21  1  0.477600  0.861216  0.500886  1
  Si  Si22  1  0.976315  0.136187  0.499197  1
  Si  Si23  1  0.653954  0.276922  0.790950  1
  Si  Si24  1  0.152110  0.721348  0.208958  1
  Si  Si25  1  0.344588  0.214085  0.285973  1
  Si  Si26  1  0.847119  0.784142  0.713942  1
  Si  Si27  1  0.358263  0.216124  0.712412  1
  Si  Si28  1  0.859675  0.782624  0.287922  1
  Si  Si29  1  0.648522  0.268727  0.205185  1
  Si  Si30  1  0.146127  0.728926  0.794402  1
  Si  Si31  1  0.776931  0.883960  0.001207  1
  Si  Si32  1  0.263132  0.125427  0.999262  1
  Si  Si33  1  0.228616  0.623312  0.501762  1
  Si  Si34  1  0.728532  0.374755  0.498283  1
  Pt  Pt35  1  0.518571  0.656548  0.000960  1
