# generated using pymatgen
data_SrEuDyNbO6
_symmetry_space_group_name_H-M   'P 1'
_cell_length_a   5.78389481
_cell_length_b   5.94499700
_cell_length_c   10.06160751
_cell_angle_alpha   90.00000000
_cell_angle_beta   124.86745273
_cell_angle_gamma   90.00000000
_symmetry_Int_Tables_number   1
_chemical_formula_structural   SrEuDyNbO6
_chemical_formula_sum   'Sr2 Eu2 Dy2 Nb2 O12'
_cell_volume   283.86096824
_cell_formula_units_Z   2
loop_
 _symmetry_equiv_pos_site_id
 _symmetry_equiv_pos_as_xyz
  1  'x, y, z'
loop_
 _atom_site_type_symbol
 _atom_site_label
 _atom_site_symmetry_multiplicity
 _atom_site_fract_x
 _atom_site_fract_y
 _atom_site_fract_z
 _atom_site_occupancy
  Sr  Sr0  1  0.239003  0.454192  0.750732  1
  Sr  Sr1  1  0.239003  0.045808  0.250732  1
  Eu  Eu2  1  0.762932  0.551039  0.248215  1
  Eu  Eu3  1  0.762932  0.948961  0.748215  1
  Dy  Dy4  1  0.499485  0.498088  0.499514  1
  Dy  Dy5  1  0.499485  0.001912  0.999514  1
  Nb  Nb6  1  0.999975  0.501212  0.000023  1
  Nb  Nb7  1  0.999975  0.998788  0.500023  1
  O  O8  1  0.336528  0.030617  0.735800  1
  O  O9  1  0.336528  0.469383  0.235800  1
  O  O10  1  0.674177  0.965205  0.263899  1
  O  O11  1  0.674177  0.534795  0.763899  1
  O  O12  1  0.764928  0.190679  0.548964  1
  O  O13  1  0.764928  0.309321  0.048964  1
  O  O14  1  0.233402  0.802592  0.454232  1
  O  O15  1  0.233402  0.697408  0.954232  1
  O  O16  1  0.131389  0.217751  0.945095  1
  O  O17  1  0.131389  0.282249  0.445095  1
  O  O18  1  0.858182  0.776909  0.053526  1
  O  O19  1  0.858182  0.723091  0.553526  1
