# generated using pymatgen
data_K7RbBa4(Nb2Se11)4
_symmetry_space_group_name_H-M   'P 1'
_cell_length_a   14.06929288
_cell_length_b   8.00988942
_cell_length_c   17.19788600
_cell_angle_alpha   84.13888524
_cell_angle_beta   89.98860864
_cell_angle_gamma   90.18416312
_symmetry_Int_Tables_number   1
_chemical_formula_structural   K7RbBa4(Nb2Se11)4
_chemical_formula_sum   'K7 Rb1 Ba4 Nb8 Se44'
_cell_volume   1927.94774219
_cell_formula_units_Z   1
loop_
 _symmetry_equiv_pos_site_id
 _symmetry_equiv_pos_as_xyz
  1  'x, y, z'
loop_
 _atom_site_type_symbol
 _atom_site_label
 _atom_site_symmetry_multiplicity
 _atom_site_fract_x
 _atom_site_fract_y
 _atom_site_fract_z
 _atom_site_occupancy
  K  K0  1  0.535054  0.245015  0.916467  1
  K  K1  1  0.465114  0.754966  0.082984  1
  K  K2  1  0.964424  0.242761  0.417402  1
  K  K3  1  0.880597  0.283576  0.731985  1
  K  K4  1  0.035117  0.755383  0.583588  1
  K  K5  1  0.380501  0.716743  0.767933  1
  K  K6  1  0.619357  0.284013  0.232046  1
  Rb  Rb7  1  0.118064  0.705583  0.268188  1
  Ba  Ba8  1  0.876631  0.248082  0.034652  1
  Ba  Ba9  1  0.622824  0.247257  0.535256  1
  Ba  Ba10  1  0.377743  0.753409  0.464841  1
  Ba  Ba11  1  0.122570  0.753047  0.964317  1
  Nb  Nb12  1  0.330666  0.144520  0.194109  1
  Nb  Nb13  1  0.170961  0.144988  0.694317  1
  Nb  Nb14  1  0.717478  0.721401  0.605586  1
  Nb  Nb15  1  0.670632  0.854817  0.805664  1
  Nb  Nb16  1  0.217937  0.279586  0.893984  1
  Nb  Nb17  1  0.781590  0.721464  0.105340  1
  Nb  Nb18  1  0.827639  0.856597  0.305782  1
  Nb  Nb19  1  0.283340  0.278123  0.394985  1
  Se  Se20  1  0.162868  0.148109  0.300813  1
  Se  Se21  1  0.123908  0.162842  0.023223  1
  Se  Se22  1  0.281679  0.960122  0.611384  1
  Se  Se23  1  0.876423  0.838796  0.976506  1
  Se  Se24  1  0.192102  0.492671  0.447309  1
  Se  Se25  1  0.823723  0.559902  0.249617  1
  Se  Se26  1  0.451842  0.209197  0.100536  1
  Se  Se27  1  0.543736  0.601087  0.605273  1
  Se  Se28  1  0.781657  0.039927  0.888689  1
  Se  Se29  1  0.219629  0.961483  0.109931  1
  Se  Se30  1  0.296431  0.377531  0.655163  1
  Se  Se31  1  0.572338  0.921172  0.675858  1
  Se  Se32  1  0.814635  0.990818  0.567156  1
  Se  Se33  1  0.456930  0.398513  0.395081  1
  Se  Se34  1  0.044057  0.397962  0.894561  1
  Se  Se35  1  0.702805  0.622433  0.344227  1
  Se  Se36  1  0.622697  0.837359  0.476751  1
  Se  Se37  1  0.634704  0.158625  0.738838  1
  Se  Se38  1  0.661107  0.852304  0.198912  1
  Se  Se39  1  0.049689  0.208358  0.600771  1
  Se  Se40  1  0.838063  0.853252  0.699107  1
  Se  Se41  1  0.206138  0.376619  0.154899  1
  Se  Se42  1  0.310162  0.498641  0.942820  1
  Se  Se43  1  0.134213  0.840960  0.761107  1
  Se  Se44  1  0.864215  0.160659  0.238705  1
  Se  Se45  1  0.428866  0.078748  0.324147  1
  Se  Se46  1  0.946882  0.795120  0.401097  1
  Se  Se47  1  0.367800  0.840951  0.260939  1
  Se  Se48  1  0.338169  0.148047  0.800543  1
  Se  Se49  1  0.955178  0.602894  0.104436  1
  Se  Se50  1  0.326077  0.440493  0.250611  1
  Se  Se51  1  0.176032  0.441836  0.749811  1
  Se  Se52  1  0.926269  0.923953  0.175999  1
  Se  Se53  1  0.549327  0.791171  0.899209  1
  Se  Se54  1  0.795962  0.623014  0.844360  1
  Se  Se55  1  0.675485  0.558529  0.749561  1
  Se  Se56  1  0.185136  0.009279  0.432705  1
  Se  Se57  1  0.716431  0.040388  0.388661  1
  Se  Se58  1  0.684622  0.989930  0.066855  1
  Se  Se59  1  0.809993  0.503073  0.557029  1
  Se  Se60  1  0.072198  0.078329  0.824047  1
  Se  Se61  1  0.314721  0.010870  0.932743  1
  Se  Se62  1  0.689250  0.502298  0.056717  1
  Se  Se63  1  0.377612  0.160407  0.523866  1
