# generated using pymatgen
data_SrPr6PtCl12
_symmetry_space_group_name_H-M   'P 1'
_cell_length_a   9.35387968
_cell_length_b   9.35379315
_cell_length_c   9.35346477
_cell_angle_alpha   106.31591980
_cell_angle_beta   106.32149474
_cell_angle_gamma   106.32007486
_symmetry_Int_Tables_number   1
_chemical_formula_structural   SrPr6PtCl12
_chemical_formula_sum   'Sr1 Pr6 Pt1 Cl12'
_cell_volume   693.81911273
_cell_formula_units_Z   1
loop_
 _symmetry_equiv_pos_site_id
 _symmetry_equiv_pos_as_xyz
  1  'x, y, z'
loop_
 _atom_site_type_symbol
 _atom_site_label
 _atom_site_symmetry_multiplicity
 _atom_site_fract_x
 _atom_site_fract_y
 _atom_site_fract_z
 _atom_site_occupancy
  Sr  Sr0  1  0.500000  0.500000  0.500000  1
  Pr  Pr1  1  0.112821  0.321642  0.017443  1
  Pr  Pr2  1  0.321652  0.017458  0.112842  1
  Pr  Pr3  1  0.017448  0.112826  0.321646  1
  Pr  Pr4  1  0.982553  0.887174  0.678355  1
  Pr  Pr5  1  0.678348  0.982543  0.887158  1
  Pr  Pr6  1  0.887179  0.678358  0.982557  1
  Pt  Pt7  1  0.000000  0.000000  0.000000  1
  Cl  Cl8  1  0.208941  0.682644  0.072206  1
  Cl  Cl9  1  0.445626  0.360910  0.159722  1
  Cl  Cl10  1  0.682639  0.072200  0.208948  1
  Cl  Cl11  1  0.927785  0.791060  0.317367  1
  Cl  Cl12  1  0.159719  0.445626  0.360906  1
  Cl  Cl13  1  0.360908  0.159723  0.445639  1
  Cl  Cl14  1  0.639092  0.840277  0.554362  1
  Cl  Cl15  1  0.840282  0.554374  0.639094  1
  Cl  Cl16  1  0.072216  0.208940  0.682634  1
  Cl  Cl17  1  0.317362  0.927801  0.791052  1
  Cl  Cl18  1  0.554374  0.639090  0.840279  1
  Cl  Cl19  1  0.791059  0.317356  0.927794  1
