# generated using pymatgen
data_Nd2TmCo8P6W
_symmetry_space_group_name_H-M   'P 1'
_cell_length_a   3.74709000
_cell_length_b   10.60928300
_cell_length_c   12.33790800
_cell_angle_alpha   90.00000000
_cell_angle_beta   90.00000000
_cell_angle_gamma   90.00000000
_symmetry_Int_Tables_number   1
_chemical_formula_structural   Nd2TmCo8P6W
_chemical_formula_sum   'Nd4 Tm2 Co16 P12 W2'
_cell_volume   490.48043260
_cell_formula_units_Z   2
loop_
 _symmetry_equiv_pos_site_id
 _symmetry_equiv_pos_as_xyz
  1  'x, y, z'
loop_
 _atom_site_type_symbol
 _atom_site_label
 _atom_site_symmetry_multiplicity
 _atom_site_fract_x
 _atom_site_fract_y
 _atom_site_fract_z
 _atom_site_occupancy
  Nd  Nd0  1  0.000000  0.500000  0.523440  1
  Nd  Nd1  1  0.500000  0.000000  0.474682  1
  Nd  Nd2  1  0.000000  0.681224  0.795152  1
  Nd  Nd3  1  0.000000  0.318776  0.795152  1
  Tm  Tm4  1  0.500000  0.819665  0.203995  1
  Tm  Tm5  1  0.500000  0.180335  0.203995  1
  Co  Co6  1  0.500000  0.500000  0.702497  1
  Co  Co7  1  0.000000  0.000000  0.294957  1
  Co  Co8  1  0.000000  0.500000  0.990710  1
  Co  Co9  1  0.500000  0.000000  0.016175  1
  Co  Co10  1  0.500000  0.330941  0.994568  1
  Co  Co11  1  0.500000  0.669059  0.994568  1
  Co  Co12  1  0.000000  0.166130  0.012781  1
  Co  Co13  1  0.000000  0.833870  0.012781  1
  Co  Co14  1  0.500000  0.294609  0.427012  1
  Co  Co15  1  0.500000  0.705391  0.427012  1
  Co  Co16  1  0.000000  0.203689  0.566608  1
  Co  Co17  1  0.000000  0.796311  0.566608  1
  Co  Co18  1  0.500000  0.880560  0.708480  1
  Co  Co19  1  0.500000  0.119440  0.708480  1
  Co  Co20  1  0.000000  0.621979  0.288815  1
  Co  Co21  1  0.000000  0.378021  0.288815  1
  P  P22  1  0.500000  0.500000  0.886682  1
  P  P23  1  0.000000  0.000000  0.120687  1
  P  P24  1  0.500000  0.500000  0.345737  1
  P  P25  1  0.000000  0.000000  0.653875  1
  P  P26  1  0.500000  0.306099  0.612516  1
  P  P27  1  0.500000  0.693901  0.612516  1
  P  P28  1  0.000000  0.190742  0.380085  1
  P  P29  1  0.000000  0.809258  0.380085  1
  P  P30  1  0.500000  0.846778  0.896151  1
  P  P31  1  0.500000  0.153222  0.896151  1
  P  P32  1  0.000000  0.657046  0.108237  1
  P  P33  1  0.000000  0.342954  0.108237  1
  W  W34  1  0.500000  0.500000  0.155001  1
  W  W35  1  0.000000  0.000000  0.846753  1
