# generated using pymatgen
data_CaSc2Zn11
_symmetry_space_group_name_H-M   'P 1'
_cell_length_a   4.31723549
_cell_length_b   8.09859981
_cell_length_c   8.09859973
_cell_angle_alpha   65.82350155
_cell_angle_beta   74.54138896
_cell_angle_gamma   74.54139745
_symmetry_Int_Tables_number   1
_chemical_formula_structural   CaSc2Zn11
_chemical_formula_sum   'Ca1 Sc2 Zn11'
_cell_volume   244.95405268
_cell_formula_units_Z   1
loop_
 _symmetry_equiv_pos_site_id
 _symmetry_equiv_pos_as_xyz
  1  'x, y, z'
loop_
 _atom_site_type_symbol
 _atom_site_label
 _atom_site_symmetry_multiplicity
 _atom_site_fract_x
 _atom_site_fract_y
 _atom_site_fract_z
 _atom_site_occupancy
  Ca  Ca0  1  0.000000  0.000000  0.000000  1
  Sc  Sc1  1  0.704100  0.295900  0.295900  1
  Sc  Sc2  1  0.295900  0.704100  0.704100  1
  Zn  Zn3  1  0.000000  0.500000  0.500000  1
  Zn  Zn4  1  0.500000  0.682076  0.317924  1
  Zn  Zn5  1  0.500000  0.317924  0.682076  1
  Zn  Zn6  1  0.665662  0.691533  0.977143  1
  Zn  Zn7  1  0.334338  0.308467  0.022857  1
  Zn  Zn8  1  0.665662  0.977143  0.691533  1
  Zn  Zn9  1  0.334338  0.022857  0.308467  1
  Zn  Zn10  1  0.862563  0.425338  0.849535  1
  Zn  Zn11  1  0.137437  0.574662  0.150465  1
  Zn  Zn12  1  0.862563  0.849535  0.425338  1
  Zn  Zn13  1  0.137437  0.150465  0.574662  1
