# generated using pymatgen
data_Nd16Cd4NiRu3
_symmetry_space_group_name_H-M   'P 1'
_cell_length_a   9.87475502
_cell_length_b   9.93761329
_cell_length_c   9.93761300
_cell_angle_alpha   59.99999762
_cell_angle_beta   59.78920249
_cell_angle_gamma   59.78920067
_symmetry_Int_Tables_number   1
_chemical_formula_structural   Nd16Cd4NiRu3
_chemical_formula_sum   'Nd16 Cd4 Ni1 Ru3'
_cell_volume   687.36017718
_cell_formula_units_Z   1
loop_
 _symmetry_equiv_pos_site_id
 _symmetry_equiv_pos_as_xyz
  1  'x, y, z'
loop_
 _atom_site_type_symbol
 _atom_site_label
 _atom_site_symmetry_multiplicity
 _atom_site_fract_x
 _atom_site_fract_y
 _atom_site_fract_z
 _atom_site_occupancy
  Nd  Nd0  1  0.597541  0.596764  0.596764  1
  Nd  Nd1  1  0.597541  0.596764  0.208931  1
  Nd  Nd2  1  0.597541  0.208931  0.596764  1
  Nd  Nd3  1  0.208547  0.597151  0.597151  1
  Nd  Nd4  1  0.060767  0.439771  0.439771  1
  Nd  Nd5  1  0.440531  0.060309  0.060309  1
  Nd  Nd6  1  0.440531  0.060309  0.438850  1
  Nd  Nd7  1  0.060767  0.439771  0.059692  1
  Nd  Nd8  1  0.440531  0.438850  0.060309  1
  Nd  Nd9  1  0.060767  0.059692  0.439771  1
  Nd  Nd10  1  0.187871  0.811855  0.811855  1
  Nd  Nd11  1  0.809904  0.187191  0.187191  1
  Nd  Nd12  1  0.809904  0.187191  0.815714  1
  Nd  Nd13  1  0.187871  0.811855  0.188418  1
  Nd  Nd14  1  0.809904  0.815714  0.187191  1
  Nd  Nd15  1  0.187871  0.188418  0.811855  1
  Cd  Cd16  1  0.829241  0.829848  0.829848  1
  Cd  Cd17  1  0.829241  0.829848  0.511063  1
  Cd  Cd18  1  0.829241  0.511063  0.829848  1
  Cd  Cd19  1  0.511901  0.829366  0.829366  1
  Ni  Ni20  1  0.828567  0.390478  0.390478  1
  Ru  Ru21  1  0.391140  0.388360  0.388360  1
  Ru  Ru22  1  0.391140  0.388360  0.832139  1
  Ru  Ru23  1  0.391140  0.832139  0.388360  1
