# generated using pymatgen
data_LiTbHo2(Co4P3)2
_symmetry_space_group_name_H-M   'P 1'
_cell_length_a   3.71692600
_cell_length_b   10.57717700
_cell_length_c   12.20019600
_cell_angle_alpha   90.00000000
_cell_angle_beta   90.00000000
_cell_angle_gamma   90.00000000
_symmetry_Int_Tables_number   1
_chemical_formula_structural   LiTbHo2(Co4P3)2
_chemical_formula_sum   'Li2 Tb2 Ho4 Co16 P12'
_cell_volume   479.64563287
_cell_formula_units_Z   2
loop_
 _symmetry_equiv_pos_site_id
 _symmetry_equiv_pos_as_xyz
  1  'x, y, z'
loop_
 _atom_site_type_symbol
 _atom_site_label
 _atom_site_symmetry_multiplicity
 _atom_site_fract_x
 _atom_site_fract_y
 _atom_site_fract_z
 _atom_site_occupancy
  Li  Li0  1  0.500000  0.500000  0.152952  1
  Li  Li1  1  0.000000  0.000000  0.847048  1
  Tb  Tb2  1  0.000000  0.500000  0.523056  1
  Tb  Tb3  1  0.500000  0.000000  0.476944  1
  Ho  Ho4  1  0.500000  0.819160  0.205951  1
  Ho  Ho5  1  0.500000  0.180840  0.205951  1
  Ho  Ho6  1  0.000000  0.680840  0.794049  1
  Ho  Ho7  1  0.000000  0.319160  0.794049  1
  Co  Co8  1  0.500000  0.500000  0.704505  1
  Co  Co9  1  0.000000  0.000000  0.295495  1
  Co  Co10  1  0.000000  0.500000  0.986565  1
  Co  Co11  1  0.500000  0.000000  0.013435  1
  Co  Co12  1  0.500000  0.332979  0.996723  1
  Co  Co13  1  0.500000  0.667021  0.996723  1
  Co  Co14  1  0.000000  0.167021  0.003277  1
  Co  Co15  1  0.000000  0.832979  0.003277  1
  Co  Co16  1  0.500000  0.296604  0.430864  1
  Co  Co17  1  0.500000  0.703396  0.430864  1
  Co  Co18  1  0.000000  0.203396  0.569136  1
  Co  Co19  1  0.000000  0.796604  0.569136  1
  Co  Co20  1  0.500000  0.878623  0.707084  1
  Co  Co21  1  0.500000  0.121377  0.707084  1
  Co  Co22  1  0.000000  0.621377  0.292916  1
  Co  Co23  1  0.000000  0.378623  0.292916  1
  P  P24  1  0.500000  0.500000  0.884401  1
  P  P25  1  0.000000  0.000000  0.115599  1
  P  P26  1  0.500000  0.500000  0.345457  1
  P  P27  1  0.000000  0.000000  0.654543  1
  P  P28  1  0.500000  0.309201  0.616215  1
  P  P29  1  0.500000  0.690799  0.616215  1
  P  P30  1  0.000000  0.190799  0.383785  1
  P  P31  1  0.000000  0.809201  0.383785  1
  P  P32  1  0.500000  0.843368  0.893727  1
  P  P33  1  0.500000  0.156632  0.893727  1
  P  P34  1  0.000000  0.656632  0.106273  1
  P  P35  1  0.000000  0.343368  0.106273  1
