# generated using pymatgen
data_LaTbSe2
_symmetry_space_group_name_H-M   'P 1'
_cell_length_a   7.39133612
_cell_length_b   7.39133605
_cell_length_c   7.39133611
_cell_angle_alpha   32.79918290
_cell_angle_beta   32.79918422
_cell_angle_gamma   32.79917499
_symmetry_Int_Tables_number   1
_chemical_formula_structural   LaTbSe2
_chemical_formula_sum   'La1 Tb1 Se2'
_cell_volume   105.41138019
_cell_formula_units_Z   1
loop_
 _symmetry_equiv_pos_site_id
 _symmetry_equiv_pos_as_xyz
  1  'x, y, z'
loop_
 _atom_site_type_symbol
 _atom_site_label
 _atom_site_symmetry_multiplicity
 _atom_site_fract_x
 _atom_site_fract_y
 _atom_site_fract_z
 _atom_site_occupancy
  La  La0  1  0.000000  0.000000  0.000000  1
  Tb  Tb1  1  0.500000  0.500000  0.500000  1
  Se  Se2  1  0.755650  0.755650  0.755650  1
  Se  Se3  1  0.244350  0.244350  0.244350  1
