# generated using pymatgen
data_Ce3Nd(B2Os)4
_symmetry_space_group_name_H-M   'P 1'
_cell_length_a   5.39917000
_cell_length_b   5.93512212
_cell_length_c   6.52987290
_cell_angle_alpha   90.23331512
_cell_angle_beta   90.00000000
_cell_angle_gamma   90.00000000
_symmetry_Int_Tables_number   1
_chemical_formula_structural   Ce3Nd(B2Os)4
_chemical_formula_sum   'Ce3 Nd1 B8 Os4'
_cell_volume   209.24630074
_cell_formula_units_Z   1
loop_
 _symmetry_equiv_pos_site_id
 _symmetry_equiv_pos_as_xyz
  1  'x, y, z'
loop_
 _atom_site_type_symbol
 _atom_site_label
 _atom_site_symmetry_multiplicity
 _atom_site_fract_x
 _atom_site_fract_y
 _atom_site_fract_z
 _atom_site_occupancy
  Ce  Ce0  1  0.250000  0.003061  0.341088  1
  Ce  Ce1  1  0.250000  0.503844  0.162477  1
  Ce  Ce2  1  0.750000  0.995972  0.658548  1
  Nd  Nd3  1  0.750000  0.495055  0.841788  1
  B  B4  1  0.087962  0.371256  0.536717  1
  B  B5  1  0.413472  0.871847  0.961775  1
  B  B6  1  0.585368  0.628040  0.460680  1
  B  B7  1  0.914297  0.127799  0.038550  1
  B  B8  1  0.914632  0.628040  0.460680  1
  B  B9  1  0.585703  0.127799  0.038550  1
  B  B10  1  0.412038  0.371256  0.536717  1
  B  B11  1  0.086528  0.871847  0.961775  1
  Os  Os12  1  0.250000  0.183467  0.811919  1
  Os  Os13  1  0.250000  0.688058  0.684039  1
  Os  Os14  1  0.750000  0.819739  0.192136  1
  Os  Os15  1  0.750000  0.312923  0.312560  1
