# generated using pymatgen
data_TbYNpO6
_symmetry_space_group_name_H-M   'P 1'
_cell_length_a   5.54610000
_cell_length_b   7.85231430
_cell_length_c   11.87516500
_cell_angle_alpha   73.89242672
_cell_angle_beta   90.00000000
_cell_angle_gamma   90.00000000
_symmetry_Int_Tables_number   1
_chemical_formula_structural   TbYNpO6
_chemical_formula_sum   'Tb4 Y4 Np4 O24'
_cell_volume   496.85769683
_cell_formula_units_Z   4
loop_
 _symmetry_equiv_pos_site_id
 _symmetry_equiv_pos_as_xyz
  1  'x, y, z'
loop_
 _atom_site_type_symbol
 _atom_site_label
 _atom_site_symmetry_multiplicity
 _atom_site_fract_x
 _atom_site_fract_y
 _atom_site_fract_z
 _atom_site_occupancy
  Tb  Tb0  1  0.744190  0.000000  0.750000  1
  Tb  Tb1  1  0.255810  0.000000  0.250000  1
  Tb  Tb2  1  0.697892  0.500000  0.750000  1
  Tb  Tb3  1  0.302108  0.500000  0.250000  1
  Y  Y4  1  0.187346  0.794938  0.579475  1
  Y  Y5  1  0.812654  0.794938  0.079475  1
  Y  Y6  1  0.187346  0.205062  0.920525  1
  Y  Y7  1  0.812654  0.205062  0.420525  1
  Np  Np8  1  0.255232  0.720470  0.886890  1
  Np  Np9  1  0.744768  0.720470  0.386890  1
  Np  Np10  1  0.255232  0.279530  0.613110  1
  Np  Np11  1  0.744768  0.279530  0.113110  1
  O  O12  1  0.044953  0.943076  0.896753  1
  O  O13  1  0.550883  0.848989  0.931633  1
  O  O14  1  0.955047  0.943076  0.396753  1
  O  O15  1  0.448904  0.799882  0.727405  1
  O  O16  1  0.449117  0.848989  0.431633  1
  O  O17  1  0.965074  0.713617  0.766951  1
  O  O18  1  0.551096  0.799882  0.227405  1
  O  O19  1  0.874725  0.627421  0.554336  1
  O  O20  1  0.387951  0.481719  0.883986  1
  O  O21  1  0.034926  0.713617  0.266951  1
  O  O22  1  0.387951  0.518281  0.616014  1
  O  O23  1  0.874725  0.372579  0.945664  1
  O  O24  1  0.125275  0.627421  0.054336  1
  O  O25  1  0.612049  0.481719  0.383986  1
  O  O26  1  0.965074  0.286383  0.733049  1
  O  O27  1  0.612049  0.518281  0.116014  1
  O  O28  1  0.125275  0.372579  0.445664  1
  O  O29  1  0.448904  0.200118  0.772595  1
  O  O30  1  0.034926  0.286383  0.233049  1
  O  O31  1  0.550883  0.151011  0.568367  1
  O  O32  1  0.551096  0.200118  0.272595  1
  O  O33  1  0.044953  0.056924  0.603247  1
  O  O34  1  0.449117  0.151011  0.068367  1
  O  O35  1  0.955047  0.056924  0.103247  1
