# generated using pymatgen
data_TmSbI6
_symmetry_space_group_name_H-M   'P 1'
_cell_length_a   8.69200956
_cell_length_b   8.69200958
_cell_length_c   8.69200918
_cell_angle_alpha   52.41565683
_cell_angle_beta   52.41565492
_cell_angle_gamma   52.41565706
_symmetry_Int_Tables_number   1
_chemical_formula_structural   TmSbI6
_chemical_formula_sum   'Tm1 Sb1 I6'
_cell_volume   381.65165890
_cell_formula_units_Z   1
loop_
 _symmetry_equiv_pos_site_id
 _symmetry_equiv_pos_as_xyz
  1  'x, y, z'
loop_
 _atom_site_type_symbol
 _atom_site_label
 _atom_site_symmetry_multiplicity
 _atom_site_fract_x
 _atom_site_fract_y
 _atom_site_fract_z
 _atom_site_occupancy
  Tm  Tm0  1  0.833139  0.833139  0.833139  1
  Sb  Sb1  1  0.166753  0.166753  0.166753  1
  I  I2  1  0.220422  0.581956  0.931826  1
  I  I3  1  0.931826  0.220422  0.581956  1
  I  I4  1  0.581956  0.931826  0.220422  1
  I  I5  1  0.774430  0.427429  0.064045  1
  I  I6  1  0.064045  0.774430  0.427429  1
  I  I7  1  0.427429  0.064045  0.774430  1
