# generated using pymatgen
data_Hf3SiPRu3Pt
_symmetry_space_group_name_H-M   'P 1'
_cell_length_a   6.95867900
_cell_length_b   6.95867980
_cell_length_c   3.43122700
_cell_angle_alpha   90.00000000
_cell_angle_beta   90.00000000
_cell_angle_gamma   119.99999146
_symmetry_Int_Tables_number   1
_chemical_formula_structural   Hf3SiPRu3Pt
_chemical_formula_sum   'Hf3 Si1 P1 Ru3 Pt1'
_cell_volume   143.89104807
_cell_formula_units_Z   1
loop_
 _symmetry_equiv_pos_site_id
 _symmetry_equiv_pos_as_xyz
  1  'x, y, z'
loop_
 _atom_site_type_symbol
 _atom_site_label
 _atom_site_symmetry_multiplicity
 _atom_site_fract_x
 _atom_site_fract_y
 _atom_site_fract_z
 _atom_site_occupancy
  Hf  Hf0  1  0.997445  0.406478  0.500000  1
  Hf  Hf1  1  0.593522  0.590967  0.500000  1
  Hf  Hf2  1  0.409033  0.002555  0.500000  1
  Si  Si3  1  0.000000  0.000000  0.500000  1
  P  P4  1  0.666667  0.333333  0.000000  1
  Ru  Ru5  1  0.973167  0.742369  0.000000  1
  Ru  Ru6  1  0.257631  0.230798  0.000000  1
  Ru  Ru7  1  0.769202  0.026833  0.000000  1
  Pt  Pt8  1  0.333333  0.666667  0.000000  1
