# generated using pymatgen
data_Tb10CuBi5PPb
_symmetry_space_group_name_H-M   'P 1'
_cell_length_a   9.33899122
_cell_length_b   9.33899234
_cell_length_c   6.45654258
_cell_angle_alpha   90.02418341
_cell_angle_beta   90.02418216
_cell_angle_gamma   119.89366742
_symmetry_Int_Tables_number   1
_chemical_formula_structural   Tb10CuBi5PPb
_chemical_formula_sum   'Tb10 Cu1 Bi5 P1 Pb1'
_cell_volume   488.19668264
_cell_formula_units_Z   1
loop_
 _symmetry_equiv_pos_site_id
 _symmetry_equiv_pos_as_xyz
  1  'x, y, z'
loop_
 _atom_site_type_symbol
 _atom_site_label
 _atom_site_symmetry_multiplicity
 _atom_site_fract_x
 _atom_site_fract_y
 _atom_site_fract_z
 _atom_site_occupancy
  Tb  Tb0  1  0.247907  0.000528  0.245299  1
  Tb  Tb1  1  0.751112  0.997518  0.754338  1
  Tb  Tb2  1  0.000528  0.247907  0.245299  1
  Tb  Tb3  1  0.997518  0.751112  0.754338  1
  Tb  Tb4  1  0.752720  0.752720  0.245384  1
  Tb  Tb5  1  0.248086  0.248086  0.754190  1
  Tb  Tb6  1  0.334536  0.666217  0.999323  1
  Tb  Tb7  1  0.666217  0.334536  0.999323  1
  Tb  Tb8  1  0.666626  0.334623  0.500601  1
  Tb  Tb9  1  0.334623  0.666626  0.500601  1
  Cu  Cu10  1  0.999776  0.999776  0.500204  1
  Bi  Bi11  1  0.609341  0.000782  0.252817  1
  Bi  Bi12  1  0.390314  0.999692  0.747009  1
  Bi  Bi13  1  0.000782  0.609341  0.252817  1
  Bi  Bi14  1  0.999692  0.390314  0.747009  1
  Bi  Bi15  1  0.391873  0.391873  0.253221  1
  P  P16  1  0.000518  0.000518  0.999939  1
  Pb  Pb17  1  0.607830  0.607830  0.748287  1
