# generated using pymatgen
data_Sm2Al9ZnOs2
_symmetry_space_group_name_H-M   'P 1'
_cell_length_a   7.62984000
_cell_length_b   7.62983939
_cell_length_c   9.51567100
_cell_angle_alpha   90.00000000
_cell_angle_beta   90.00000000
_cell_angle_gamma   119.34492077
_symmetry_Int_Tables_number   1
_chemical_formula_structural   Sm2Al9ZnOs2
_chemical_formula_sum   'Sm4 Al18 Zn2 Os4'
_cell_volume   482.86972593
_cell_formula_units_Z   2
loop_
 _symmetry_equiv_pos_site_id
 _symmetry_equiv_pos_as_xyz
  1  'x, y, z'
loop_
 _atom_site_type_symbol
 _atom_site_label
 _atom_site_symmetry_multiplicity
 _atom_site_fract_x
 _atom_site_fract_y
 _atom_site_fract_z
 _atom_site_occupancy
  Sm  Sm0  1  0.996261  0.679345  0.250000  1
  Sm  Sm1  1  0.003739  0.320655  0.750000  1
  Sm  Sm2  1  0.679345  0.996261  0.250000  1
  Sm  Sm3  1  0.320655  0.003739  0.750000  1
  Al  Al4  1  0.142534  0.142534  0.250000  1
  Al  Al5  1  0.857466  0.857466  0.750000  1
  Al  Al6  1  0.002764  0.348588  0.076167  1
  Al  Al7  1  0.997236  0.651412  0.923833  1
  Al  Al8  1  0.997236  0.651412  0.576167  1
  Al  Al9  1  0.348588  0.002764  0.423833  1
  Al  Al10  1  0.002764  0.348588  0.423833  1
  Al  Al11  1  0.651412  0.997236  0.576167  1
  Al  Al12  1  0.651412  0.997236  0.923833  1
  Al  Al13  1  0.348588  0.002764  0.076167  1
  Al  Al14  1  0.345261  0.345261  0.553256  1
  Al  Al15  1  0.654739  0.654739  0.446744  1
  Al  Al16  1  0.654739  0.654739  0.053256  1
  Al  Al17  1  0.345261  0.345261  0.946744  1
  Al  Al18  1  0.336515  0.552406  0.250000  1
  Al  Al19  1  0.663485  0.447594  0.750000  1
  Al  Al20  1  0.552406  0.336515  0.250000  1
  Al  Al21  1  0.447594  0.663485  0.750000  1
  Zn  Zn22  1  0.000000  0.000000  0.000000  1
  Zn  Zn23  1  0.000000  0.000000  0.500000  1
  Os  Os24  1  0.671632  0.328368  0.000000  1
  Os  Os25  1  0.328368  0.671632  0.000000  1
  Os  Os26  1  0.328368  0.671632  0.500000  1
  Os  Os27  1  0.671632  0.328368  0.500000  1
