# generated using pymatgen
data_Hf6Cr2Co16Si7P5
_symmetry_space_group_name_H-M   'P 1'
_cell_length_a   12.01555698
_cell_length_b   12.03879902
_cell_length_c   3.63862200
_cell_angle_alpha   90.00000000
_cell_angle_beta   90.00000000
_cell_angle_gamma   120.06400765
_symmetry_Int_Tables_number   1
_chemical_formula_structural   Hf6Cr2Co16Si7P5
_chemical_formula_sum   'Hf6 Cr2 Co16 Si7 P5'
_cell_volume   455.52704870
_cell_formula_units_Z   1
loop_
 _symmetry_equiv_pos_site_id
 _symmetry_equiv_pos_as_xyz
  1  'x, y, z'
loop_
 _atom_site_type_symbol
 _atom_site_label
 _atom_site_symmetry_multiplicity
 _atom_site_fract_x
 _atom_site_fract_y
 _atom_site_fract_z
 _atom_site_occupancy
  Hf  Hf0  1  0.812183  0.814325  0.500000  1
  Hf  Hf1  1  0.000000  0.178069  0.500000  1
  Hf  Hf2  1  0.335052  0.664923  0.000000  1
  Hf  Hf3  1  0.664948  0.329870  0.000000  1
  Hf  Hf4  1  0.000000  0.558067  0.000000  1
  Hf  Hf5  1  0.187817  0.002142  0.500000  1
  Cr  Cr6  1  0.443466  0.444302  0.000000  1
  Cr  Cr7  1  0.556534  0.000836  0.000000  1
  Co  Co8  1  0.627281  0.822392  0.000000  1
  Co  Co9  1  0.372719  0.195111  0.000000  1
  Co  Co10  1  0.000000  0.726997  0.500000  1
  Co  Co11  1  0.279141  0.274784  0.500000  1
  Co  Co12  1  0.872920  0.352510  0.500000  1
  Co  Co13  1  0.720859  0.995644  0.500000  1
  Co  Co14  1  0.817755  0.631989  0.000000  1
  Co  Co15  1  0.182245  0.814234  0.000000  1
  Co  Co16  1  0.359514  0.884554  0.500000  1
  Co  Co17  1  0.127080  0.479589  0.500000  1
  Co  Co18  1  0.640486  0.525041  0.500000  1
  Co  Co19  1  0.000000  0.999592  0.000000  1
  Co  Co20  1  0.520711  0.646543  0.500000  1
  Co  Co21  1  0.479289  0.125832  0.500000  1
  Co  Co22  1  0.198797  0.367471  0.000000  1
  Co  Co23  1  0.801203  0.168674  0.000000  1
  Si  Si24  1  0.000000  0.345947  0.000000  1
  Si  Si25  1  0.821318  0.515253  0.500000  1
  Si  Si26  1  0.683574  0.163635  0.500000  1
  Si  Si27  1  0.516197  0.834909  0.500000  1
  Si  Si28  1  0.178682  0.693934  0.500000  1
  Si  Si29  1  0.483803  0.318713  0.500000  1
  Si  Si30  1  0.316426  0.480059  0.500000  1
  P  P31  1  0.177146  0.174427  0.000000  1
  P  P32  1  0.637502  0.642504  0.000000  1
  P  P33  1  0.822854  0.997281  0.000000  1
  P  P34  1  0.362498  0.005001  0.000000  1
  P  P35  1  0.000000  0.824841  0.000000  1
