# generated using pymatgen
data_Sc12Os(PtBr8)2
_symmetry_space_group_name_H-M   'P 1'
_cell_length_a   8.94641853
_cell_length_b   11.32911022
_cell_length_c   12.00073445
_cell_angle_alpha   117.20809810
_cell_angle_beta   101.48054987
_cell_angle_gamma   101.08243545
_symmetry_Int_Tables_number   1
_chemical_formula_structural   Sc12Os(PtBr8)2
_chemical_formula_sum   'Sc12 Os1 Pt2 Br16'
_cell_volume   1002.56980811
_cell_formula_units_Z   1
loop_
 _symmetry_equiv_pos_site_id
 _symmetry_equiv_pos_as_xyz
  1  'x, y, z'
loop_
 _atom_site_type_symbol
 _atom_site_label
 _atom_site_symmetry_multiplicity
 _atom_site_fract_x
 _atom_site_fract_y
 _atom_site_fract_z
 _atom_site_occupancy
  Sc  Sc0  1  0.087063  0.260885  0.353575  1
  Sc  Sc1  1  0.915735  0.744110  0.649517  1
  Sc  Sc2  1  0.775234  0.538366  0.319779  1
  Sc  Sc3  1  0.225370  0.462392  0.676600  1
  Sc  Sc4  1  0.283596  0.739913  0.647198  1
  Sc  Sc5  1  0.715279  0.255055  0.349791  1
  Sc  Sc6  1  0.145485  0.537278  0.324654  1
  Sc  Sc7  1  0.856646  0.462074  0.678887  1
  Sc  Sc8  1  0.396977  0.353495  0.266302  1
  Sc  Sc9  1  0.592393  0.646285  0.733360  1
  Sc  Sc10  1  0.451580  0.300201  0.520930  1
  Sc  Sc11  1  0.538213  0.699855  0.479046  1
  Os  Os12  1  0.340193  0.500016  0.499474  1
  Pt  Pt13  1  0.997230  0.500053  0.500166  1
  Pt  Pt14  1  0.661000  0.499927  0.500463  1
  Br  Br15  1  0.394049  0.740107  0.881710  1
  Br  Br16  1  0.607026  0.262263  0.121859  1
  Br  Br17  1  0.187243  0.962741  0.782496  1
  Br  Br18  1  0.810978  0.037123  0.217619  1
  Br  Br19  1  0.346685  0.097801  0.253134  1
  Br  Br20  1  0.665678  0.902417  0.747061  1
  Br  Br21  1  0.558443  0.437804  0.795782  1
  Br  Br22  1  0.452475  0.562068  0.204490  1
  Br  Br23  1  0.306776  0.826785  0.463294  1
  Br  Br24  1  0.693584  0.176587  0.536480  1
  Br  Br25  1  0.164486  0.171112  0.532078  1
  Br  Br26  1  0.834140  0.825611  0.468043  1
  Br  Br27  1  0.926127  0.574584  0.162576  1
  Br  Br28  1  0.072540  0.425435  0.837409  1
  Br  Br29  1  0.922216  0.736053  0.878084  1
  Br  Br30  1  0.075564  0.261601  0.118143  1
