# generated using pymatgen
data_NdDy7Hg4
_symmetry_space_group_name_H-M   'P 1'
_cell_length_a   5.14347900
_cell_length_b   7.05968723
_cell_length_c   9.35662353
_cell_angle_alpha   89.96136390
_cell_angle_beta   90.00000000
_cell_angle_gamma   90.00000000
_symmetry_Int_Tables_number   1
_chemical_formula_structural   NdDy7Hg4
_chemical_formula_sum   'Nd1 Dy7 Hg4'
_cell_volume   339.75158279
_cell_formula_units_Z   1
loop_
 _symmetry_equiv_pos_site_id
 _symmetry_equiv_pos_as_xyz
  1  'x, y, z'
loop_
 _atom_site_type_symbol
 _atom_site_label
 _atom_site_symmetry_multiplicity
 _atom_site_fract_x
 _atom_site_fract_y
 _atom_site_fract_z
 _atom_site_occupancy
  Nd  Nd0  1  0.750000  0.329704  0.924633  1
  Dy  Dy1  1  0.250000  0.015283  0.805442  1
  Dy  Dy2  1  0.250000  0.519821  0.690565  1
  Dy  Dy3  1  0.750000  0.979767  0.194645  1
  Dy  Dy4  1  0.750000  0.483459  0.307311  1
  Dy  Dy5  1  0.250000  0.164121  0.426854  1
  Dy  Dy6  1  0.250000  0.671486  0.075670  1
  Dy  Dy7  1  0.750000  0.833274  0.574519  1
  Hg  Hg8  1  0.250000  0.733086  0.396512  1
  Hg  Hg9  1  0.250000  0.229728  0.109376  1
  Hg  Hg10  1  0.750000  0.265441  0.597169  1
  Hg  Hg11  1  0.750000  0.774830  0.897303  1
