# generated using pymatgen
data_DyHo11GaCo4Bi
_symmetry_space_group_name_H-M   'P 1'
_cell_length_a   8.30014433
_cell_length_b   8.30209340
_cell_length_c   8.30209262
_cell_angle_alpha   111.93757245
_cell_angle_beta   109.26046884
_cell_angle_gamma   107.25876126
_symmetry_Int_Tables_number   1
_chemical_formula_structural   DyHo11GaCo4Bi
_chemical_formula_sum   'Dy1 Ho11 Ga1 Co4 Bi1'
_cell_volume   439.60125488
_cell_formula_units_Z   1
loop_
 _symmetry_equiv_pos_site_id
 _symmetry_equiv_pos_as_xyz
  1  'x, y, z'
loop_
 _atom_site_type_symbol
 _atom_site_label
 _atom_site_symmetry_multiplicity
 _atom_site_fract_x
 _atom_site_fract_y
 _atom_site_fract_z
 _atom_site_occupancy
  Dy  Dy0  1  0.972463  0.269304  0.703158  1
  Ho  Ho1  1  0.027448  0.730677  0.296771  1
  Ho  Ho2  1  0.676786  0.860654  0.183791  1
  Ho  Ho3  1  0.323294  0.507107  0.184123  1
  Ho  Ho4  1  0.323294  0.139171  0.816188  1
  Ho  Ho5  1  0.676786  0.492994  0.816132  1
  Ho  Ho6  1  0.566060  0.269284  0.296776  1
  Ho  Ho7  1  0.433866  0.730724  0.703142  1
  Ho  Ho8  1  0.178777  0.779249  0.957893  1
  Ho  Ho9  1  0.821230  0.778938  0.600309  1
  Ho  Ho10  1  0.178777  0.220883  0.399527  1
  Ho  Ho11  1  0.821230  0.220921  0.042292  1
  Ga  Ga12  1  0.000060  0.500172  0.499888  1
  Co  Co13  1  0.113897  0.113765  0.000132  1
  Co  Co14  1  0.886152  0.886183  0.999969  1
  Co  Co15  1  0.658983  0.499980  0.159003  1
  Co  Co16  1  0.341115  0.500094  0.841021  1
  Bi  Bi17  1  0.499784  0.999900  0.499884  1
