# generated using pymatgen
data_Er7Sn23IrOs5
_symmetry_space_group_name_H-M   'P 1'
_cell_length_a   9.84377436
_cell_length_b   9.87221889
_cell_length_c   10.07642642
_cell_angle_alpha   89.99999807
_cell_angle_beta   89.97328653
_cell_angle_gamma   120.09563700
_symmetry_Int_Tables_number   1
_chemical_formula_structural   Er7Sn23IrOs5
_chemical_formula_sum   'Er7 Sn23 Ir1 Os5'
_cell_volume   847.21609080
_cell_formula_units_Z   1
loop_
 _symmetry_equiv_pos_site_id
 _symmetry_equiv_pos_as_xyz
  1  'x, y, z'
loop_
 _atom_site_type_symbol
 _atom_site_label
 _atom_site_symmetry_multiplicity
 _atom_site_fract_x
 _atom_site_fract_y
 _atom_site_fract_z
 _atom_site_occupancy
  Er  Er0  1  0.485610  0.513316  0.302502  1
  Er  Er1  1  0.513104  0.484199  0.695544  1
  Er  Er2  1  0.485610  0.972295  0.302502  1
  Er  Er3  1  0.513104  0.028904  0.695544  1
  Er  Er4  1  0.027294  0.513647  0.302297  1
  Er  Er5  1  0.969441  0.484720  0.696689  1
  Er  Er6  1  0.013625  0.006812  0.007218  1
  Sn  Sn7  1  0.116249  0.882764  0.281988  1
  Sn  Sn8  1  0.883019  0.116620  0.721486  1
  Sn  Sn9  1  0.116249  0.233486  0.281988  1
  Sn  Sn10  1  0.883019  0.766400  0.721486  1
  Sn  Sn11  1  0.762767  0.881383  0.274822  1
  Sn  Sn12  1  0.236516  0.118258  0.723862  1
  Sn  Sn13  1  0.778956  0.221057  0.463556  1
  Sn  Sn14  1  0.220303  0.777270  0.536384  1
  Sn  Sn15  1  0.778956  0.557899  0.463556  1
  Sn  Sn16  1  0.220303  0.443033  0.536384  1
  Sn  Sn17  1  0.442735  0.221368  0.462233  1
  Sn  Sn18  1  0.557577  0.778789  0.535026  1
  Sn  Sn19  1  0.351527  0.998884  0.000133  1
  Sn  Sn20  1  0.651984  0.001682  0.999083  1
  Sn  Sn21  1  0.000618  0.349796  0.000260  1
  Sn  Sn22  1  0.000618  0.650822  0.000260  1
  Sn  Sn23  1  0.651984  0.650302  0.999083  1
  Sn  Sn24  1  0.351527  0.352643  0.000133  1
  Sn  Sn25  1  0.333863  0.666932  0.131322  1
  Sn  Sn26  1  0.665701  0.332850  0.867591  1
  Sn  Sn27  1  0.329710  0.664855  0.824963  1
  Sn  Sn28  1  0.666170  0.333085  0.173444  1
  Sn  Sn29  1  0.997665  0.998833  0.501613  1
  Ir  Ir30  1  0.655857  0.827928  0.797382  1
  Os  Os31  1  0.829561  0.169869  0.202100  1
  Os  Os32  1  0.170640  0.830244  0.797711  1
  Os  Os33  1  0.829561  0.659694  0.202100  1
  Os  Os34  1  0.170640  0.340395  0.797711  1
  Os  Os35  1  0.337937  0.168970  0.200051  1
