# generated using pymatgen
data_TbNdHo6(Si3Ni)4
_symmetry_space_group_name_H-M   'P 1'
_cell_length_a   7.94713000
_cell_length_b   7.94713046
_cell_length_c   8.09200500
_cell_angle_alpha   90.00000000
_cell_angle_beta   90.00000000
_cell_angle_gamma   119.99999808
_symmetry_Int_Tables_number   1
_chemical_formula_structural   TbNdHo6(Si3Ni)4
_chemical_formula_sum   'Tb1 Nd1 Ho6 Si12 Ni4'
_cell_volume   442.59595694
_cell_formula_units_Z   1
loop_
 _symmetry_equiv_pos_site_id
 _symmetry_equiv_pos_as_xyz
  1  'x, y, z'
loop_
 _atom_site_type_symbol
 _atom_site_label
 _atom_site_symmetry_multiplicity
 _atom_site_fract_x
 _atom_site_fract_y
 _atom_site_fract_z
 _atom_site_occupancy
  Tb  Tb0  1  0.000000  0.000000  0.750000  1
  Nd  Nd1  1  0.000000  0.000000  0.250000  1
  Ho  Ho2  1  0.499812  0.500188  0.750000  1
  Ho  Ho3  1  0.500169  0.499831  0.250000  1
  Ho  Ho4  1  0.000377  0.500188  0.750000  1
  Ho  Ho5  1  0.999662  0.499831  0.250000  1
  Ho  Ho6  1  0.499812  0.999623  0.750000  1
  Ho  Ho7  1  0.500169  0.000338  0.250000  1
  Si  Si8  1  0.828459  0.171541  0.997563  1
  Si  Si9  1  0.171516  0.828484  0.997860  1
  Si  Si10  1  0.343084  0.171541  0.997563  1
  Si  Si11  1  0.171516  0.828484  0.502140  1
  Si  Si12  1  0.656968  0.828484  0.997860  1
  Si  Si13  1  0.828459  0.171541  0.502437  1
  Si  Si14  1  0.828459  0.656916  0.997563  1
  Si  Si15  1  0.656968  0.828484  0.502140  1
  Si  Si16  1  0.171516  0.343032  0.997860  1
  Si  Si17  1  0.343084  0.171541  0.502437  1
  Si  Si18  1  0.171516  0.343032  0.502140  1
  Si  Si19  1  0.828459  0.656916  0.502437  1
  Ni  Ni20  1  0.666667  0.333333  0.998221  1
  Ni  Ni21  1  0.333333  0.666667  0.000471  1
  Ni  Ni22  1  0.333333  0.666667  0.499529  1
  Ni  Ni23  1  0.666667  0.333333  0.501779  1
