# generated using pymatgen
data_Sr2ErUO6
_symmetry_space_group_name_H-M   'P 1'
_cell_length_a   5.96968088
_cell_length_b   6.08351000
_cell_length_c   8.51218419
_cell_angle_alpha   90.00000000
_cell_angle_beta   89.98997532
_cell_angle_gamma   90.00000000
_symmetry_Int_Tables_number   1
_chemical_formula_structural   Sr2ErUO6
_chemical_formula_sum   'Sr4 Er2 U2 O12'
_cell_volume   309.13369697
_cell_formula_units_Z   2
loop_
 _symmetry_equiv_pos_site_id
 _symmetry_equiv_pos_as_xyz
  1  'x, y, z'
loop_
 _atom_site_type_symbol
 _atom_site_label
 _atom_site_symmetry_multiplicity
 _atom_site_fract_x
 _atom_site_fract_y
 _atom_site_fract_z
 _atom_site_occupancy
  Sr  Sr0  1  0.509384  0.540771  0.249357  1
  Sr  Sr1  1  0.990616  0.040769  0.250643  1
  Sr  Sr2  1  0.009383  0.959230  0.749357  1
  Sr  Sr3  1  0.490617  0.459230  0.750643  1
  Er  Er4  1  0.500000  0.000000  0.000000  1
  Er  Er5  1  0.000001  0.500000  0.500000  1
  U  U6  1  0.000000  0.500000  0.000000  1
  U  U7  1  0.500000  0.000000  0.500000  1
  O  O8  1  0.708465  0.301503  0.048442  1
  O  O9  1  0.802059  0.790274  0.052333  1
  O  O10  1  0.095027  0.465656  0.244629  1
  O  O11  1  0.404973  0.965656  0.255371  1
  O  O12  1  0.697942  0.290274  0.447667  1
  O  O13  1  0.791534  0.801504  0.451558  1
  O  O14  1  0.208465  0.198497  0.548442  1
  O  O15  1  0.302059  0.709725  0.552333  1
  O  O16  1  0.595028  0.034344  0.744628  1
  O  O17  1  0.904974  0.534344  0.755372  1
  O  O18  1  0.197942  0.209726  0.947667  1
  O  O19  1  0.291536  0.698497  0.951558  1
