# generated using pymatgen
data_CsMnBiTe3
_symmetry_space_group_name_H-M   'P 1'
_cell_length_a   8.89962080
_cell_length_b   8.89962020
_cell_length_c   12.03221000
_cell_angle_alpha   90.00000000
_cell_angle_beta   90.00000000
_cell_angle_gamma   150.21247254
_symmetry_Int_Tables_number   1
_chemical_formula_structural   CsMnBiTe3
_chemical_formula_sum   'Cs2 Mn2 Bi2 Te6'
_cell_volume   473.43122110
_cell_formula_units_Z   2
loop_
 _symmetry_equiv_pos_site_id
 _symmetry_equiv_pos_as_xyz
  1  'x, y, z'
loop_
 _atom_site_type_symbol
 _atom_site_label
 _atom_site_symmetry_multiplicity
 _atom_site_fract_x
 _atom_site_fract_y
 _atom_site_fract_z
 _atom_site_occupancy
  Cs  Cs0  1  0.255704  0.744296  0.250000  1
  Cs  Cs1  1  0.744296  0.255704  0.750000  1
  Mn  Mn2  1  0.538297  0.461703  0.250000  1
  Mn  Mn3  1  0.461703  0.538297  0.750000  1
  Bi  Bi4  1  0.000000  0.000000  0.500000  1
  Bi  Bi5  1  0.000000  0.000000  0.000000  1
  Te  Te6  1  0.621421  0.378579  0.442210  1
  Te  Te7  1  0.378579  0.621421  0.557790  1
  Te  Te8  1  0.621421  0.378579  0.057790  1
  Te  Te9  1  0.378579  0.621421  0.942210  1
  Te  Te10  1  0.942319  0.057681  0.250000  1
  Te  Te11  1  0.057681  0.942319  0.750000  1
