# generated using pymatgen
data_LaHo3(Si5Os3)2
_symmetry_space_group_name_H-M   'P 1'
_cell_length_a   8.17482687
_cell_length_b   8.16216539
_cell_length_c   5.82363771
_cell_angle_alpha   70.57830048
_cell_angle_beta   70.38697381
_cell_angle_gamma   93.92453513
_symmetry_Int_Tables_number   1
_chemical_formula_structural   LaHo3(Si5Os3)2
_chemical_formula_sum   'La1 Ho3 Si10 Os6'
_cell_volume   338.03999168
_cell_formula_units_Z   1
loop_
 _symmetry_equiv_pos_site_id
 _symmetry_equiv_pos_as_xyz
  1  'x, y, z'
loop_
 _atom_site_type_symbol
 _atom_site_label
 _atom_site_symmetry_multiplicity
 _atom_site_fract_x
 _atom_site_fract_y
 _atom_site_fract_z
 _atom_site_occupancy
  La  La0  1  0.867816  0.602306  0.755560  1
  Ho  Ho1  1  0.398954  0.130642  0.746726  1
  Ho  Ho2  1  0.131444  0.398228  0.245958  1
  Ho  Ho3  1  0.602250  0.867320  0.253700  1
  Si  Si4  1  0.069643  0.261496  0.833483  1
  Si  Si5  1  0.737137  0.938627  0.664925  1
  Si  Si6  1  0.934771  0.739826  0.165493  1
  Si  Si7  1  0.259745  0.066683  0.333852  1
  Si  Si8  1  0.210367  0.796260  0.749558  1
  Si  Si9  1  0.792397  0.206775  0.248748  1
  Si  Si10  1  0.508478  0.484570  0.753489  1
  Si  Si11  1  0.485053  0.510961  0.250961  1
  Si  Si12  1  0.772677  0.222580  0.750833  1
  Si  Si13  1  0.229693  0.773443  0.246244  1
  Os  Os14  1  0.257780  0.544419  0.632102  1
  Os  Os15  1  0.457588  0.744319  0.866248  1
  Os  Os16  1  0.742315  0.455086  0.370924  1
  Os  Os17  1  0.541093  0.252283  0.132776  1
  Os  Os18  1  0.003305  0.999488  0.749598  1
  Os  Os19  1  0.997496  0.004687  0.248821  1
