# generated using pymatgen
data_Pm3Au4
_symmetry_space_group_name_H-M   'P 1'
_cell_length_a   5.99705628
_cell_length_b   4.23761105
_cell_length_c   10.39668778
_cell_angle_alpha   127.77360187
_cell_angle_beta   59.35749130
_cell_angle_gamma   109.94464564
_symmetry_Int_Tables_number   1
_chemical_formula_structural   Pm3Au4
_chemical_formula_sum   'Pm3 Au4'
_cell_volume   179.51929556
_cell_formula_units_Z   1
loop_
 _symmetry_equiv_pos_site_id
 _symmetry_equiv_pos_as_xyz
  1  'x, y, z'
loop_
 _atom_site_type_symbol
 _atom_site_label
 _atom_site_symmetry_multiplicity
 _atom_site_fract_x
 _atom_site_fract_y
 _atom_site_fract_z
 _atom_site_occupancy
  Pm  Pm0  1  0.255818  0.357501  0.007855  1
  Pm  Pm1  1  0.561862  0.550098  0.364386  1
  Pm  Pm2  1  0.950008  0.164834  0.651448  1
  Au  Au3  1  0.484648  0.447297  0.661919  1
  Au  Au4  1  0.674990  0.959451  0.935340  1
  Au  Au5  1  0.836497  0.755600  0.080553  1
  Au  Au6  1  0.027341  0.267215  0.353836  1
