# generated using pymatgen
data_Ti5Si2AsO
_symmetry_space_group_name_H-M   'P 1'
_cell_length_a   7.45837000
_cell_length_b   7.44362496
_cell_length_c   5.18673900
_cell_angle_alpha   90.00000000
_cell_angle_beta   90.00000000
_cell_angle_gamma   120.06556694
_symmetry_Int_Tables_number   1
_chemical_formula_structural   Ti5Si2AsO
_chemical_formula_sum   'Ti10 Si4 As2 O2'
_cell_volume   249.21037462
_cell_formula_units_Z   2
loop_
 _symmetry_equiv_pos_site_id
 _symmetry_equiv_pos_as_xyz
  1  'x, y, z'
loop_
 _atom_site_type_symbol
 _atom_site_label
 _atom_site_symmetry_multiplicity
 _atom_site_fract_x
 _atom_site_fract_y
 _atom_site_fract_z
 _atom_site_occupancy
  Ti  Ti0  1  0.232543  0.000000  0.750000  1
  Ti  Ti1  1  0.767457  0.000000  0.250000  1
  Ti  Ti2  1  0.006123  0.241720  0.750000  1
  Ti  Ti3  1  0.993877  0.758280  0.250000  1
  Ti  Ti4  1  0.764403  0.758280  0.750000  1
  Ti  Ti5  1  0.235597  0.241720  0.250000  1
  Ti  Ti6  1  0.332776  0.665553  0.500000  1
  Ti  Ti7  1  0.667224  0.334447  0.500000  1
  Ti  Ti8  1  0.667224  0.334447  0.000000  1
  Ti  Ti9  1  0.332776  0.665553  0.000000  1
  Si  Si10  1  0.000065  0.592091  0.750000  1
  Si  Si11  1  0.999935  0.407909  0.250000  1
  Si  Si12  1  0.407974  0.407909  0.750000  1
  Si  Si13  1  0.592026  0.592091  0.250000  1
  As  As14  1  0.601557  0.000000  0.750000  1
  As  As15  1  0.398443  0.000000  0.250000  1
  O  O16  1  0.000000  0.000000  0.500000  1
  O  O17  1  0.000000  0.000000  0.000000  1
