# generated using pymatgen
data_Hf17ScNb2(Re3P)2
_symmetry_space_group_name_H-M   'P 1'
_cell_length_a   8.65790360
_cell_length_b   8.65790364
_cell_length_c   8.56031800
_cell_angle_alpha   90.00000000
_cell_angle_beta   90.00000000
_cell_angle_gamma   120.00499934
_symmetry_Int_Tables_number   1
_chemical_formula_structural   Hf17ScNb2(Re3P)2
_chemical_formula_sum   'Hf17 Sc1 Nb2 Re6 P2'
_cell_volume   555.67920324
_cell_formula_units_Z   1
loop_
 _symmetry_equiv_pos_site_id
 _symmetry_equiv_pos_as_xyz
  1  'x, y, z'
loop_
 _atom_site_type_symbol
 _atom_site_label
 _atom_site_symmetry_multiplicity
 _atom_site_fract_x
 _atom_site_fract_y
 _atom_site_fract_z
 _atom_site_occupancy
  Hf  Hf0  1  0.197311  0.802689  0.451010  1
  Hf  Hf1  1  0.197662  0.394253  0.450063  1
  Hf  Hf2  1  0.605747  0.802338  0.450063  1
  Hf  Hf3  1  0.802105  0.197895  0.549109  1
  Hf  Hf4  1  0.802756  0.605885  0.550271  1
  Hf  Hf5  1  0.394115  0.197244  0.550271  1
  Hf  Hf6  1  0.802105  0.197895  0.950891  1
  Hf  Hf7  1  0.802756  0.605885  0.949729  1
  Hf  Hf8  1  0.394115  0.197244  0.949729  1
  Hf  Hf9  1  0.197311  0.802689  0.048990  1
  Hf  Hf10  1  0.197662  0.394253  0.049937  1
  Hf  Hf11  1  0.605747  0.802338  0.049937  1
  Hf  Hf12  1  0.539179  0.078166  0.250000  1
  Hf  Hf13  1  0.921834  0.460821  0.250000  1
  Hf  Hf14  1  0.459561  0.540439  0.750000  1
  Hf  Hf15  1  0.460468  0.920459  0.750000  1
  Hf  Hf16  1  0.079541  0.539532  0.750000  1
  Sc  Sc17  1  0.541827  0.458173  0.250000  1
  Nb  Nb18  1  0.999980  0.000020  0.498959  1
  Nb  Nb19  1  0.999980  0.000020  0.001041  1
  Re  Re20  1  0.887421  0.112579  0.250000  1
  Re  Re21  1  0.887833  0.774436  0.250000  1
  Re  Re22  1  0.225564  0.112167  0.250000  1
  Re  Re23  1  0.112068  0.887932  0.750000  1
  Re  Re24  1  0.111944  0.225081  0.750000  1
  Re  Re25  1  0.774919  0.888056  0.750000  1
  P  P26  1  0.332112  0.667888  0.250000  1
  P  P27  1  0.666376  0.333624  0.750000  1
