# generated using pymatgen
data_Nd8ZrSc11Sn16
_symmetry_space_group_name_H-M   'P 1'
_cell_length_a   7.78759100
_cell_length_b   7.97820988
_cell_length_c   14.94805100
_cell_angle_alpha   90.00000000
_cell_angle_beta   90.00000000
_cell_angle_gamma   90.09017855
_symmetry_Int_Tables_number   1
_chemical_formula_structural   Nd8ZrSc11Sn16
_chemical_formula_sum   'Nd8 Zr1 Sc11 Sn16'
_cell_volume   928.73673658
_cell_formula_units_Z   1
loop_
 _symmetry_equiv_pos_site_id
 _symmetry_equiv_pos_as_xyz
  1  'x, y, z'
loop_
 _atom_site_type_symbol
 _atom_site_label
 _atom_site_symmetry_multiplicity
 _atom_site_fract_x
 _atom_site_fract_y
 _atom_site_fract_z
 _atom_site_occupancy
  Nd  Nd0  1  0.509114  0.324555  0.905810  1
  Nd  Nd1  1  0.009706  0.174798  0.594188  1
  Nd  Nd2  1  0.490301  0.675730  0.405898  1
  Nd  Nd3  1  0.989953  0.825696  0.094555  1
  Nd  Nd4  1  0.490301  0.675730  0.094102  1
  Nd  Nd5  1  0.989953  0.825696  0.405445  1
  Nd  Nd6  1  0.509114  0.324555  0.594190  1
  Nd  Nd7  1  0.009706  0.174798  0.905812  1
  Zr  Zr8  1  0.328576  0.007215  0.250000  1
  Sc  Sc9  1  0.343582  0.839133  0.872957  1
  Sc  Sc10  1  0.844222  0.662007  0.627885  1
  Sc  Sc11  1  0.655560  0.159924  0.372222  1
  Sc  Sc12  1  0.155949  0.338069  0.128750  1
  Sc  Sc13  1  0.655560  0.159924  0.127778  1
  Sc  Sc14  1  0.155949  0.338069  0.371250  1
  Sc  Sc15  1  0.343582  0.839133  0.627043  1
  Sc  Sc16  1  0.844222  0.662007  0.872115  1
  Sc  Sc17  1  0.172837  0.505701  0.750000  1
  Sc  Sc18  1  0.673480  0.994848  0.750000  1
  Sc  Sc19  1  0.827541  0.493208  0.250000  1
  Sn  Sn20  1  0.319677  0.043982  0.045554  1
  Sn  Sn21  1  0.820835  0.455085  0.456928  1
  Sn  Sn22  1  0.680434  0.955093  0.543081  1
  Sn  Sn23  1  0.179040  0.544869  0.957657  1
  Sn  Sn24  1  0.680434  0.955093  0.956919  1
  Sn  Sn25  1  0.179040  0.544869  0.542343  1
  Sn  Sn26  1  0.319677  0.043982  0.454446  1
  Sn  Sn27  1  0.820835  0.455085  0.043072  1
  Sn  Sn28  1  0.536193  0.627893  0.750000  1
  Sn  Sn29  1  0.037731  0.871847  0.750000  1
  Sn  Sn30  1  0.464411  0.372047  0.250000  1
  Sn  Sn31  1  0.962262  0.126211  0.250000  1
  Sn  Sn32  1  0.314317  0.146275  0.750000  1
  Sn  Sn33  1  0.814273  0.354043  0.750000  1
  Sn  Sn34  1  0.683919  0.854280  0.250000  1
  Sn  Sn35  1  0.187713  0.648550  0.250000  1
