# generated using pymatgen
data_TbErGa3Cu
_symmetry_space_group_name_H-M   'P 1'
_cell_length_a   4.36681560
_cell_length_b   4.36609402
_cell_length_c   7.21602070
_cell_angle_alpha   89.93082701
_cell_angle_beta   90.09668358
_cell_angle_gamma   120.03335319
_symmetry_Int_Tables_number   1
_chemical_formula_structural   TbErGa3Cu
_chemical_formula_sum   'Tb1 Er1 Ga3 Cu1'
_cell_volume   119.10764088
_cell_formula_units_Z   1
loop_
 _symmetry_equiv_pos_site_id
 _symmetry_equiv_pos_as_xyz
  1  'x, y, z'
loop_
 _atom_site_type_symbol
 _atom_site_label
 _atom_site_symmetry_multiplicity
 _atom_site_fract_x
 _atom_site_fract_y
 _atom_site_fract_z
 _atom_site_occupancy
  Tb  Tb0  1  0.999876  0.000101  0.260245  1
  Er  Er1  1  0.000146  0.000115  0.730005  1
  Ga  Ga2  1  0.333638  0.666553  0.483598  1
  Ga  Ga3  1  0.332908  0.666504  0.040055  1
  Ga  Ga4  1  0.666382  0.333093  0.948018  1
  Cu  Cu5  1  0.667051  0.333633  0.538079  1
