# generated using pymatgen
data_Y8Lu12Si15Sn
_symmetry_space_group_name_H-M   'P 1'
_cell_length_a   7.67478452
_cell_length_b   7.70365634
_cell_length_c   14.11308200
_cell_angle_alpha   89.75755979
_cell_angle_beta   90.02100780
_cell_angle_gamma   89.84185634
_symmetry_Int_Tables_number   1
_chemical_formula_structural   Y8Lu12Si15Sn
_chemical_formula_sum   'Y8 Lu12 Si15 Sn1'
_cell_volume   834.40977487
_cell_formula_units_Z   1
loop_
 _symmetry_equiv_pos_site_id
 _symmetry_equiv_pos_as_xyz
  1  'x, y, z'
loop_
 _atom_site_type_symbol
 _atom_site_label
 _atom_site_symmetry_multiplicity
 _atom_site_fract_x
 _atom_site_fract_y
 _atom_site_fract_z
 _atom_site_occupancy
  Y  Y0  1  0.989637  0.357345  0.207038  1
  Y  Y1  1  0.003636  0.645703  0.711344  1
  Y  Y2  1  0.135158  0.505800  0.464966  1
  Y  Y3  1  0.505849  0.853820  0.037896  1
  Y  Y4  1  0.856438  0.504111  0.958941  1
  Y  Y5  1  0.495103  0.143616  0.542163  1
  Y  Y6  1  0.356009  0.996094  0.790092  1
  Y  Y7  1  0.649775  0.997210  0.289029  1
  Lu  Lu8  1  0.180570  0.179619  0.999114  1
  Lu  Lu9  1  0.818528  0.823223  0.501902  1
  Lu  Lu10  1  0.322535  0.684492  0.248108  1
  Lu  Lu11  1  0.680202  0.320647  0.750353  1
  Lu  Lu12  1  0.136370  0.995961  0.376182  1
  Lu  Lu13  1  0.857595  0.993670  0.875154  1
  Lu  Lu14  1  0.492211  0.644749  0.626758  1
  Lu  Lu15  1  0.357209  0.505899  0.873889  1
  Lu  Lu16  1  0.506915  0.355461  0.122444  1
  Lu  Lu17  1  0.656932  0.504218  0.376240  1
  Lu  Lu18  1  0.005464  0.144778  0.624452  1
  Lu  Lu19  1  0.992817  0.854527  0.121520  1
  Si  Si20  1  0.648566  0.704747  0.816314  1
  Si  Si21  1  0.201897  0.852669  0.567647  1
  Si  Si22  1  0.149330  0.795217  0.932807  1
  Si  Si23  1  0.797071  0.148049  0.063643  1
  Si  Si24  1  0.849166  0.202108  0.434821  1
  Si  Si25  1  0.295396  0.351823  0.685344  1
  Si  Si26  1  0.703075  0.646942  0.182005  1
  Si  Si27  1  0.293757  0.046989  0.182445  1
  Si  Si28  1  0.705398  0.945084  0.687706  1
  Si  Si29  1  0.444809  0.795178  0.436907  1
  Si  Si30  1  0.205835  0.553588  0.062438  1
  Si  Si31  1  0.556892  0.205380  0.935947  1
  Si  Si32  1  0.791820  0.445331  0.565318  1
  Si  Si33  1  0.056672  0.294260  0.812732  1
  Si  Si34  1  0.946599  0.705418  0.311922  1
  Sn  Sn35  1  0.354762  0.296275  0.324419  1
