# generated using pymatgen
data_Ca10Ga4HgBi
_symmetry_space_group_name_H-M   'P 1'
_cell_length_a   9.40282108
_cell_length_b   9.40282145
_cell_length_c   9.40282078
_cell_angle_alpha   129.35850963
_cell_angle_beta   129.35850866
_cell_angle_gamma   74.43439696
_symmetry_Int_Tables_number   1
_chemical_formula_structural   Ca10Ga4HgBi
_chemical_formula_sum   'Ca10 Ga4 Hg1 Bi1'
_cell_volume   484.37980712
_cell_formula_units_Z   1
loop_
 _symmetry_equiv_pos_site_id
 _symmetry_equiv_pos_as_xyz
  1  'x, y, z'
loop_
 _atom_site_type_symbol
 _atom_site_label
 _atom_site_symmetry_multiplicity
 _atom_site_fract_x
 _atom_site_fract_y
 _atom_site_fract_z
 _atom_site_occupancy
  Ca  Ca0  1  0.498029  0.498029  0.000000  1
  Ca  Ca1  1  0.001971  0.001971  0.000000  1
  Ca  Ca2  1  0.534609  0.030193  0.846012  1
  Ca  Ca3  1  0.184181  0.688597  0.153988  1
  Ca  Ca4  1  0.030193  0.184181  0.495584  1
  Ca  Ca5  1  0.688597  0.534609  0.504416  1
  Ca  Ca6  1  0.469807  0.965391  0.153988  1
  Ca  Ca7  1  0.811403  0.315819  0.846012  1
  Ca  Ca8  1  0.965391  0.811403  0.495584  1
  Ca  Ca9  1  0.315819  0.469807  0.504416  1
  Ga  Ga10  1  0.886339  0.386339  0.272679  1
  Ga  Ga11  1  0.113661  0.613661  0.727321  1
  Ga  Ga12  1  0.386339  0.113661  0.500000  1
  Ga  Ga13  1  0.613661  0.886339  0.500000  1
  Hg  Hg14  1  0.750000  0.750000  0.000000  1
  Bi  Bi15  1  0.250000  0.250000  0.000000  1
