# generated using pymatgen
data_Eu2YCoSn6
_symmetry_space_group_name_H-M   'P 1'
_cell_length_a   8.43010549
_cell_length_b   8.43010657
_cell_length_c   13.45489600
_cell_angle_alpha   90.00000000
_cell_angle_beta   90.00000000
_cell_angle_gamma   147.48144063
_symmetry_Int_Tables_number   1
_chemical_formula_structural   Eu2YCoSn6
_chemical_formula_sum   'Eu4 Y2 Co2 Sn12'
_cell_volume   514.02433946
_cell_formula_units_Z   2
loop_
 _symmetry_equiv_pos_site_id
 _symmetry_equiv_pos_as_xyz
  1  'x, y, z'
loop_
 _atom_site_type_symbol
 _atom_site_label
 _atom_site_symmetry_multiplicity
 _atom_site_fract_x
 _atom_site_fract_y
 _atom_site_fract_z
 _atom_site_occupancy
  Eu  Eu0  1  0.901567  0.098433  0.094963  1
  Eu  Eu1  1  0.098433  0.901567  0.594963  1
  Eu  Eu2  1  0.098433  0.901567  0.905037  1
  Eu  Eu3  1  0.901567  0.098433  0.405037  1
  Y  Y4  1  0.900270  0.099730  0.750000  1
  Y  Y5  1  0.099730  0.900270  0.250000  1
  Co  Co6  1  0.294357  0.705643  0.250000  1
  Co  Co7  1  0.705643  0.294357  0.750000  1
  Sn  Sn8  1  0.755481  0.244519  0.571537  1
  Sn  Sn9  1  0.426099  0.573901  0.579030  1
  Sn  Sn10  1  0.573901  0.426099  0.420970  1
  Sn  Sn11  1  0.731843  0.268157  0.250000  1
  Sn  Sn12  1  0.268157  0.731843  0.750000  1
  Sn  Sn13  1  0.244519  0.755481  0.071537  1
  Sn  Sn14  1  0.244519  0.755481  0.428463  1
  Sn  Sn15  1  0.573901  0.426099  0.079030  1
  Sn  Sn16  1  0.454451  0.545549  0.250000  1
  Sn  Sn17  1  0.545549  0.454451  0.750000  1
  Sn  Sn18  1  0.755481  0.244519  0.928463  1
  Sn  Sn19  1  0.426099  0.573901  0.920970  1
