# generated using pymatgen
data_AcThSb5
_symmetry_space_group_name_H-M   'P 1'
_cell_length_a   4.35006500
_cell_length_b   13.81943458
_cell_length_c   15.39930360
_cell_angle_alpha   79.58378911
_cell_angle_beta   90.00000000
_cell_angle_gamma   90.00000000
_symmetry_Int_Tables_number   1
_chemical_formula_structural   AcThSb5
_chemical_formula_sum   'Ac4 Th4 Sb20'
_cell_volume   910.48009389
_cell_formula_units_Z   4
loop_
 _symmetry_equiv_pos_site_id
 _symmetry_equiv_pos_as_xyz
  1  'x, y, z'
loop_
 _atom_site_type_symbol
 _atom_site_label
 _atom_site_symmetry_multiplicity
 _atom_site_fract_x
 _atom_site_fract_y
 _atom_site_fract_z
 _atom_site_occupancy
  Ac  Ac0  1  0.250000  0.947787  0.364274  1
  Ac  Ac1  1  0.750000  0.052213  0.635726  1
  Ac  Ac2  1  0.250000  0.667236  0.859907  1
  Ac  Ac3  1  0.750000  0.332764  0.140093  1
  Th  Th4  1  0.250000  0.665064  0.570836  1
  Th  Th5  1  0.750000  0.334936  0.429164  1
  Th  Th6  1  0.250000  0.391466  0.764326  1
  Th  Th7  1  0.750000  0.608534  0.235674  1
  Sb  Sb8  1  0.250000  0.431586  0.549527  1
  Sb  Sb9  1  0.750000  0.568414  0.450473  1
  Sb  Sb10  1  0.250000  0.713086  0.074604  1
  Sb  Sb11  1  0.750000  0.286914  0.925396  1
  Sb  Sb12  1  0.250000  0.421676  0.969811  1
  Sb  Sb13  1  0.750000  0.578324  0.030189  1
  Sb  Sb14  1  0.250000  0.857075  0.680834  1
  Sb  Sb15  1  0.750000  0.142925  0.319166  1
  Sb  Sb16  1  0.250000  0.139180  0.179759  1
  Sb  Sb17  1  0.750000  0.860820  0.820241  1
  Sb  Sb18  1  0.250000  0.710104  0.346799  1
  Sb  Sb19  1  0.750000  0.289896  0.653201  1
  Sb  Sb20  1  0.250000  0.144924  0.779120  1
  Sb  Sb21  1  0.750000  0.855076  0.220880  1
  Sb  Sb22  1  0.250000  0.427888  0.274798  1
  Sb  Sb23  1  0.750000  0.572112  0.725202  1
  Sb  Sb24  1  0.250000  0.157526  0.474399  1
  Sb  Sb25  1  0.750000  0.842474  0.525601  1
  Sb  Sb26  1  0.250000  0.961722  0.102277  1
  Sb  Sb27  1  0.750000  0.038278  0.897723  1
