# generated using pymatgen
data_Dy3YLu4(B6Os)4
_symmetry_space_group_name_H-M   'P 1'
_cell_length_a   3.62120100
_cell_length_b   9.07925600
_cell_length_c   11.46942801
_cell_angle_alpha   89.99646461
_cell_angle_beta   90.00000000
_cell_angle_gamma   90.00000000
_symmetry_Int_Tables_number   1
_chemical_formula_structural   Dy3YLu4(B6Os)4
_chemical_formula_sum   'Dy3 Y1 Lu4 B24 Os4'
_cell_volume   377.08968463
_cell_formula_units_Z   1
loop_
 _symmetry_equiv_pos_site_id
 _symmetry_equiv_pos_as_xyz
  1  'x, y, z'
loop_
 _atom_site_type_symbol
 _atom_site_label
 _atom_site_symmetry_multiplicity
 _atom_site_fract_x
 _atom_site_fract_y
 _atom_site_fract_z
 _atom_site_occupancy
  Dy  Dy0  1  0.000000  0.678539  0.585948  1
  Dy  Dy1  1  0.000000  0.821492  0.085941  1
  Dy  Dy2  1  0.000000  0.178537  0.914056  1
  Y  Y3  1  0.000000  0.321203  0.414080  1
  Lu  Lu4  1  0.000000  0.944275  0.373025  1
  Lu  Lu5  1  0.000000  0.055642  0.627033  1
  Lu  Lu6  1  0.000000  0.444312  0.126941  1
  Lu  Lu7  1  0.000000  0.555709  0.873048  1
  B  B8  1  0.500000  0.554697  0.432848  1
  B  B9  1  0.500000  0.445602  0.567308  1
  B  B10  1  0.500000  0.054514  0.067144  1
  B  B11  1  0.500000  0.945482  0.932822  1
  B  B12  1  0.500000  0.749854  0.419471  1
  B  B13  1  0.500000  0.250139  0.580707  1
  B  B14  1  0.500000  0.249820  0.080488  1
  B  B15  1  0.500000  0.750208  0.919464  1
  B  B16  1  0.500000  0.792225  0.266070  1
  B  B17  1  0.500000  0.207786  0.733947  1
  B  B18  1  0.500000  0.292177  0.233757  1
  B  B19  1  0.500000  0.707817  0.766105  1
  B  B20  1  0.500000  0.630932  0.184389  1
  B  B21  1  0.500000  0.369124  0.815598  1
  B  B22  1  0.500000  0.130734  0.315469  1
  B  B23  1  0.500000  0.869112  0.684434  1
  B  B24  1  0.500000  0.982685  0.213729  1
  B  B25  1  0.500000  0.017268  0.786264  1
  B  B26  1  0.500000  0.482858  0.286142  1
  B  B27  1  0.500000  0.517322  0.713789  1
  B  B28  1  0.500000  0.604081  0.028598  1
  B  B29  1  0.500000  0.395946  0.971393  1
  B  B30  1  0.500000  0.103920  0.471438  1
  B  B31  1  0.500000  0.895957  0.528609  1
  Os  Os32  1  0.000000  0.638118  0.320231  1
  Os  Os33  1  0.000000  0.362027  0.679885  1
  Os  Os34  1  0.000000  0.137864  0.179485  1
  Os  Os35  1  0.000000  0.862024  0.820345  1
