# generated using pymatgen
data_CaY6BeI12
_symmetry_space_group_name_H-M   'P 1'
_cell_length_a   9.75117625
_cell_length_b   9.75117484
_cell_length_c   9.75117456
_cell_angle_alpha   107.02872420
_cell_angle_beta   107.02871967
_cell_angle_gamma   107.02871733
_symmetry_Int_Tables_number   1
_chemical_formula_structural   CaY6BeI12
_chemical_formula_sum   'Ca1 Y6 Be1 I12'
_cell_volume   771.57074573
_cell_formula_units_Z   1
loop_
 _symmetry_equiv_pos_site_id
 _symmetry_equiv_pos_as_xyz
  1  'x, y, z'
loop_
 _atom_site_type_symbol
 _atom_site_label
 _atom_site_symmetry_multiplicity
 _atom_site_fract_x
 _atom_site_fract_y
 _atom_site_fract_z
 _atom_site_occupancy
  Ca  Ca0  1  0.500000  0.500000  0.500000  1
  Y  Y1  1  0.703169  0.977794  0.905662  1
  Y  Y2  1  0.977794  0.905662  0.703169  1
  Y  Y3  1  0.094338  0.296831  0.022206  1
  Y  Y4  1  0.296831  0.022206  0.094338  1
  Y  Y5  1  0.905662  0.703169  0.977794  1
  Y  Y6  1  0.022206  0.094338  0.296831  1
  Be  Be7  1  0.000000  0.000000  0.000000  1
  I  I8  1  0.073986  0.226105  0.678140  1
  I  I9  1  0.376571  0.147851  0.454596  1
  I  I10  1  0.623429  0.852149  0.545404  1
  I  I11  1  0.226105  0.678140  0.073986  1
  I  I12  1  0.773895  0.321860  0.926014  1
  I  I13  1  0.678140  0.073986  0.226105  1
  I  I14  1  0.545404  0.623429  0.852149  1
  I  I15  1  0.852149  0.545404  0.623429  1
  I  I16  1  0.926014  0.773895  0.321860  1
  I  I17  1  0.321860  0.926014  0.773895  1
  I  I18  1  0.454596  0.376571  0.147851  1
  I  I19  1  0.147851  0.454596  0.376571  1
