# generated using pymatgen
data_Nd6Ga2Ge2Ir3Rh
_symmetry_space_group_name_H-M   'P 1'
_cell_length_a   5.76280139
_cell_length_b   8.15510528
_cell_length_c   13.57556729
_cell_angle_alpha   89.80150983
_cell_angle_beta   89.82951447
_cell_angle_gamma   90.00253848
_symmetry_Int_Tables_number   1
_chemical_formula_structural   Nd6Ga2Ge2Ir3Rh
_chemical_formula_sum   'Nd12 Ga4 Ge4 Ir6 Rh2'
_cell_volume   637.99412845
_cell_formula_units_Z   2
loop_
 _symmetry_equiv_pos_site_id
 _symmetry_equiv_pos_as_xyz
  1  'x, y, z'
loop_
 _atom_site_type_symbol
 _atom_site_label
 _atom_site_symmetry_multiplicity
 _atom_site_fract_x
 _atom_site_fract_y
 _atom_site_fract_z
 _atom_site_occupancy
  Nd  Nd0  1  0.633396  0.253986  0.251086  1
  Nd  Nd1  1  0.366604  0.746014  0.748914  1
  Nd  Nd2  1  0.368120  0.756384  0.250914  1
  Nd  Nd3  1  0.631880  0.243616  0.749086  1
  Nd  Nd4  1  0.153284  0.397081  0.100037  1
  Nd  Nd5  1  0.846716  0.602919  0.899963  1
  Nd  Nd6  1  0.850856  0.602806  0.600903  1
  Nd  Nd7  1  0.850744  0.895110  0.399586  1
  Nd  Nd8  1  0.149144  0.397194  0.399097  1
  Nd  Nd9  1  0.149256  0.104890  0.600414  1
  Nd  Nd10  1  0.147524  0.101843  0.898988  1
  Nd  Nd11  1  0.852476  0.898157  0.101012  1
  Ga  Ga12  1  0.628036  0.250014  0.998355  1
  Ga  Ga13  1  0.371964  0.749986  0.001645  1
  Ga  Ga14  1  0.373566  0.750388  0.500190  1
  Ga  Ga15  1  0.626434  0.249612  0.499810  1
  Ge  Ge16  1  0.137318  0.110553  0.249924  1
  Ge  Ge17  1  0.862682  0.889447  0.750076  1
  Ge  Ge18  1  0.863113  0.610126  0.249254  1
  Ge  Ge19  1  0.136887  0.389874  0.750746  1
  Ir  Ir20  1  0.363118  0.030155  0.092577  1
  Ir  Ir21  1  0.636882  0.969845  0.907423  1
  Ir  Ir22  1  0.638764  0.971297  0.593027  1
  Ir  Ir23  1  0.639602  0.528523  0.407516  1
  Ir  Ir24  1  0.361236  0.028703  0.406973  1
  Ir  Ir25  1  0.360398  0.471477  0.592484  1
  Rh  Rh26  1  0.359652  0.474738  0.907164  1
  Rh  Rh27  1  0.640348  0.525262  0.092836  1
