# generated using pymatgen
data_Ho5Er11(In3Tc)2
_symmetry_space_group_name_H-M   'P 1'
_cell_length_a   10.34103403
_cell_length_b   10.34260054
_cell_length_c   6.99958165
_cell_angle_alpha   90.03681364
_cell_angle_beta   90.00848923
_cell_angle_gamma   119.98566131
_symmetry_Int_Tables_number   1
_chemical_formula_structural   Ho5Er11(In3Tc)2
_chemical_formula_sum   'Ho5 Er11 In6 Tc2'
_cell_volume   648.42389700
_cell_formula_units_Z   1
loop_
 _symmetry_equiv_pos_site_id
 _symmetry_equiv_pos_as_xyz
  1  'x, y, z'
loop_
 _atom_site_type_symbol
 _atom_site_label
 _atom_site_symmetry_multiplicity
 _atom_site_fract_x
 _atom_site_fract_y
 _atom_site_fract_z
 _atom_site_occupancy
  Ho  Ho0  1  0.530558  0.060824  0.796157  1
  Ho  Ho1  1  0.939176  0.469556  0.796107  1
  Ho  Ho2  1  0.530464  0.469646  0.796445  1
  Ho  Ho3  1  0.469469  0.938841  0.296220  1
  Ho  Ho4  1  0.061123  0.530516  0.296207  1
  Er  Er5  1  0.469390  0.530720  0.296549  1
  Er  Er6  1  0.822172  0.644615  0.499990  1
  Er  Er7  1  0.355421  0.177786  0.499951  1
  Er  Er8  1  0.822504  0.177605  0.500028  1
  Er  Er9  1  0.177890  0.355441  0.000251  1
  Er  Er10  1  0.644612  0.822230  0.000339  1
  Er  Er11  1  0.177574  0.822412  0.000037  1
  Er  Er12  1  0.666569  0.333437  0.166424  1
  Er  Er13  1  0.333336  0.666544  0.665986  1
  Er  Er14  1  0.999947  0.000038  0.776112  1
  Er  Er15  1  0.999957  0.000087  0.276025  1
  In  In16  1  0.837351  0.674684  0.038717  1
  In  In17  1  0.325295  0.162645  0.038770  1
  In  In18  1  0.837446  0.162769  0.038727  1
  In  In19  1  0.162994  0.325464  0.538496  1
  In  In20  1  0.674380  0.837106  0.538638  1
  In  In21  1  0.162649  0.837341  0.538677  1
  Tc  Tc22  1  0.666587  0.333065  0.570671  1
  Tc  Tc23  1  0.333133  0.666626  0.070381  1
