# generated using pymatgen
data_DyHo2Al3FeGe2
_symmetry_space_group_name_H-M   'P 1'
_cell_length_a   6.91080400
_cell_length_b   6.91457517
_cell_length_c   4.17544500
_cell_angle_alpha   90.00000000
_cell_angle_beta   90.00000000
_cell_angle_gamma   119.98196014
_symmetry_Int_Tables_number   1
_chemical_formula_structural   DyHo2Al3FeGe2
_chemical_formula_sum   'Dy1 Ho2 Al3 Fe1 Ge2'
_cell_volume   172.82493227
_cell_formula_units_Z   1
loop_
 _symmetry_equiv_pos_site_id
 _symmetry_equiv_pos_as_xyz
  1  'x, y, z'
loop_
 _atom_site_type_symbol
 _atom_site_label
 _atom_site_symmetry_multiplicity
 _atom_site_fract_x
 _atom_site_fract_y
 _atom_site_fract_z
 _atom_site_occupancy
  Dy  Dy0  1  0.405707  0.000000  0.000000  1
  Ho  Ho1  1  0.000053  0.405527  0.000000  1
  Ho  Ho2  1  0.594525  0.594472  0.000000  1
  Al  Al3  1  0.775490  0.000000  0.499999  1
  Al  Al4  1  0.224565  0.224804  0.499999  1
  Al  Al5  1  0.999762  0.775197  0.499999  1
  Fe  Fe6  1  0.999823  0.000000  0.000000  1
  Ge  Ge7  1  0.666905  0.333738  0.499999  1
  Ge  Ge8  1  0.333169  0.666263  0.499999  1
