# generated using pymatgen
data_Dy17Ho3(GaBi2)4
_symmetry_space_group_name_H-M   'P 1'
_cell_length_a   8.10114301
_cell_length_b   9.32263001
_cell_length_c   12.03190601
_cell_angle_alpha   89.99589968
_cell_angle_beta   90.00370536
_cell_angle_gamma   89.99646191
_symmetry_Int_Tables_number   1
_chemical_formula_structural   Dy17Ho3(GaBi2)4
_chemical_formula_sum   'Dy17 Ho3 Ga4 Bi8'
_cell_volume   908.69716964
_cell_formula_units_Z   1
loop_
 _symmetry_equiv_pos_site_id
 _symmetry_equiv_pos_as_xyz
  1  'x, y, z'
loop_
 _atom_site_type_symbol
 _atom_site_label
 _atom_site_symmetry_multiplicity
 _atom_site_fract_x
 _atom_site_fract_y
 _atom_site_fract_z
 _atom_site_occupancy
  Dy  Dy0  1  0.819706  0.553652  0.062342  1
  Dy  Dy1  1  0.680272  0.946335  0.562323  1
  Dy  Dy2  1  0.180296  0.053572  0.937624  1
  Dy  Dy3  1  0.319709  0.446377  0.437683  1
  Dy  Dy4  1  0.180264  0.446402  0.937628  1
  Dy  Dy5  1  0.174231  0.750044  0.218094  1
  Dy  Dy6  1  0.325765  0.749989  0.718082  1
  Dy  Dy7  1  0.825772  0.250025  0.781909  1
  Dy  Dy8  1  0.674289  0.249940  0.281890  1
  Dy  Dy9  1  0.463185  0.749991  0.003577  1
  Dy  Dy10  1  0.036888  0.750038  0.503548  1
  Dy  Dy11  1  0.536890  0.249923  0.996451  1
  Dy  Dy12  1  0.963150  0.250045  0.496428  1
  Dy  Dy13  1  0.644810  0.749990  0.294858  1
  Dy  Dy14  1  0.855238  0.750001  0.794879  1
  Dy  Dy15  1  0.355218  0.249948  0.705103  1
  Dy  Dy16  1  0.144695  0.249956  0.205168  1
  Ho  Ho17  1  0.319798  0.053646  0.437653  1
  Ho  Ho18  1  0.819841  0.946400  0.062342  1
  Ho  Ho19  1  0.680159  0.553652  0.562368  1
  Ga  Ga20  1  0.404900  0.750079  0.475945  1
  Ga  Ga21  1  0.095010  0.750121  0.975986  1
  Ga  Ga22  1  0.595089  0.250090  0.524071  1
  Ga  Ga23  1  0.904828  0.249806  0.024120  1
  Bi  Bi24  1  0.937342  0.509614  0.324447  1
  Bi  Bi25  1  0.562649  0.990381  0.824450  1
  Bi  Bi26  1  0.062673  0.009592  0.675551  1
  Bi  Bi27  1  0.437311  0.490401  0.175577  1
  Bi  Bi28  1  0.062603  0.490402  0.675527  1
  Bi  Bi29  1  0.437342  0.009596  0.175580  1
  Bi  Bi30  1  0.937356  0.990375  0.324421  1
  Bi  Bi31  1  0.562722  0.509616  0.824375  1
