# generated using pymatgen
data_Nb12CoSi7(OsC)4
_symmetry_space_group_name_H-M   'P 1'
_cell_length_a   8.19360189
_cell_length_b   8.19356172
_cell_length_c   8.19353170
_cell_angle_alpha   60.28894333
_cell_angle_beta   60.28907493
_cell_angle_gamma   60.28912496
_symmetry_Int_Tables_number   1
_chemical_formula_structural   Nb12CoSi7(OsC)4
_chemical_formula_sum   'Nb12 Co1 Si7 Os4 C4'
_cell_volume   391.50324423
_cell_formula_units_Z   1
loop_
 _symmetry_equiv_pos_site_id
 _symmetry_equiv_pos_as_xyz
  1  'x, y, z'
loop_
 _atom_site_type_symbol
 _atom_site_label
 _atom_site_symmetry_multiplicity
 _atom_site_fract_x
 _atom_site_fract_y
 _atom_site_fract_z
 _atom_site_occupancy
  Nb  Nb0  1  0.694733  0.303997  0.694761  1
  Nb  Nb1  1  0.941185  0.559183  0.559169  1
  Nb  Nb2  1  0.557545  0.942512  0.942512  1
  Nb  Nb3  1  0.942507  0.557550  0.942509  1
  Nb  Nb4  1  0.559175  0.559158  0.941199  1
  Nb  Nb5  1  0.942506  0.942509  0.557551  1
  Nb  Nb6  1  0.694738  0.694755  0.303990  1
  Nb  Nb7  1  0.304008  0.694740  0.694751  1
  Nb  Nb8  1  0.689055  0.309981  0.309980  1
  Nb  Nb9  1  0.309993  0.309996  0.689048  1
  Nb  Nb10  1  0.559187  0.941192  0.559157  1
  Nb  Nb11  1  0.309988  0.689051  0.309989  1
  Co  Co12  1  0.914285  0.914294  0.914307  1
  Si  Si13  1  0.335495  0.335513  0.335533  1
  Si  Si14  1  0.248923  0.913988  0.913974  1
  Si  Si15  1  0.914006  0.248914  0.913971  1
  Si  Si16  1  0.914002  0.913982  0.248904  1
  Si  Si17  1  0.336219  0.992808  0.336223  1
  Si  Si18  1  0.336214  0.336218  0.992821  1
  Si  Si19  1  0.992794  0.336225  0.336226  1
  Os  Os20  1  0.125294  0.125289  0.125285  1
  Os  Os21  1  0.618446  0.129090  0.129089  1
  Os  Os22  1  0.129086  0.618437  0.129084  1
  Os  Os23  1  0.129079  0.129080  0.618434  1
  C  C24  1  0.624840  0.624834  0.624832  1
  C  C25  1  0.122608  0.627052  0.627049  1
  C  C26  1  0.627046  0.122612  0.627043  1
  C  C27  1  0.627042  0.627041  0.122609  1
