# generated using pymatgen
data_SmCuAu(SO4)4
_symmetry_space_group_name_H-M   'P 1'
_cell_length_a   6.38329249
_cell_length_b   6.38329601
_cell_length_c   8.79105429
_cell_angle_alpha   74.93934361
_cell_angle_beta   74.93924919
_cell_angle_gamma   88.73633580
_symmetry_Int_Tables_number   1
_chemical_formula_structural   SmCuAu(SO4)4
_chemical_formula_sum   'Sm1 Cu1 Au1 S4 O16'
_cell_volume   333.62172600
_cell_formula_units_Z   1
loop_
 _symmetry_equiv_pos_site_id
 _symmetry_equiv_pos_as_xyz
  1  'x, y, z'
loop_
 _atom_site_type_symbol
 _atom_site_label
 _atom_site_symmetry_multiplicity
 _atom_site_fract_x
 _atom_site_fract_y
 _atom_site_fract_z
 _atom_site_occupancy
  Sm  Sm0  1  0.000000  0.000000  0.000000  1
  Cu  Cu1  1  0.500000  0.500000  0.500000  1
  Au  Au2  1  0.000000  0.000000  0.500000  1
  S  S3  1  0.090899  0.587778  0.741564  1
  S  S4  1  0.587777  0.090899  0.741564  1
  S  S5  1  0.909101  0.412222  0.258436  1
  S  S6  1  0.412223  0.909101  0.258436  1
  O  O7  1  0.329474  0.625288  0.670764  1
  O  O8  1  0.625287  0.329474  0.670764  1
  O  O9  1  0.670526  0.374712  0.329236  1
  O  O10  1  0.374713  0.670526  0.329236  1
  O  O11  1  0.020821  0.707863  0.865744  1
  O  O12  1  0.707863  0.020822  0.865743  1
  O  O13  1  0.979179  0.292137  0.134256  1
  O  O14  1  0.292137  0.979178  0.134257  1
  O  O15  1  0.976354  0.673255  0.603693  1
  O  O16  1  0.673254  0.976355  0.603693  1
  O  O17  1  0.023646  0.326745  0.396307  1
  O  O18  1  0.326746  0.023645  0.396307  1
  O  O19  1  0.026550  0.355558  0.800680  1
  O  O20  1  0.355558  0.026551  0.800681  1
  O  O21  1  0.973450  0.644442  0.199320  1
  O  O22  1  0.644442  0.973449  0.199319  1
