# generated using pymatgen
data_Dy4Y4Re(B8Ru)3
_symmetry_space_group_name_H-M   'P 1'
_cell_length_a   3.67398800
_cell_length_b   9.15891430
_cell_length_c   11.55082316
_cell_angle_alpha   89.85551440
_cell_angle_beta   90.00000000
_cell_angle_gamma   90.00000000
_symmetry_Int_Tables_number   1
_chemical_formula_structural   Dy4Y4Re(B8Ru)3
_chemical_formula_sum   'Dy4 Y4 Re1 B24 Ru3'
_cell_volume   388.68097439
_cell_formula_units_Z   1
loop_
 _symmetry_equiv_pos_site_id
 _symmetry_equiv_pos_as_xyz
  1  'x, y, z'
loop_
 _atom_site_type_symbol
 _atom_site_label
 _atom_site_symmetry_multiplicity
 _atom_site_fract_x
 _atom_site_fract_y
 _atom_site_fract_z
 _atom_site_occupancy
  Dy  Dy0  1  0.000000  0.944336  0.372477  1
  Dy  Dy1  1  0.000000  0.057166  0.628631  1
  Dy  Dy2  1  0.000000  0.443771  0.127632  1
  Dy  Dy3  1  0.000000  0.556708  0.871051  1
  Y  Y4  1  0.000000  0.324185  0.413296  1
  Y  Y5  1  0.000000  0.676627  0.583617  1
  Y  Y6  1  0.000000  0.820634  0.088177  1
  Y  Y7  1  0.000000  0.176413  0.914786  1
  Re  Re8  1  0.000000  0.637870  0.321265  1
  B  B9  1  0.500000  0.552782  0.433076  1
  B  B10  1  0.500000  0.446181  0.567819  1
  B  B11  1  0.500000  0.053849  0.067319  1
  B  B12  1  0.500000  0.946054  0.932977  1
  B  B13  1  0.500000  0.748364  0.419239  1
  B  B14  1  0.500000  0.252191  0.580821  1
  B  B15  1  0.500000  0.247859  0.080364  1
  B  B16  1  0.500000  0.751981  0.919370  1
  B  B17  1  0.500000  0.792009  0.266424  1
  B  B18  1  0.500000  0.208922  0.733670  1
  B  B19  1  0.500000  0.290831  0.232617  1
  B  B20  1  0.500000  0.709545  0.766430  1
  B  B21  1  0.500000  0.631754  0.185680  1
  B  B22  1  0.500000  0.367606  0.814638  1
  B  B23  1  0.500000  0.132180  0.313984  1
  B  B24  1  0.500000  0.868563  0.685684  1
  B  B25  1  0.500000  0.984007  0.212865  1
  B  B26  1  0.500000  0.016157  0.787789  1
  B  B27  1  0.500000  0.482711  0.287156  1
  B  B28  1  0.500000  0.515786  0.712728  1
  B  B29  1  0.500000  0.607778  0.029107  1
  B  B30  1  0.500000  0.391226  0.969404  1
  B  B31  1  0.500000  0.108923  0.470429  1
  B  B32  1  0.500000  0.893351  0.530463  1
  Ru  Ru33  1  0.000000  0.361708  0.679405  1
  Ru  Ru34  1  0.000000  0.137887  0.178540  1
  Ru  Ru35  1  0.000000  0.862082  0.821073  1
