# generated using pymatgen
data_Rb6PaO6
_symmetry_space_group_name_H-M   'P 1'
_cell_length_a   6.82953928
_cell_length_b   6.82953915
_cell_length_c   6.82953900
_cell_angle_alpha   98.86564746
_cell_angle_beta   98.86564729
_cell_angle_gamma   98.86564125
_symmetry_Int_Tables_number   1
_chemical_formula_structural   Rb6PaO6
_chemical_formula_sum   'Rb6 Pa1 O6'
_cell_volume   305.77599973
_cell_formula_units_Z   1
loop_
 _symmetry_equiv_pos_site_id
 _symmetry_equiv_pos_as_xyz
  1  'x, y, z'
loop_
 _atom_site_type_symbol
 _atom_site_label
 _atom_site_symmetry_multiplicity
 _atom_site_fract_x
 _atom_site_fract_y
 _atom_site_fract_z
 _atom_site_occupancy
  Rb  Rb0  1  0.568793  0.272870  0.118879  1
  Rb  Rb1  1  0.118878  0.568792  0.272869  1
  Rb  Rb2  1  0.727133  0.881121  0.431208  1
  Rb  Rb3  1  0.272869  0.118879  0.568793  1
  Rb  Rb4  1  0.881123  0.431207  0.727132  1
  Rb  Rb5  1  0.431208  0.727133  0.881120  1
  Pa  Pa6  1  0.000000  0.000000  0.000000  1
  O  O7  1  0.826234  0.721876  0.054275  1
  O  O8  1  0.278124  0.945726  0.173765  1
  O  O9  1  0.945725  0.173766  0.278123  1
  O  O10  1  0.054275  0.826233  0.721877  1
  O  O11  1  0.721876  0.054275  0.826233  1
  O  O12  1  0.173767  0.278124  0.945725  1
