# generated using pymatgen
data_TbY3Sc3AlPt4
_symmetry_space_group_name_H-M   'P 1'
_cell_length_a   4.54192900
_cell_length_b   7.05746982
_cell_length_c   8.30074698
_cell_angle_alpha   86.97737764
_cell_angle_beta   90.00000000
_cell_angle_gamma   90.00000000
_symmetry_Int_Tables_number   1
_chemical_formula_structural   TbY3Sc3AlPt4
_chemical_formula_sum   'Tb1 Y3 Sc3 Al1 Pt4'
_cell_volume   265.70634913
_cell_formula_units_Z   1
loop_
 _symmetry_equiv_pos_site_id
 _symmetry_equiv_pos_as_xyz
  1  'x, y, z'
loop_
 _atom_site_type_symbol
 _atom_site_label
 _atom_site_symmetry_multiplicity
 _atom_site_fract_x
 _atom_site_fract_y
 _atom_site_fract_z
 _atom_site_occupancy
  Tb  Tb0  1  0.250000  0.522640  0.814845  1
  Y  Y1  1  0.250000  0.039466  0.672737  1
  Y  Y2  1  0.750000  0.987487  0.339718  1
  Y  Y3  1  0.750000  0.468349  0.183961  1
  Sc  Sc4  1  0.250000  0.133683  0.070547  1
  Sc  Sc5  1  0.250000  0.637197  0.434761  1
  Sc  Sc6  1  0.750000  0.865010  0.928695  1
  Al  Al7  1  0.750000  0.359355  0.568122  1
  Pt  Pt8  1  0.250000  0.264118  0.383842  1
  Pt  Pt9  1  0.250000  0.749391  0.099490  1
  Pt  Pt10  1  0.750000  0.728172  0.614659  1
  Pt  Pt11  1  0.750000  0.245130  0.888622  1
