# generated using pymatgen
data_Hf4Co7P6Ru
_symmetry_space_group_name_H-M   'P 1'
_cell_length_a   12.17245657
_cell_length_b   12.12886764
_cell_length_c   3.63913400
_cell_angle_alpha   90.00000000
_cell_angle_beta   90.00000000
_cell_angle_gamma   120.14538614
_symmetry_Int_Tables_number   1
_chemical_formula_structural   Hf4Co7P6Ru
_chemical_formula_sum   'Hf8 Co14 P12 Ru2'
_cell_volume   464.61054133
_cell_formula_units_Z   2
loop_
 _symmetry_equiv_pos_site_id
 _symmetry_equiv_pos_as_xyz
  1  'x, y, z'
loop_
 _atom_site_type_symbol
 _atom_site_label
 _atom_site_symmetry_multiplicity
 _atom_site_fract_x
 _atom_site_fract_y
 _atom_site_fract_z
 _atom_site_occupancy
  Hf  Hf0  1  0.447684  0.444585  0.000000  1
  Hf  Hf1  1  0.558051  0.002291  0.000000  1
  Hf  Hf2  1  0.993451  0.553083  0.000000  1
  Hf  Hf3  1  0.666319  0.333341  0.000000  1
  Hf  Hf4  1  0.335760  0.665452  0.000000  1
  Hf  Hf5  1  0.825287  0.826323  0.500000  1
  Hf  Hf6  1  0.174544  0.998777  0.500000  1
  Hf  Hf7  1  0.002848  0.175509  0.500000  1
  Co  Co8  1  0.197427  0.365669  0.000000  1
  Co  Co9  1  0.168064  0.805243  0.000000  1
  Co  Co10  1  0.819554  0.629801  0.000000  1
  Co  Co11  1  0.808917  0.178420  0.000000  1
  Co  Co12  1  0.371753  0.192712  0.000000  1
  Co  Co13  1  0.523021  0.647196  0.500000  1
  Co  Co14  1  0.645096  0.518373  0.500000  1
  Co  Co15  1  0.864550  0.355206  0.500000  1
  Co  Co16  1  0.490086  0.134532  0.500000  1
  Co  Co17  1  0.999837  0.000592  0.000000  1
  Co  Co18  1  0.723878  0.001599  0.500000  1
  Co  Co19  1  0.993799  0.720008  0.500000  1
  Co  Co20  1  0.631665  0.824477  0.000000  1
  Co  Co21  1  0.281612  0.277402  0.500000  1
  P  P22  1  0.655580  0.657200  0.000000  1
  P  P23  1  0.343259  0.000467  0.000000  1
  P  P24  1  0.000213  0.342337  0.000000  1
  P  P25  1  0.484044  0.310093  0.500000  1
  P  P26  1  0.691394  0.173111  0.500000  1
  P  P27  1  0.823675  0.517457  0.500000  1
  P  P28  1  0.520730  0.827581  0.500000  1
  P  P29  1  0.164874  0.686935  0.500000  1
  P  P30  1  0.826942  0.001266  0.000000  1
  P  P31  1  0.997294  0.826079  0.000000  1
  P  P32  1  0.316644  0.483481  0.500000  1
  P  P33  1  0.175733  0.172929  0.000000  1
  Ru  Ru34  1  0.123453  0.474867  0.500000  1
  Ru  Ru35  1  0.352961  0.875604  0.500000  1
