# generated using pymatgen
data_Eu2Si4PdPt3
_symmetry_space_group_name_H-M   'P 1'
_cell_length_a   4.29487100
_cell_length_b   4.29487100
_cell_length_c   9.90873100
_cell_angle_alpha   90.00000000
_cell_angle_beta   90.00000000
_cell_angle_gamma   90.00000000
_symmetry_Int_Tables_number   1
_chemical_formula_structural   Eu2Si4PdPt3
_chemical_formula_sum   'Eu2 Si4 Pd1 Pt3'
_cell_volume   182.77562868
_cell_formula_units_Z   1
loop_
 _symmetry_equiv_pos_site_id
 _symmetry_equiv_pos_as_xyz
  1  'x, y, z'
loop_
 _atom_site_type_symbol
 _atom_site_label
 _atom_site_symmetry_multiplicity
 _atom_site_fract_x
 _atom_site_fract_y
 _atom_site_fract_z
 _atom_site_occupancy
  Eu  Eu0  1  0.000000  0.500000  0.255383  1
  Eu  Eu1  1  0.500000  0.000000  0.744617  1
  Si  Si2  1  0.000000  0.000000  0.500000  1
  Si  Si3  1  0.500000  0.500000  0.500000  1
  Si  Si4  1  0.000000  0.500000  0.869689  1
  Si  Si5  1  0.500000  0.000000  0.130311  1
  Pd  Pd6  1  0.000000  0.000000  0.000000  1
  Pt  Pt7  1  0.500000  0.500000  0.000000  1
  Pt  Pt8  1  0.000000  0.500000  0.622489  1
  Pt  Pt9  1  0.500000  0.000000  0.377511  1
