# generated using pymatgen
data_Ho13Tm7Pb16
_symmetry_space_group_name_H-M   'P 1'
_cell_length_a   8.17121000
_cell_length_b   8.24153867
_cell_length_c   15.57479600
_cell_angle_alpha   90.00272521
_cell_angle_beta   90.00099569
_cell_angle_gamma   90.02291399
_symmetry_Int_Tables_number   1
_chemical_formula_structural   Ho13Tm7Pb16
_chemical_formula_sum   'Ho13 Tm7 Pb16'
_cell_volume   1048.85874696
_cell_formula_units_Z   1
loop_
 _symmetry_equiv_pos_site_id
 _symmetry_equiv_pos_as_xyz
  1  'x, y, z'
loop_
 _atom_site_type_symbol
 _atom_site_label
 _atom_site_symmetry_multiplicity
 _atom_site_fract_x
 _atom_site_fract_y
 _atom_site_fract_z
 _atom_site_occupancy
  Ho  Ho0  1  0.122849  0.341309  0.120980  1
  Ho  Ho1  1  0.622495  0.158762  0.121109  1
  Ho  Ho2  1  0.122713  0.341289  0.378966  1
  Ho  Ho3  1  0.377403  0.841311  0.621163  1
  Ho  Ho4  1  0.877452  0.658628  0.878844  1
  Ho  Ho5  1  0.537067  0.323647  0.900049  1
  Ho  Ho6  1  0.037145  0.176475  0.599928  1
  Ho  Ho7  1  0.462827  0.676570  0.400182  1
  Ho  Ho8  1  0.962981  0.823688  0.099885  1
  Ho  Ho9  1  0.462956  0.676517  0.099743  1
  Ho  Ho10  1  0.962995  0.823706  0.400291  1
  Ho  Ho11  1  0.537078  0.323690  0.599855  1
  Ho  Ho12  1  0.037036  0.176223  0.899983  1
  Tm  Tm13  1  0.377195  0.841431  0.878704  1
  Tm  Tm14  1  0.877099  0.658598  0.621189  1
  Tm  Tm15  1  0.622671  0.158526  0.378976  1
  Tm  Tm16  1  0.208835  0.504519  0.750006  1
  Tm  Tm17  1  0.708818  0.995582  0.749932  1
  Tm  Tm18  1  0.791038  0.495667  0.250192  1
  Tm  Tm19  1  0.291250  0.004308  0.250058  1
  Pb  Pb20  1  0.280999  0.032259  0.042619  1
  Pb  Pb21  1  0.780608  0.466900  0.457288  1
  Pb  Pb22  1  0.719499  0.966833  0.542688  1
  Pb  Pb23  1  0.219625  0.533508  0.956896  1
  Pb  Pb24  1  0.718449  0.966973  0.956893  1
  Pb  Pb25  1  0.218467  0.532982  0.543058  1
  Pb  Pb26  1  0.281616  0.032971  0.456834  1
  Pb  Pb27  1  0.780827  0.467237  0.043054  1
  Pb  Pb28  1  0.571629  0.626467  0.750060  1
  Pb  Pb29  1  0.071722  0.873426  0.749744  1
  Pb  Pb30  1  0.428635  0.373401  0.250361  1
  Pb  Pb31  1  0.927908  0.126117  0.250246  1
  Pb  Pb32  1  0.348927  0.154647  0.750129  1
  Pb  Pb33  1  0.848979  0.345339  0.749778  1
  Pb  Pb34  1  0.651163  0.845385  0.250227  1
  Pb  Pb35  1  0.151043  0.655112  0.250089  1
