# generated using pymatgen
data_Tm2LuIn3(TeO6)3
_symmetry_space_group_name_H-M   'P 1'
_cell_length_a   9.10446111
_cell_length_b   9.10446291
_cell_length_c   5.02750000
_cell_angle_alpha   90.07162239
_cell_angle_beta   89.92837759
_cell_angle_gamma   120.03876974
_symmetry_Int_Tables_number   1
_chemical_formula_structural   Tm2LuIn3(TeO6)3
_chemical_formula_sum   'Tm2 Lu1 In3 Te3 O18'
_cell_volume   360.76220828
_cell_formula_units_Z   1
loop_
 _symmetry_equiv_pos_site_id
 _symmetry_equiv_pos_as_xyz
  1  'x, y, z'
loop_
 _atom_site_type_symbol
 _atom_site_label
 _atom_site_symmetry_multiplicity
 _atom_site_fract_x
 _atom_site_fract_y
 _atom_site_fract_z
 _atom_site_occupancy
  Tm  Tm0  1  0.625926  0.999994  0.000124  1
  Tm  Tm1  1  0.999994  0.625926  0.999876  1
  Lu  Lu2  1  0.373570  0.373570  0.000000  1
  In  In3  1  0.292034  0.000057  0.499623  1
  In  In4  1  0.000057  0.292034  0.500377  1
  In  In5  1  0.707941  0.707941  0.500000  1
  Te  Te6  1  0.000929  0.000929  0.000000  1
  Te  Te7  1  0.333394  0.665697  0.505340  1
  Te  Te8  1  0.665697  0.333394  0.494660  1
  O  O9  1  0.088369  0.882732  0.785068  1
  O  O10  1  0.118897  0.207462  0.787123  1
  O  O11  1  0.794991  0.912773  0.785500  1
  O  O12  1  0.207462  0.118897  0.212877  1
  O  O13  1  0.912773  0.794991  0.214500  1
  O  O14  1  0.882732  0.088369  0.214932  1
  O  O15  1  0.457794  0.587907  0.726118  1
  O  O16  1  0.410136  0.868280  0.725117  1
  O  O17  1  0.130449  0.540691  0.723846  1
  O  O18  1  0.868280  0.410136  0.274883  1
  O  O19  1  0.540691  0.130449  0.276154  1
  O  O20  1  0.587907  0.457794  0.273882  1
  O  O21  1  0.223496  0.761547  0.286256  1
  O  O22  1  0.238606  0.460223  0.285194  1
  O  O23  1  0.539505  0.776601  0.287008  1
  O  O24  1  0.460223  0.238606  0.714806  1
  O  O25  1  0.776601  0.539505  0.712992  1
  O  O26  1  0.761547  0.223496  0.713744  1
