# generated using pymatgen
data_CdHgAsCl
_symmetry_space_group_name_H-M   'P 1'
_cell_length_a   4.79695200
_cell_length_b   10.01499900
_cell_length_c   10.96638400
_cell_angle_alpha   90.00000000
_cell_angle_beta   90.00000000
_cell_angle_gamma   90.00000000
_symmetry_Int_Tables_number   1
_chemical_formula_structural   CdHgAsCl
_chemical_formula_sum   'Cd4 Hg4 As4 Cl4'
_cell_volume   526.84120228
_cell_formula_units_Z   4
loop_
 _symmetry_equiv_pos_site_id
 _symmetry_equiv_pos_as_xyz
  1  'x, y, z'
loop_
 _atom_site_type_symbol
 _atom_site_label
 _atom_site_symmetry_multiplicity
 _atom_site_fract_x
 _atom_site_fract_y
 _atom_site_fract_z
 _atom_site_occupancy
  Cd  Cd0  1  0.000000  0.282072  0.080859  1
  Cd  Cd1  1  0.000000  0.282072  0.419141  1
  Cd  Cd2  1  0.000000  0.717928  0.919141  1
  Cd  Cd3  1  0.000000  0.717928  0.580859  1
  Hg  Hg4  1  0.500000  0.264693  0.750000  1
  Hg  Hg5  1  0.500000  0.735307  0.250000  1
  Hg  Hg6  1  0.500000  0.000000  0.500000  1
  Hg  Hg7  1  0.500000  0.000000  0.000000  1
  As  As8  1  0.500000  0.254841  0.981612  1
  As  As9  1  0.500000  0.745159  0.018388  1
  As  As10  1  0.500000  0.254841  0.518388  1
  As  As11  1  0.500000  0.745159  0.481612  1
  Cl  Cl12  1  0.000000  0.533017  0.750000  1
  Cl  Cl13  1  0.000000  0.466983  0.250000  1
  Cl  Cl14  1  0.000000  0.089253  0.250000  1
  Cl  Cl15  1  0.000000  0.910747  0.750000  1
