# generated using pymatgen
data_TbLu(OsO4)2
_symmetry_space_group_name_H-M   'P 1'
_cell_length_a   5.31573222
_cell_length_b   7.38219119
_cell_length_c   7.68302800
_cell_angle_alpha   79.89422685
_cell_angle_beta   85.80254673
_cell_angle_gamma   88.89878956
_symmetry_Int_Tables_number   1
_chemical_formula_structural   TbLu(OsO4)2
_chemical_formula_sum   'Tb2 Lu2 Os4 O16'
_cell_volume   296.01553973
_cell_formula_units_Z   2
loop_
 _symmetry_equiv_pos_site_id
 _symmetry_equiv_pos_as_xyz
  1  'x, y, z'
loop_
 _atom_site_type_symbol
 _atom_site_label
 _atom_site_symmetry_multiplicity
 _atom_site_fract_x
 _atom_site_fract_y
 _atom_site_fract_z
 _atom_site_occupancy
  Tb  Tb0  1  0.759571  0.384787  0.385215  1
  Tb  Tb1  1  0.240429  0.615213  0.614785  1
  Lu  Lu2  1  0.692644  0.894300  0.331756  1
  Lu  Lu3  1  0.307356  0.105700  0.668244  1
  Os  Os4  1  0.786621  0.299216  0.836359  1
  Os  Os5  1  0.213379  0.700784  0.163641  1
  Os  Os6  1  0.253688  0.204930  0.162637  1
  Os  Os7  1  0.746312  0.795070  0.837363  1
  O  O8  1  0.904593  0.805738  0.061686  1
  O  O9  1  0.095407  0.194262  0.938314  1
  O  O10  1  0.355450  0.944698  0.179786  1
  O  O11  1  0.644550  0.055302  0.820214  1
  O  O12  1  0.110734  0.449261  0.172429  1
  O  O13  1  0.889266  0.550739  0.827571  1
  O  O14  1  0.553637  0.287693  0.031847  1
  O  O15  1  0.446363  0.712307  0.968153  1
  O  O16  1  0.011443  0.316787  0.610059  1
  O  O17  1  0.988557  0.683213  0.389941  1
  O  O18  1  0.443373  0.173472  0.390426  1
  O  O19  1  0.556627  0.826528  0.609574  1
  O  O20  1  0.479193  0.619540  0.334822  1
  O  O21  1  0.520807  0.380460  0.665178  1
  O  O22  1  0.944609  0.123324  0.295816  1
  O  O23  1  0.055391  0.876676  0.704184  1
