# generated using pymatgen
data_Nd2AlAg6
_symmetry_space_group_name_H-M   'P 1'
_cell_length_a   5.46248173
_cell_length_b   5.46248280
_cell_length_c   14.34319100
_cell_angle_alpha   90.00000000
_cell_angle_beta   90.00000000
_cell_angle_gamma   117.39661776
_symmetry_Int_Tables_number   1
_chemical_formula_structural   Nd2AlAg6
_chemical_formula_sum   'Nd4 Al2 Ag12'
_cell_volume   379.98094325
_cell_formula_units_Z   2
loop_
 _symmetry_equiv_pos_site_id
 _symmetry_equiv_pos_as_xyz
  1  'x, y, z'
loop_
 _atom_site_type_symbol
 _atom_site_label
 _atom_site_symmetry_multiplicity
 _atom_site_fract_x
 _atom_site_fract_y
 _atom_site_fract_z
 _atom_site_occupancy
  Nd  Nd0  1  0.323067  0.323067  0.116926  1
  Nd  Nd1  1  0.676933  0.676933  0.616926  1
  Nd  Nd2  1  0.323067  0.323067  0.383074  1
  Nd  Nd3  1  0.676933  0.676933  0.883074  1
  Al  Al4  1  0.826316  0.826316  0.250000  1
  Al  Al5  1  0.173684  0.173684  0.750000  1
  Ag  Ag6  1  0.829179  0.333716  0.250000  1
  Ag  Ag7  1  0.170821  0.666284  0.750000  1
  Ag  Ag8  1  0.333716  0.829179  0.250000  1
  Ag  Ag9  1  0.666284  0.170821  0.750000  1
  Ag  Ag10  1  0.989571  0.669445  0.075924  1
  Ag  Ag11  1  0.010429  0.330555  0.575924  1
  Ag  Ag12  1  0.669445  0.989571  0.424076  1
  Ag  Ag13  1  0.330555  0.010429  0.924076  1
  Ag  Ag14  1  0.010429  0.330555  0.924076  1
  Ag  Ag15  1  0.989571  0.669445  0.424076  1
  Ag  Ag16  1  0.330555  0.010429  0.575924  1
  Ag  Ag17  1  0.669445  0.989571  0.075924  1
