# generated using pymatgen
data_Ta3Nb3Si2(BW)4
_symmetry_space_group_name_H-M   'P 1'
_cell_length_a   7.19763217
_cell_length_b   7.19769690
_cell_length_c   7.23808127
_cell_angle_alpha   129.41622017
_cell_angle_beta   129.41219218
_cell_angle_gamma   74.38873290
_symmetry_Int_Tables_number   1
_chemical_formula_structural   Ta3Nb3Si2(BW)4
_chemical_formula_sum   'Ta3 Nb3 Si2 B4 W4'
_cell_volume   218.10035112
_cell_formula_units_Z   1
loop_
 _symmetry_equiv_pos_site_id
 _symmetry_equiv_pos_as_xyz
  1  'x, y, z'
loop_
 _atom_site_type_symbol
 _atom_site_label
 _atom_site_symmetry_multiplicity
 _atom_site_fract_x
 _atom_site_fract_y
 _atom_site_fract_z
 _atom_site_occupancy
  Ta  Ta0  1  0.477033  0.976888  0.172689  1
  Ta  Ta1  1  0.306149  0.472804  0.501181  1
  Ta  Ta2  1  0.026975  0.193895  0.498969  1
  Nb  Nb3  1  0.523621  0.023485  0.828394  1
  Nb  Nb4  1  0.693502  0.527422  0.499163  1
  Nb  Nb5  1  0.972367  0.806491  0.500994  1
  Si  Si6  1  0.246539  0.253301  0.000015  1
  Si  Si7  1  0.753486  0.746372  0.000042  1
  B  B8  1  0.126306  0.624696  0.752081  1
  B  B9  1  0.876330  0.374707  0.249550  1
  B  B10  1  0.616920  0.882578  0.499175  1
  B  B11  1  0.381062  0.118456  0.499196  1
  W  W12  1  0.000215  0.999890  0.999785  1
  W  W13  1  0.500167  0.499756  0.999897  1
  W  W14  1  0.806711  0.306666  0.835735  1
  W  W15  1  0.192617  0.692592  0.163135  1
