# generated using pymatgen
data_Ho2Mn6Co6P7
_symmetry_space_group_name_H-M   'P 1'
_cell_length_a   9.07984800
_cell_length_b   9.07984711
_cell_length_c   3.63579300
_cell_angle_alpha   90.00000000
_cell_angle_beta   90.00000000
_cell_angle_gamma   120.00000325
_symmetry_Int_Tables_number   1
_chemical_formula_structural   Ho2Mn6Co6P7
_chemical_formula_sum   'Ho2 Mn6 Co6 P7'
_cell_volume   259.58935575
_cell_formula_units_Z   1
loop_
 _symmetry_equiv_pos_site_id
 _symmetry_equiv_pos_as_xyz
  1  'x, y, z'
loop_
 _atom_site_type_symbol
 _atom_site_label
 _atom_site_symmetry_multiplicity
 _atom_site_fract_x
 _atom_site_fract_y
 _atom_site_fract_z
 _atom_site_occupancy
  Ho  Ho0  1  0.666667  0.333333  0.000000  1
  Ho  Ho1  1  0.333333  0.666667  0.500000  1
  Mn  Mn2  1  0.879998  0.723020  0.000000  1
  Mn  Mn3  1  0.276980  0.156978  0.000000  1
  Mn  Mn4  1  0.843022  0.120002  0.000000  1
  Mn  Mn5  1  0.119281  0.895945  0.500000  1
  Mn  Mn6  1  0.104055  0.223336  0.500000  1
  Mn  Mn7  1  0.776664  0.880719  0.500000  1
  Co  Co8  1  0.369162  0.939677  0.000000  1
  Co  Co9  1  0.060323  0.429485  0.000000  1
  Co  Co10  1  0.570515  0.630838  0.000000  1
  Co  Co11  1  0.949393  0.561042  0.500000  1
  Co  Co12  1  0.438958  0.388351  0.500000  1
  Co  Co13  1  0.611649  0.050607  0.500000  1
  P  P14  1  0.111412  0.698733  0.000000  1
  P  P15  1  0.301267  0.412680  0.000000  1
  P  P16  1  0.587320  0.888588  0.000000  1
  P  P17  1  0.712283  0.593615  0.500000  1
  P  P18  1  0.406385  0.118670  0.500000  1
  P  P19  1  0.881330  0.287717  0.500000  1
  P  P20  1  0.000000  0.000000  0.000000  1
