# generated using pymatgen
data_GdMg2NiPt8
_symmetry_space_group_name_H-M   'P 1'
_cell_length_a   15.26189892
_cell_length_b   14.88606997
_cell_length_c   15.73364263
_cell_angle_alpha   29.86991347
_cell_angle_beta   28.35320996
_cell_angle_gamma   27.83893756
_symmetry_Int_Tables_number   1
_chemical_formula_structural   GdMg2NiPt8
_chemical_formula_sum   'Gd1 Mg2 Ni1 Pt8'
_cell_volume   726.14594128
_cell_formula_units_Z   1
loop_
 _symmetry_equiv_pos_site_id
 _symmetry_equiv_pos_as_xyz
  1  'x, y, z'
loop_
 _atom_site_type_symbol
 _atom_site_label
 _atom_site_symmetry_multiplicity
 _atom_site_fract_x
 _atom_site_fract_y
 _atom_site_fract_z
 _atom_site_occupancy
  Gd  Gd0  1  0.999643  0.000051  0.999431  1
  Mg  Mg1  1  0.144282  0.143684  0.144369  1
  Mg  Mg2  1  0.857008  0.855926  0.856827  1
  Ni  Ni3  1  0.410491  0.921537  0.409979  1
  Pt  Pt4  1  0.930360  0.401937  0.404103  1
  Pt  Pt5  1  0.595223  0.596178  0.072296  1
  Pt  Pt6  1  0.595122  0.072914  0.595863  1
  Pt  Pt7  1  0.404531  0.401498  0.931131  1
  Pt  Pt8  1  0.337981  0.317671  0.334165  1
  Pt  Pt9  1  0.072967  0.595853  0.595697  1
  Pt  Pt10  1  0.497140  0.517003  0.497292  1
  Pt  Pt11  1  0.655252  0.675748  0.658848  1
