# generated using pymatgen
data_Ho10Cd3Os
_symmetry_space_group_name_H-M   'P 1'
_cell_length_a   9.53214100
_cell_length_b   9.53214053
_cell_length_c   9.85030200
_cell_angle_alpha   90.00000000
_cell_angle_beta   90.00000000
_cell_angle_gamma   119.99999817
_symmetry_Int_Tables_number   1
_chemical_formula_structural   Ho10Cd3Os
_chemical_formula_sum   'Ho20 Cd6 Os2'
_cell_volume   775.10596566
_cell_formula_units_Z   2
loop_
 _symmetry_equiv_pos_site_id
 _symmetry_equiv_pos_as_xyz
  1  'x, y, z'
loop_
 _atom_site_type_symbol
 _atom_site_label
 _atom_site_symmetry_multiplicity
 _atom_site_fract_x
 _atom_site_fract_y
 _atom_site_fract_z
 _atom_site_occupancy
  Ho  Ho0  1  0.000000  0.000000  0.500000  1
  Ho  Ho1  1  0.000000  0.000000  0.000000  1
  Ho  Ho2  1  0.209908  0.790092  0.440865  1
  Ho  Ho3  1  0.209908  0.419816  0.440865  1
  Ho  Ho4  1  0.580184  0.790092  0.440865  1
  Ho  Ho5  1  0.790092  0.209908  0.559135  1
  Ho  Ho6  1  0.790092  0.580184  0.559135  1
  Ho  Ho7  1  0.419816  0.209908  0.559135  1
  Ho  Ho8  1  0.790092  0.209908  0.940865  1
  Ho  Ho9  1  0.790092  0.580184  0.940865  1
  Ho  Ho10  1  0.419816  0.209908  0.940865  1
  Ho  Ho11  1  0.209908  0.790092  0.059135  1
  Ho  Ho12  1  0.209908  0.419816  0.059135  1
  Ho  Ho13  1  0.580184  0.790092  0.059135  1
  Ho  Ho14  1  0.540206  0.459794  0.250000  1
  Ho  Ho15  1  0.540206  0.080412  0.250000  1
  Ho  Ho16  1  0.919588  0.459794  0.250000  1
  Ho  Ho17  1  0.459794  0.540206  0.750000  1
  Ho  Ho18  1  0.459794  0.919588  0.750000  1
  Ho  Ho19  1  0.080412  0.540206  0.750000  1
  Cd  Cd20  1  0.885576  0.114424  0.250000  1
  Cd  Cd21  1  0.885576  0.771155  0.250000  1
  Cd  Cd22  1  0.228845  0.114424  0.250000  1
  Cd  Cd23  1  0.114424  0.885576  0.750000  1
  Cd  Cd24  1  0.114424  0.228845  0.750000  1
  Cd  Cd25  1  0.771155  0.885576  0.750000  1
  Os  Os26  1  0.333333  0.666667  0.250000  1
  Os  Os27  1  0.666667  0.333333  0.750000  1
