# generated using pymatgen
data_HoSc3Sb4(P2O7)8
_symmetry_space_group_name_H-M   'P 1'
_cell_length_a   8.10213476
_cell_length_b   8.14146908
_cell_length_c   16.39226045
_cell_angle_alpha   89.99686199
_cell_angle_beta   89.94185736
_cell_angle_gamma   90.05205281
_symmetry_Int_Tables_number   1
_chemical_formula_structural   HoSc3Sb4(P2O7)8
_chemical_formula_sum   'Ho1 Sc3 Sb4 P16 O56'
_cell_volume   1081.28625620
_cell_formula_units_Z   1
loop_
 _symmetry_equiv_pos_site_id
 _symmetry_equiv_pos_as_xyz
  1  'x, y, z'
loop_
 _atom_site_type_symbol
 _atom_site_label
 _atom_site_symmetry_multiplicity
 _atom_site_fract_x
 _atom_site_fract_y
 _atom_site_fract_z
 _atom_site_occupancy
  Ho  Ho0  1  0.984136  0.243921  0.374080  1
  Sc  Sc1  1  0.015733  0.745842  0.627830  1
  Sc  Sc2  1  0.514813  0.745044  0.873764  1
  Sc  Sc3  1  0.484359  0.244078  0.124816  1
  Sb  Sb4  1  0.983668  0.747292  0.121700  1
  Sb  Sb5  1  0.015492  0.247970  0.877288  1
  Sb  Sb6  1  0.517125  0.248153  0.623244  1
  Sb  Sb7  1  0.484737  0.746632  0.377324  1
  P  P8  1  0.091405  0.367616  0.066630  1
  P  P9  1  0.908179  0.867929  0.931621  1
  P  P10  1  0.409314  0.869373  0.568145  1
  P  P11  1  0.583030  0.371491  0.432106  1
  P  P12  1  0.888727  0.132562  0.166387  1
  P  P13  1  0.108367  0.633226  0.828375  1
  P  P14  1  0.608233  0.633932  0.672293  1
  P  P15  1  0.399934  0.128306  0.326827  1
  P  P16  1  0.102185  0.649911  0.313571  1
  P  P17  1  0.902625  0.142049  0.686967  1
  P  P18  1  0.402229  0.140841  0.814529  1
  P  P19  1  0.597156  0.640125  0.185287  1
  P  P20  1  0.875654  0.834224  0.428300  1
  P  P21  1  0.123215  0.346902  0.580059  1
  P  P22  1  0.621059  0.344820  0.925434  1
  P  P23  1  0.378368  0.843484  0.073860  1
  O  O24  1  0.132545  0.526579  0.601420  1
  O  O25  1  0.861873  0.015694  0.412945  1
  O  O26  1  0.371855  0.024160  0.093788  1
  O  O27  1  0.625881  0.525348  0.905241  1
  O  O28  1  0.024549  0.296209  0.506966  1
  O  O29  1  0.972809  0.777075  0.500969  1
  O  O30  1  0.472726  0.789305  0.999669  1
  O  O31  1  0.526264  0.290307  0.999442  1
  O  O32  1  0.916848  0.135487  0.781275  1
  O  O33  1  0.079347  0.641447  0.219877  1
  O  O34  1  0.573950  0.633221  0.279084  1
  O  O35  1  0.426243  0.134391  0.720736  1
  O  O36  1  0.052142  0.256058  0.660943  1
  O  O37  1  0.953357  0.759531  0.344526  1
  O  O38  1  0.452359  0.755920  0.154997  1
  O  O39  1  0.547792  0.255821  0.844590  1
  O  O40  1  0.239766  0.233274  0.830430  1
  O  O41  1  0.759891  0.732230  0.169025  1
  O  O42  1  0.261453  0.748294  0.329331  1
  O  O43  1  0.744092  0.237208  0.666330  1
  O  O44  1  0.461797  0.520322  0.423738  1
  O  O45  1  0.527265  0.021191  0.576398  1
  O  O46  1  0.025022  0.020685  0.924215  1
  O  O47  1  0.974036  0.518954  0.076558  1
  O  O48  1  0.200308  0.768817  0.067730  1
  O  O49  1  0.799585  0.272078  0.931688  1
  O  O50  1  0.299567  0.270170  0.570891  1
  O  O51  1  0.701168  0.751423  0.432200  1
  O  O52  1  0.020546  0.716871  0.907126  1
  O  O53  1  0.978887  0.214510  0.087908  1
  O  O54  1  0.475620  0.217097  0.407370  1
  O  O55  1  0.519630  0.717458  0.593685  1
  O  O56  1  0.103988  0.483520  0.351518  1
  O  O57  1  0.908730  0.975441  0.649015  1
  O  O58  1  0.406452  0.973941  0.852191  1
  O  O59  1  0.591540  0.473427  0.147352  1
  O  O60  1  0.512558  0.464958  0.678426  1
  O  O61  1  0.504808  0.964458  0.323997  1
  O  O62  1  0.987048  0.965726  0.174986  1
  O  O63  1  0.011191  0.465042  0.822071  1
  O  O64  1  0.068159  0.730555  0.752794  1
  O  O65  1  0.925464  0.232057  0.241489  1
  O  O66  1  0.441501  0.225014  0.251200  1
  O  O67  1  0.567858  0.729409  0.748471  1
  O  O68  1  0.376538  0.841806  0.475503  1
  O  O69  1  0.620857  0.343784  0.524203  1
  O  O70  1  0.128037  0.343386  0.973988  1
  O  O71  1  0.872304  0.837928  0.023876  1
  O  O72  1  0.249055  0.371482  0.114112  1
  O  O73  1  0.749373  0.874070  0.885219  1
  O  O74  1  0.249297  0.876673  0.613724  1
  O  O75  1  0.740557  0.382386  0.384905  1
  O  O76  1  0.287936  0.618794  0.851560  1
  O  O77  1  0.710097  0.115295  0.142002  1
  O  O78  1  0.219822  0.106767  0.346936  1
  O  O79  1  0.787915  0.620823  0.648932  1
