# generated using pymatgen
data_Co8Si4Mo12CN3
_symmetry_space_group_name_H-M   'P 1'
_cell_length_a   7.81918985
_cell_length_b   7.81918906
_cell_length_c   7.82698794
_cell_angle_alpha   60.03295194
_cell_angle_beta   60.03295801
_cell_angle_gamma   60.00000110
_symmetry_Int_Tables_number   1
_chemical_formula_structural   Co8Si4Mo12CN3
_chemical_formula_sum   'Co8 Si4 Mo12 C1 N3'
_cell_volume   338.54725035
_cell_formula_units_Z   1
loop_
 _symmetry_equiv_pos_site_id
 _symmetry_equiv_pos_as_xyz
  1  'x, y, z'
loop_
 _atom_site_type_symbol
 _atom_site_label
 _atom_site_symmetry_multiplicity
 _atom_site_fract_x
 _atom_site_fract_y
 _atom_site_fract_z
 _atom_site_occupancy
  Co  Co0  1  0.245311  0.918301  0.918089  1
  Co  Co1  1  0.918301  0.245311  0.918089  1
  Co  Co2  1  0.918301  0.918301  0.918089  1
  Co  Co3  1  0.918254  0.918254  0.245238  1
  Co  Co4  1  0.004689  0.331699  0.331911  1
  Co  Co5  1  0.331746  0.331746  0.004762  1
  Co  Co6  1  0.331699  0.004689  0.331911  1
  Co  Co7  1  0.331699  0.331699  0.331911  1
  Si  Si8  1  0.625000  0.125000  0.125000  1
  Si  Si9  1  0.125000  0.125000  0.625000  1
  Si  Si10  1  0.125000  0.625000  0.125000  1
  Si  Si11  1  0.125000  0.125000  0.125000  1
  Mo  Mo12  1  0.696150  0.304199  0.695452  1
  Mo  Mo13  1  0.553975  0.553975  0.946028  1
  Mo  Mo14  1  0.553850  0.945801  0.554548  1
  Mo  Mo15  1  0.945801  0.945801  0.554548  1
  Mo  Mo16  1  0.945801  0.553850  0.554548  1
  Mo  Mo17  1  0.946021  0.553975  0.946028  1
  Mo  Mo18  1  0.696025  0.303979  0.303972  1
  Mo  Mo19  1  0.303979  0.696025  0.303972  1
  Mo  Mo20  1  0.304199  0.304199  0.695452  1
  Mo  Mo21  1  0.304199  0.696150  0.695452  1
  Mo  Mo22  1  0.696025  0.696025  0.303972  1
  Mo  Mo23  1  0.553975  0.946021  0.946028  1
  C  C24  1  0.625000  0.625000  0.125000  1
  N  N25  1  0.625000  0.625000  0.625000  1
  N  N26  1  0.125000  0.625000  0.625000  1
  N  N27  1  0.625000  0.125000  0.625000  1
