# generated using pymatgen
data_Tb9Ho7Cd4Co3Pd
_symmetry_space_group_name_H-M   'P 1'
_cell_length_a   9.54307824
_cell_length_b   9.54437263
_cell_length_c   9.54476959
_cell_angle_alpha   60.02393502
_cell_angle_beta   60.00309695
_cell_angle_gamma   59.97165522
_symmetry_Int_Tables_number   1
_chemical_formula_structural   Tb9Ho7Cd4Co3Pd
_chemical_formula_sum   'Tb9 Ho7 Cd4 Co3 Pd1'
_cell_volume   614.72635123
_cell_formula_units_Z   1
loop_
 _symmetry_equiv_pos_site_id
 _symmetry_equiv_pos_as_xyz
  1  'x, y, z'
loop_
 _atom_site_type_symbol
 _atom_site_label
 _atom_site_symmetry_multiplicity
 _atom_site_fract_x
 _atom_site_fract_y
 _atom_site_fract_z
 _atom_site_occupancy
  Tb  Tb0  1  0.605025  0.203351  0.605461  1
  Tb  Tb1  1  0.813980  0.815007  0.188142  1
  Tb  Tb2  1  0.204043  0.605296  0.604146  1
  Tb  Tb3  1  0.811830  0.188378  0.188157  1
  Tb  Tb4  1  0.049252  0.437949  0.439391  1
  Tb  Tb5  1  0.188537  0.812681  0.187382  1
  Tb  Tb6  1  0.604082  0.605643  0.203729  1
  Tb  Tb7  1  0.188231  0.187278  0.812354  1
  Tb  Tb8  1  0.062400  0.435850  0.061166  1
  Ho  Ho9  1  0.439573  0.438304  0.049374  1
  Ho  Ho10  1  0.593779  0.594866  0.595115  1
  Ho  Ho11  1  0.188654  0.814386  0.813537  1
  Ho  Ho12  1  0.062231  0.061144  0.436889  1
  Ho  Ho13  1  0.436792  0.061904  0.061972  1
  Ho  Ho14  1  0.813856  0.188417  0.813958  1
  Ho  Ho15  1  0.438522  0.049421  0.438733  1
  Cd  Cd16  1  0.829208  0.829718  0.508248  1
  Cd  Cd17  1  0.831614  0.832019  0.830657  1
  Cd  Cd18  1  0.507413  0.829481  0.829557  1
  Cd  Cd19  1  0.829018  0.507525  0.829653  1
  Co  Co20  1  0.825709  0.391296  0.392661  1
  Co  Co21  1  0.391102  0.826691  0.392272  1
  Co  Co22  1  0.392243  0.391931  0.826077  1
  Pd  Pd23  1  0.392905  0.391461  0.391366  1
