# generated using pymatgen
data_Tb2Y3HoPtI10
_symmetry_space_group_name_H-M   'P 1'
_cell_length_a   7.74601923
_cell_length_b   9.74952359
_cell_length_c   9.79797935
_cell_angle_alpha   107.09209459
_cell_angle_beta   96.89380183
_cell_angle_gamma   104.35474281
_symmetry_Int_Tables_number   1
_chemical_formula_structural   Tb2Y3HoPtI10
_chemical_formula_sum   'Tb2 Y3 Ho1 Pt1 I10'
_cell_volume   670.15003824
_cell_formula_units_Z   1
loop_
 _symmetry_equiv_pos_site_id
 _symmetry_equiv_pos_as_xyz
  1  'x, y, z'
loop_
 _atom_site_type_symbol
 _atom_site_label
 _atom_site_symmetry_multiplicity
 _atom_site_fract_x
 _atom_site_fract_y
 _atom_site_fract_z
 _atom_site_occupancy
  Tb  Tb0  1  0.884266  0.958679  0.241845  1
  Tb  Tb1  1  0.116856  0.042042  0.758439  1
  Y  Y2  1  0.651646  0.875387  0.833676  1
  Y  Y3  1  0.969025  0.287322  0.086854  1
  Y  Y4  1  0.031341  0.712823  0.913561  1
  Ho  Ho5  1  0.344988  0.123616  0.165022  1
  Pt  Pt6  1  0.000171  0.000186  0.000400  1
  I  I7  1  0.351814  0.449027  0.271735  1
  I  I8  1  0.649533  0.549591  0.728315  1
  I  I9  1  0.914867  0.626804  0.180089  1
  I  I10  1  0.085703  0.373451  0.820324  1
  I  I11  1  0.454390  0.816866  0.092710  1
  I  I12  1  0.545550  0.184518  0.909060  1
  I  I13  1  0.258313  0.087161  0.461372  1
  I  I14  1  0.743670  0.913441  0.538007  1
  I  I15  1  0.772978  0.256042  0.345149  1
  I  I16  1  0.224887  0.743044  0.653442  1
