# generated using pymatgen
data_Ta12Al8CuRh3C4
_symmetry_space_group_name_H-M   'P 1'
_cell_length_a   8.32111167
_cell_length_b   8.30189094
_cell_length_c   8.32111100
_cell_angle_alpha   59.92338210
_cell_angle_beta   59.99999869
_cell_angle_gamma   59.92338254
_symmetry_Int_Tables_number   1
_chemical_formula_structural   Ta12Al8CuRh3C4
_chemical_formula_sum   'Ta12 Al8 Cu1 Rh3 C4'
_cell_volume   405.99507873
_cell_formula_units_Z   1
loop_
 _symmetry_equiv_pos_site_id
 _symmetry_equiv_pos_as_xyz
  1  'x, y, z'
loop_
 _atom_site_type_symbol
 _atom_site_label
 _atom_site_symmetry_multiplicity
 _atom_site_fract_x
 _atom_site_fract_y
 _atom_site_fract_z
 _atom_site_occupancy
  Ta  Ta0  1  0.565325  0.935405  0.565325  1
  Ta  Ta1  1  0.316868  0.685846  0.680416  1
  Ta  Ta2  1  0.684675  0.314595  0.316055  1
  Ta  Ta3  1  0.316868  0.685846  0.316868  1
  Ta  Ta4  1  0.680416  0.685846  0.316868  1
  Ta  Ta5  1  0.316055  0.314595  0.684675  1
  Ta  Ta6  1  0.569584  0.564154  0.933132  1
  Ta  Ta7  1  0.933132  0.564154  0.569584  1
  Ta  Ta8  1  0.565325  0.935405  0.933945  1
  Ta  Ta9  1  0.933945  0.935405  0.565325  1
  Ta  Ta10  1  0.684675  0.314595  0.684675  1
  Ta  Ta11  1  0.933132  0.564154  0.933132  1
  Al  Al12  1  0.917124  0.915490  0.917124  1
  Al  Al13  1  0.999738  0.334510  0.332876  1
  Al  Al14  1  0.332392  0.002824  0.332392  1
  Al  Al15  1  0.332876  0.334510  0.999738  1
  Al  Al16  1  0.917608  0.247176  0.917608  1
  Al  Al17  1  0.917124  0.915490  0.250262  1
  Al  Al18  1  0.250262  0.915490  0.917124  1
  Al  Al19  1  0.332876  0.334510  0.332876  1
  Cu  Cu20  1  0.125000  0.625000  0.125000  1
  Rh  Rh21  1  0.125000  0.125000  0.125000  1
  Rh  Rh22  1  0.625000  0.125000  0.125000  1
  Rh  Rh23  1  0.125000  0.125000  0.625000  1
  C  C24  1  0.625000  0.625000  0.625000  1
  C  C25  1  0.125000  0.625000  0.625000  1
  C  C26  1  0.625000  0.125000  0.625000  1
  C  C27  1  0.625000  0.625000  0.125000  1
