# generated using pymatgen
data_La2I2Br3
_symmetry_space_group_name_H-M   'P 1'
_cell_length_a   4.32316000
_cell_length_b   8.81212161
_cell_length_c   14.25277851
_cell_angle_alpha   88.12132764
_cell_angle_beta   90.00000000
_cell_angle_gamma   90.00000000
_symmetry_Int_Tables_number   1
_chemical_formula_structural   La2I2Br3
_chemical_formula_sum   'La4 I4 Br6'
_cell_volume   542.68501024
_cell_formula_units_Z   2
loop_
 _symmetry_equiv_pos_site_id
 _symmetry_equiv_pos_as_xyz
  1  'x, y, z'
loop_
 _atom_site_type_symbol
 _atom_site_label
 _atom_site_symmetry_multiplicity
 _atom_site_fract_x
 _atom_site_fract_y
 _atom_site_fract_z
 _atom_site_occupancy
  La  La0  1  0.250000  0.911486  0.150006  1
  La  La1  1  0.750000  0.088514  0.849994  1
  La  La2  1  0.250000  0.425437  0.652322  1
  La  La3  1  0.750000  0.574563  0.347678  1
  I  I4  1  0.750000  0.948549  0.319563  1
  I  I5  1  0.250000  0.051451  0.680437  1
  I  I6  1  0.750000  0.641753  0.119043  1
  I  I7  1  0.250000  0.358247  0.880957  1
  Br  Br8  1  0.250000  0.365449  0.286615  1
  Br  Br9  1  0.750000  0.634551  0.713385  1
  Br  Br10  1  0.250000  0.869470  0.929251  1
  Br  Br11  1  0.750000  0.130530  0.070749  1
  Br  Br12  1  0.750000  0.325785  0.514515  1
  Br  Br13  1  0.250000  0.674215  0.485485  1
