# generated using pymatgen
data_BaCa(CuSb)2
_symmetry_space_group_name_H-M   'P 1'
_cell_length_a   4.55020100
_cell_length_b   4.55020118
_cell_length_c   8.83933300
_cell_angle_alpha   90.00000000
_cell_angle_beta   90.00000000
_cell_angle_gamma   120.00002050
_symmetry_Int_Tables_number   1
_chemical_formula_structural   BaCa(CuSb)2
_chemical_formula_sum   'Ba1 Ca1 Cu2 Sb2'
_cell_volume   158.49341293
_cell_formula_units_Z   1
loop_
 _symmetry_equiv_pos_site_id
 _symmetry_equiv_pos_as_xyz
  1  'x, y, z'
loop_
 _atom_site_type_symbol
 _atom_site_label
 _atom_site_symmetry_multiplicity
 _atom_site_fract_x
 _atom_site_fract_y
 _atom_site_fract_z
 _atom_site_occupancy
  Ba  Ba0  1  0.000000  0.000000  0.000000  1
  Ca  Ca1  1  0.000000  0.000000  0.500000  1
  Cu  Cu2  1  0.666667  0.333333  0.714336  1
  Cu  Cu3  1  0.333333  0.666667  0.285664  1
  Sb  Sb4  1  0.333333  0.666667  0.726768  1
  Sb  Sb5  1  0.666667  0.333333  0.273232  1
