# generated using pymatgen
data_Sm5(CSe2)2
_symmetry_space_group_name_H-M   'P 1'
_cell_length_a   3.98753835
_cell_length_b   9.09532844
_cell_length_c   9.55888800
_cell_angle_alpha   92.65179653
_cell_angle_beta   77.75186152
_cell_angle_gamma   49.08414058
_symmetry_Int_Tables_number   1
_chemical_formula_structural   Sm5(CSe2)2
_chemical_formula_sum   'Sm5 C2 Se4'
_cell_volume   247.83171291
_cell_formula_units_Z   1
loop_
 _symmetry_equiv_pos_site_id
 _symmetry_equiv_pos_as_xyz
  1  'x, y, z'
loop_
 _atom_site_type_symbol
 _atom_site_label
 _atom_site_symmetry_multiplicity
 _atom_site_fract_x
 _atom_site_fract_y
 _atom_site_fract_z
 _atom_site_occupancy
  Sm  Sm0  1  0.428637  0.933451  0.816546  1
  Sm  Sm1  1  0.308932  0.803132  0.449175  1
  Sm  Sm2  1  0.505840  0.283763  0.607494  1
  Sm  Sm3  1  0.386164  0.153610  0.240158  1
  Sm  Sm4  1  0.408019  0.543505  0.027415  1
  C  C5  1  0.393626  0.073764  0.463807  1
  C  C6  1  0.420343  0.013466  0.593070  1
  Se  Se7  1  0.456350  0.612821  0.722581  1
  Se  Se8  1  0.401694  0.847417  0.128037  1
  Se  Se9  1  0.359130  0.474203  0.332923  1
  Se  Se10  1  0.413612  0.239395  0.928478  1
