# generated using pymatgen
data_DyErAl2(SiIr2)2
_symmetry_space_group_name_H-M   'P 1'
_cell_length_a   4.06800900
_cell_length_b   4.06800900
_cell_length_c   10.46493400
_cell_angle_alpha   90.00000000
_cell_angle_beta   90.00000000
_cell_angle_gamma   90.00000000
_symmetry_Int_Tables_number   1
_chemical_formula_structural   DyErAl2(SiIr2)2
_chemical_formula_sum   'Dy1 Er1 Al2 Si2 Ir4'
_cell_volume   173.18102424
_cell_formula_units_Z   1
loop_
 _symmetry_equiv_pos_site_id
 _symmetry_equiv_pos_as_xyz
  1  'x, y, z'
loop_
 _atom_site_type_symbol
 _atom_site_label
 _atom_site_symmetry_multiplicity
 _atom_site_fract_x
 _atom_site_fract_y
 _atom_site_fract_z
 _atom_site_occupancy
  Dy  Dy0  1  0.500000  0.000000  0.757182  1
  Er  Er1  1  0.000000  0.500000  0.242655  1
  Al  Al2  1  0.000000  0.000000  0.499297  1
  Al  Al3  1  0.500000  0.500000  0.499297  1
  Si  Si4  1  0.000000  0.500000  0.875147  1
  Si  Si5  1  0.500000  0.000000  0.125619  1
  Ir  Ir6  1  0.000000  0.000000  0.000689  1
  Ir  Ir7  1  0.500000  0.500000  0.000689  1
  Ir  Ir8  1  0.000000  0.500000  0.645492  1
  Ir  Ir9  1  0.500000  0.000000  0.353931  1
