# generated using pymatgen
data_Er16Cd3AgIr4
_symmetry_space_group_name_H-M   'P 1'
_cell_length_a   9.53418382
_cell_length_b   9.53101896
_cell_length_c   9.53130218
_cell_angle_alpha   60.01971555
_cell_angle_beta   60.02440677
_cell_angle_gamma   60.01498757
_symmetry_Int_Tables_number   1
_chemical_formula_structural   Er16Cd3AgIr4
_chemical_formula_sum   'Er16 Cd3 Ag1 Ir4'
_cell_volume   612.70867780
_cell_formula_units_Z   1
loop_
 _symmetry_equiv_pos_site_id
 _symmetry_equiv_pos_as_xyz
  1  'x, y, z'
loop_
 _atom_site_type_symbol
 _atom_site_label
 _atom_site_symmetry_multiplicity
 _atom_site_fract_x
 _atom_site_fract_y
 _atom_site_fract_z
 _atom_site_occupancy
  Er  Er0  1  0.599322  0.599338  0.599324  1
  Er  Er1  1  0.599915  0.599926  0.200319  1
  Er  Er2  1  0.599946  0.200278  0.599945  1
  Er  Er3  1  0.200292  0.599962  0.599927  1
  Er  Er4  1  0.060566  0.439807  0.439848  1
  Er  Er5  1  0.440252  0.060401  0.060375  1
  Er  Er6  1  0.439816  0.060508  0.439852  1
  Er  Er7  1  0.060379  0.440337  0.060318  1
  Er  Er8  1  0.439794  0.439840  0.060555  1
  Er  Er9  1  0.060383  0.060325  0.440315  1
  Er  Er10  1  0.185208  0.812183  0.812209  1
  Er  Er11  1  0.812255  0.187012  0.187024  1
  Er  Er12  1  0.812273  0.185151  0.812206  1
  Er  Er13  1  0.187047  0.812212  0.187064  1
  Er  Er14  1  0.812273  0.812216  0.185153  1
  Er  Er15  1  0.187054  0.187088  0.812197  1
  Cd  Cd16  1  0.831500  0.831482  0.507147  1
  Cd  Cd17  1  0.831405  0.507129  0.831576  1
  Cd  Cd18  1  0.507121  0.831506  0.831561  1
  Ag  Ag19  1  0.833197  0.832944  0.832932  1
  Ir  Ir20  1  0.392020  0.392044  0.392158  1
  Ir  Ir21  1  0.391639  0.391950  0.824475  1
  Ir  Ir22  1  0.391684  0.824605  0.391795  1
  Ir  Ir23  1  0.824656  0.391753  0.391720  1
