# generated using pymatgen
data_Dy11Ho8LuSn16
_symmetry_space_group_name_H-M   'P 1'
_cell_length_a   8.01632130
_cell_length_b   8.15464635
_cell_length_c   15.41553404
_cell_angle_alpha   90.00502334
_cell_angle_beta   90.00651841
_cell_angle_gamma   89.97196718
_symmetry_Int_Tables_number   1
_chemical_formula_structural   Dy11Ho8LuSn16
_chemical_formula_sum   'Dy11 Ho8 Lu1 Sn16'
_cell_volume   1007.71741868
_cell_formula_units_Z   1
loop_
 _symmetry_equiv_pos_site_id
 _symmetry_equiv_pos_as_xyz
  1  'x, y, z'
loop_
 _atom_site_type_symbol
 _atom_site_label
 _atom_site_symmetry_multiplicity
 _atom_site_fract_x
 _atom_site_fract_y
 _atom_site_fract_z
 _atom_site_occupancy
  Dy  Dy0  1  0.132077  0.337033  0.378283  1
  Dy  Dy1  1  0.367734  0.836933  0.622523  1
  Dy  Dy2  1  0.868119  0.662721  0.877633  1
  Dy  Dy3  1  0.520804  0.320968  0.902544  1
  Dy  Dy4  1  0.021161  0.179600  0.597609  1
  Dy  Dy5  1  0.479323  0.679369  0.402907  1
  Dy  Dy6  1  0.979190  0.820623  0.097410  1
  Dy  Dy7  1  0.479259  0.679335  0.097005  1
  Dy  Dy8  1  0.979162  0.820712  0.402651  1
  Dy  Dy9  1  0.520842  0.321109  0.597489  1
  Dy  Dy10  1  0.021259  0.179520  0.902446  1
  Ho  Ho11  1  0.367567  0.837004  0.877490  1
  Ho  Ho12  1  0.868002  0.662612  0.622401  1
  Ho  Ho13  1  0.632107  0.162932  0.377766  1
  Ho  Ho14  1  0.132124  0.337167  0.121662  1
  Ho  Ho15  1  0.632046  0.162991  0.122261  1
  Ho  Ho16  1  0.698679  0.997113  0.749975  1
  Ho  Ho17  1  0.800844  0.496470  0.249970  1
  Ho  Ho18  1  0.301032  0.003196  0.249909  1
  Lu  Lu19  1  0.198983  0.503572  0.750046  1
  Sn  Sn20  1  0.292826  0.036447  0.041514  1
  Sn  Sn21  1  0.792320  0.463331  0.458504  1
  Sn  Sn22  1  0.707767  0.963661  0.541864  1
  Sn  Sn23  1  0.207810  0.536107  0.957362  1
  Sn  Sn24  1  0.707192  0.963908  0.958151  1
  Sn  Sn25  1  0.207255  0.536058  0.542824  1
  Sn  Sn26  1  0.292967  0.036320  0.458349  1
  Sn  Sn27  1  0.792630  0.462999  0.041754  1
  Sn  Sn28  1  0.563924  0.617874  0.750000  1
  Sn  Sn29  1  0.065450  0.880459  0.750014  1
  Sn  Sn30  1  0.434336  0.380797  0.249887  1
  Sn  Sn31  1  0.934568  0.119230  0.249906  1
  Sn  Sn32  1  0.329814  0.149813  0.750066  1
  Sn  Sn33  1  0.831003  0.352484  0.749917  1
  Sn  Sn34  1  0.669680  0.851982  0.249992  1
  Sn  Sn35  1  0.170146  0.647551  0.249915  1
