# generated using pymatgen
data_Er11Lu9(Cd3Ru)2
_symmetry_space_group_name_H-M   'P 1'
_cell_length_a   9.44473959
_cell_length_b   9.44988141
_cell_length_c   9.72895223
_cell_angle_alpha   89.99488523
_cell_angle_beta   90.02914392
_cell_angle_gamma   120.00767417
_symmetry_Int_Tables_number   1
_chemical_formula_structural   Er11Lu9(Cd3Ru)2
_chemical_formula_sum   'Er11 Lu9 Cd6 Ru2'
_cell_volume   751.93343408
_cell_formula_units_Z   1
loop_
 _symmetry_equiv_pos_site_id
 _symmetry_equiv_pos_as_xyz
  1  'x, y, z'
loop_
 _atom_site_type_symbol
 _atom_site_label
 _atom_site_symmetry_multiplicity
 _atom_site_fract_x
 _atom_site_fract_y
 _atom_site_fract_z
 _atom_site_occupancy
  Er  Er0  1  0.209837  0.790519  0.441366  1
  Er  Er1  1  0.209955  0.419342  0.441400  1
  Er  Er2  1  0.580802  0.790397  0.441208  1
  Er  Er3  1  0.789652  0.209889  0.558615  1
  Er  Er4  1  0.789775  0.579995  0.558823  1
  Er  Er5  1  0.540360  0.459387  0.249041  1
  Er  Er6  1  0.539939  0.080812  0.249023  1
  Er  Er7  1  0.919414  0.459618  0.248746  1
  Er  Er8  1  0.459855  0.539909  0.751001  1
  Er  Er9  1  0.459509  0.919673  0.750912  1
  Er  Er10  1  0.080950  0.540450  0.751146  1
  Lu  Lu11  1  0.000842  0.000725  0.500139  1
  Lu  Lu12  1  0.999627  0.999551  0.000264  1
  Lu  Lu13  1  0.419742  0.209915  0.558739  1
  Lu  Lu14  1  0.789853  0.210066  0.942012  1
  Lu  Lu15  1  0.789914  0.579643  0.942035  1
  Lu  Lu16  1  0.420438  0.210153  0.941650  1
  Lu  Lu17  1  0.210170  0.789718  0.057912  1
  Lu  Lu18  1  0.210221  0.420228  0.057947  1
  Lu  Lu19  1  0.579731  0.789850  0.057981  1
  Cd  Cd20  1  0.886745  0.114121  0.249470  1
  Cd  Cd21  1  0.886921  0.772745  0.250010  1
  Cd  Cd22  1  0.227361  0.113988  0.249669  1
  Cd  Cd23  1  0.113019  0.885992  0.750446  1
  Cd  Cd24  1  0.113332  0.227278  0.750642  1
  Cd  Cd25  1  0.772641  0.886430  0.750269  1
  Ru  Ru26  1  0.333233  0.666464  0.248457  1
  Ru  Ru27  1  0.666160  0.333140  0.751076  1
