# generated using pymatgen
data_Dy3ErTm4In3Co
_symmetry_space_group_name_H-M   'P 1'
_cell_length_a   10.29582000
_cell_length_b   10.29582028
_cell_length_c   6.96685600
_cell_angle_alpha   90.00000000
_cell_angle_beta   90.00000000
_cell_angle_gamma   119.99999909
_symmetry_Int_Tables_number   1
_chemical_formula_structural   Dy3ErTm4In3Co
_chemical_formula_sum   'Dy6 Er2 Tm8 In6 Co2'
_cell_volume   639.57188491
_cell_formula_units_Z   2
loop_
 _symmetry_equiv_pos_site_id
 _symmetry_equiv_pos_as_xyz
  1  'x, y, z'
loop_
 _atom_site_type_symbol
 _atom_site_label
 _atom_site_symmetry_multiplicity
 _atom_site_fract_x
 _atom_site_fract_y
 _atom_site_fract_z
 _atom_site_occupancy
  Dy  Dy0  1  0.534196  0.068392  0.791177  1
  Dy  Dy1  1  0.931608  0.465804  0.791177  1
  Dy  Dy2  1  0.534196  0.465804  0.791177  1
  Dy  Dy3  1  0.465804  0.931608  0.291177  1
  Dy  Dy4  1  0.068392  0.534196  0.291177  1
  Dy  Dy5  1  0.465804  0.534196  0.291177  1
  Er  Er6  1  0.000000  0.000000  0.779626  1
  Er  Er7  1  0.000000  0.000000  0.279626  1
  Tm  Tm8  1  0.821735  0.643471  0.499089  1
  Tm  Tm9  1  0.356529  0.178265  0.499089  1
  Tm  Tm10  1  0.821735  0.178265  0.499089  1
  Tm  Tm11  1  0.178265  0.356529  0.999089  1
  Tm  Tm12  1  0.643471  0.821735  0.999089  1
  Tm  Tm13  1  0.178265  0.821735  0.999089  1
  Tm  Tm14  1  0.666667  0.333333  0.183504  1
  Tm  Tm15  1  0.333333  0.666667  0.683504  1
  In  In16  1  0.837185  0.674371  0.038899  1
  In  In17  1  0.325629  0.162815  0.038899  1
  In  In18  1  0.837185  0.162815  0.038899  1
  In  In19  1  0.162815  0.325629  0.538899  1
  In  In20  1  0.674371  0.837185  0.538899  1
  In  In21  1  0.162815  0.837185  0.538899  1
  Co  Co22  1  0.666667  0.333333  0.567326  1
  Co  Co23  1  0.333333  0.666667  0.067326  1
