# generated using pymatgen
data_Hf9BeCrRe3
_symmetry_space_group_name_H-M   'P 1'
_cell_length_a   8.50162000
_cell_length_b   8.50162009
_cell_length_c   8.49218500
_cell_angle_alpha   90.00000000
_cell_angle_beta   90.00000000
_cell_angle_gamma   119.99999964
_symmetry_Int_Tables_number   1
_chemical_formula_structural   Hf9BeCrRe3
_chemical_formula_sum   'Hf18 Be2 Cr2 Re6'
_cell_volume   531.56143243
_cell_formula_units_Z   2
loop_
 _symmetry_equiv_pos_site_id
 _symmetry_equiv_pos_as_xyz
  1  'x, y, z'
loop_
 _atom_site_type_symbol
 _atom_site_label
 _atom_site_symmetry_multiplicity
 _atom_site_fract_x
 _atom_site_fract_y
 _atom_site_fract_z
 _atom_site_occupancy
  Hf  Hf0  1  0.197205  0.802795  0.447519  1
  Hf  Hf1  1  0.197205  0.394411  0.447519  1
  Hf  Hf2  1  0.605589  0.802795  0.447519  1
  Hf  Hf3  1  0.802795  0.197205  0.552481  1
  Hf  Hf4  1  0.802795  0.605589  0.552481  1
  Hf  Hf5  1  0.394411  0.197205  0.552481  1
  Hf  Hf6  1  0.802795  0.197205  0.947519  1
  Hf  Hf7  1  0.802795  0.605589  0.947519  1
  Hf  Hf8  1  0.394411  0.197205  0.947519  1
  Hf  Hf9  1  0.197205  0.802795  0.052481  1
  Hf  Hf10  1  0.197205  0.394411  0.052481  1
  Hf  Hf11  1  0.605589  0.802795  0.052481  1
  Hf  Hf12  1  0.539708  0.460292  0.250000  1
  Hf  Hf13  1  0.539708  0.079415  0.250000  1
  Hf  Hf14  1  0.920585  0.460292  0.250000  1
  Hf  Hf15  1  0.460292  0.539708  0.750000  1
  Hf  Hf16  1  0.460292  0.920585  0.750000  1
  Hf  Hf17  1  0.079415  0.539708  0.750000  1
  Be  Be18  1  0.333333  0.666667  0.250000  1
  Be  Be19  1  0.666667  0.333333  0.750000  1
  Cr  Cr20  1  0.000000  0.000000  0.500000  1
  Cr  Cr21  1  0.000000  0.000000  0.000000  1
  Re  Re22  1  0.891599  0.108401  0.250000  1
  Re  Re23  1  0.891599  0.783199  0.250000  1
  Re  Re24  1  0.216801  0.108401  0.250000  1
  Re  Re25  1  0.108401  0.891599  0.750000  1
  Re  Re26  1  0.108401  0.216801  0.750000  1
  Re  Re27  1  0.783199  0.891599  0.750000  1
