# generated using pymatgen
data_Cs6TbYBi4
_symmetry_space_group_name_H-M   'P 1'
_cell_length_a   10.71643968
_cell_length_b   10.71644095
_cell_length_c   10.71644034
_cell_angle_alpha   127.13661151
_cell_angle_beta   70.96140768
_cell_angle_gamma   136.26023974
_symmetry_Int_Tables_number   1
_chemical_formula_structural   Cs6TbYBi4
_chemical_formula_sum   'Cs6 Tb1 Y1 Bi4'
_cell_volume   664.68465961
_cell_formula_units_Z   1
loop_
 _symmetry_equiv_pos_site_id
 _symmetry_equiv_pos_as_xyz
  1  'x, y, z'
loop_
 _atom_site_type_symbol
 _atom_site_label
 _atom_site_symmetry_multiplicity
 _atom_site_fract_x
 _atom_site_fract_y
 _atom_site_fract_z
 _atom_site_occupancy
  Cs  Cs0  1  0.250000  0.250000  0.000000  1
  Cs  Cs1  1  0.750000  0.750000  0.000000  1
  Cs  Cs2  1  0.315060  0.803005  0.118063  1
  Cs  Cs3  1  0.184940  0.303003  0.487945  1
  Cs  Cs4  1  0.815060  0.696996  0.512056  1
  Cs  Cs5  1  0.684940  0.196996  0.881936  1
  Tb  Tb6  1  0.750000  0.250000  0.500000  1
  Y  Y7  1  0.250000  0.749999  0.499999  1
  Bi  Bi8  1  0.905840  0.312186  0.217789  1
  Bi  Bi9  1  0.594160  0.811950  0.406348  1
  Bi  Bi10  1  0.405604  0.187814  0.593652  1
  Bi  Bi11  1  0.094396  0.688050  0.782210  1
