# generated using pymatgen
data_DyHo2In3Ag2Ir
_symmetry_space_group_name_H-M   'P 1'
_cell_length_a   7.89331275
_cell_length_b   7.89012880
_cell_length_c   3.81262400
_cell_angle_alpha   90.00000000
_cell_angle_beta   90.00000000
_cell_angle_gamma   119.96324898
_symmetry_Int_Tables_number   1
_chemical_formula_structural   DyHo2In3Ag2Ir
_chemical_formula_sum   'Dy1 Ho2 In3 Ag2 Ir1'
_cell_volume   205.71157295
_cell_formula_units_Z   1
loop_
 _symmetry_equiv_pos_site_id
 _symmetry_equiv_pos_as_xyz
  1  'x, y, z'
loop_
 _atom_site_type_symbol
 _atom_site_label
 _atom_site_symmetry_multiplicity
 _atom_site_fract_x
 _atom_site_fract_y
 _atom_site_fract_z
 _atom_site_occupancy
  Dy  Dy0  1  0.031195  0.423453  0.000000  1
  Ho  Ho1  1  0.576358  0.607961  0.000000  1
  Ho  Ho2  1  0.392157  0.968422  0.000000  1
  In  In3  1  0.993998  0.729062  0.500000  1
  In  In4  1  0.271224  0.265058  0.500000  1
  In  In5  1  0.734771  0.005870  0.500000  1
  Ag  Ag6  1  0.999990  0.999873  0.000000  1
  Ag  Ag7  1  0.666417  0.333262  0.500000  1
  Ir  Ir8  1  0.333889  0.667040  0.500000  1
