# generated using pymatgen
data_PmCrSi2Pt
_symmetry_space_group_name_H-M   'P 1'
_cell_length_a   5.92444502
_cell_length_b   5.92444429
_cell_length_c   5.92444500
_cell_angle_alpha   139.60676236
_cell_angle_beta   139.60675851
_cell_angle_gamma   58.45086461
_symmetry_Int_Tables_number   1
_chemical_formula_structural   PmCrSi2Pt
_chemical_formula_sum   'Pm1 Cr1 Si2 Pt1'
_cell_volume   86.52069093
_cell_formula_units_Z   1
loop_
 _symmetry_equiv_pos_site_id
 _symmetry_equiv_pos_as_xyz
  1  'x, y, z'
loop_
 _atom_site_type_symbol
 _atom_site_label
 _atom_site_symmetry_multiplicity
 _atom_site_fract_x
 _atom_site_fract_y
 _atom_site_fract_z
 _atom_site_occupancy
  Pm  Pm0  1  0.000000  0.000000  0.000000  1
  Cr  Cr1  1  0.750000  0.250000  0.500000  1
  Si  Si2  1  0.382434  0.382434  0.000000  1
  Si  Si3  1  0.617565  0.617565  0.000000  1
  Pt  Pt4  1  0.250000  0.750000  0.500000  1
