# generated using pymatgen
data_Ta7Re4
_symmetry_space_group_name_H-M   'P 1'
_cell_length_a   3.21146611
_cell_length_b   3.21146636
_cell_length_c   18.23168908
_cell_angle_alpha   85.04191324
_cell_angle_beta   85.04191404
_cell_angle_gamma   90.33727591
_symmetry_Int_Tables_number   1
_chemical_formula_structural   Ta7Re4
_chemical_formula_sum   'Ta7 Re4'
_cell_volume   186.61137391
_cell_formula_units_Z   1
loop_
 _symmetry_equiv_pos_site_id
 _symmetry_equiv_pos_as_xyz
  1  'x, y, z'
loop_
 _atom_site_type_symbol
 _atom_site_label
 _atom_site_symmetry_multiplicity
 _atom_site_fract_x
 _atom_site_fract_y
 _atom_site_fract_z
 _atom_site_occupancy
  Ta  Ta0  1  0.118235  0.118235  0.139280  1
  Ta  Ta1  1  0.862123  0.862123  0.687330  1
  Ta  Ta2  1  0.669787  0.669787  0.041011  1
  Ta  Ta3  1  0.411933  0.411933  0.589068  1
  Ta  Ta4  1  0.035818  0.035818  0.315221  1
  Ta  Ta5  1  0.766909  0.766909  0.864173  1
  Ta  Ta6  1  0.491945  0.491945  0.413116  1
  Re  Re7  1  0.575215  0.575215  0.227249  1
  Re  Re8  1  0.316739  0.316739  0.774754  1
  Re  Re9  1  0.216568  0.216568  0.953591  1
  Re  Re10  1  0.953268  0.953268  0.501105  1
