# generated using pymatgen
data_Tb5Cd3InNi2
_symmetry_space_group_name_H-M   'P 1'
_cell_length_a   3.60519900
_cell_length_b   7.89151202
_cell_length_c   18.19857950
_cell_angle_alpha   89.50416070
_cell_angle_beta   90.00000000
_cell_angle_gamma   90.00000000
_symmetry_Int_Tables_number   1
_chemical_formula_structural   Tb5Cd3InNi2
_chemical_formula_sum   'Tb10 Cd6 In2 Ni4'
_cell_volume   517.73877464
_cell_formula_units_Z   2
loop_
 _symmetry_equiv_pos_site_id
 _symmetry_equiv_pos_as_xyz
  1  'x, y, z'
loop_
 _atom_site_type_symbol
 _atom_site_label
 _atom_site_symmetry_multiplicity
 _atom_site_fract_x
 _atom_site_fract_y
 _atom_site_fract_z
 _atom_site_occupancy
  Tb  Tb0  1  0.000000  0.500000  0.500000  1
  Tb  Tb1  1  0.000000  0.000000  0.000000  1
  Tb  Tb2  1  0.000000  0.749601  0.279228  1
  Tb  Tb3  1  0.000000  0.250399  0.720772  1
  Tb  Tb4  1  0.000000  0.747721  0.778081  1
  Tb  Tb5  1  0.000000  0.252279  0.221919  1
  Tb  Tb6  1  0.000000  0.615172  0.089034  1
  Tb  Tb7  1  0.000000  0.384828  0.910966  1
  Tb  Tb8  1  0.000000  0.887194  0.588292  1
  Tb  Tb9  1  0.000000  0.112806  0.411708  1
  Cd  Cd10  1  0.500000  0.710159  0.930308  1
  Cd  Cd11  1  0.500000  0.289841  0.069692  1
  Cd  Cd12  1  0.500000  0.787465  0.429775  1
  Cd  Cd13  1  0.500000  0.212535  0.570225  1
  Cd  Cd14  1  0.500000  0.567558  0.650262  1
  Cd  Cd15  1  0.500000  0.432442  0.349738  1
  In  In16  1  0.500000  0.934785  0.151420  1
  In  In17  1  0.500000  0.065215  0.848580  1
  Ni  Ni18  1  0.500000  0.529615  0.196149  1
  Ni  Ni19  1  0.500000  0.470385  0.803851  1
  Ni  Ni20  1  0.500000  0.970890  0.696370  1
  Ni  Ni21  1  0.500000  0.029110  0.303630  1
