# generated using pymatgen
data_Eu2ErThPt4
_symmetry_space_group_name_H-M   'P 1'
_cell_length_a   4.52195100
_cell_length_b   5.77940657
_cell_length_c   7.48298400
_cell_angle_alpha   90.23002020
_cell_angle_beta   90.00000000
_cell_angle_gamma   90.00000000
_symmetry_Int_Tables_number   1
_chemical_formula_structural   Eu2ErThPt4
_chemical_formula_sum   'Eu2 Er1 Th1 Pt4'
_cell_volume   195.56017464
_cell_formula_units_Z   1
loop_
 _symmetry_equiv_pos_site_id
 _symmetry_equiv_pos_as_xyz
  1  'x, y, z'
loop_
 _atom_site_type_symbol
 _atom_site_label
 _atom_site_symmetry_multiplicity
 _atom_site_fract_x
 _atom_site_fract_y
 _atom_site_fract_z
 _atom_site_occupancy
  Eu  Eu0  1  0.250000  0.140145  0.180823  1
  Eu  Eu1  1  0.750000  0.643761  0.314376  1
  Er  Er2  1  0.750000  0.860885  0.821581  1
  Th  Th3  1  0.250000  0.360813  0.682656  1
  Pt  Pt4  1  0.250000  0.844043  0.569319  1
  Pt  Pt5  1  0.250000  0.652264  0.018334  1
  Pt  Pt6  1  0.750000  0.153095  0.477558  1
  Pt  Pt7  1  0.750000  0.344995  0.935354  1
