# generated using pymatgen
data_Nd2Zn(AsRh2)6
_symmetry_space_group_name_H-M   'P 1'
_cell_length_a   9.99027700
_cell_length_b   9.99027853
_cell_length_c   4.01544500
_cell_angle_alpha   90.00000000
_cell_angle_beta   90.00000000
_cell_angle_gamma   120.00001148
_symmetry_Int_Tables_number   1
_chemical_formula_structural   Nd2Zn(AsRh2)6
_chemical_formula_sum   'Nd2 Zn1 As6 Rh12'
_cell_volume   347.07184937
_cell_formula_units_Z   1
loop_
 _symmetry_equiv_pos_site_id
 _symmetry_equiv_pos_as_xyz
  1  'x, y, z'
loop_
 _atom_site_type_symbol
 _atom_site_label
 _atom_site_symmetry_multiplicity
 _atom_site_fract_x
 _atom_site_fract_y
 _atom_site_fract_z
 _atom_site_occupancy
  Nd  Nd0  1  0.333333  0.666667  0.753996  1
  Nd  Nd1  1  0.666667  0.333333  0.246004  1
  Zn  Zn2  1  0.000000  0.000000  0.500000  1
  As  As3  1  0.884912  0.599318  0.748879  1
  As  As4  1  0.400682  0.285593  0.748879  1
  As  As5  1  0.714407  0.115088  0.748879  1
  As  As6  1  0.115088  0.400682  0.251121  1
  As  As7  1  0.599318  0.714407  0.251121  1
  As  As8  1  0.285593  0.884912  0.251121  1
  Rh  Rh9  1  0.615103  0.553693  0.750202  1
  Rh  Rh10  1  0.446307  0.061411  0.750202  1
  Rh  Rh11  1  0.938589  0.384897  0.750202  1
  Rh  Rh12  1  0.384897  0.446307  0.249798  1
  Rh  Rh13  1  0.553693  0.938589  0.249798  1
  Rh  Rh14  1  0.061411  0.615103  0.249798  1
  Rh  Rh15  1  0.124177  0.846705  0.751467  1
  Rh  Rh16  1  0.153295  0.277471  0.751467  1
  Rh  Rh17  1  0.722529  0.875823  0.751467  1
  Rh  Rh18  1  0.875823  0.153295  0.248533  1
  Rh  Rh19  1  0.846705  0.722529  0.248533  1
  Rh  Rh20  1  0.277471  0.124177  0.248533  1
