# generated using pymatgen
data_Y2Er2Th(FeB3)2
_symmetry_space_group_name_H-M   'P 1'
_cell_length_a   5.42595595
_cell_length_b   5.42595429
_cell_length_c   8.11167208
_cell_angle_alpha   70.46067819
_cell_angle_beta   70.46068295
_cell_angle_gamma   59.99998299
_symmetry_Int_Tables_number   1
_chemical_formula_structural   Y2Er2Th(FeB3)2
_chemical_formula_sum   'Y2 Er2 Th1 Fe2 B6'
_cell_volume   190.77477445
_cell_formula_units_Z   1
loop_
 _symmetry_equiv_pos_site_id
 _symmetry_equiv_pos_as_xyz
  1  'x, y, z'
loop_
 _atom_site_type_symbol
 _atom_site_label
 _atom_site_symmetry_multiplicity
 _atom_site_fract_x
 _atom_site_fract_y
 _atom_site_fract_z
 _atom_site_occupancy
  Y  Y0  1  0.585044  0.585044  0.244868  1
  Y  Y1  1  0.414956  0.414956  0.755132  1
  Er  Er2  1  0.749058  0.749058  0.752827  1
  Er  Er3  1  0.250942  0.250942  0.247173  1
  Th  Th4  1  0.000000  0.000000  0.000000  1
  Fe  Fe5  1  0.887563  0.887563  0.337310  1
  Fe  Fe6  1  0.112437  0.112437  0.662690  1
  B  B7  1  0.500000  0.167049  0.500000  1
  B  B8  1  0.832951  0.500000  0.500000  1
  B  B9  1  0.167049  0.832951  0.500000  1
  B  B10  1  0.167049  0.500000  0.500000  1
  B  B11  1  0.832951  0.167049  0.500000  1
  B  B12  1  0.500000  0.832951  0.500000  1
