# generated using pymatgen
data_YbHo2Tm5(B6Ru)4
_symmetry_space_group_name_H-M   'P 1'
_cell_length_a   3.62712200
_cell_length_b   9.08581969
_cell_length_c   11.46922000
_cell_angle_alpha   89.92560478
_cell_angle_beta   90.00000000
_cell_angle_gamma   90.00000000
_symmetry_Int_Tables_number   1
_chemical_formula_structural   YbHo2Tm5(B6Ru)4
_chemical_formula_sum   'Yb1 Ho2 Tm5 B24 Ru4'
_cell_volume   377.97214431
_cell_formula_units_Z   1
loop_
 _symmetry_equiv_pos_site_id
 _symmetry_equiv_pos_as_xyz
  1  'x, y, z'
loop_
 _atom_site_type_symbol
 _atom_site_label
 _atom_site_symmetry_multiplicity
 _atom_site_fract_x
 _atom_site_fract_y
 _atom_site_fract_z
 _atom_site_occupancy
  Yb  Yb0  1  0.000000  0.323291  0.413700  1
  Ho  Ho1  1  0.000000  0.676198  0.585061  1
  Ho  Ho2  1  0.000000  0.822309  0.086277  1
  Tm  Tm3  1  0.000000  0.178474  0.914678  1
  Tm  Tm4  1  0.000000  0.944173  0.371352  1
  Tm  Tm5  1  0.000000  0.057824  0.627950  1
  Tm  Tm6  1  0.000000  0.442985  0.129169  1
  Tm  Tm7  1  0.000000  0.555894  0.872302  1
  B  B8  1  0.500000  0.554033  0.432597  1
  B  B9  1  0.500000  0.445673  0.567393  1
  B  B10  1  0.500000  0.053572  0.066227  1
  B  B11  1  0.500000  0.946234  0.932724  1
  B  B12  1  0.500000  0.748951  0.419285  1
  B  B13  1  0.500000  0.251429  0.580989  1
  B  B14  1  0.500000  0.248227  0.080066  1
  B  B15  1  0.500000  0.751147  0.919595  1
  B  B16  1  0.500000  0.791919  0.265892  1
  B  B17  1  0.500000  0.208870  0.734719  1
  B  B18  1  0.500000  0.290498  0.233666  1
  B  B19  1  0.500000  0.708727  0.766134  1
  B  B20  1  0.500000  0.631536  0.185364  1
  B  B21  1  0.500000  0.368527  0.815778  1
  B  B22  1  0.500000  0.130942  0.314387  1
  B  B23  1  0.500000  0.868974  0.684868  1
  B  B24  1  0.500000  0.982981  0.212061  1
  B  B25  1  0.500000  0.017526  0.787286  1
  B  B26  1  0.500000  0.483320  0.287366  1
  B  B27  1  0.500000  0.516792  0.713025  1
  B  B28  1  0.500000  0.606453  0.029520  1
  B  B29  1  0.500000  0.393096  0.970851  1
  B  B30  1  0.500000  0.103185  0.471487  1
  B  B31  1  0.500000  0.895694  0.528789  1
  Ru  Ru32  1  0.000000  0.639685  0.320031  1
  Ru  Ru33  1  0.000000  0.361486  0.680846  1
  Ru  Ru34  1  0.000000  0.137102  0.177678  1
  Ru  Ru35  1  0.000000  0.862276  0.820887  1
