# generated using pymatgen
data_Sm2Y18Si15Hg
_symmetry_space_group_name_H-M   'P 1'
_cell_length_a   7.48569406
_cell_length_b   7.76539058
_cell_length_c   14.73501125
_cell_angle_alpha   89.77788077
_cell_angle_beta   89.97991256
_cell_angle_gamma   89.88691627
_symmetry_Int_Tables_number   1
_chemical_formula_structural   Sm2Y18Si15Hg
_chemical_formula_sum   'Sm2 Y18 Si15 Hg1'
_cell_volume   856.52829580
_cell_formula_units_Z   1
loop_
 _symmetry_equiv_pos_site_id
 _symmetry_equiv_pos_as_xyz
  1  'x, y, z'
loop_
 _atom_site_type_symbol
 _atom_site_label
 _atom_site_symmetry_multiplicity
 _atom_site_fract_x
 _atom_site_fract_y
 _atom_site_fract_z
 _atom_site_occupancy
  Sm  Sm0  1  0.527170  0.569800  0.345722  1
  Sm  Sm1  1  0.027545  0.433089  0.651874  1
  Y  Y2  1  0.823128  0.568508  0.869101  1
  Y  Y3  1  0.306318  0.418708  0.131100  1
  Y  Y4  1  0.182882  0.929484  0.374020  1
  Y  Y5  1  0.682960  0.071261  0.625947  1
  Y  Y6  1  0.183506  0.929154  0.626474  1
  Y  Y7  1  0.683483  0.072026  0.373185  1
  Y  Y8  1  0.825432  0.566110  0.131825  1
  Y  Y9  1  0.308857  0.421100  0.868287  1
  Y  Y10  1  0.642797  0.230571  0.999834  1
  Y  Y11  1  0.144961  0.760641  0.000512  1
  Y  Y12  1  0.352794  0.263626  0.499895  1
  Y  Y13  1  0.852300  0.737358  0.499998  1
  Y  Y14  1  0.469617  0.939887  0.842030  1
  Y  Y15  1  0.969661  0.067368  0.154222  1
  Y  Y16  1  0.468994  0.939695  0.157749  1
  Y  Y17  1  0.969384  0.067649  0.846402  1
  Y  Y18  1  0.530116  0.568011  0.651815  1
  Y  Y19  1  0.030051  0.434481  0.349827  1
  Si  Si20  1  0.018841  0.351786  0.000003  1
  Si  Si21  1  0.479903  0.854084  0.500417  1
  Si  Si22  1  0.978383  0.144721  0.499526  1
  Si  Si23  1  0.645428  0.278099  0.789946  1
  Si  Si24  1  0.150323  0.722883  0.210423  1
  Si  Si25  1  0.354102  0.221067  0.292911  1
  Si  Si26  1  0.855465  0.781822  0.709632  1
  Si  Si27  1  0.358463  0.222730  0.706428  1
  Si  Si28  1  0.859212  0.780002  0.290983  1
  Si  Si29  1  0.642613  0.274246  0.208284  1
  Si  Si30  1  0.148038  0.726770  0.791304  1
  Si  Si31  1  0.777126  0.882261  0.000594  1
  Si  Si32  1  0.259546  0.123399  0.999467  1
  Si  Si33  1  0.235818  0.625971  0.500617  1
  Si  Si34  1  0.734696  0.376440  0.499204  1
  Hg  Hg35  1  0.520090  0.645192  0.000438  1
