# generated using pymatgen
data_TbGdSi2O7
_symmetry_space_group_name_H-M   'P 1'
_cell_length_a   5.76417315
_cell_length_b   5.76417249
_cell_length_c   4.79988029
_cell_angle_alpha   82.94911109
_cell_angle_beta   82.94910590
_cell_angle_gamma   105.39111064
_symmetry_Int_Tables_number   1
_chemical_formula_structural   TbGdSi2O7
_chemical_formula_sum   'Tb1 Gd1 Si2 O7'
_cell_volume   150.57294704
_cell_formula_units_Z   1
loop_
 _symmetry_equiv_pos_site_id
 _symmetry_equiv_pos_as_xyz
  1  'x, y, z'
loop_
 _atom_site_type_symbol
 _atom_site_label
 _atom_site_symmetry_multiplicity
 _atom_site_fract_x
 _atom_site_fract_y
 _atom_site_fract_z
 _atom_site_occupancy
  Tb  Tb0  1  0.691031  0.308969  0.500000  1
  Gd  Gd1  1  0.304508  0.695492  0.500000  1
  Si  Si2  1  0.216821  0.216096  0.087543  1
  Si  Si3  1  0.783904  0.783179  0.912457  1
  O  O4  1  0.376107  0.379571  0.787340  1
  O  O5  1  0.620429  0.623893  0.212660  1
  O  O6  1  0.011233  0.988767  0.000000  1
  O  O7  1  0.080763  0.378005  0.275433  1
  O  O8  1  0.386382  0.093171  0.278631  1
  O  O9  1  0.906829  0.613618  0.721369  1
  O  O10  1  0.621995  0.919237  0.724567  1
