# generated using pymatgen
data_Er7Ag(Sn11Os3)2
_symmetry_space_group_name_H-M   'P 1'
_cell_length_a   9.81816500
_cell_length_b   9.81816498
_cell_length_c   10.04881800
_cell_angle_alpha   90.00000000
_cell_angle_beta   90.00000000
_cell_angle_gamma   120.00000343
_symmetry_Int_Tables_number   1
_chemical_formula_structural   Er7Ag(Sn11Os3)2
_chemical_formula_sum   'Er7 Ag1 Sn22 Os6'
_cell_volume   838.89237947
_cell_formula_units_Z   1
loop_
 _symmetry_equiv_pos_site_id
 _symmetry_equiv_pos_as_xyz
  1  'x, y, z'
loop_
 _atom_site_type_symbol
 _atom_site_label
 _atom_site_symmetry_multiplicity
 _atom_site_fract_x
 _atom_site_fract_y
 _atom_site_fract_z
 _atom_site_occupancy
  Er  Er0  1  0.486321  0.513679  0.303107  1
  Er  Er1  1  0.513679  0.486321  0.696893  1
  Er  Er2  1  0.486321  0.972644  0.303107  1
  Er  Er3  1  0.513679  0.027356  0.696893  1
  Er  Er4  1  0.027356  0.513679  0.303107  1
  Er  Er5  1  0.972644  0.486321  0.696893  1
  Er  Er6  1  0.000000  0.000000  0.000000  1
  Ag  Ag7  1  0.000000  0.000000  0.500000  1
  Sn  Sn8  1  0.118783  0.881217  0.278258  1
  Sn  Sn9  1  0.881217  0.118783  0.721742  1
  Sn  Sn10  1  0.118783  0.237566  0.278258  1
  Sn  Sn11  1  0.881217  0.762434  0.721742  1
  Sn  Sn12  1  0.762434  0.881217  0.278258  1
  Sn  Sn13  1  0.237566  0.118783  0.721742  1
  Sn  Sn14  1  0.778683  0.221317  0.465216  1
  Sn  Sn15  1  0.221317  0.778683  0.534784  1
  Sn  Sn16  1  0.778683  0.557367  0.465216  1
  Sn  Sn17  1  0.221317  0.442633  0.534784  1
  Sn  Sn18  1  0.442633  0.221317  0.465216  1
  Sn  Sn19  1  0.557367  0.778683  0.534784  1
  Sn  Sn20  1  0.349657  0.000000  0.000000  1
  Sn  Sn21  1  0.650343  0.000000  0.000000  1
  Sn  Sn22  1  0.000000  0.349657  0.000000  1
  Sn  Sn23  1  0.000000  0.650343  0.000000  1
  Sn  Sn24  1  0.650343  0.650343  0.000000  1
  Sn  Sn25  1  0.349657  0.349657  0.000000  1
  Sn  Sn26  1  0.333333  0.666667  0.133951  1
  Sn  Sn27  1  0.666667  0.333333  0.866049  1
  Sn  Sn28  1  0.333333  0.666667  0.829899  1
  Sn  Sn29  1  0.666667  0.333333  0.170101  1
  Os  Os30  1  0.830710  0.169290  0.204835  1
  Os  Os31  1  0.169290  0.830710  0.795165  1
  Os  Os32  1  0.830710  0.661422  0.204835  1
  Os  Os33  1  0.169290  0.338578  0.795165  1
  Os  Os34  1  0.338578  0.169290  0.204835  1
  Os  Os35  1  0.661422  0.830710  0.795165  1
