# generated using pymatgen
data_Al(FeRe)6
_symmetry_space_group_name_H-M   'P 1'
_cell_length_a   4.69985077
_cell_length_b   4.69985079
_cell_length_c   9.03375535
_cell_angle_alpha   74.92239879
_cell_angle_beta   74.92239426
_cell_angle_gamma   59.99998940
_symmetry_Int_Tables_number   1
_chemical_formula_structural   Al(FeRe)6
_chemical_formula_sum   'Al1 Fe6 Re6'
_cell_volume   164.82948136
_cell_formula_units_Z   1
loop_
 _symmetry_equiv_pos_site_id
 _symmetry_equiv_pos_as_xyz
  1  'x, y, z'
loop_
 _atom_site_type_symbol
 _atom_site_label
 _atom_site_symmetry_multiplicity
 _atom_site_fract_x
 _atom_site_fract_y
 _atom_site_fract_z
 _atom_site_occupancy
  Al  Al0  1  0.000000  0.000000  0.000000  1
  Fe  Fe1  1  0.908864  0.908864  0.767024  1
  Fe  Fe2  1  0.415248  0.908864  0.767024  1
  Fe  Fe3  1  0.908864  0.415248  0.767024  1
  Fe  Fe4  1  0.091136  0.091136  0.232976  1
  Fe  Fe5  1  0.584752  0.091136  0.232976  1
  Fe  Fe6  1  0.091136  0.584752  0.232976  1
  Re  Re7  1  0.830942  0.830942  0.507172  1
  Re  Re8  1  0.169058  0.169058  0.492828  1
  Re  Re9  1  0.653125  0.653125  0.040625  1
  Re  Re10  1  0.346875  0.346875  0.959375  1
  Re  Re11  1  0.548481  0.548481  0.354557  1
  Re  Re12  1  0.451519  0.451519  0.645443  1
