# generated using pymatgen
data_LaDyEr4(SbO7)2
_symmetry_space_group_name_H-M   'P 1'
_cell_length_a   6.46553043
_cell_length_b   6.46553002
_cell_length_c   7.53913834
_cell_angle_alpha   89.92635197
_cell_angle_beta   90.07364765
_cell_angle_gamma   108.87785027
_symmetry_Int_Tables_number   1
_chemical_formula_structural   LaDyEr4(SbO7)2
_chemical_formula_sum   'La1 Dy1 Er4 Sb2 O14'
_cell_volume   298.20658578
_cell_formula_units_Z   1
loop_
 _symmetry_equiv_pos_site_id
 _symmetry_equiv_pos_as_xyz
  1  'x, y, z'
loop_
 _atom_site_type_symbol
 _atom_site_label
 _atom_site_symmetry_multiplicity
 _atom_site_fract_x
 _atom_site_fract_y
 _atom_site_fract_z
 _atom_site_occupancy
  La  La0  1  0.501282  0.501282  0.500000  1
  Dy  Dy1  1  0.487258  0.487258  0.000000  1
  Er  Er2  1  0.998309  0.469563  0.751668  1
  Er  Er3  1  0.000498  0.531862  0.244329  1
  Er  Er4  1  0.531862  0.000498  0.755671  1
  Er  Er5  1  0.469563  0.998309  0.248332  1
  Sb  Sb6  1  0.999737  0.999737  0.500000  1
  Sb  Sb7  1  0.000405  0.000405  0.000000  1
  O  O8  1  0.641396  0.358300  0.760194  1
  O  O9  1  0.358300  0.641396  0.239806  1
  O  O10  1  0.929407  0.071322  0.750126  1
  O  O11  1  0.071322  0.929407  0.249874  1
  O  O12  1  0.932945  0.677418  0.529261  1
  O  O13  1  0.075780  0.323828  0.028515  1
  O  O14  1  0.323828  0.075780  0.971485  1
  O  O15  1  0.677418  0.932945  0.470739  1
  O  O16  1  0.364560  0.635151  0.761324  1
  O  O17  1  0.635151  0.364560  0.238676  1
  O  O18  1  0.934780  0.681098  0.968044  1
  O  O19  1  0.064247  0.320854  0.467403  1
  O  O20  1  0.320854  0.064247  0.532597  1
  O  O21  1  0.681098  0.934780  0.031956  1
