# generated using pymatgen
data_Nd2Y3ErRh18
_symmetry_space_group_name_H-M   'P 1'
_cell_length_a   5.30644100
_cell_length_b   5.30644237
_cell_length_c   17.51912000
_cell_angle_alpha   90.00000000
_cell_angle_beta   90.00000000
_cell_angle_gamma   119.99999771
_symmetry_Int_Tables_number   1
_chemical_formula_structural   Nd2Y3ErRh18
_chemical_formula_sum   'Nd2 Y3 Er1 Rh18'
_cell_volume   427.21817530
_cell_formula_units_Z   1
loop_
 _symmetry_equiv_pos_site_id
 _symmetry_equiv_pos_as_xyz
  1  'x, y, z'
loop_
 _atom_site_type_symbol
 _atom_site_label
 _atom_site_symmetry_multiplicity
 _atom_site_fract_x
 _atom_site_fract_y
 _atom_site_fract_z
 _atom_site_occupancy
  Nd  Nd0  1  0.333333  0.666667  0.748437  1
  Nd  Nd1  1  0.666667  0.333333  0.251488  1
  Y  Y2  1  0.666667  0.333333  0.042978  1
  Y  Y3  1  0.666667  0.333333  0.458757  1
  Y  Y4  1  0.333333  0.666667  0.958153  1
  Er  Er5  1  0.333333  0.666667  0.541334  1
  Rh  Rh6  1  0.167122  0.334243  0.126630  1
  Rh  Rh7  1  0.832671  0.665342  0.623699  1
  Rh  Rh8  1  0.665757  0.832878  0.126630  1
  Rh  Rh9  1  0.167122  0.832878  0.126630  1
  Rh  Rh10  1  0.832671  0.167329  0.623699  1
  Rh  Rh11  1  0.334658  0.167329  0.623699  1
  Rh  Rh12  1  0.832875  0.665752  0.873865  1
  Rh  Rh13  1  0.832875  0.167125  0.873865  1
  Rh  Rh14  1  0.334248  0.167125  0.873865  1
  Rh  Rh15  1  0.665030  0.832515  0.375350  1
  Rh  Rh16  1  0.167485  0.832515  0.375350  1
  Rh  Rh17  1  0.167485  0.334970  0.375350  1
  Rh  Rh18  1  0.000000  0.000000  0.251180  1
  Rh  Rh19  1  0.000000  0.000000  0.748972  1
  Rh  Rh20  1  0.333333  0.666667  0.250967  1
  Rh  Rh21  1  0.666667  0.333333  0.748998  1
  Rh  Rh22  1  0.000000  0.000000  0.000353  1
  Rh  Rh23  1  0.000000  0.000000  0.499746  1
