# generated using pymatgen
data_Ac3Sn2Hg3
_symmetry_space_group_name_H-M   'P 1'
_cell_length_a   6.78188522
_cell_length_b   6.78188532
_cell_length_c   11.26249800
_cell_angle_alpha   90.00000000
_cell_angle_beta   90.00000000
_cell_angle_gamma   101.77591791
_symmetry_Int_Tables_number   1
_chemical_formula_structural   Ac3Sn2Hg3
_chemical_formula_sum   'Ac6 Sn4 Hg6'
_cell_volume   507.10460978
_cell_formula_units_Z   2
loop_
 _symmetry_equiv_pos_site_id
 _symmetry_equiv_pos_as_xyz
  1  'x, y, z'
loop_
 _atom_site_type_symbol
 _atom_site_label
 _atom_site_symmetry_multiplicity
 _atom_site_fract_x
 _atom_site_fract_y
 _atom_site_fract_z
 _atom_site_occupancy
  Ac  Ac0  1  0.636178  0.636178  0.250000  1
  Ac  Ac1  1  0.363822  0.363822  0.750000  1
  Ac  Ac2  1  0.200106  0.799894  0.500000  1
  Ac  Ac3  1  0.200106  0.799894  0.000000  1
  Ac  Ac4  1  0.799894  0.200106  0.500000  1
  Ac  Ac5  1  0.799894  0.200106  0.000000  1
  Sn  Sn6  1  0.316738  0.316738  0.050411  1
  Sn  Sn7  1  0.683262  0.683262  0.949589  1
  Sn  Sn8  1  0.316738  0.316738  0.449589  1
  Sn  Sn9  1  0.683262  0.683262  0.550411  1
  Hg  Hg10  1  0.026267  0.026267  0.250000  1
  Hg  Hg11  1  0.973733  0.973733  0.750000  1
  Hg  Hg12  1  0.497669  0.083011  0.250000  1
  Hg  Hg13  1  0.916989  0.502331  0.750000  1
  Hg  Hg14  1  0.502331  0.916989  0.750000  1
  Hg  Hg15  1  0.083011  0.497669  0.250000  1
