# generated using pymatgen
data_Yb2Dy2Mn3CrB16
_symmetry_space_group_name_H-M   'P 1'
_cell_length_a   5.91144581
_cell_length_b   11.42808372
_cell_length_c   3.40389300
_cell_angle_alpha   90.00000000
_cell_angle_beta   90.00000000
_cell_angle_gamma   90.06956878
_symmetry_Int_Tables_number   1
_chemical_formula_structural   Yb2Dy2Mn3CrB16
_chemical_formula_sum   'Yb2 Dy2 Mn3 Cr1 B16'
_cell_volume   229.95491995
_cell_formula_units_Z   1
loop_
 _symmetry_equiv_pos_site_id
 _symmetry_equiv_pos_as_xyz
  1  'x, y, z'
loop_
 _atom_site_type_symbol
 _atom_site_label
 _atom_site_symmetry_multiplicity
 _atom_site_fract_x
 _atom_site_fract_y
 _atom_site_fract_z
 _atom_site_occupancy
  Yb  Yb0  1  0.624686  0.351065  0.000000  1
  Yb  Yb1  1  0.375206  0.649602  0.000000  1
  Dy  Dy2  1  0.125587  0.152575  0.000000  1
  Dy  Dy3  1  0.875013  0.847209  0.000000  1
  Mn  Mn4  1  0.376778  0.919001  0.000000  1
  Mn  Mn5  1  0.122287  0.421466  0.000000  1
  Mn  Mn6  1  0.877966  0.579422  0.000000  1
  Cr  Cr7  1  0.623678  0.080787  0.000000  1
  B  B8  1  0.780236  0.184946  0.500000  1
  B  B9  1  0.222047  0.816021  0.500000  1
  B  B10  1  0.279028  0.318381  0.500000  1
  B  B11  1  0.720552  0.681942  0.500000  1
  B  B12  1  0.862440  0.032007  0.500000  1
  B  B13  1  0.138947  0.966635  0.500000  1
  B  B14  1  0.361596  0.467517  0.500000  1
  B  B15  1  0.638141  0.532818  0.500000  1
  B  B16  1  0.886511  0.453990  0.500000  1
  B  B17  1  0.113248  0.546479  0.500000  1
  B  B18  1  0.385939  0.045827  0.500000  1
  B  B19  1  0.611051  0.951914  0.500000  1
  B  B20  1  0.975847  0.310455  0.500000  1
  B  B21  1  0.024495  0.689957  0.500000  1
  B  B22  1  0.474690  0.191864  0.500000  1
  B  B23  1  0.524032  0.808120  0.500000  1
