# generated using pymatgen
data_Pu4Al17GaRh6
_symmetry_space_group_name_H-M   'P 1'
_cell_length_a   7.56010800
_cell_length_b   7.56010811
_cell_length_c   9.50228600
_cell_angle_alpha   90.00000000
_cell_angle_beta   90.00000000
_cell_angle_gamma   119.25496508
_symmetry_Int_Tables_number   1
_chemical_formula_structural   Pu4Al17GaRh6
_chemical_formula_sum   'Pu4 Al17 Ga1 Rh6'
_cell_volume   473.83427548
_cell_formula_units_Z   1
loop_
 _symmetry_equiv_pos_site_id
 _symmetry_equiv_pos_as_xyz
  1  'x, y, z'
loop_
 _atom_site_type_symbol
 _atom_site_label
 _atom_site_symmetry_multiplicity
 _atom_site_fract_x
 _atom_site_fract_y
 _atom_site_fract_z
 _atom_site_occupancy
  Pu  Pu0  1  0.994307  0.675364  0.250000  1
  Pu  Pu1  1  0.004423  0.326749  0.750000  1
  Pu  Pu2  1  0.675364  0.994307  0.250000  1
  Pu  Pu3  1  0.326749  0.004423  0.750000  1
  Al  Al4  1  0.870702  0.870702  0.750000  1
  Al  Al5  1  0.001468  0.337722  0.073411  1
  Al  Al6  1  0.999819  0.663061  0.923785  1
  Al  Al7  1  0.999819  0.663061  0.576215  1
  Al  Al8  1  0.337722  0.001468  0.426589  1
  Al  Al9  1  0.001468  0.337722  0.426589  1
  Al  Al10  1  0.663061  0.999819  0.576215  1
  Al  Al11  1  0.663061  0.999819  0.923785  1
  Al  Al12  1  0.337722  0.001468  0.073411  1
  Al  Al13  1  0.332811  0.332811  0.554076  1
  Al  Al14  1  0.665224  0.665224  0.451732  1
  Al  Al15  1  0.665224  0.665224  0.048268  1
  Al  Al16  1  0.332811  0.332811  0.945924  1
  Al  Al17  1  0.338687  0.550134  0.250000  1
  Al  Al18  1  0.660017  0.448584  0.750000  1
  Al  Al19  1  0.550134  0.338687  0.250000  1
  Al  Al20  1  0.448584  0.660017  0.750000  1
  Ga  Ga21  1  0.133456  0.133456  0.250000  1
  Rh  Rh22  1  0.670639  0.329004  0.999773  1
  Rh  Rh23  1  0.329004  0.670639  0.999773  1
  Rh  Rh24  1  0.329004  0.670639  0.500227  1
  Rh  Rh25  1  0.670639  0.329004  0.500227  1
  Rh  Rh26  1  0.999039  0.999039  0.997670  1
  Rh  Rh27  1  0.999039  0.999039  0.502330  1
