# generated using pymatgen
data_SiTc2Ni3MoP2
_symmetry_space_group_name_H-M   'P 1'
_cell_length_a   5.86081802
_cell_length_b   5.85067560
_cell_length_c   3.70884100
_cell_angle_alpha   90.00000000
_cell_angle_beta   90.00000000
_cell_angle_gamma   120.12920292
_symmetry_Int_Tables_number   1
_chemical_formula_structural   SiTc2Ni3MoP2
_chemical_formula_sum   'Si1 Tc2 Ni3 Mo1 P2'
_cell_volume   109.99329337
_cell_formula_units_Z   1
loop_
 _symmetry_equiv_pos_site_id
 _symmetry_equiv_pos_as_xyz
  1  'x, y, z'
loop_
 _atom_site_type_symbol
 _atom_site_label
 _atom_site_symmetry_multiplicity
 _atom_site_fract_x
 _atom_site_fract_y
 _atom_site_fract_z
 _atom_site_occupancy
  Si  Si0  1  0.670483  0.331350  0.000000  1
  Tc  Tc1  1  0.003183  0.590739  0.500000  1
  Tc  Tc2  1  0.586422  0.995986  0.500000  1
  Ni  Ni3  1  0.747319  0.752219  0.000000  1
  Ni  Ni4  1  0.246342  0.995593  0.000000  1
  Ni  Ni5  1  0.006054  0.250809  0.000000  1
  Mo  Mo6  1  0.410685  0.416026  0.500000  1
  P  P7  1  0.997835  0.998084  0.500000  1
  P  P8  1  0.331677  0.669193  0.000000  1
