# generated using pymatgen
data_Pr3Dy2(Co2Sn5)2
_symmetry_space_group_name_H-M   'P 1'
_cell_length_a   13.91816200
_cell_length_b   13.91816200
_cell_length_c   4.52766700
_cell_angle_alpha   90.00000000
_cell_angle_beta   90.00000000
_cell_angle_gamma   90.00000000
_symmetry_Int_Tables_number   1
_chemical_formula_structural   Pr3Dy2(Co2Sn5)2
_chemical_formula_sum   'Pr6 Dy4 Co8 Sn20'
_cell_volume   877.07806993
_cell_formula_units_Z   2
loop_
 _symmetry_equiv_pos_site_id
 _symmetry_equiv_pos_as_xyz
  1  'x, y, z'
loop_
 _atom_site_type_symbol
 _atom_site_label
 _atom_site_symmetry_multiplicity
 _atom_site_fract_x
 _atom_site_fract_y
 _atom_site_fract_z
 _atom_site_occupancy
  Pr  Pr0  1  0.500000  0.500000  0.000000  1
  Pr  Pr1  1  0.000000  0.000000  0.000000  1
  Pr  Pr2  1  0.890358  0.390358  0.500000  1
  Pr  Pr3  1  0.109642  0.609642  0.500000  1
  Pr  Pr4  1  0.390358  0.109642  0.500000  1
  Pr  Pr5  1  0.609642  0.890358  0.500000  1
  Dy  Dy6  1  0.679161  0.179161  0.500000  1
  Dy  Dy7  1  0.320839  0.820839  0.500000  1
  Dy  Dy8  1  0.179161  0.320839  0.500000  1
  Dy  Dy9  1  0.820839  0.679161  0.500000  1
  Co  Co10  1  0.745413  0.534664  0.000000  1
  Co  Co11  1  0.254587  0.465336  0.000000  1
  Co  Co12  1  0.245413  0.965336  0.000000  1
  Co  Co13  1  0.754587  0.034664  0.000000  1
  Co  Co14  1  0.465336  0.745413  0.000000  1
  Co  Co15  1  0.534664  0.254587  0.000000  1
  Co  Co16  1  0.034664  0.245413  0.000000  1
  Co  Co17  1  0.965336  0.754587  0.000000  1
  Sn  Sn18  1  0.572701  0.072701  0.000000  1
  Sn  Sn19  1  0.427299  0.927299  0.000000  1
  Sn  Sn20  1  0.072701  0.427299  0.000000  1
  Sn  Sn21  1  0.927299  0.572701  0.000000  1
  Sn  Sn22  1  0.649281  0.699294  0.000000  1
  Sn  Sn23  1  0.350719  0.300706  0.000000  1
  Sn  Sn24  1  0.149281  0.800706  0.000000  1
  Sn  Sn25  1  0.850719  0.199294  0.000000  1
  Sn  Sn26  1  0.300706  0.649281  0.000000  1
  Sn  Sn27  1  0.699294  0.350719  0.000000  1
  Sn  Sn28  1  0.199294  0.149281  0.000000  1
  Sn  Sn29  1  0.800706  0.850719  0.000000  1
  Sn  Sn30  1  0.670435  0.509933  0.500000  1
  Sn  Sn31  1  0.329565  0.490067  0.500000  1
  Sn  Sn32  1  0.170435  0.990067  0.500000  1
  Sn  Sn33  1  0.829565  0.009933  0.500000  1
  Sn  Sn34  1  0.490067  0.670435  0.500000  1
  Sn  Sn35  1  0.509933  0.329565  0.500000  1
  Sn  Sn36  1  0.009933  0.170435  0.500000  1
  Sn  Sn37  1  0.990067  0.829565  0.500000  1
