# generated using pymatgen
data_TaNbRe2(PO4)6
_symmetry_space_group_name_H-M   'P 1'
_cell_length_a   8.72072085
_cell_length_b   8.71955502
_cell_length_c   9.04791742
_cell_angle_alpha   90.12096799
_cell_angle_beta   118.64707501
_cell_angle_gamma   120.00055071
_symmetry_Int_Tables_number   1
_chemical_formula_structural   TaNbRe2(PO4)6
_chemical_formula_sum   'Ta1 Nb1 Re2 P6 O24'
_cell_volume   495.72041453
_cell_formula_units_Z   1
loop_
 _symmetry_equiv_pos_site_id
 _symmetry_equiv_pos_as_xyz
  1  'x, y, z'
loop_
 _atom_site_type_symbol
 _atom_site_label
 _atom_site_symmetry_multiplicity
 _atom_site_fract_x
 _atom_site_fract_y
 _atom_site_fract_z
 _atom_site_occupancy
  Ta  Ta0  1  0.211521  0.356920  0.567674  1
  Nb  Nb1  1  0.785972  0.141814  0.928151  1
  Re  Re2  1  0.213057  0.858383  0.070754  1
  Re  Re3  1  0.788893  0.642708  0.432500  1
  P  P4  1  0.997532  0.961175  0.248395  1
  P  P5  1  0.287120  0.537215  0.251331  1
  P  P6  1  0.279045  0.750507  0.747122  1
  P  P7  1  0.712934  0.249245  0.252695  1
  P  P8  1  0.720898  0.470933  0.748592  1
  P  P9  1  0.002496  0.030981  0.751761  1
  O  O10  1  0.295030  0.712933  0.224882  1
  O  O11  1  0.862923  0.991786  0.077891  1
  O  O12  1  0.847791  0.853382  0.592559  1
  O  O13  1  0.841999  0.797074  0.275936  1
  O  O14  1  0.147251  0.929588  0.233009  1
  O  O15  1  0.480441  0.548554  0.280523  1
  O  O16  1  0.099267  0.740222  0.579951  1
  O  O17  1  0.904581  0.640823  0.914803  1
  O  O18  1  0.278010  0.774535  0.913447  1
  O  O19  1  0.489563  0.917589  0.777546  1
  O  O20  1  0.734471  0.483216  0.586136  1
  O  O21  1  0.723119  0.429068  0.271128  1
  O  O22  1  0.274515  0.571983  0.717287  1
  O  O23  1  0.269339  0.506734  0.413568  1
  O  O24  1  0.514868  0.081380  0.232789  1
  O  O25  1  0.719388  0.213589  0.088235  1
  O  O26  1  0.086764  0.364080  0.086511  1
  O  O27  1  0.909818  0.272273  0.418686  1
  O  O28  1  0.511838  0.441716  0.708328  1
  O  O29  1  0.864073  0.075843  0.777717  1
  O  O30  1  0.145367  0.199478  0.713136  1
  O  O31  1  0.138665  0.142546  0.407205  1
  O  O32  1  0.151191  0.018381  0.924394  1
  O  O33  1  0.710260  0.293348  0.785359  1
