# generated using pymatgen
data_Tb2YbSn3GeIr2
_symmetry_space_group_name_H-M   'P 1'
_cell_length_a   7.39865625
_cell_length_b   7.44645050
_cell_length_c   4.17124600
_cell_angle_alpha   90.00000000
_cell_angle_beta   90.00000000
_cell_angle_gamma   119.96787279
_symmetry_Int_Tables_number   1
_chemical_formula_structural   Tb2YbSn3GeIr2
_chemical_formula_sum   'Tb2 Yb1 Sn3 Ge1 Ir2'
_cell_volume   199.08525566
_cell_formula_units_Z   1
loop_
 _symmetry_equiv_pos_site_id
 _symmetry_equiv_pos_as_xyz
  1  'x, y, z'
loop_
 _atom_site_type_symbol
 _atom_site_label
 _atom_site_symmetry_multiplicity
 _atom_site_fract_x
 _atom_site_fract_y
 _atom_site_fract_z
 _atom_site_occupancy
  Tb  Tb0  1  0.990700  0.587984  0.000000  1
  Tb  Tb1  1  0.411204  0.404069  0.000000  1
  Yb  Yb2  1  0.593974  0.005189  0.000000  1
  Sn  Sn3  1  0.262278  0.014873  0.500000  1
  Sn  Sn4  1  0.980725  0.239430  0.500000  1
  Sn  Sn5  1  0.758493  0.745895  0.500000  1
  Ge  Ge6  1  0.329165  0.661564  0.500000  1
  Ir  Ir7  1  0.667348  0.340999  0.500000  1
  Ir  Ir8  1  0.006112  0.999998  0.000000  1
