# generated using pymatgen
data_Dy20Si15Au
_symmetry_space_group_name_H-M   'P 1'
_cell_length_a   7.46139267
_cell_length_b   14.65808180
_cell_length_c   7.71193953
_cell_angle_alpha   89.91455936
_cell_angle_beta   90.15821386
_cell_angle_gamma   89.63171500
_symmetry_Int_Tables_number   1
_chemical_formula_structural   Dy20Si15Au
_chemical_formula_sum   'Dy20 Si15 Au1'
_cell_volume   843.43094486
_cell_formula_units_Z   1
loop_
 _symmetry_equiv_pos_site_id
 _symmetry_equiv_pos_as_xyz
  1  'x, y, z'
loop_
 _atom_site_type_symbol
 _atom_site_label
 _atom_site_symmetry_multiplicity
 _atom_site_fract_x
 _atom_site_fract_y
 _atom_site_fract_z
 _atom_site_occupancy
  Dy  Dy0  1  0.322632  0.622802  0.177004  1
  Dy  Dy1  1  0.180358  0.376872  0.675267  1
  Dy  Dy2  1  0.818669  0.622355  0.323932  1
  Dy  Dy3  1  0.180744  0.122869  0.679690  1
  Dy  Dy4  1  0.318579  0.877348  0.178963  1
  Dy  Dy5  1  0.025934  0.399753  0.180222  1
  Dy  Dy6  1  0.475649  0.600039  0.682238  1
  Dy  Dy7  1  0.527884  0.098610  0.316264  1
  Dy  Dy8  1  0.970855  0.901431  0.817283  1
  Dy  Dy9  1  0.970475  0.599725  0.820534  1
  Dy  Dy10  1  0.526595  0.399910  0.317789  1
  Dy  Dy11  1  0.471199  0.901575  0.683622  1
  Dy  Dy12  1  0.029529  0.099224  0.183249  1
  Dy  Dy13  1  0.649784  0.749721  0.987846  1
  Dy  Dy14  1  0.849947  0.251434  0.488365  1
  Dy  Dy15  1  0.151504  0.748786  0.511202  1
  Dy  Dy16  1  0.351547  0.250123  0.009853  1
  Dy  Dy17  1  0.818759  0.877810  0.319669  1
  Dy  Dy18  1  0.681506  0.122971  0.821361  1
  Dy  Dy19  1  0.678757  0.376595  0.821721  1
  Si  Si20  1  0.767838  0.752473  0.626491  1
  Si  Si21  1  0.733248  0.248984  0.127054  1
  Si  Si22  1  0.266152  0.751228  0.874141  1
  Si  Si23  1  0.234032  0.248139  0.371564  1
  Si  Si24  1  0.022645  0.751494  0.105408  1
  Si  Si25  1  0.476615  0.248318  0.603839  1
  Si  Si26  1  0.524928  0.752357  0.395719  1
  Si  Si27  1  0.978228  0.249803  0.896078  1
  Si  Si28  1  0.352073  0.458352  0.971988  1
  Si  Si29  1  0.646391  0.960195  0.028683  1
  Si  Si30  1  0.853081  0.039716  0.529681  1
  Si  Si31  1  0.841962  0.457527  0.528542  1
  Si  Si32  1  0.647676  0.539049  0.030432  1
  Si  Si33  1  0.353723  0.040243  0.971138  1
  Si  Si34  1  0.145456  0.960812  0.470414  1
  Au  Au35  1  0.155042  0.541357  0.472749  1
