# generated using pymatgen
data_Al2GaPt4Rh
_symmetry_space_group_name_H-M   'P 1'
_cell_length_a   5.42530800
_cell_length_b   5.42530786
_cell_length_c   3.96839800
_cell_angle_alpha   90.00000000
_cell_angle_beta   90.00000000
_cell_angle_gamma   96.24200752
_symmetry_Int_Tables_number   1
_chemical_formula_structural   Al2GaPt4Rh
_chemical_formula_sum   'Al2 Ga1 Pt4 Rh1'
_cell_volume   116.11321147
_cell_formula_units_Z   1
loop_
 _symmetry_equiv_pos_site_id
 _symmetry_equiv_pos_as_xyz
  1  'x, y, z'
loop_
 _atom_site_type_symbol
 _atom_site_label
 _atom_site_symmetry_multiplicity
 _atom_site_fract_x
 _atom_site_fract_y
 _atom_site_fract_z
 _atom_site_occupancy
  Al  Al0  1  0.715942  0.280976  0.500000  1
  Al  Al1  1  0.280976  0.715942  0.500000  1
  Ga  Ga2  1  0.006071  0.006071  0.000000  1
  Pt  Pt3  1  0.498384  0.498384  0.000000  1
  Pt  Pt4  1  0.998184  0.498207  0.000000  1
  Pt  Pt5  1  0.498207  0.998184  0.000000  1
  Pt  Pt6  1  0.788140  0.788140  0.500000  1
  Rh  Rh7  1  0.214097  0.214097  0.500000  1
