# generated using pymatgen
data_TbGdTa5WO18
_symmetry_space_group_name_H-M   'P 1'
_cell_length_a   7.54854112
_cell_length_b   5.34374247
_cell_length_c   8.33120149
_cell_angle_alpha   87.60220831
_cell_angle_beta   90.15096493
_cell_angle_gamma   89.77897098
_symmetry_Int_Tables_number   1
_chemical_formula_structural   TbGdTa5WO18
_chemical_formula_sum   'Tb1 Gd1 Ta5 W1 O18'
_cell_volume   335.76145201
_cell_formula_units_Z   1
loop_
 _symmetry_equiv_pos_site_id
 _symmetry_equiv_pos_as_xyz
  1  'x, y, z'
loop_
 _atom_site_type_symbol
 _atom_site_label
 _atom_site_symmetry_multiplicity
 _atom_site_fract_x
 _atom_site_fract_y
 _atom_site_fract_z
 _atom_site_occupancy
  Tb  Tb0  1  0.247634  0.963986  0.435273  1
  Gd  Gd1  1  0.752123  0.034690  0.564165  1
  Ta  Ta2  1  0.499993  0.999854  0.000159  1
  Ta  Ta3  1  0.008016  0.529658  0.696754  1
  Ta  Ta4  1  0.493577  0.526601  0.696015  1
  Ta  Ta5  1  0.993003  0.469936  0.303001  1
  Ta  Ta6  1  0.505365  0.473002  0.303674  1
  W  W7  1  0.000113  0.999927  0.000263  1
  O  O8  1  0.246917  0.912984  0.979599  1
  O  O9  1  0.935523  0.851301  0.782567  1
  O  O10  1  0.559933  0.846971  0.788431  1
  O  O11  1  0.959924  0.739714  0.468381  1
  O  O12  1  0.539867  0.740025  0.468077  1
  O  O13  1  0.250657  0.660713  0.656496  1
  O  O14  1  0.948111  0.675331  0.123828  1
  O  O15  1  0.549433  0.678733  0.121678  1
  O  O16  1  0.250127  0.575408  0.314386  1
  O  O17  1  0.749817  0.428338  0.685425  1
  O  O18  1  0.052083  0.324414  0.876135  1
  O  O19  1  0.450402  0.321154  0.878283  1
  O  O20  1  0.749352  0.342450  0.342287  1
  O  O21  1  0.042959  0.259526  0.531248  1
  O  O22  1  0.457267  0.259294  0.531558  1
  O  O23  1  0.065945  0.147108  0.218857  1
  O  O24  1  0.438718  0.151650  0.212896  1
  O  O25  1  0.753139  0.087233  0.020563  1
