# generated using pymatgen
data_Sc6GaSn6Rh5
_symmetry_space_group_name_H-M   'P 1'
_cell_length_a   7.58718700
_cell_length_b   7.58718629
_cell_length_c   7.02356000
_cell_angle_alpha   90.00000000
_cell_angle_beta   90.00000000
_cell_angle_gamma   120.00001617
_symmetry_Int_Tables_number   1
_chemical_formula_structural   Sc6GaSn6Rh5
_chemical_formula_sum   'Sc6 Ga1 Sn6 Rh5'
_cell_volume   350.14618063
_cell_formula_units_Z   1
loop_
 _symmetry_equiv_pos_site_id
 _symmetry_equiv_pos_as_xyz
  1  'x, y, z'
loop_
 _atom_site_type_symbol
 _atom_site_label
 _atom_site_symmetry_multiplicity
 _atom_site_fract_x
 _atom_site_fract_y
 _atom_site_fract_z
 _atom_site_occupancy
  Sc  Sc0  1  0.385319  0.988185  0.240584  1
  Sc  Sc1  1  0.602866  0.614681  0.240584  1
  Sc  Sc2  1  0.011815  0.397134  0.240584  1
  Sc  Sc3  1  0.383572  0.986289  0.759416  1
  Sc  Sc4  1  0.602717  0.616428  0.759416  1
  Sc  Sc5  1  0.013711  0.397283  0.759416  1
  Ga  Ga6  1  0.666667  0.333333  0.506796  1
  Sn  Sn7  1  0.287804  0.280434  0.999861  1
  Sn  Sn8  1  0.992632  0.712196  0.999861  1
  Sn  Sn9  1  0.003893  0.740081  0.499640  1
  Sn  Sn10  1  0.736187  0.996107  0.499640  1
  Sn  Sn11  1  0.259919  0.263813  0.499640  1
  Sn  Sn12  1  0.719566  0.007368  0.999861  1
  Rh  Rh13  1  0.000000  0.000000  0.771809  1
  Rh  Rh14  1  0.000000  0.000000  0.227490  1
  Rh  Rh15  1  0.666667  0.333333  0.995317  1
  Rh  Rh16  1  0.333333  0.666667  0.498823  1
  Rh  Rh17  1  0.333333  0.666667  0.001261  1
