# generated using pymatgen
data_Pr11In9Rh4
_symmetry_space_group_name_H-M   'P 1'
_cell_length_a   13.48468249
_cell_length_b   13.48418979
_cell_length_c   3.88731100
_cell_angle_alpha   90.00000000
_cell_angle_beta   90.00000000
_cell_angle_gamma   112.43966529
_symmetry_Int_Tables_number   1
_chemical_formula_structural   Pr11In9Rh4
_chemical_formula_sum   'Pr11 In9 Rh4'
_cell_volume   653.31008846
_cell_formula_units_Z   1
loop_
 _symmetry_equiv_pos_site_id
 _symmetry_equiv_pos_as_xyz
  1  'x, y, z'
loop_
 _atom_site_type_symbol
 _atom_site_label
 _atom_site_symmetry_multiplicity
 _atom_site_fract_x
 _atom_site_fract_y
 _atom_site_fract_z
 _atom_site_occupancy
  Pr  Pr0  1  0.500000  0.500000  0.500000  1
  Pr  Pr1  1  0.812751  0.812752  0.500000  1
  Pr  Pr2  1  0.187249  0.187248  0.500000  1
  Pr  Pr3  1  0.579298  0.919495  0.500000  1
  Pr  Pr4  1  0.420702  0.080505  0.500000  1
  Pr  Pr5  1  0.919497  0.579302  0.500000  1
  Pr  Pr6  1  0.080503  0.420698  0.500000  1
  Pr  Pr7  1  0.126172  0.873831  0.500000  1
  Pr  Pr8  1  0.873828  0.126169  0.500000  1
  Pr  Pr9  1  0.340375  0.659619  0.500000  1
  Pr  Pr10  1  0.659625  0.340381  0.500000  1
  In  In11  1  0.337179  0.865509  0.000000  1
  In  In12  1  0.662821  0.134491  0.000000  1
  In  In13  1  0.865507  0.337181  0.000000  1
  In  In14  1  0.134493  0.662819  0.000000  1
  In  In15  1  0.578844  0.720039  0.000000  1
  In  In16  1  0.421156  0.279961  0.000000  1
  In  In17  1  0.720044  0.578877  0.000000  1
  In  In18  1  0.279956  0.421123  0.000000  1
  In  In19  1  0.000000  0.000000  0.000000  1
  Rh  Rh20  1  0.747379  0.953896  0.000000  1
  Rh  Rh21  1  0.252621  0.046104  0.000000  1
  Rh  Rh22  1  0.953904  0.747386  0.000000  1
  Rh  Rh23  1  0.046096  0.252614  0.000000  1
