# generated using pymatgen
data_Li4DyMn3(P3Ir4)4
_symmetry_space_group_name_H-M   'P 1'
_cell_length_a   12.50423700
_cell_length_b   12.56813739
_cell_length_c   3.92988100
_cell_angle_alpha   90.00000000
_cell_angle_beta   90.00000000
_cell_angle_gamma   119.83195684
_symmetry_Int_Tables_number   1
_chemical_formula_structural   Li4DyMn3(P3Ir4)4
_chemical_formula_sum   'Li4 Dy1 Mn3 P12 Ir16'
_cell_volume   535.76095097
_cell_formula_units_Z   1
loop_
 _symmetry_equiv_pos_site_id
 _symmetry_equiv_pos_as_xyz
  1  'x, y, z'
loop_
 _atom_site_type_symbol
 _atom_site_label
 _atom_site_symmetry_multiplicity
 _atom_site_fract_x
 _atom_site_fract_y
 _atom_site_fract_z
 _atom_site_occupancy
  Li  Li0  1  0.334456  0.668473  0.500000  1
  Li  Li1  1  0.665984  0.331527  0.500000  1
  Li  Li2  1  0.001381  0.822518  0.000000  1
  Li  Li3  1  0.178863  0.177482  0.000000  1
  Dy  Dy4  1  0.822306  0.000000  0.000000  1
  Mn  Mn5  1  0.996135  0.455344  0.500000  1
  Mn  Mn6  1  0.540791  0.544656  0.500000  1
  Mn  Mn7  1  0.457204  0.000000  0.500000  1
  P  P8  1  0.999431  0.634690  0.500000  1
  P  P9  1  0.364742  0.365310  0.500000  1
  P  P10  1  0.634945  0.000000  0.500000  1
  P  P11  1  0.513532  0.686643  0.000000  1
  P  P12  1  0.312058  0.826713  0.000000  1
  P  P13  1  0.173017  0.488055  0.000000  1
  P  P14  1  0.485345  0.173287  0.000000  1
  P  P15  1  0.684961  0.511945  0.000000  1
  P  P16  1  0.826889  0.313357  0.000000  1
  P  P17  1  0.006301  0.183447  0.500000  1
  P  P18  1  0.822854  0.816553  0.500000  1
  P  P19  1  0.181147  0.000000  0.500000  1
  Ir  Ir20  1  0.508877  0.869804  0.000000  1
  Ir  Ir21  1  0.127371  0.639439  0.000000  1
  Ir  Ir22  1  0.360547  0.492307  0.000000  1
  Ir  Ir23  1  0.487934  0.360561  0.000000  1
  Ir  Ir24  1  0.868241  0.507693  0.000000  1
  Ir  Ir25  1  0.639073  0.130196  0.000000  1
  Ir  Ir26  1  0.001055  0.285896  0.000000  1
  Ir  Ir27  1  0.715159  0.714104  0.000000  1
  Ir  Ir28  1  0.284079  0.000000  0.000000  1
  Ir  Ir29  1  0.624905  0.804342  0.500000  1
  Ir  Ir30  1  0.196514  0.818424  0.500000  1
  Ir  Ir31  1  0.182493  0.379542  0.500000  1
  Ir  Ir32  1  0.378090  0.181576  0.500000  1
  Ir  Ir33  1  0.802949  0.620458  0.500000  1
  Ir  Ir34  1  0.820562  0.195658  0.500000  1
  Ir  Ir35  1  0.999806  0.000000  0.500000  1
