# generated using pymatgen
data_Y19ErCd6FeNi
_symmetry_space_group_name_H-M   'P 1'
_cell_length_a   9.62561200
_cell_length_b   9.62561328
_cell_length_c   9.78809700
_cell_angle_alpha   90.00000000
_cell_angle_beta   90.00000000
_cell_angle_gamma   119.99999559
_symmetry_Int_Tables_number   1
_chemical_formula_structural   Y19ErCd6FeNi
_chemical_formula_sum   'Y19 Er1 Cd6 Fe1 Ni1'
_cell_volume   785.39055959
_cell_formula_units_Z   1
loop_
 _symmetry_equiv_pos_site_id
 _symmetry_equiv_pos_as_xyz
  1  'x, y, z'
loop_
 _atom_site_type_symbol
 _atom_site_label
 _atom_site_symmetry_multiplicity
 _atom_site_fract_x
 _atom_site_fract_y
 _atom_site_fract_z
 _atom_site_occupancy
  Y  Y0  1  0.000000  0.000000  0.000161  1
  Y  Y1  1  0.541707  0.458293  0.249980  1
  Y  Y2  1  0.541707  0.083414  0.249980  1
  Y  Y3  1  0.916586  0.458293  0.249980  1
  Y  Y4  1  0.456521  0.543479  0.749995  1
  Y  Y5  1  0.456521  0.913042  0.749995  1
  Y  Y6  1  0.086958  0.543479  0.749995  1
  Y  Y7  1  0.211548  0.788452  0.436076  1
  Y  Y8  1  0.211548  0.423098  0.436076  1
  Y  Y9  1  0.576902  0.788452  0.436076  1
  Y  Y10  1  0.789634  0.210366  0.562412  1
  Y  Y11  1  0.789634  0.579266  0.562412  1
  Y  Y12  1  0.420734  0.210366  0.562412  1
  Y  Y13  1  0.789271  0.210729  0.937622  1
  Y  Y14  1  0.789271  0.578540  0.937622  1
  Y  Y15  1  0.421460  0.210729  0.937622  1
  Y  Y16  1  0.211928  0.788072  0.063918  1
  Y  Y17  1  0.211928  0.423857  0.063918  1
  Y  Y18  1  0.576143  0.788072  0.063918  1
  Er  Er19  1  0.000000  0.000000  0.499844  1
  Cd  Cd20  1  0.885188  0.114812  0.250576  1
  Cd  Cd21  1  0.885188  0.770376  0.250576  1
  Cd  Cd22  1  0.229624  0.114812  0.250576  1
  Cd  Cd23  1  0.114834  0.885166  0.749390  1
  Cd  Cd24  1  0.114834  0.229667  0.749390  1
  Cd  Cd25  1  0.770333  0.885166  0.749390  1
  Fe  Fe26  1  0.333333  0.666667  0.250215  1
  Ni  Ni27  1  0.666667  0.333333  0.749874  1
