# generated using pymatgen
data_Ac4La3Ru4C9
_symmetry_space_group_name_H-M   'P 1'
_cell_length_a   6.70502704
_cell_length_b   6.70502803
_cell_length_c   12.11709770
_cell_angle_alpha   70.94396384
_cell_angle_beta   70.94395937
_cell_angle_gamma   48.91307027
_symmetry_Int_Tables_number   1
_chemical_formula_structural   Ac4La3Ru4C9
_chemical_formula_sum   'Ac4 La3 Ru4 C9'
_cell_volume   383.26828273
_cell_formula_units_Z   1
loop_
 _symmetry_equiv_pos_site_id
 _symmetry_equiv_pos_as_xyz
  1  'x, y, z'
loop_
 _atom_site_type_symbol
 _atom_site_label
 _atom_site_symmetry_multiplicity
 _atom_site_fract_x
 _atom_site_fract_y
 _atom_site_fract_z
 _atom_site_occupancy
  Ac  Ac0  1  0.368654  0.368654  0.846553  1
  Ac  Ac1  1  0.147762  0.147762  0.674190  1
  Ac  Ac2  1  0.851737  0.851737  0.324014  1
  Ac  Ac3  1  0.999812  0.999812  0.001175  1
  La  La4  1  0.139012  0.139012  0.379518  1
  La  La5  1  0.860865  0.860865  0.618793  1
  La  La6  1  0.623719  0.623719  0.159960  1
  Ru  Ru7  1  0.360307  0.360307  0.142910  1
  Ru  Ru8  1  0.565968  0.565968  0.569964  1
  Ru  Ru9  1  0.435498  0.435498  0.429096  1
  Ru  Ru10  1  0.640681  0.640681  0.858085  1
  C  C11  1  0.386068  0.386068  0.291674  1
  C  C12  1  0.916700  0.916700  0.818843  1
  C  C13  1  0.394944  0.394944  0.610129  1
  C  C14  1  0.200659  0.200659  0.144050  1
  C  C15  1  0.800640  0.800640  0.854321  1
  C  C16  1  0.501641  0.501641  0.001273  1
  C  C17  1  0.084340  0.084340  0.180405  1
  C  C18  1  0.615147  0.615147  0.708403  1
  C  C19  1  0.605844  0.605844  0.386645  1
