# generated using pymatgen
data_Li3ErAs6Rh7
_symmetry_space_group_name_H-M   'P 1'
_cell_length_a   7.07424254
_cell_length_b   7.07424265
_cell_length_c   7.07424102
_cell_angle_alpha   109.88497766
_cell_angle_beta   109.88498195
_cell_angle_gamma   109.88497205
_symmetry_Int_Tables_number   1
_chemical_formula_structural   Li3ErAs6Rh7
_chemical_formula_sum   'Li3 Er1 As6 Rh7'
_cell_volume   268.27614924
_cell_formula_units_Z   1
loop_
 _symmetry_equiv_pos_site_id
 _symmetry_equiv_pos_as_xyz
  1  'x, y, z'
loop_
 _atom_site_type_symbol
 _atom_site_label
 _atom_site_symmetry_multiplicity
 _atom_site_fract_x
 _atom_site_fract_y
 _atom_site_fract_z
 _atom_site_occupancy
  Li  Li0  1  0.000000  0.500000  0.000000  1
  Li  Li1  1  0.500000  0.000000  0.000000  1
  Li  Li2  1  0.000000  0.000000  0.500000  1
  Er  Er3  1  0.500000  0.500000  0.500000  1
  As  As4  1  0.693875  0.014199  0.693875  1
  As  As5  1  0.693875  0.693875  0.014199  1
  As  As6  1  0.306125  0.306125  0.985801  1
  As  As7  1  0.014199  0.693875  0.693875  1
  As  As8  1  0.985801  0.306125  0.306125  1
  As  As9  1  0.306125  0.985801  0.306125  1
  Rh  Rh10  1  0.500000  0.750806  0.249194  1
  Rh  Rh11  1  0.750806  0.249194  0.500000  1
  Rh  Rh12  1  0.249194  0.750806  0.500000  1
  Rh  Rh13  1  0.249194  0.500000  0.750806  1
  Rh  Rh14  1  0.000000  0.000000  0.000000  1
  Rh  Rh15  1  0.500000  0.249194  0.750806  1
  Rh  Rh16  1  0.750806  0.500000  0.249194  1
