# generated using pymatgen
data_AcCdAgAu4
_symmetry_space_group_name_H-M   'P 1'
_cell_length_a   5.94921070
_cell_length_b   5.94921051
_cell_length_c   5.94921000
_cell_angle_alpha   103.11684661
_cell_angle_beta   103.11682642
_cell_angle_gamma   123.10158221
_symmetry_Int_Tables_number   1
_chemical_formula_structural   AcCdAgAu4
_chemical_formula_sum   'Ac1 Cd1 Ag1 Au4'
_cell_volume   155.08709992
_cell_formula_units_Z   1
loop_
 _symmetry_equiv_pos_site_id
 _symmetry_equiv_pos_as_xyz
  1  'x, y, z'
loop_
 _atom_site_type_symbol
 _atom_site_label
 _atom_site_symmetry_multiplicity
 _atom_site_fract_x
 _atom_site_fract_y
 _atom_site_fract_z
 _atom_site_occupancy
  Ac  Ac0  1  0.000000  0.000000  0.000000  1
  Cd  Cd1  1  0.750000  0.250000  0.500000  1
  Ag  Ag2  1  0.250000  0.750000  0.500000  1
  Au  Au3  1  0.304806  0.304806  0.609611  1
  Au  Au4  1  0.695194  0.695194  0.390389  1
  Au  Au5  1  0.695194  0.304806  0.000000  1
  Au  Au6  1  0.304806  0.695194  0.000000  1
