# generated using pymatgen
data_Dy8TmLu(BiAu2)2
_symmetry_space_group_name_H-M   'P 1'
_cell_length_a   8.70291553
_cell_length_b   8.70291465
_cell_length_c   8.70291436
_cell_angle_alpha   124.28564967
_cell_angle_beta   124.28564980
_cell_angle_gamma   82.72462681
_symmetry_Int_Tables_number   1
_chemical_formula_structural   Dy8TmLu(BiAu2)2
_chemical_formula_sum   'Dy8 Tm1 Lu1 Bi2 Au4'
_cell_volume   432.08144637
_cell_formula_units_Z   1
loop_
 _symmetry_equiv_pos_site_id
 _symmetry_equiv_pos_as_xyz
  1  'x, y, z'
loop_
 _atom_site_type_symbol
 _atom_site_label
 _atom_site_symmetry_multiplicity
 _atom_site_fract_x
 _atom_site_fract_y
 _atom_site_fract_z
 _atom_site_occupancy
  Dy  Dy0  1  0.515627  0.016132  0.811554  1
  Dy  Dy1  1  0.204578  0.704073  0.188446  1
  Dy  Dy2  1  0.016132  0.204578  0.500505  1
  Dy  Dy3  1  0.704073  0.515627  0.499495  1
  Dy  Dy4  1  0.484373  0.983868  0.188446  1
  Dy  Dy5  1  0.795422  0.295927  0.811554  1
  Dy  Dy6  1  0.983868  0.795422  0.499495  1
  Dy  Dy7  1  0.295927  0.484373  0.500505  1
  Tm  Tm8  1  0.000000  0.000000  0.000000  1
  Lu  Lu9  1  0.500000  0.500000  0.000000  1
  Bi  Bi10  1  0.250198  0.250198  0.000000  1
  Bi  Bi11  1  0.749802  0.749802  0.000000  1
  Au  Au12  1  0.138269  0.637895  0.776163  1
  Au  Au13  1  0.861731  0.362105  0.223837  1
  Au  Au14  1  0.637895  0.861731  0.499626  1
  Au  Au15  1  0.362105  0.138269  0.500374  1
