# generated using pymatgen
data_Ca12Np7Mo(WN4)12
_symmetry_space_group_name_H-M   'P 1'
_cell_length_a   11.38941026
_cell_length_b   11.40443369
_cell_length_c   11.40443424
_cell_angle_alpha   109.49789372
_cell_angle_beta   109.44453776
_cell_angle_gamma   109.44453682
_symmetry_Int_Tables_number   1
_chemical_formula_structural   Ca12Np7Mo(WN4)12
_chemical_formula_sum   'Ca12 Np7 Mo1 W12 N48'
_cell_volume   1140.69545409
_cell_formula_units_Z   1
loop_
 _symmetry_equiv_pos_site_id
 _symmetry_equiv_pos_as_xyz
  1  'x, y, z'
loop_
 _atom_site_type_symbol
 _atom_site_label
 _atom_site_symmetry_multiplicity
 _atom_site_fract_x
 _atom_site_fract_y
 _atom_site_fract_z
 _atom_site_occupancy
  Ca  Ca0  1  0.256150  0.378657  0.124936  1
  Ca  Ca1  1  0.377493  0.746279  0.121344  1
  Ca  Ca2  1  0.375162  0.124711  0.249439  1
  Ca  Ca3  1  0.868787  0.624936  0.246279  1
  Ca  Ca4  1  0.750451  0.124729  0.375289  1
  Ca  Ca5  1  0.125723  0.250561  0.375272  1
  Ca  Ca6  1  0.874277  0.749439  0.624728  1
  Ca  Ca7  1  0.249549  0.875273  0.624711  1
  Ca  Ca8  1  0.131215  0.375064  0.753721  1
  Ca  Ca9  1  0.624838  0.875289  0.750561  1
  Ca  Ca10  1  0.622507  0.253721  0.878658  1
  Ca  Ca11  1  0.743850  0.621343  0.875064  1
  Np  Np12  1  0.000000  0.000000  0.000000  1
  Np  Np13  1  0.500001  0.000000  0.000000  1
  Np  Np14  1  0.000000  0.500001  0.000000  1
  Np  Np15  1  0.000000  0.000000  0.500001  1
  Np  Np16  1  0.500000  0.000000  0.500000  1
  Np  Np17  1  0.000000  0.500000  0.500000  1
  Np  Np18  1  0.500001  0.500001  0.500001  1
  Mo  Mo19  1  0.500000  0.500000  0.000000  1
  W  W20  1  0.874611  0.250456  0.125098  1
  W  W21  1  0.749529  0.871899  0.125183  1
  W  W22  1  0.624346  0.374817  0.246716  1
  W  W23  1  0.124154  0.874642  0.249542  1
  W  W24  1  0.250487  0.625098  0.374642  1
  W  W25  1  0.622369  0.746716  0.371899  1
  W  W26  1  0.377630  0.253284  0.628101  1
  W  W27  1  0.749513  0.374902  0.625357  1
  W  W28  1  0.875846  0.125358  0.750457  1
  W  W29  1  0.375654  0.625182  0.753284  1
  W  W30  1  0.250470  0.128101  0.874817  1
  W  W31  1  0.125389  0.749543  0.874902  1
  N  N32  1  0.202674  0.120390  0.016057  1
  N  N33  1  0.313863  0.898447  0.017036  1
  N  N34  1  0.880649  0.398934  0.084553  1
  N  N35  1  0.688907  0.680012  0.079391  1
  N  N36  1  0.609515  0.420609  0.100620  1
  N  N37  1  0.981715  0.685620  0.101067  1
  N  N38  1  0.601916  0.912939  0.117284  1
  N  N39  1  0.015288  0.202060  0.117275  1
  N  N40  1  0.203905  0.584553  0.185620  1
  N  N41  1  0.491105  0.600620  0.180012  1
  N  N42  1  0.118539  0.017261  0.203036  1
  N  N43  1  0.584073  0.184781  0.199498  1
  N  N44  1  0.484632  0.382716  0.295656  1
  N  N45  1  0.313229  0.915216  0.297939  1
  N  N46  1  0.915503  0.296963  0.314226  1
  N  N47  1  0.899293  0.014718  0.315220  1
  N  N48  1  0.296827  0.482965  0.381411  1
  N  N49  1  0.582284  0.895666  0.379610  1
  N  N50  1  0.813383  0.516057  0.395667  1
  N  N51  1  0.084584  0.881412  0.398447  1
  N  N52  1  0.101987  0.617275  0.415216  1
  N  N53  1  0.811024  0.795657  0.412939  1
  N  N54  1  0.601277  0.185775  0.482739  1
  N  N55  1  0.384575  0.300502  0.485283  1
  N  N56  1  0.615424  0.699498  0.514717  1
  N  N57  1  0.398723  0.814226  0.517261  1
  N  N58  1  0.188977  0.204344  0.587061  1
  N  N59  1  0.898012  0.382725  0.584784  1
  N  N60  1  0.915416  0.118589  0.601554  1
  N  N61  1  0.186618  0.483943  0.604333  1
  N  N62  1  0.417716  0.104333  0.620390  1
  N  N63  1  0.703173  0.517035  0.618588  1
  N  N64  1  0.084497  0.703037  0.685775  1
  N  N65  1  0.100708  0.985283  0.684781  1
  N  N66  1  0.686772  0.084784  0.702061  1
  N  N67  1  0.515368  0.617283  0.704344  1
  N  N68  1  0.415927  0.815220  0.800503  1
  N  N69  1  0.881461  0.982739  0.796963  1
  N  N70  1  0.508895  0.399380  0.819989  1
  N  N71  1  0.796096  0.415447  0.814381  1
  N  N72  1  0.398085  0.087061  0.882717  1
  N  N73  1  0.984712  0.797939  0.882725  1
  N  N74  1  0.018286  0.314381  0.898934  1
  N  N75  1  0.390485  0.579391  0.899379  1
  N  N76  1  0.311093  0.319989  0.920609  1
  N  N77  1  0.119352  0.601067  0.915447  1
  N  N78  1  0.686138  0.101554  0.982965  1
  N  N79  1  0.797325  0.879610  0.983943  1
