# generated using pymatgen
data_Tb3Dy3Al24CuRu7
_symmetry_space_group_name_H-M   'P 1'
_cell_length_a   8.83582500
_cell_length_b   8.82583515
_cell_length_c   9.54591478
_cell_angle_alpha   89.83162315
_cell_angle_beta   90.00000000
_cell_angle_gamma   120.03745335
_symmetry_Int_Tables_number   1
_chemical_formula_structural   Tb3Dy3Al24CuRu7
_chemical_formula_sum   'Tb3 Dy3 Al24 Cu1 Ru7'
_cell_volume   644.44308934
_cell_formula_units_Z   1
loop_
 _symmetry_equiv_pos_site_id
 _symmetry_equiv_pos_as_xyz
  1  'x, y, z'
loop_
 _atom_site_type_symbol
 _atom_site_label
 _atom_site_symmetry_multiplicity
 _atom_site_fract_x
 _atom_site_fract_y
 _atom_site_fract_z
 _atom_site_occupancy
  Tb  Tb0  1  0.191531  0.807834  0.250597  1
  Tb  Tb1  1  0.194022  0.388044  0.247844  1
  Tb  Tb2  1  0.616301  0.807834  0.250597  1
  Dy  Dy3  1  0.808266  0.192577  0.749520  1
  Dy  Dy4  1  0.805624  0.611250  0.752171  1
  Dy  Dy5  1  0.384311  0.192577  0.749520  1
  Al  Al6  1  0.561850  0.439378  0.250732  1
  Al  Al7  1  0.561611  0.123223  0.249052  1
  Al  Al8  1  0.877528  0.439378  0.250732  1
  Al  Al9  1  0.438350  0.560396  0.749320  1
  Al  Al10  1  0.438616  0.877231  0.750780  1
  Al  Al11  1  0.122046  0.560396  0.749320  1
  Al  Al12  1  0.324566  0.167861  0.421493  1
  Al  Al13  1  0.843295  0.167861  0.421493  1
  Al  Al14  1  0.836763  0.673526  0.422798  1
  Al  Al15  1  0.675629  0.832204  0.579108  1
  Al  Al16  1  0.156575  0.832204  0.579108  1
  Al  Al17  1  0.163143  0.326285  0.577800  1
  Al  Al18  1  0.674049  0.837519  0.923963  1
  Al  Al19  1  0.163470  0.837519  0.923963  1
  Al  Al20  1  0.163086  0.326174  0.922091  1
  Al  Al21  1  0.326192  0.162636  0.075480  1
  Al  Al22  1  0.836443  0.162636  0.075480  1
  Al  Al23  1  0.836813  0.673624  0.077343  1
  Al  Al24  1  0.668086  0.336171  0.518725  1
  Al  Al25  1  0.331817  0.663634  0.482003  1
  Al  Al26  1  0.333785  0.667570  0.017788  1
  Al  Al27  1  0.666231  0.332462  0.981598  1
  Al  Al28  1  0.999519  0.999039  0.249736  1
  Al  Al29  1  0.000479  0.000957  0.750289  1
  Cu  Cu30  1  0.500044  0.000087  0.499808  1
  Ru  Ru31  1  0.000019  0.000039  0.500030  1
  Ru  Ru32  1  0.999996  0.999993  0.999982  1
  Ru  Ru33  1  0.500131  0.499873  0.500303  1
  Ru  Ru34  1  0.999742  0.499873  0.500303  1
  Ru  Ru35  1  0.500149  0.499926  0.999724  1
  Ru  Ru36  1  0.500143  0.000285  0.999680  1
  Ru  Ru37  1  0.999777  0.499926  0.999724  1
