# generated using pymatgen
data_Y2Ta3Ge4
_symmetry_space_group_name_H-M   'P 1'
_cell_length_a   7.00483200
_cell_length_b   7.16418300
_cell_length_c   13.55250900
_cell_angle_alpha   90.00000000
_cell_angle_beta   90.00000000
_cell_angle_gamma   89.99999513
_symmetry_Int_Tables_number   1
_chemical_formula_structural   Y2Ta3Ge4
_chemical_formula_sum   'Y8 Ta12 Ge16'
_cell_volume   680.11773432
_cell_formula_units_Z   4
loop_
 _symmetry_equiv_pos_site_id
 _symmetry_equiv_pos_as_xyz
  1  'x, y, z'
loop_
 _atom_site_type_symbol
 _atom_site_label
 _atom_site_symmetry_multiplicity
 _atom_site_fract_x
 _atom_site_fract_y
 _atom_site_fract_z
 _atom_site_occupancy
  Y  Y0  1  0.496406  0.326854  0.094390  1
  Y  Y1  1  0.996191  0.173276  0.405601  1
  Y  Y2  1  0.503780  0.673247  0.594469  1
  Y  Y3  1  0.003859  0.826970  0.905498  1
  Y  Y4  1  0.503780  0.673247  0.905531  1
  Y  Y5  1  0.003859  0.826970  0.594502  1
  Y  Y6  1  0.496406  0.326854  0.405610  1
  Y  Y7  1  0.996191  0.173276  0.094399  1
  Ta  Ta8  1  0.664028  0.014566  0.750000  1
  Ta  Ta9  1  0.164022  0.485317  0.750000  1
  Ta  Ta10  1  0.335711  0.985319  0.250000  1
  Ta  Ta11  1  0.839878  0.329450  0.626241  1
  Ta  Ta12  1  0.339776  0.170551  0.873816  1
  Ta  Ta13  1  0.160074  0.670539  0.126167  1
  Ta  Ta14  1  0.660002  0.829394  0.373942  1
  Ta  Ta15  1  0.160074  0.670539  0.373833  1
  Ta  Ta16  1  0.660002  0.829394  0.126058  1
  Ta  Ta17  1  0.839878  0.329450  0.873759  1
  Ta  Ta18  1  0.339776  0.170551  0.626184  1
  Ta  Ta19  1  0.835927  0.514132  0.250000  1
  Ge  Ge20  1  0.804848  0.639279  0.750000  1
  Ge  Ge21  1  0.304900  0.860692  0.750000  1
  Ge  Ge22  1  0.195586  0.360820  0.250000  1
  Ge  Ge23  1  0.695046  0.138693  0.250000  1
  Ge  Ge24  1  0.539771  0.378247  0.750000  1
  Ge  Ge25  1  0.039793  0.121584  0.750000  1
  Ge  Ge26  1  0.460346  0.621869  0.250000  1
  Ge  Ge27  1  0.959938  0.878003  0.250000  1
  Ge  Ge28  1  0.675355  0.038564  0.541828  1
  Ge  Ge29  1  0.175297  0.461607  0.958187  1
  Ge  Ge30  1  0.324610  0.961536  0.041740  1
  Ge  Ge31  1  0.824814  0.538751  0.458469  1
  Ge  Ge32  1  0.324610  0.961536  0.458260  1
  Ge  Ge33  1  0.824814  0.538751  0.041531  1
  Ge  Ge34  1  0.675355  0.038564  0.958172  1
  Ge  Ge35  1  0.175297  0.461607  0.541813  1
