# generated using pymatgen
data_Cs4Na2PrInAs4
_symmetry_space_group_name_H-M   'P 1'
_cell_length_a   9.92580455
_cell_length_b   9.92580399
_cell_length_c   9.92580477
_cell_angle_alpha   137.15168793
_cell_angle_beta   61.31724988
_cell_angle_gamma   138.31416594
_symmetry_Int_Tables_number   1
_chemical_formula_structural   Cs4Na2PrInAs4
_chemical_formula_sum   'Cs4 Na2 Pr1 In1 As4'
_cell_volume   437.31541753
_cell_formula_units_Z   1
loop_
 _symmetry_equiv_pos_site_id
 _symmetry_equiv_pos_as_xyz
  1  'x, y, z'
loop_
 _atom_site_type_symbol
 _atom_site_label
 _atom_site_symmetry_multiplicity
 _atom_site_fract_x
 _atom_site_fract_y
 _atom_site_fract_z
 _atom_site_occupancy
  Cs  Cs0  1  0.329775  0.776054  0.094360  1
  Cs  Cs1  1  0.170225  0.264585  0.446279  1
  Cs  Cs2  1  0.818306  0.723947  0.553721  1
  Cs  Cs3  1  0.681695  0.235416  0.905641  1
  Na  Na4  1  0.750000  0.250000  0.500000  1
  Na  Na5  1  0.250000  0.750000  0.500000  1
  Pr  Pr6  1  0.250000  0.250000  0.000000  1
  In  In7  1  0.750000  0.750000  0.000000  1
  As  As8  1  0.894243  0.210070  0.131015  1
  As  As9  1  0.605758  0.736774  0.315828  1
  As  As10  1  0.420946  0.289931  0.684173  1
  As  As11  1  0.079054  0.763226  0.868984  1
