# generated using pymatgen
data_Tb3Ho2ErCoBr10
_symmetry_space_group_name_H-M   'P 1'
_cell_length_a   7.32353734
_cell_length_b   9.04568856
_cell_length_c   9.20087168
_cell_angle_alpha   107.89589081
_cell_angle_beta   96.97291432
_cell_angle_gamma   104.76274621
_symmetry_Int_Tables_number   1
_chemical_formula_structural   Tb3Ho2ErCoBr10
_chemical_formula_sum   'Tb3 Ho2 Er1 Co1 Br10'
_cell_volume   547.51912249
_cell_formula_units_Z   1
loop_
 _symmetry_equiv_pos_site_id
 _symmetry_equiv_pos_as_xyz
  1  'x, y, z'
loop_
 _atom_site_type_symbol
 _atom_site_label
 _atom_site_symmetry_multiplicity
 _atom_site_fract_x
 _atom_site_fract_y
 _atom_site_fract_z
 _atom_site_occupancy
  Tb  Tb0  1  0.966056  0.284386  0.585380  1
  Tb  Tb1  1  0.033963  0.715297  0.412643  1
  Tb  Tb2  1  0.876721  0.952907  0.744794  1
  Ho  Ho3  1  0.645025  0.868042  0.323270  1
  Ho  Ho4  1  0.354965  0.132224  0.677077  1
  Er  Er5  1  0.121781  0.046468  0.259279  1
  Co  Co6  1  0.999939  0.999727  0.500313  1
  Br  Br7  1  0.544466  0.179550  0.414099  1
  Br  Br8  1  0.453034  0.819319  0.583862  1
  Br  Br9  1  0.217219  0.747015  0.153804  1
  Br  Br10  1  0.781814  0.256914  0.844945  1
  Br  Br11  1  0.914227  0.627148  0.672101  1
  Br  Br12  1  0.087754  0.369359  0.324685  1
  Br  Br13  1  0.751447  0.915400  0.044328  1
  Br  Br14  1  0.252086  0.086163  0.960270  1
  Br  Br15  1  0.651399  0.547032  0.226663  1
  Br  Br16  1  0.348104  0.453048  0.772488  1
