# generated using pymatgen
data_Lu5P12Ir12Ru7
_symmetry_space_group_name_H-M   'P 1'
_cell_length_a   12.63344501
_cell_length_b   12.61686190
_cell_length_c   3.93501400
_cell_angle_alpha   90.00000000
_cell_angle_beta   90.00000000
_cell_angle_gamma   120.27906717
_symmetry_Int_Tables_number   1
_chemical_formula_structural   Lu5P12Ir12Ru7
_chemical_formula_sum   'Lu5 P12 Ir12 Ru7'
_cell_volume   541.65394547
_cell_formula_units_Z   1
loop_
 _symmetry_equiv_pos_site_id
 _symmetry_equiv_pos_as_xyz
  1  'x, y, z'
loop_
 _atom_site_type_symbol
 _atom_site_label
 _atom_site_symmetry_multiplicity
 _atom_site_fract_x
 _atom_site_fract_y
 _atom_site_fract_z
 _atom_site_occupancy
  Lu  Lu0  1  0.332871  0.666624  0.000000  1
  Lu  Lu1  1  0.668455  0.335834  0.000000  1
  Lu  Lu2  1  0.816224  0.997493  0.500000  1
  Lu  Lu3  1  0.998803  0.814032  0.500000  1
  Lu  Lu4  1  0.182878  0.183620  0.500000  1
  P  P5  1  0.176558  0.995881  0.000000  1
  P  P6  1  0.002177  0.179069  0.000000  1
  P  P7  1  0.819314  0.819230  0.000000  1
  P  P8  1  0.172900  0.481446  0.500000  1
  P  P9  1  0.517900  0.691199  0.500000  1
  P  P10  1  0.309235  0.828021  0.500000  1
  P  P11  1  0.691626  0.519355  0.500000  1
  P  P12  1  0.830711  0.314356  0.500000  1
  P  P13  1  0.484430  0.171895  0.500000  1
  P  P14  1  0.636566  0.995028  0.000000  1
  P  P15  1  0.000629  0.640614  0.000000  1
  P  P16  1  0.358252  0.363396  0.000000  1
  Ir  Ir17  1  0.362984  0.492311  0.500000  1
  Ir  Ir18  1  0.507107  0.871129  0.500000  1
  Ir  Ir19  1  0.132075  0.637057  0.500000  1
  Ir  Ir20  1  0.869861  0.508996  0.500000  1
  Ir  Ir21  1  0.641346  0.135073  0.500000  1
  Ir  Ir22  1  0.495142  0.360902  0.500000  1
  Ir  Ir23  1  0.817207  0.188295  0.000000  1
  Ir  Ir24  1  0.371820  0.183298  0.000000  1
  Ir  Ir25  1  0.287697  0.002148  0.500000  1
  Ir  Ir26  1  0.998047  0.285157  0.500000  1
  Ir  Ir27  1  0.712775  0.713186  0.500000  1
  Ir  Ir28  1  0.999921  0.999416  0.000000  1
  Ru  Ru29  1  0.457623  0.004883  0.000000  1
  Ru  Ru30  1  0.997053  0.453353  0.000000  1
  Ru  Ru31  1  0.546181  0.543797  0.000000  1
  Ru  Ru32  1  0.179328  0.375808  0.000000  1
  Ru  Ru33  1  0.622388  0.803545  0.000000  1
  Ru  Ru34  1  0.196049  0.819810  0.000000  1
  Ru  Ru35  1  0.805867  0.624745  0.000000  1
