# generated using pymatgen
data_YHoMg2CdPb3
_symmetry_space_group_name_H-M   'P 1'
_cell_length_a   4.77003100
_cell_length_b   4.97009000
_cell_length_c   8.84166500
_cell_angle_alpha   90.00000000
_cell_angle_beta   90.00000000
_cell_angle_gamma   90.00000000
_symmetry_Int_Tables_number   1
_chemical_formula_structural   YHoMg2CdPb3
_chemical_formula_sum   'Y1 Ho1 Mg2 Cd1 Pb3'
_cell_volume   209.61362598
_cell_formula_units_Z   1
loop_
 _symmetry_equiv_pos_site_id
 _symmetry_equiv_pos_as_xyz
  1  'x, y, z'
loop_
 _atom_site_type_symbol
 _atom_site_label
 _atom_site_symmetry_multiplicity
 _atom_site_fract_x
 _atom_site_fract_y
 _atom_site_fract_z
 _atom_site_occupancy
  Y  Y0  1  0.000000  0.000000  0.749309  1
  Ho  Ho1  1  0.000000  0.000000  0.250713  1
  Mg  Mg2  1  0.500000  0.500000  0.257754  1
  Mg  Mg3  1  0.500000  0.500000  0.742084  1
  Cd  Cd4  1  0.000000  0.500000  0.499287  1
  Pb  Pb5  1  0.000000  0.500000  0.001255  1
  Pb  Pb6  1  0.500000  0.000000  0.498542  1
  Pb  Pb7  1  0.500000  0.000000  0.001056  1
