# generated using pymatgen
data_LiNb3(Co4P3)2
_symmetry_space_group_name_H-M   'P 1'
_cell_length_a   11.95560100
_cell_length_b   11.95560109
_cell_length_c   3.57664000
_cell_angle_alpha   90.00000000
_cell_angle_beta   90.00000000
_cell_angle_gamma   120.00000251
_symmetry_Int_Tables_number   1
_chemical_formula_structural   LiNb3(Co4P3)2
_chemical_formula_sum   'Li2 Nb6 Co16 P12'
_cell_volume   442.73991631
_cell_formula_units_Z   2
loop_
 _symmetry_equiv_pos_site_id
 _symmetry_equiv_pos_as_xyz
  1  'x, y, z'
loop_
 _atom_site_type_symbol
 _atom_site_label
 _atom_site_symmetry_multiplicity
 _atom_site_fract_x
 _atom_site_fract_y
 _atom_site_fract_z
 _atom_site_occupancy
  Li  Li0  1  0.333333  0.666667  0.000000  1
  Li  Li1  1  0.666667  0.333333  0.000000  1
  Nb  Nb2  1  0.820928  0.000000  0.500000  1
  Nb  Nb3  1  0.000000  0.820928  0.500000  1
  Nb  Nb4  1  0.179072  0.179072  0.500000  1
  Nb  Nb5  1  0.444439  0.000000  0.000000  1
  Nb  Nb6  1  0.000000  0.444439  0.000000  1
  Nb  Nb7  1  0.555561  0.555561  0.000000  1
  Co  Co8  1  0.276179  0.000000  0.500000  1
  Co  Co9  1  0.000000  0.276179  0.500000  1
  Co  Co10  1  0.723821  0.723821  0.500000  1
  Co  Co11  1  0.633961  0.807942  0.000000  1
  Co  Co12  1  0.192058  0.826019  0.000000  1
  Co  Co13  1  0.173981  0.366039  0.000000  1
  Co  Co14  1  0.366039  0.173981  0.000000  1
  Co  Co15  1  0.807942  0.633961  0.000000  1
  Co  Co16  1  0.826019  0.192058  0.000000  1
  Co  Co17  1  0.522891  0.873770  0.500000  1
  Co  Co18  1  0.126230  0.649121  0.500000  1
  Co  Co19  1  0.350879  0.477109  0.500000  1
  Co  Co20  1  0.477109  0.350879  0.500000  1
  Co  Co21  1  0.873770  0.522891  0.500000  1
  Co  Co22  1  0.649121  0.126230  0.500000  1
  Co  Co23  1  0.000000  0.000000  0.000000  1
  P  P24  1  0.173005  0.000000  0.000000  1
  P  P25  1  0.000000  0.173005  0.000000  1
  P  P26  1  0.826995  0.826995  0.000000  1
  P  P27  1  0.511989  0.686180  0.500000  1
  P  P28  1  0.313820  0.825808  0.500000  1
  P  P29  1  0.174192  0.488011  0.500000  1
  P  P30  1  0.488011  0.174192  0.500000  1
  P  P31  1  0.686180  0.511989  0.500000  1
  P  P32  1  0.825808  0.313820  0.500000  1
  P  P33  1  0.648878  0.000000  0.000000  1
  P  P34  1  0.000000  0.648878  0.000000  1
  P  P35  1  0.351122  0.351122  0.000000  1
