# generated using pymatgen
data_TbDy11InCo5
_symmetry_space_group_name_H-M   'P 1'
_cell_length_a   8.28303456
_cell_length_b   8.28300834
_cell_length_c   8.28135590
_cell_angle_alpha   110.74938343
_cell_angle_beta   110.70009657
_cell_angle_gamma   107.00130557
_symmetry_Int_Tables_number   1
_chemical_formula_structural   TbDy11InCo5
_chemical_formula_sum   'Tb1 Dy11 In1 Co5'
_cell_volume   436.72081784
_cell_formula_units_Z   1
loop_
 _symmetry_equiv_pos_site_id
 _symmetry_equiv_pos_as_xyz
  1  'x, y, z'
loop_
 _atom_site_type_symbol
 _atom_site_label
 _atom_site_symmetry_multiplicity
 _atom_site_fract_x
 _atom_site_fract_y
 _atom_site_fract_z
 _atom_site_occupancy
  Tb  Tb0  1  0.814067  0.707822  0.521968  1
  Dy  Dy1  1  0.185648  0.291885  0.477592  1
  Dy  Dy2  1  0.186135  0.707749  0.893944  1
  Dy  Dy3  1  0.814209  0.291790  0.106056  1
  Dy  Dy4  1  0.685531  0.379797  0.694338  1
  Dy  Dy5  1  0.314192  0.620039  0.305432  1
  Dy  Dy6  1  0.685523  0.991551  0.305611  1
  Dy  Dy7  1  0.314666  0.009108  0.694511  1
  Dy  Dy8  1  0.599464  0.791071  0.808831  1
  Dy  Dy9  1  0.399745  0.208307  0.191084  1
  Dy  Dy10  1  0.982748  0.791329  0.191063  1
  Dy  Dy11  1  0.017731  0.209359  0.808808  1
  In  In12  1  0.499998  0.499970  0.999951  1
  Co  Co13  1  0.621219  0.000452  0.621650  1
  Co  Co14  1  0.378451  0.999952  0.378384  1
  Co  Co15  1  0.112718  0.611960  0.500228  1
  Co  Co16  1  0.888119  0.387361  0.500230  1
  Co  Co17  1  0.999834  0.000499  0.000319  1
