# generated using pymatgen
data_Dy2Ir3Os
_symmetry_space_group_name_H-M   'P 1'
_cell_length_a   5.38606300
_cell_length_b   5.38606242
_cell_length_c   8.64945400
_cell_angle_alpha   90.00000000
_cell_angle_beta   90.00000000
_cell_angle_gamma   119.99999744
_symmetry_Int_Tables_number   1
_chemical_formula_structural   Dy2Ir3Os
_chemical_formula_sum   'Dy4 Ir6 Os2'
_cell_volume   217.30121130
_cell_formula_units_Z   2
loop_
 _symmetry_equiv_pos_site_id
 _symmetry_equiv_pos_as_xyz
  1  'x, y, z'
loop_
 _atom_site_type_symbol
 _atom_site_label
 _atom_site_symmetry_multiplicity
 _atom_site_fract_x
 _atom_site_fract_y
 _atom_site_fract_z
 _atom_site_occupancy
  Dy  Dy0  1  0.666667  0.333332  0.065351  1
  Dy  Dy1  1  0.666667  0.333332  0.434649  1
  Dy  Dy2  1  0.333333  0.666667  0.565351  1
  Dy  Dy3  1  0.333333  0.666667  0.934649  1
  Ir  Ir4  1  0.169348  0.338696  0.250000  1
  Ir  Ir5  1  0.169347  0.830653  0.250000  1
  Ir  Ir6  1  0.661304  0.830653  0.250000  1
  Ir  Ir7  1  0.338696  0.169347  0.750001  1
  Ir  Ir8  1  0.830651  0.169347  0.750001  1
  Ir  Ir9  1  0.830653  0.661303  0.750001  1
  Os  Os10  1  0.000000  0.000000  0.000000  1
  Os  Os11  1  0.000000  0.000000  0.500000  1
