# generated using pymatgen
data_Tb2Ho(CuSn)4
_symmetry_space_group_name_H-M   'P 1'
_cell_length_a   8.42651921
_cell_length_b   8.42651899
_cell_length_c   8.42651963
_cell_angle_alpha   149.17485817
_cell_angle_beta   131.44846042
_cell_angle_gamma   58.62204708
_symmetry_Int_Tables_number   1
_chemical_formula_structural   Tb2Ho(CuSn)4
_chemical_formula_sum   'Tb2 Ho1 Cu4 Sn4'
_cell_volume   228.02833924
_cell_formula_units_Z   1
loop_
 _symmetry_equiv_pos_site_id
 _symmetry_equiv_pos_as_xyz
  1  'x, y, z'
loop_
 _atom_site_type_symbol
 _atom_site_label
 _atom_site_symmetry_multiplicity
 _atom_site_fract_x
 _atom_site_fract_y
 _atom_site_fract_z
 _atom_site_occupancy
  Tb  Tb0  1  0.368772  0.868772  0.500000  1
  Tb  Tb1  1  0.631228  0.131228  0.500000  1
  Ho  Ho2  1  0.000000  0.000000  0.000000  1
  Cu  Cu3  1  0.982529  0.670371  0.312158  1
  Cu  Cu4  1  0.641788  0.329629  0.312158  1
  Cu  Cu5  1  0.358212  0.670371  0.687842  1
  Cu  Cu6  1  0.017471  0.329629  0.687842  1
  Sn  Sn7  1  0.703315  0.500000  0.203315  1
  Sn  Sn8  1  0.296685  0.500000  0.796685  1
  Sn  Sn9  1  0.784125  0.784125  0.000000  1
  Sn  Sn10  1  0.215875  0.215875  0.000000  1
