# generated using pymatgen
data_Dy3Mg(Co4P3)2
_symmetry_space_group_name_H-M   'P 1'
_cell_length_a   3.71241100
_cell_length_b   10.57471100
_cell_length_c   12.22469100
_cell_angle_alpha   90.00000000
_cell_angle_beta   90.00000000
_cell_angle_gamma   90.00000000
_symmetry_Int_Tables_number   1
_chemical_formula_structural   Dy3Mg(Co4P3)2
_chemical_formula_sum   'Dy6 Mg2 Co16 P12'
_cell_volume   479.91292716
_cell_formula_units_Z   2
loop_
 _symmetry_equiv_pos_site_id
 _symmetry_equiv_pos_as_xyz
  1  'x, y, z'
loop_
 _atom_site_type_symbol
 _atom_site_label
 _atom_site_symmetry_multiplicity
 _atom_site_fract_x
 _atom_site_fract_y
 _atom_site_fract_z
 _atom_site_occupancy
  Dy  Dy0  1  0.750000  0.250000  0.473988  1
  Dy  Dy1  1  0.250000  0.750000  0.526012  1
  Dy  Dy2  1  0.250000  0.927816  0.793792  1
  Dy  Dy3  1  0.250000  0.572184  0.793792  1
  Dy  Dy4  1  0.750000  0.072184  0.206208  1
  Dy  Dy5  1  0.750000  0.427816  0.206208  1
  Mg  Mg6  1  0.250000  0.250000  0.842948  1
  Mg  Mg7  1  0.750000  0.750000  0.157052  1
  Co  Co8  1  0.250000  0.250000  0.294888  1
  Co  Co9  1  0.750000  0.750000  0.705112  1
  Co  Co10  1  0.750000  0.250000  0.011191  1
  Co  Co11  1  0.250000  0.750000  0.988809  1
  Co  Co12  1  0.250000  0.417383  0.003182  1
  Co  Co13  1  0.250000  0.082617  0.003182  1
  Co  Co14  1  0.750000  0.582617  0.996818  1
  Co  Co15  1  0.750000  0.917383  0.996818  1
  Co  Co16  1  0.250000  0.453784  0.567933  1
  Co  Co17  1  0.250000  0.046216  0.567933  1
  Co  Co18  1  0.750000  0.546216  0.432067  1
  Co  Co19  1  0.750000  0.953784  0.432067  1
  Co  Co20  1  0.250000  0.872428  0.294626  1
  Co  Co21  1  0.250000  0.627572  0.294626  1
  Co  Co22  1  0.750000  0.127572  0.705374  1
  Co  Co23  1  0.750000  0.372428  0.705374  1
  P  P24  1  0.250000  0.250000  0.114662  1
  P  P25  1  0.750000  0.750000  0.885338  1
  P  P26  1  0.250000  0.250000  0.644088  1
  P  P27  1  0.750000  0.750000  0.355912  1
  P  P28  1  0.250000  0.440299  0.384672  1
  P  P29  1  0.250000  0.059701  0.384672  1
  P  P30  1  0.750000  0.559701  0.615328  1
  P  P31  1  0.750000  0.940299  0.615328  1
  P  P32  1  0.250000  0.911115  0.107112  1
  P  P33  1  0.250000  0.588885  0.107112  1
  P  P34  1  0.750000  0.088885  0.892888  1
  P  P35  1  0.750000  0.411115  0.892888  1
