# generated using pymatgen
data_Ce5Co3Si2(P5Ru8)2
_symmetry_space_group_name_H-M   'P 1'
_cell_length_a   12.65502822
_cell_length_b   12.61948372
_cell_length_c   3.87477900
_cell_angle_alpha   90.00000000
_cell_angle_beta   90.00000000
_cell_angle_gamma   119.90381268
_symmetry_Int_Tables_number   1
_chemical_formula_structural   Ce5Co3Si2(P5Ru8)2
_chemical_formula_sum   'Ce5 Co3 Si2 P10 Ru16'
_cell_volume   536.41683344
_cell_formula_units_Z   1
loop_
 _symmetry_equiv_pos_site_id
 _symmetry_equiv_pos_as_xyz
  1  'x, y, z'
loop_
 _atom_site_type_symbol
 _atom_site_label
 _atom_site_symmetry_multiplicity
 _atom_site_fract_x
 _atom_site_fract_y
 _atom_site_fract_z
 _atom_site_occupancy
  Ce  Ce0  1  0.183182  0.185020  0.500000  1
  Ce  Ce1  1  0.814327  0.998619  0.500000  1
  Ce  Ce2  1  0.000262  0.816459  0.500000  1
  Ce  Ce3  1  0.333373  0.667822  0.000000  1
  Ce  Ce4  1  0.667103  0.333443  0.000000  1
  Co  Co5  1  0.721797  0.717273  0.500000  1
  Co  Co6  1  0.284569  0.001357  0.500000  1
  Co  Co7  1  0.994190  0.277658  0.500000  1
  Si  Si8  1  0.157689  0.472318  0.500000  1
  Si  Si9  1  0.526913  0.685570  0.500000  1
  P  P10  1  0.813575  0.812416  0.000000  1
  P  P11  1  0.187750  0.001181  0.000000  1
  P  P12  1  0.997154  0.185541  0.000000  1
  P  P13  1  0.311072  0.838105  0.500000  1
  P  P14  1  0.690201  0.526493  0.500000  1
  P  P15  1  0.835910  0.309806  0.500000  1
  P  P16  1  0.473811  0.163100  0.500000  1
  P  P17  1  0.374864  0.375614  0.000000  1
  P  P18  1  0.625951  0.000360  0.000000  1
  P  P19  1  0.001286  0.626668  0.000000  1
  Ru  Ru20  1  0.559214  0.560106  0.000000  1
  Ru  Ru21  1  0.443178  0.002031  0.000000  1
  Ru  Ru22  1  0.002500  0.442641  0.000000  1
  Ru  Ru23  1  0.177488  0.368301  0.000000  1
  Ru  Ru24  1  0.630222  0.809799  0.000000  1
  Ru  Ru25  1  0.196616  0.823529  0.000000  1
  Ru  Ru26  1  0.806485  0.625425  0.000000  1
  Ru  Ru27  1  0.819081  0.194624  0.000000  1
  Ru  Ru28  1  0.374000  0.180322  0.000000  1
  Ru  Ru29  1  0.359745  0.482523  0.500000  1
  Ru  Ru30  1  0.509978  0.874713  0.500000  1
  Ru  Ru31  1  0.124803  0.641975  0.500000  1
  Ru  Ru32  1  0.873258  0.509492  0.500000  1
  Ru  Ru33  1  0.636533  0.127060  0.500000  1
  Ru  Ru34  1  0.490911  0.362739  0.500000  1
  Ru  Ru35  1  0.001009  0.999897  0.000000  1
