# generated using pymatgen
data_TaCu3TeS3
_symmetry_space_group_name_H-M   'P 1'
_cell_length_a   5.65875326
_cell_length_b   5.65875326
_cell_length_c   5.65875326
_cell_angle_alpha   88.12715721
_cell_angle_beta   88.12715721
_cell_angle_gamma   91.87284279
_symmetry_Int_Tables_number   1
_chemical_formula_structural   TaCu3TeS3
_chemical_formula_sum   'Ta1 Cu3 Te1 S3'
_cell_volume   180.90482789
_cell_formula_units_Z   1
loop_
 _symmetry_equiv_pos_site_id
 _symmetry_equiv_pos_as_xyz
  1  'x, y, z'
loop_
 _atom_site_type_symbol
 _atom_site_label
 _atom_site_symmetry_multiplicity
 _atom_site_fract_x
 _atom_site_fract_y
 _atom_site_fract_z
 _atom_site_occupancy
  Ta  Ta0  1  0.001959  0.001959  0.998041  1
  Cu  Cu1  1  0.009919  0.009919  0.501635  1
  Cu  Cu2  1  0.009919  0.498365  0.990081  1
  Cu  Cu3  1  0.498365  0.009919  0.990081  1
  Te  Te4  1  0.721315  0.721315  0.278685  1
  S  S5  1  0.777110  0.240706  0.759294  1
  S  S6  1  0.240706  0.777110  0.759294  1
  S  S7  1  0.240706  0.240706  0.222890  1
