# generated using pymatgen
data_BaLiYO3
_symmetry_space_group_name_H-M   'P 1'
_cell_length_a   6.11106685
_cell_length_b   6.11106661
_cell_length_c   8.78918200
_cell_angle_alpha   90.00000000
_cell_angle_beta   90.00000000
_cell_angle_gamma   146.40744952
_symmetry_Int_Tables_number   1
_chemical_formula_structural   BaLiYO3
_chemical_formula_sum   'Ba2 Li2 Y2 O6'
_cell_volume   181.60593272
_cell_formula_units_Z   2
loop_
 _symmetry_equiv_pos_site_id
 _symmetry_equiv_pos_as_xyz
  1  'x, y, z'
loop_
 _atom_site_type_symbol
 _atom_site_label
 _atom_site_symmetry_multiplicity
 _atom_site_fract_x
 _atom_site_fract_y
 _atom_site_fract_z
 _atom_site_occupancy
  Ba  Ba0  1  0.260779  0.739223  0.250000  1
  Ba  Ba1  1  0.739223  0.260779  0.750000  1
  Li  Li2  1  0.533537  0.466465  0.250000  1
  Li  Li3  1  0.466465  0.533537  0.750000  1
  Y  Y4  1  0.000000  0.000000  0.000000  1
  Y  Y5  1  0.000000  0.000000  0.500000  1
  O  O6  1  0.619947  0.380055  0.065898  1
  O  O7  1  0.944599  0.055403  0.250000  1
  O  O8  1  0.619947  0.380055  0.434102  1
  O  O9  1  0.380055  0.619947  0.565898  1
  O  O10  1  0.055403  0.944599  0.750000  1
  O  O11  1  0.380055  0.619947  0.934102  1
