# generated using pymatgen
data_YbPr6SiBr12
_symmetry_space_group_name_H-M   'P 1'
_cell_length_a   9.57012746
_cell_length_b   9.57012729
_cell_length_c   9.57012752
_cell_angle_alpha   107.30916833
_cell_angle_beta   107.30916612
_cell_angle_gamma   107.30915970
_symmetry_Int_Tables_number   1
_chemical_formula_structural   YbPr6SiBr12
_chemical_formula_sum   'Yb1 Pr6 Si1 Br12'
_cell_volume   723.71518861
_cell_formula_units_Z   1
loop_
 _symmetry_equiv_pos_site_id
 _symmetry_equiv_pos_as_xyz
  1  'x, y, z'
loop_
 _atom_site_type_symbol
 _atom_site_label
 _atom_site_symmetry_multiplicity
 _atom_site_fract_x
 _atom_site_fract_y
 _atom_site_fract_z
 _atom_site_occupancy
  Yb  Yb0  1  0.500000  0.500000  0.500000  1
  Pr  Pr1  1  0.972761  0.894982  0.679208  1
  Pr  Pr2  1  0.027239  0.105018  0.320792  1
  Pr  Pr3  1  0.105018  0.320792  0.027239  1
  Pr  Pr4  1  0.320792  0.027239  0.105018  1
  Pr  Pr5  1  0.894982  0.679208  0.972761  1
  Pr  Pr6  1  0.679208  0.972761  0.894982  1
  Si  Si7  1  0.000000  0.000000  0.000000  1
  Br  Br8  1  0.541829  0.618351  0.833895  1
  Br  Br9  1  0.458171  0.381649  0.166105  1
  Br  Br10  1  0.314984  0.927169  0.773629  1
  Br  Br11  1  0.381649  0.166105  0.458171  1
  Br  Br12  1  0.927169  0.773629  0.314984  1
  Br  Br13  1  0.685016  0.072831  0.226371  1
  Br  Br14  1  0.072831  0.226371  0.685016  1
  Br  Br15  1  0.773629  0.314984  0.927169  1
  Br  Br16  1  0.226371  0.685016  0.072831  1
  Br  Br17  1  0.833895  0.541829  0.618351  1
  Br  Br18  1  0.166105  0.458171  0.381649  1
  Br  Br19  1  0.618351  0.833895  0.541829  1
