# generated using pymatgen
data_CaGd6CCl12
_symmetry_space_group_name_H-M   'P 1'
_cell_length_a   8.86914329
_cell_length_b   8.86914241
_cell_length_c   8.86914200
_cell_angle_alpha   106.90192321
_cell_angle_beta   106.90192824
_cell_angle_gamma   106.90192199
_symmetry_Int_Tables_number   1
_chemical_formula_structural   CaGd6CCl12
_chemical_formula_sum   'Ca1 Gd6 C1 Cl12'
_cell_volume   582.56683895
_cell_formula_units_Z   1
loop_
 _symmetry_equiv_pos_site_id
 _symmetry_equiv_pos_as_xyz
  1  'x, y, z'
loop_
 _atom_site_type_symbol
 _atom_site_label
 _atom_site_symmetry_multiplicity
 _atom_site_fract_x
 _atom_site_fract_y
 _atom_site_fract_z
 _atom_site_occupancy
  Ca  Ca0  1  0.500000  0.500000  0.500000  1
  Gd  Gd1  1  0.304415  0.105284  0.021890  1
  Gd  Gd2  1  0.021890  0.304415  0.105284  1
  Gd  Gd3  1  0.105284  0.021890  0.304415  1
  Gd  Gd4  1  0.695585  0.894716  0.978110  1
  Gd  Gd5  1  0.978110  0.695585  0.894716  1
  Gd  Gd6  1  0.894716  0.978110  0.695585  1
  C  C7  1  0.000000  0.000000  0.000000  1
  Cl  Cl8  1  0.680419  0.212969  0.071323  1
  Cl  Cl9  1  0.071323  0.680419  0.212969  1
  Cl  Cl10  1  0.212969  0.071323  0.680419  1
  Cl  Cl11  1  0.319581  0.787031  0.928677  1
  Cl  Cl12  1  0.928677  0.319581  0.787031  1
  Cl  Cl13  1  0.787031  0.928677  0.319581  1
  Cl  Cl14  1  0.451511  0.159144  0.367618  1
  Cl  Cl15  1  0.367618  0.451511  0.159144  1
  Cl  Cl16  1  0.159144  0.367618  0.451511  1
  Cl  Cl17  1  0.548489  0.840856  0.632382  1
  Cl  Cl18  1  0.632382  0.548489  0.840856  1
  Cl  Cl19  1  0.840856  0.632382  0.548489  1
