# generated using pymatgen
data_Y2Er2BI5
_symmetry_space_group_name_H-M   'P 1'
_cell_length_a   9.68773167
_cell_length_b   9.68773217
_cell_length_c   8.57734600
_cell_angle_alpha   77.89488994
_cell_angle_beta   77.89488941
_cell_angle_gamma   24.44666158
_symmetry_Int_Tables_number   1
_chemical_formula_structural   Y2Er2BI5
_chemical_formula_sum   'Y2 Er2 B1 I5'
_cell_volume   325.38750420
_cell_formula_units_Z   1
loop_
 _symmetry_equiv_pos_site_id
 _symmetry_equiv_pos_as_xyz
  1  'x, y, z'
loop_
 _atom_site_type_symbol
 _atom_site_label
 _atom_site_symmetry_multiplicity
 _atom_site_fract_x
 _atom_site_fract_y
 _atom_site_fract_z
 _atom_site_occupancy
  Y  Y0  1  0.634953  0.634953  0.932378  1
  Y  Y1  1  0.999080  0.999080  0.807133  1
  Er  Er2  1  0.365790  0.365790  0.068175  1
  Er  Er3  1  0.000611  0.000611  0.191216  1
  B  B4  1  0.499040  0.499040  0.002742  1
  I  I5  1  0.835326  0.835326  0.338795  1
  I  I6  1  0.828388  0.828388  0.827189  1
  I  I7  1  0.171435  0.171435  0.175433  1
  I  I8  1  0.499998  0.499998  0.498482  1
  I  I9  1  0.165379  0.165379  0.658457  1
