# generated using pymatgen
data_Th8Si12Tc3Ir
_symmetry_space_group_name_H-M   'P 1'
_cell_length_a   8.34254400
_cell_length_b   8.34254433
_cell_length_c   8.28251200
_cell_angle_alpha   90.00000000
_cell_angle_beta   90.00000000
_cell_angle_gamma   119.99999074
_symmetry_Int_Tables_number   1
_chemical_formula_structural   Th8Si12Tc3Ir
_chemical_formula_sum   'Th8 Si12 Tc3 Ir1'
_cell_volume   499.21747021
_cell_formula_units_Z   1
loop_
 _symmetry_equiv_pos_site_id
 _symmetry_equiv_pos_as_xyz
  1  'x, y, z'
loop_
 _atom_site_type_symbol
 _atom_site_label
 _atom_site_symmetry_multiplicity
 _atom_site_fract_x
 _atom_site_fract_y
 _atom_site_fract_z
 _atom_site_occupancy
  Th  Th0  1  0.498239  0.501761  0.753574  1
  Th  Th1  1  0.498492  0.501508  0.246399  1
  Th  Th2  1  0.003522  0.501761  0.753574  1
  Th  Th3  1  0.003015  0.501508  0.246399  1
  Th  Th4  1  0.498239  0.996478  0.753574  1
  Th  Th5  1  0.498492  0.996985  0.246399  1
  Th  Th6  1  0.000000  0.000000  0.749270  1
  Th  Th7  1  0.000000  0.000000  0.250736  1
  Si  Si8  1  0.834245  0.165755  0.999780  1
  Si  Si9  1  0.165087  0.834913  0.000194  1
  Si  Si10  1  0.331510  0.165755  0.999780  1
  Si  Si11  1  0.166111  0.833889  0.499836  1
  Si  Si12  1  0.669826  0.834913  0.000194  1
  Si  Si13  1  0.834375  0.165625  0.500149  1
  Si  Si14  1  0.834245  0.668490  0.999780  1
  Si  Si15  1  0.667776  0.833889  0.499836  1
  Si  Si16  1  0.165087  0.330174  0.000194  1
  Si  Si17  1  0.331251  0.165625  0.500149  1
  Si  Si18  1  0.166111  0.332224  0.499836  1
  Si  Si19  1  0.834375  0.668749  0.500149  1
  Tc  Tc20  1  0.666667  0.333333  0.999995  1
  Tc  Tc21  1  0.333333  0.666667  0.000156  1
  Tc  Tc22  1  0.333333  0.666667  0.499709  1
  Ir  Ir23  1  0.666667  0.333333  0.500336  1
