# generated using pymatgen
data_La3Er2Tl2InBr
_symmetry_space_group_name_H-M   'P 1'
_cell_length_a   9.59123667
_cell_length_b   9.59123636
_cell_length_c   6.82813700
_cell_angle_alpha   90.00000000
_cell_angle_beta   90.00000000
_cell_angle_gamma   119.93232200
_symmetry_Int_Tables_number   1
_chemical_formula_structural   La3Er2Tl2InBr
_chemical_formula_sum   'La6 Er4 Tl4 In2 Br2'
_cell_volume   544.34950311
_cell_formula_units_Z   2
loop_
 _symmetry_equiv_pos_site_id
 _symmetry_equiv_pos_as_xyz
  1  'x, y, z'
loop_
 _atom_site_type_symbol
 _atom_site_label
 _atom_site_symmetry_multiplicity
 _atom_site_fract_x
 _atom_site_fract_y
 _atom_site_fract_z
 _atom_site_occupancy
  La  La0  1  0.730712  0.730712  0.250000  1
  La  La1  1  0.999731  0.730448  0.750000  1
  La  La2  1  0.730448  0.999731  0.750000  1
  La  La3  1  0.269288  0.269288  0.750000  1
  La  La4  1  0.000269  0.269552  0.250000  1
  La  La5  1  0.269552  0.000269  0.250000  1
  Er  Er6  1  0.333803  0.666197  0.500000  1
  Er  Er7  1  0.666197  0.333803  0.500000  1
  Er  Er8  1  0.333803  0.666197  0.000000  1
  Er  Er9  1  0.666197  0.333803  0.000000  1
  Tl  Tl10  1  0.393366  0.999974  0.750000  1
  Tl  Tl11  1  0.000026  0.606634  0.250000  1
  Tl  Tl12  1  0.606634  0.000026  0.250000  1
  Tl  Tl13  1  0.999974  0.393366  0.750000  1
  In  In14  1  0.394270  0.394270  0.250000  1
  In  In15  1  0.605730  0.605730  0.750000  1
  Br  Br16  1  0.000000  0.000000  0.500000  1
  Br  Br17  1  0.000000  0.000000  0.000000  1
