# generated using pymatgen
data_Ca3La8Y9Pb16
_symmetry_space_group_name_H-M   'P 1'
_cell_length_a   8.21231200
_cell_length_b   8.44454818
_cell_length_c   15.98228200
_cell_angle_alpha   90.00000000
_cell_angle_beta   90.00000000
_cell_angle_gamma   90.07470225
_symmetry_Int_Tables_number   1
_chemical_formula_structural   Ca3La8Y9Pb16
_chemical_formula_sum   'Ca3 La8 Y9 Pb16'
_cell_volume   1108.35855700
_cell_formula_units_Z   1
loop_
 _symmetry_equiv_pos_site_id
 _symmetry_equiv_pos_as_xyz
  1  'x, y, z'
loop_
 _atom_site_type_symbol
 _atom_site_label
 _atom_site_symmetry_multiplicity
 _atom_site_fract_x
 _atom_site_fract_y
 _atom_site_fract_z
 _atom_site_occupancy
  Ca  Ca0  1  0.806452  0.497166  0.750000  1
  Ca  Ca1  1  0.305760  0.002184  0.750000  1
  Ca  Ca2  1  0.193125  0.501439  0.250000  1
  La  La3  1  0.487558  0.681293  0.594486  1
  La  La4  1  0.986383  0.820160  0.905365  1
  La  La5  1  0.513257  0.321348  0.096000  1
  La  La6  1  0.016397  0.179688  0.402939  1
  La  La7  1  0.513257  0.321348  0.404000  1
  La  La8  1  0.016397  0.179688  0.097061  1
  La  La9  1  0.487558  0.681293  0.905514  1
  La  La10  1  0.986383  0.820160  0.594635  1
  Y  Y11  1  0.639952  0.161645  0.620085  1
  Y  Y12  1  0.140103  0.335852  0.878250  1
  Y  Y13  1  0.357596  0.838009  0.122066  1
  Y  Y14  1  0.858886  0.662411  0.376607  1
  Y  Y15  1  0.357596  0.838009  0.377934  1
  Y  Y16  1  0.858886  0.662411  0.123393  1
  Y  Y17  1  0.639952  0.161645  0.879915  1
  Y  Y18  1  0.140103  0.335852  0.621750  1
  Y  Y19  1  0.692929  0.996080  0.250000  1
  Pb  Pb20  1  0.699604  0.959237  0.456204  1
  Pb  Pb21  1  0.196043  0.543659  0.040068  1
  Pb  Pb22  1  0.300921  0.042864  0.959961  1
  Pb  Pb23  1  0.803531  0.457075  0.539306  1
  Pb  Pb24  1  0.300921  0.042864  0.540039  1
  Pb  Pb25  1  0.803531  0.457075  0.960694  1
  Pb  Pb26  1  0.699604  0.959237  0.043796  1
  Pb  Pb27  1  0.196043  0.543659  0.459932  1
  Pb  Pb28  1  0.442473  0.375495  0.750000  1
  Pb  Pb29  1  0.940858  0.123499  0.750000  1
  Pb  Pb30  1  0.555984  0.628010  0.250000  1
  Pb  Pb31  1  0.056244  0.876980  0.250000  1
  Pb  Pb32  1  0.677282  0.860358  0.750000  1
  Pb  Pb33  1  0.179499  0.639378  0.750000  1
  Pb  Pb34  1  0.330120  0.140442  0.250000  1
  Pb  Pb35  1  0.818811  0.352487  0.250000  1
