# generated using pymatgen
data_K2Np(SeO5)2
_symmetry_space_group_name_H-M   'P 1'
_cell_length_a   5.82894704
_cell_length_b   6.97089134
_cell_length_c   7.79475402
_cell_angle_alpha   105.49443592
_cell_angle_beta   93.84117169
_cell_angle_gamma   108.41244693
_symmetry_Int_Tables_number   1
_chemical_formula_structural   K2Np(SeO5)2
_chemical_formula_sum   'K2 Np1 Se2 O10'
_cell_volume   285.59226817
_cell_formula_units_Z   1
loop_
 _symmetry_equiv_pos_site_id
 _symmetry_equiv_pos_as_xyz
  1  'x, y, z'
loop_
 _atom_site_type_symbol
 _atom_site_label
 _atom_site_symmetry_multiplicity
 _atom_site_fract_x
 _atom_site_fract_y
 _atom_site_fract_z
 _atom_site_occupancy
  K  K0  1  0.308679  0.706336  0.283926  1
  K  K1  1  0.691321  0.293664  0.716074  1
  Np  Np2  1  0.000000  0.000000  0.000000  1
  Se  Se3  1  0.362338  0.694406  0.763910  1
  Se  Se4  1  0.637662  0.305594  0.236090  1
  O  O5  1  0.413853  0.872548  0.655430  1
  O  O6  1  0.586147  0.127452  0.344570  1
  O  O7  1  0.263320  0.445458  0.636813  1
  O  O8  1  0.736680  0.554542  0.363187  1
  O  O9  1  0.617728  0.739253  0.913420  1
  O  O10  1  0.382272  0.260747  0.086580  1
  O  O11  1  0.158944  0.730039  0.908700  1
  O  O12  1  0.841056  0.269961  0.091300  1
  O  O13  1  0.012649  0.950690  0.213110  1
  O  O14  1  0.987351  0.049310  0.786890  1
