# generated using pymatgen
data_Er6Co13Ni3(P6Os)2
_symmetry_space_group_name_H-M   'P 1'
_cell_length_a   3.72778200
_cell_length_b   10.47897637
_cell_length_c   12.22668163
_cell_angle_alpha   89.94110030
_cell_angle_beta   90.00000000
_cell_angle_gamma   90.00000000
_symmetry_Int_Tables_number   1
_chemical_formula_structural   Er6Co13Ni3(P6Os)2
_chemical_formula_sum   'Er6 Co13 Ni3 P12 Os2'
_cell_volume   477.61476306
_cell_formula_units_Z   1
loop_
 _symmetry_equiv_pos_site_id
 _symmetry_equiv_pos_as_xyz
  1  'x, y, z'
loop_
 _atom_site_type_symbol
 _atom_site_label
 _atom_site_symmetry_multiplicity
 _atom_site_fract_x
 _atom_site_fract_y
 _atom_site_fract_z
 _atom_site_occupancy
  Er  Er0  1  0.750000  0.249938  0.475574  1
  Er  Er1  1  0.250000  0.750157  0.524660  1
  Er  Er2  1  0.250000  0.933831  0.793484  1
  Er  Er3  1  0.250000  0.566354  0.792965  1
  Er  Er4  1  0.750000  0.066353  0.206486  1
  Er  Er5  1  0.750000  0.433537  0.207854  1
  Co  Co6  1  0.750000  0.250550  0.012601  1
  Co  Co7  1  0.250000  0.750292  0.986573  1
  Co  Co8  1  0.250000  0.081961  0.009322  1
  Co  Co9  1  0.750000  0.581537  0.988663  1
  Co  Co10  1  0.750000  0.917062  0.989680  1
  Co  Co11  1  0.250000  0.451001  0.568308  1
  Co  Co12  1  0.250000  0.049292  0.568614  1
  Co  Co13  1  0.750000  0.549291  0.431354  1
  Co  Co14  1  0.750000  0.950616  0.431182  1
  Co  Co15  1  0.250000  0.871241  0.290479  1
  Co  Co16  1  0.250000  0.629202  0.292118  1
  Co  Co17  1  0.750000  0.128724  0.709424  1
  Co  Co18  1  0.750000  0.370918  0.707200  1
  Ni  Ni19  1  0.250000  0.249553  0.298131  1
  Ni  Ni20  1  0.750000  0.750547  0.702979  1
  Ni  Ni21  1  0.250000  0.418881  0.012689  1
  P  P22  1  0.250000  0.247641  0.120304  1
  P  P23  1  0.750000  0.749753  0.881013  1
  P  P24  1  0.250000  0.249577  0.648406  1
  P  P25  1  0.750000  0.750215  0.351488  1
  P  P26  1  0.250000  0.438197  0.384624  1
  P  P27  1  0.250000  0.060808  0.384413  1
  P  P28  1  0.750000  0.562002  0.615646  1
  P  P29  1  0.750000  0.939268  0.615815  1
  P  P30  1  0.250000  0.904130  0.106634  1
  P  P31  1  0.250000  0.598599  0.108784  1
  P  P32  1  0.750000  0.096304  0.893198  1
  P  P33  1  0.750000  0.402331  0.889890  1
  Os  Os34  1  0.250000  0.251660  0.840865  1
  Os  Os35  1  0.750000  0.748675  0.158580  1
