# generated using pymatgen
data_TbDy15(In3Rh)2
_symmetry_space_group_name_H-M   'P 1'
_cell_length_a   10.45134500
_cell_length_b   10.45149187
_cell_length_c   7.04013400
_cell_angle_alpha   89.99970946
_cell_angle_beta   90.00000000
_cell_angle_gamma   119.99954464
_symmetry_Int_Tables_number   1
_chemical_formula_structural   TbDy15(In3Rh)2
_chemical_formula_sum   'Tb1 Dy15 In6 Rh2'
_cell_volume   665.98434593
_cell_formula_units_Z   1
loop_
 _symmetry_equiv_pos_site_id
 _symmetry_equiv_pos_as_xyz
  1  'x, y, z'
loop_
 _atom_site_type_symbol
 _atom_site_label
 _atom_site_symmetry_multiplicity
 _atom_site_fract_x
 _atom_site_fract_y
 _atom_site_fract_z
 _atom_site_occupancy
  Tb  Tb0  1  0.532893  0.065784  0.514206  1
  Dy  Dy1  1  0.934156  0.467089  0.514274  1
  Dy  Dy2  1  0.532935  0.467089  0.514274  1
  Dy  Dy3  1  0.467039  0.934080  0.014253  1
  Dy  Dy4  1  0.065870  0.532937  0.014266  1
  Dy  Dy5  1  0.467066  0.532937  0.014266  1
  Dy  Dy6  1  0.175866  0.351733  0.721106  1
  Dy  Dy7  1  0.648285  0.824085  0.721151  1
  Dy  Dy8  1  0.175800  0.824085  0.721151  1
  Dy  Dy9  1  0.824112  0.648224  0.221099  1
  Dy  Dy10  1  0.351698  0.175880  0.221055  1
  Dy  Dy11  1  0.824182  0.175880  0.221055  1
  Dy  Dy12  1  0.666701  0.333402  0.895185  1
  Dy  Dy13  1  0.333309  0.666619  0.395103  1
  Dy  Dy14  1  0.999998  0.999995  0.500709  1
  Dy  Dy15  1  0.000009  0.000017  0.000740  1
  In  In16  1  0.836906  0.673811  0.760367  1
  In  In17  1  0.326133  0.163111  0.760412  1
  In  In18  1  0.836978  0.163111  0.760412  1
  In  In19  1  0.163090  0.326180  0.260365  1
  In  In20  1  0.673821  0.836897  0.260337  1
  In  In21  1  0.163076  0.836897  0.260337  1
  Rh  Rh22  1  0.666747  0.333493  0.288982  1
  Rh  Rh23  1  0.333331  0.666662  0.789097  1
