# generated using pymatgen
data_Zr4Al22Zn2Pt9
_symmetry_space_group_name_H-M   'P 1'
_cell_length_a   7.47528772
_cell_length_b   7.48656039
_cell_length_c   12.95486433
_cell_angle_alpha   84.46582055
_cell_angle_beta   78.72361656
_cell_angle_gamma   59.97957834
_symmetry_Int_Tables_number   1
_chemical_formula_structural   Zr4Al22Zn2Pt9
_chemical_formula_sum   'Zr4 Al22 Zn2 Pt9'
_cell_volume   615.62729673
_cell_formula_units_Z   1
loop_
 _symmetry_equiv_pos_site_id
 _symmetry_equiv_pos_as_xyz
  1  'x, y, z'
loop_
 _atom_site_type_symbol
 _atom_site_label
 _atom_site_symmetry_multiplicity
 _atom_site_fract_x
 _atom_site_fract_y
 _atom_site_fract_z
 _atom_site_occupancy
  Zr  Zr0  1  0.390511  0.168248  0.813206  1
  Zr  Zr1  1  0.609489  0.831752  0.186794  1
  Zr  Zr2  1  0.731857  0.498935  0.810920  1
  Zr  Zr3  1  0.268143  0.501065  0.189080  1
  Al  Al4  1  0.146076  0.832895  0.563810  1
  Al  Al5  1  0.853924  0.167105  0.436190  1
  Al  Al6  1  0.480198  0.166892  0.561599  1
  Al  Al7  1  0.519802  0.833108  0.438401  1
  Al  Al8  1  0.222002  0.165077  0.323314  1
  Al  Al9  1  0.777998  0.834923  0.676686  1
  Al  Al10  1  0.437125  0.503932  0.678487  1
  Al  Al11  1  0.562875  0.496068  0.321513  1
  Al  Al12  1  0.107645  0.162340  0.676740  1
  Al  Al13  1  0.892355  0.837660  0.323260  1
  Al  Al14  1  0.355070  0.493204  0.942280  1
  Al  Al15  1  0.644930  0.506796  0.057720  1
  Al  Al16  1  0.020627  0.169078  0.952066  1
  Al  Al17  1  0.979373  0.830922  0.047934  1
  Al  Al18  1  0.186931  0.499950  0.438890  1
  Al  Al19  1  0.813069  0.500050  0.561110  1
  Al  Al20  1  0.729637  0.164306  0.182425  1
  Al  Al21  1  0.270363  0.835694  0.817575  1
  Al  Al22  1  0.057420  0.628279  0.817146  1
  Al  Al23  1  0.942580  0.371721  0.182854  1
  Al  Al24  1  0.848509  0.045944  0.817843  1
  Al  Al25  1  0.151491  0.954056  0.182158  1
  Zn  Zn26  1  0.678149  0.838427  0.936765  1
  Zn  Zn27  1  0.321851  0.161573  0.063235  1
  Pt  Pt28  1  0.120752  0.490556  0.639442  1
  Pt  Pt29  1  0.879248  0.509444  0.360558  1
  Pt  Pt30  1  0.661877  0.180393  0.998972  1
  Pt  Pt31  1  0.338123  0.819607  0.001028  1
  Pt  Pt32  1  0.536641  0.166631  0.361188  1
  Pt  Pt33  1  0.463359  0.833369  0.638812  1
  Pt  Pt34  1  0.778416  0.176143  0.637973  1
  Pt  Pt35  1  0.221584  0.823857  0.362027  1
  Pt  Pt36  1  0.000000  0.500000  0.000000  1
