# generated using pymatgen
data_RbTaTi3O9
_symmetry_space_group_name_H-M   'P 1'
_cell_length_a   3.83755200
_cell_length_b   6.47367200
_cell_length_c   15.11794800
_cell_angle_alpha   90.00000000
_cell_angle_beta   90.00000000
_cell_angle_gamma   90.00000000
_symmetry_Int_Tables_number   1
_chemical_formula_structural   RbTaTi3O9
_chemical_formula_sum   'Rb2 Ta2 Ti6 O18'
_cell_volume   375.57598237
_cell_formula_units_Z   2
loop_
 _symmetry_equiv_pos_site_id
 _symmetry_equiv_pos_as_xyz
  1  'x, y, z'
loop_
 _atom_site_type_symbol
 _atom_site_label
 _atom_site_symmetry_multiplicity
 _atom_site_fract_x
 _atom_site_fract_y
 _atom_site_fract_z
 _atom_site_occupancy
  Rb  Rb0  1  0.500000  0.222302  0.248808  1
  Rb  Rb1  1  0.000000  0.777698  0.748808  1
  Ta  Ta2  1  0.000000  0.761541  0.370677  1
  Ta  Ta3  1  0.500000  0.238459  0.870677  1
  Ti  Ti4  1  0.000000  0.307591  0.462281  1
  Ti  Ti5  1  0.000000  0.313270  0.046321  1
  Ti  Ti6  1  0.500000  0.686730  0.546321  1
  Ti  Ti7  1  0.500000  0.692409  0.962281  1
  Ti  Ti8  1  0.000000  0.765564  0.122719  1
  Ti  Ti9  1  0.500000  0.234436  0.622719  1
  O  O10  1  0.000000  0.653658  0.990272  1
  O  O11  1  0.000000  0.655493  0.509704  1
  O  O12  1  0.500000  0.344507  0.009704  1
  O  O13  1  0.500000  0.346342  0.490272  1
  O  O14  1  0.000000  0.824329  0.248335  1
  O  O15  1  0.500000  0.175671  0.748335  1
  O  O16  1  0.000000  0.060159  0.409244  1
  O  O17  1  0.000000  0.061559  0.093664  1
  O  O18  1  0.500000  0.938441  0.593664  1
  O  O19  1  0.500000  0.939841  0.909244  1
  O  O20  1  0.000000  0.462335  0.355863  1
  O  O21  1  0.000000  0.469061  0.145745  1
  O  O22  1  0.500000  0.530939  0.645745  1
  O  O23  1  0.500000  0.537665  0.855863  1
  O  O24  1  0.000000  0.237381  0.901052  1
  O  O25  1  0.000000  0.238890  0.595315  1
  O  O26  1  0.500000  0.761110  0.095315  1
  O  O27  1  0.500000  0.762619  0.401052  1
