# generated using pymatgen
data_La3Nd13Cd4IrPt3
_symmetry_space_group_name_H-M   'P 1'
_cell_length_a   10.06721740
_cell_length_b   10.04598649
_cell_length_c   10.04598700
_cell_angle_alpha   60.00000162
_cell_angle_beta   60.06973949
_cell_angle_gamma   60.06974485
_symmetry_Int_Tables_number   1
_chemical_formula_structural   La3Nd13Cd4IrPt3
_chemical_formula_sum   'La3 Nd13 Cd4 Ir1 Pt3'
_cell_volume   719.17845049
_cell_formula_units_Z   1
loop_
 _symmetry_equiv_pos_site_id
 _symmetry_equiv_pos_as_xyz
  1  'x, y, z'
loop_
 _atom_site_type_symbol
 _atom_site_label
 _atom_site_symmetry_multiplicity
 _atom_site_fract_x
 _atom_site_fract_y
 _atom_site_fract_z
 _atom_site_occupancy
  La  La0  1  0.350450  0.347223  0.347223  1
  La  La1  1  0.350450  0.347223  0.955104  1
  La  La2  1  0.350450  0.955104  0.347223  1
  Nd  Nd3  1  0.942714  0.352429  0.352429  1
  Nd  Nd4  1  0.807178  0.189879  0.189879  1
  Nd  Nd5  1  0.193143  0.809283  0.809283  1
  Nd  Nd6  1  0.193143  0.809283  0.188291  1
  Nd  Nd7  1  0.807178  0.189879  0.813065  1
  Nd  Nd8  1  0.193143  0.188291  0.809283  1
  Nd  Nd9  1  0.807178  0.813065  0.189879  1
  Nd  Nd10  1  0.936770  0.564548  0.564548  1
  Nd  Nd11  1  0.567715  0.934785  0.934785  1
  Nd  Nd12  1  0.567715  0.934785  0.562715  1
  Nd  Nd13  1  0.936770  0.564548  0.934136  1
  Nd  Nd14  1  0.567715  0.562715  0.934785  1
  Nd  Nd15  1  0.936770  0.934136  0.564548  1
  Cd  Cd16  1  0.580805  0.580190  0.580190  1
  Cd  Cd17  1  0.580805  0.580190  0.258815  1
  Cd  Cd18  1  0.580805  0.258815  0.580190  1
  Cd  Cd19  1  0.260649  0.579783  0.579783  1
  Ir  Ir20  1  0.572364  0.142545  0.142545  1
  Pt  Pt21  1  0.138699  0.143889  0.143889  1
  Pt  Pt22  1  0.138699  0.143889  0.573522  1
  Pt  Pt23  1  0.138699  0.573522  0.143889  1
