# generated using pymatgen
data_Sm2Re5(Tc4C)3
_symmetry_space_group_name_H-M   'P 1'
_cell_length_a   7.02590343
_cell_length_b   7.02590339
_cell_length_c   7.01912192
_cell_angle_alpha   82.66195220
_cell_angle_beta   82.66194125
_cell_angle_gamma   82.75698591
_symmetry_Int_Tables_number   1
_chemical_formula_structural   Sm2Re5(Tc4C)3
_chemical_formula_sum   'Sm2 Re5 Tc12 C3'
_cell_volume   338.70626687
_cell_formula_units_Z   1
loop_
 _symmetry_equiv_pos_site_id
 _symmetry_equiv_pos_as_xyz
  1  'x, y, z'
loop_
 _atom_site_type_symbol
 _atom_site_label
 _atom_site_symmetry_multiplicity
 _atom_site_fract_x
 _atom_site_fract_y
 _atom_site_fract_z
 _atom_site_occupancy
  Sm  Sm0  1  0.651644  0.651544  0.652458  1
  Sm  Sm1  1  0.348456  0.348356  0.347542  1
  Re  Re2  1  0.999759  0.000241  0.500000  1
  Re  Re3  1  0.500696  0.000013  0.000074  1
  Re  Re4  1  0.999987  0.499304  0.999926  1
  Re  Re5  1  0.999725  0.721966  0.278406  1
  Re  Re6  1  0.278034  0.000275  0.721594  1
  Tc  Tc7  1  0.721463  0.278537  0.000000  1
  Tc  Tc8  1  0.000111  0.279224  0.721401  1
  Tc  Tc9  1  0.720776  0.999889  0.278599  1
  Tc  Tc10  1  0.278961  0.721039  0.000000  1
  Tc  Tc11  1  0.348894  0.348740  0.865126  1
  Tc  Tc12  1  0.864913  0.348407  0.348547  1
  Tc  Tc13  1  0.348744  0.864875  0.348217  1
  Tc  Tc14  1  0.651260  0.651106  0.134874  1
  Tc  Tc15  1  0.135125  0.651256  0.651783  1
  Tc  Tc16  1  0.651593  0.135087  0.651453  1
  Tc  Tc17  1  0.902556  0.902915  0.902614  1
  Tc  Tc18  1  0.097085  0.097444  0.097386  1
  C  C19  1  0.500447  0.499553  0.000000  1
  C  C20  1  0.000029  0.500257  0.499529  1
  C  C21  1  0.499743  0.999971  0.500471  1
