# generated using pymatgen
data_Pr6WO12
_symmetry_space_group_name_H-M   'P 1'
_cell_length_a   6.79149019
_cell_length_b   6.79149055
_cell_length_c   6.79149035
_cell_angle_alpha   98.54433135
_cell_angle_beta   98.54433208
_cell_angle_gamma   98.54431668
_symmetry_Int_Tables_number   1
_chemical_formula_structural   Pr6WO12
_chemical_formula_sum   'Pr6 W1 O12'
_cell_volume   301.63800943
_cell_formula_units_Z   1
loop_
 _symmetry_equiv_pos_site_id
 _symmetry_equiv_pos_as_xyz
  1  'x, y, z'
loop_
 _atom_site_type_symbol
 _atom_site_label
 _atom_site_symmetry_multiplicity
 _atom_site_fract_x
 _atom_site_fract_y
 _atom_site_fract_z
 _atom_site_occupancy
  Pr  Pr0  1  0.610518  0.143892  0.309499  1
  Pr  Pr1  1  0.856108  0.690501  0.389482  1
  Pr  Pr2  1  0.690501  0.389482  0.856108  1
  Pr  Pr3  1  0.389482  0.856108  0.690501  1
  Pr  Pr4  1  0.143892  0.309499  0.610518  1
  Pr  Pr5  1  0.309499  0.610518  0.143892  1
  W  W6  1  0.000000  0.000000  0.000000  1
  O  O7  1  0.592260  0.439336  0.177662  1
  O  O8  1  0.439336  0.177662  0.592260  1
  O  O9  1  0.177662  0.592260  0.439336  1
  O  O10  1  0.407740  0.560664  0.822338  1
  O  O11  1  0.560664  0.822338  0.407740  1
  O  O12  1  0.822338  0.407740  0.560664  1
  O  O13  1  0.713685  0.030687  0.929849  1
  O  O14  1  0.070151  0.286315  0.969313  1
  O  O15  1  0.969313  0.070151  0.286315  1
  O  O16  1  0.286315  0.969313  0.070151  1
  O  O17  1  0.929849  0.713685  0.030687  1
  O  O18  1  0.030687  0.929849  0.713685  1
