# generated using pymatgen
data_HoEr19Bi7Sb5
_symmetry_space_group_name_H-M   'P 1'
_cell_length_a   8.10870818
_cell_length_b   9.39406393
_cell_length_c   11.87175882
_cell_angle_alpha   90.04474488
_cell_angle_beta   89.93912714
_cell_angle_gamma   90.02453463
_symmetry_Int_Tables_number   1
_chemical_formula_structural   HoEr19Bi7Sb5
_chemical_formula_sum   'Ho1 Er19 Bi7 Sb5'
_cell_volume   904.31519922
_cell_formula_units_Z   1
loop_
 _symmetry_equiv_pos_site_id
 _symmetry_equiv_pos_as_xyz
  1  'x, y, z'
loop_
 _atom_site_type_symbol
 _atom_site_label
 _atom_site_symmetry_multiplicity
 _atom_site_fract_x
 _atom_site_fract_y
 _atom_site_fract_z
 _atom_site_occupancy
  Ho  Ho0  1  0.183590  0.749952  0.717698  1
  Er  Er1  1  0.356139  0.752641  0.215088  1
  Er  Er2  1  0.851416  0.752045  0.286278  1
  Er  Er3  1  0.646361  0.250052  0.785933  1
  Er  Er4  1  0.146346  0.249987  0.713978  1
  Er  Er5  1  0.688560  0.563199  0.058002  1
  Er  Er6  1  0.190697  0.937402  0.441226  1
  Er  Er7  1  0.311416  0.063045  0.941988  1
  Er  Er8  1  0.811329  0.436741  0.557882  1
  Er  Er9  1  0.311566  0.436822  0.942114  1
  Er  Er10  1  0.810300  0.062607  0.556461  1
  Er  Er11  1  0.687649  0.937358  0.060042  1
  Er  Er12  1  0.188745  0.563203  0.441887  1
  Er  Er13  1  0.473662  0.247778  0.486976  1
  Er  Er14  1  0.972789  0.249961  0.011748  1
  Er  Er15  1  0.527670  0.752148  0.509779  1
  Er  Er16  1  0.026996  0.750106  0.988581  1
  Er  Er17  1  0.317864  0.248140  0.218196  1
  Er  Er18  1  0.813579  0.247101  0.283049  1
  Er  Er19  1  0.683705  0.750018  0.782434  1
  Bi  Bi20  1  0.066452  0.503822  0.174571  1
  Bi  Bi21  1  0.434079  0.495967  0.674061  1
  Bi  Bi22  1  0.933298  0.003989  0.825604  1
  Bi  Bi23  1  0.433891  0.004083  0.674515  1
  Bi  Bi24  1  0.933364  0.495960  0.825632  1
  Bi  Bi25  1  0.566301  0.503733  0.325449  1
  Bi  Bi26  1  0.066474  0.996227  0.174320  1
  Sb  Sb27  1  0.406095  0.750037  0.958684  1
  Sb  Sb28  1  0.906072  0.750034  0.541344  1
  Sb  Sb29  1  0.593978  0.250041  0.041435  1
  Sb  Sb30  1  0.093896  0.249948  0.458342  1
  Sb  Sb31  1  0.565724  0.995854  0.326698  1
