# generated using pymatgen
data_LiDy4Sc5Si8
_symmetry_space_group_name_H-M   'P 1'
_cell_length_a   7.00616438
_cell_length_b   7.39539538
_cell_length_c   14.01427100
_cell_angle_alpha   90.00000000
_cell_angle_beta   90.00000000
_cell_angle_gamma   89.96262093
_symmetry_Int_Tables_number   1
_chemical_formula_structural   LiDy4Sc5Si8
_chemical_formula_sum   'Li2 Dy8 Sc10 Si16'
_cell_volume   726.12625408
_cell_formula_units_Z   2
loop_
 _symmetry_equiv_pos_site_id
 _symmetry_equiv_pos_as_xyz
  1  'x, y, z'
loop_
 _atom_site_type_symbol
 _atom_site_label
 _atom_site_symmetry_multiplicity
 _atom_site_fract_x
 _atom_site_fract_y
 _atom_site_fract_z
 _atom_site_occupancy
  Li  Li0  1  0.159095  0.503961  0.750000  1
  Li  Li1  1  0.840905  0.496039  0.250000  1
  Dy  Dy2  1  0.010411  0.182993  0.098628  1
  Dy  Dy3  1  0.989589  0.817007  0.901372  1
  Dy  Dy4  1  0.484370  0.674372  0.902023  1
  Dy  Dy5  1  0.989589  0.817007  0.598628  1
  Dy  Dy6  1  0.515630  0.325628  0.097977  1
  Dy  Dy7  1  0.010411  0.182993  0.401372  1
  Dy  Dy8  1  0.515630  0.325628  0.402023  1
  Dy  Dy9  1  0.484370  0.674372  0.597977  1
  Sc  Sc10  1  0.339930  0.002679  0.250000  1
  Sc  Sc11  1  0.660070  0.997321  0.750000  1
  Sc  Sc12  1  0.327383  0.181889  0.625811  1
  Sc  Sc13  1  0.672617  0.818111  0.374189  1
  Sc  Sc14  1  0.166740  0.674548  0.373470  1
  Sc  Sc15  1  0.672617  0.818111  0.125811  1
  Sc  Sc16  1  0.833260  0.325452  0.626530  1
  Sc  Sc17  1  0.327383  0.181889  0.874189  1
  Sc  Sc18  1  0.833260  0.325452  0.873470  1
  Sc  Sc19  1  0.166740  0.674548  0.126530  1
  Si  Si20  1  0.030647  0.105059  0.750000  1
  Si  Si21  1  0.969353  0.894941  0.250000  1
  Si  Si22  1  0.464537  0.614039  0.250000  1
  Si  Si23  1  0.535463  0.385961  0.750000  1
  Si  Si24  1  0.287871  0.882024  0.750000  1
  Si  Si25  1  0.712129  0.117976  0.250000  1
  Si  Si26  1  0.219635  0.373624  0.250000  1
  Si  Si27  1  0.780365  0.626376  0.750000  1
  Si  Si28  1  0.158475  0.461377  0.533904  1
  Si  Si29  1  0.841525  0.538623  0.466096  1
  Si  Si30  1  0.343396  0.966537  0.461159  1
  Si  Si31  1  0.841525  0.538623  0.033904  1
  Si  Si32  1  0.656604  0.033463  0.538841  1
  Si  Si33  1  0.158475  0.461377  0.966096  1
  Si  Si34  1  0.656604  0.033463  0.961159  1
  Si  Si35  1  0.343396  0.966537  0.038841  1
