# generated using pymatgen
data_Ce7PrTiS17
_symmetry_space_group_name_H-M   'P 1'
_cell_length_a   7.88867174
_cell_length_b   7.88134322
_cell_length_c   10.46616600
_cell_angle_alpha   80.80634459
_cell_angle_beta   80.82584080
_cell_angle_gamma   65.24408629
_symmetry_Int_Tables_number   1
_chemical_formula_structural   Ce7PrTiS17
_chemical_formula_sum   'Ce7 Pr1 Ti1 S17'
_cell_volume   580.20873660
_cell_formula_units_Z   1
loop_
 _symmetry_equiv_pos_site_id
 _symmetry_equiv_pos_as_xyz
  1  'x, y, z'
loop_
 _atom_site_type_symbol
 _atom_site_label
 _atom_site_symmetry_multiplicity
 _atom_site_fract_x
 _atom_site_fract_y
 _atom_site_fract_z
 _atom_site_occupancy
  Ce  Ce0  1  0.303186  0.814212  0.295442  1
  Ce  Ce1  1  0.187111  0.694349  0.702428  1
  Ce  Ce2  1  0.697107  0.186374  0.704815  1
  Ce  Ce3  1  0.206782  0.204196  0.543258  1
  Ce  Ce4  1  0.793830  0.793001  0.456991  1
  Ce  Ce5  1  0.682071  0.685288  0.977710  1
  Ce  Ce6  1  0.315490  0.317404  0.022204  1
  Pr  Pr7  1  0.811644  0.306858  0.298038  1
  Ti  Ti8  1  0.999100  0.002882  0.001147  1
  S  S9  1  0.824494  0.431899  0.541321  1
  S  S10  1  0.431724  0.818559  0.533875  1
  S  S11  1  0.178836  0.567005  0.465779  1
  S  S12  1  0.568820  0.172180  0.472242  1
  S  S13  1  0.939897  0.322551  0.020426  1
  S  S14  1  0.320126  0.942318  0.025059  1
  S  S15  1  0.059717  0.679482  0.970688  1
  S  S16  1  0.678925  0.063128  0.973933  1
  S  S17  1  0.218737  0.204403  0.277807  1
  S  S18  1  0.789434  0.791674  0.722918  1
  S  S19  1  0.063758  0.056492  0.773745  1
  S  S20  1  0.943551  0.930798  0.225040  1
  S  S21  1  0.302343  0.300180  0.758136  1
  S  S22  1  0.692304  0.710389  0.240071  1
  S  S23  1  0.518943  0.521355  0.831484  1
  S  S24  1  0.469802  0.487808  0.162586  1
  S  S25  1  0.002270  0.995214  0.502861  1
