# generated using pymatgen
data_Ho4LuPd15
_symmetry_space_group_name_H-M   'P 1'
_cell_length_a   4.10161000
_cell_length_b   4.10161000
_cell_length_c   20.50328400
_cell_angle_alpha   90.00000000
_cell_angle_beta   90.00000000
_cell_angle_gamma   90.00000000
_symmetry_Int_Tables_number   1
_chemical_formula_structural   Ho4LuPd15
_chemical_formula_sum   'Ho4 Lu1 Pd15'
_cell_volume   344.93094154
_cell_formula_units_Z   1
loop_
 _symmetry_equiv_pos_site_id
 _symmetry_equiv_pos_as_xyz
  1  'x, y, z'
loop_
 _atom_site_type_symbol
 _atom_site_label
 _atom_site_symmetry_multiplicity
 _atom_site_fract_x
 _atom_site_fract_y
 _atom_site_fract_z
 _atom_site_occupancy
  Ho  Ho0  1  0.000000  0.000000  0.197563  1
  Ho  Ho1  1  0.000000  0.000000  0.399320  1
  Ho  Ho2  1  0.000000  0.000000  0.600680  1
  Ho  Ho3  1  0.000000  0.000000  0.802437  1
  Lu  Lu4  1  0.000000  0.000000  0.000000  1
  Pd  Pd5  1  0.500000  0.500000  0.000000  1
  Pd  Pd6  1  0.500000  0.500000  0.197590  1
  Pd  Pd7  1  0.500000  0.500000  0.399048  1
  Pd  Pd8  1  0.500000  0.500000  0.600952  1
  Pd  Pd9  1  0.500000  0.500000  0.802410  1
  Pd  Pd10  1  0.500000  0.000000  0.097295  1
  Pd  Pd11  1  0.500000  0.000000  0.298179  1
  Pd  Pd12  1  0.500000  0.000000  0.500000  1
  Pd  Pd13  1  0.500000  0.000000  0.701821  1
  Pd  Pd14  1  0.500000  0.000000  0.902705  1
  Pd  Pd15  1  0.000000  0.500000  0.097295  1
  Pd  Pd16  1  0.000000  0.500000  0.298179  1
  Pd  Pd17  1  0.000000  0.500000  0.500000  1
  Pd  Pd18  1  0.000000  0.500000  0.701821  1
  Pd  Pd19  1  0.000000  0.500000  0.902705  1
