# generated using pymatgen
data_Tb3ZnSn3Ru2
_symmetry_space_group_name_H-M   'P 1'
_cell_length_a   7.61329700
_cell_length_b   7.61329572
_cell_length_c   3.94677200
_cell_angle_alpha   90.00000000
_cell_angle_beta   90.00000000
_cell_angle_gamma   119.99999251
_symmetry_Int_Tables_number   1
_chemical_formula_structural   Tb3ZnSn3Ru2
_chemical_formula_sum   'Tb3 Zn1 Sn3 Ru2'
_cell_volume   198.11537216
_cell_formula_units_Z   1
loop_
 _symmetry_equiv_pos_site_id
 _symmetry_equiv_pos_as_xyz
  1  'x, y, z'
loop_
 _atom_site_type_symbol
 _atom_site_label
 _atom_site_symmetry_multiplicity
 _atom_site_fract_x
 _atom_site_fract_y
 _atom_site_fract_z
 _atom_site_occupancy
  Tb  Tb0  1  0.412913  0.019883  0.500000  1
  Tb  Tb1  1  0.980117  0.393030  0.500000  1
  Tb  Tb2  1  0.606970  0.587087  0.500000  1
  Zn  Zn3  1  0.333333  0.666667  0.000000  1
  Sn  Sn4  1  0.743056  0.003423  0.000000  1
  Sn  Sn5  1  0.996577  0.739632  0.000000  1
  Sn  Sn6  1  0.260368  0.256944  0.000000  1
  Ru  Ru7  1  0.666667  0.333333  0.000000  1
  Ru  Ru8  1  0.000000  0.000000  0.500000  1
