# generated using pymatgen
data_Dy10Y10Co3Bi8Os
_symmetry_space_group_name_H-M   'P 1'
_cell_length_a   8.01541099
_cell_length_b   8.91044900
_cell_length_c   12.48897425
_cell_angle_alpha   90.00000000
_cell_angle_beta   90.27210362
_cell_angle_gamma   90.00000000
_symmetry_Int_Tables_number   1
_chemical_formula_structural   Dy10Y10Co3Bi8Os
_chemical_formula_sum   'Dy10 Y10 Co3 Bi8 Os1'
_cell_volume   891.96385714
_cell_formula_units_Z   1
loop_
 _symmetry_equiv_pos_site_id
 _symmetry_equiv_pos_as_xyz
  1  'x, y, z'
loop_
 _atom_site_type_symbol
 _atom_site_label
 _atom_site_symmetry_multiplicity
 _atom_site_fract_x
 _atom_site_fract_y
 _atom_site_fract_z
 _atom_site_occupancy
  Dy  Dy0  1  0.945357  0.750000  0.503587  1
  Dy  Dy1  1  0.547730  0.750000  0.002325  1
  Dy  Dy2  1  0.676264  0.040898  0.564967  1
  Dy  Dy3  1  0.324738  0.964755  0.436465  1
  Dy  Dy4  1  0.175262  0.965831  0.936912  1
  Dy  Dy5  1  0.324738  0.535245  0.436465  1
  Dy  Dy6  1  0.824309  0.035397  0.063112  1
  Dy  Dy7  1  0.676264  0.459102  0.564967  1
  Dy  Dy8  1  0.824309  0.464603  0.063112  1
  Dy  Dy9  1  0.175262  0.534169  0.936912  1
  Y  Y10  1  0.846109  0.750000  0.799705  1
  Y  Y11  1  0.153044  0.250000  0.198866  1
  Y  Y12  1  0.347016  0.250000  0.700047  1
  Y  Y13  1  0.655145  0.750000  0.294011  1
  Y  Y14  1  0.375811  0.750000  0.694569  1
  Y  Y15  1  0.620948  0.250000  0.309653  1
  Y  Y16  1  0.879013  0.250000  0.810776  1
  Y  Y17  1  0.120965  0.750000  0.187944  1
  Y  Y18  1  0.049427  0.250000  0.496827  1
  Y  Y19  1  0.453055  0.250000  0.997299  1
  Co  Co20  1  0.434347  0.250000  0.490808  1
  Co  Co21  1  0.059727  0.250000  0.992036  1
  Co  Co22  1  0.938005  0.750000  0.007553  1
  Bi  Bi23  1  0.570179  0.491912  0.827170  1
  Bi  Bi24  1  0.429513  0.507146  0.173192  1
  Bi  Bi25  1  0.069764  0.507289  0.674266  1
  Bi  Bi26  1  0.429513  0.992854  0.173192  1
  Bi  Bi27  1  0.931816  0.492313  0.325802  1
  Bi  Bi28  1  0.570179  0.008088  0.827170  1
  Bi  Bi29  1  0.931816  0.007687  0.325802  1
  Bi  Bi30  1  0.069764  0.992711  0.674266  1
  Os  Os31  1  0.570613  0.750000  0.510220  1
