# generated using pymatgen
data_SmY5Hf2(Co4P3)4
_symmetry_space_group_name_H-M   'P 1'
_cell_length_a   3.73264700
_cell_length_b   10.71312200
_cell_length_c   12.42756600
_cell_angle_alpha   90.00000000
_cell_angle_beta   90.00000000
_cell_angle_gamma   90.00000000
_symmetry_Int_Tables_number   1
_chemical_formula_structural   SmY5Hf2(Co4P3)4
_chemical_formula_sum   'Sm1 Y5 Hf2 Co16 P12'
_cell_volume   496.95727096
_cell_formula_units_Z   1
loop_
 _symmetry_equiv_pos_site_id
 _symmetry_equiv_pos_as_xyz
  1  'x, y, z'
loop_
 _atom_site_type_symbol
 _atom_site_label
 _atom_site_symmetry_multiplicity
 _atom_site_fract_x
 _atom_site_fract_y
 _atom_site_fract_z
 _atom_site_occupancy
  Sm  Sm0  1  0.000000  0.500000  0.529217  1
  Y  Y1  1  0.500000  0.000000  0.471648  1
  Y  Y2  1  0.500000  0.821772  0.204413  1
  Y  Y3  1  0.500000  0.178228  0.204413  1
  Y  Y4  1  0.000000  0.678646  0.795808  1
  Y  Y5  1  0.000000  0.321354  0.795808  1
  Hf  Hf6  1  0.500000  0.500000  0.156141  1
  Hf  Hf7  1  0.000000  0.000000  0.843037  1
  Co  Co8  1  0.500000  0.500000  0.704987  1
  Co  Co9  1  0.000000  0.000000  0.296186  1
  Co  Co10  1  0.000000  0.500000  0.987034  1
  Co  Co11  1  0.500000  0.000000  0.013026  1
  Co  Co12  1  0.500000  0.331788  0.993442  1
  Co  Co13  1  0.500000  0.668212  0.993442  1
  Co  Co14  1  0.000000  0.167849  0.006560  1
  Co  Co15  1  0.000000  0.832151  0.006560  1
  Co  Co16  1  0.500000  0.293865  0.432583  1
  Co  Co17  1  0.500000  0.706135  0.432583  1
  Co  Co18  1  0.000000  0.203453  0.567083  1
  Co  Co19  1  0.000000  0.796547  0.567083  1
  Co  Co20  1  0.500000  0.878594  0.703514  1
  Co  Co21  1  0.500000  0.121406  0.703514  1
  Co  Co22  1  0.000000  0.622173  0.296315  1
  Co  Co23  1  0.000000  0.377827  0.296315  1
  P  P24  1  0.500000  0.500000  0.884301  1
  P  P25  1  0.000000  0.000000  0.116059  1
  P  P26  1  0.500000  0.500000  0.359517  1
  P  P27  1  0.000000  0.000000  0.638853  1
  P  P28  1  0.500000  0.307704  0.616076  1
  P  P29  1  0.500000  0.692296  0.616076  1
  P  P30  1  0.000000  0.189952  0.384226  1
  P  P31  1  0.000000  0.810048  0.384226  1
  P  P32  1  0.500000  0.839081  0.893641  1
  P  P33  1  0.500000  0.160919  0.893641  1
  P  P34  1  0.000000  0.661314  0.106338  1
  P  P35  1  0.000000  0.338686  0.106338  1
