# generated using pymatgen
data_Y2Er14In6OsPd
_symmetry_space_group_name_H-M   'P 1'
_cell_length_a   10.36900400
_cell_length_b   10.36900411
_cell_length_c   7.01605900
_cell_angle_alpha   90.00000000
_cell_angle_beta   90.00000000
_cell_angle_gamma   119.99999966
_symmetry_Int_Tables_number   1
_chemical_formula_structural   Y2Er14In6OsPd
_chemical_formula_sum   'Y2 Er14 In6 Os1 Pd1'
_cell_volume   653.27788147
_cell_formula_units_Z   1
loop_
 _symmetry_equiv_pos_site_id
 _symmetry_equiv_pos_as_xyz
  1  'x, y, z'
loop_
 _atom_site_type_symbol
 _atom_site_label
 _atom_site_symmetry_multiplicity
 _atom_site_fract_x
 _atom_site_fract_y
 _atom_site_fract_z
 _atom_site_occupancy
  Y  Y0  1  0.000000  0.000000  0.493882  1
  Y  Y1  1  0.000000  0.000000  0.996873  1
  Er  Er2  1  0.465800  0.534200  0.481100  1
  Er  Er3  1  0.068400  0.534200  0.481100  1
  Er  Er4  1  0.465800  0.931600  0.481100  1
  Er  Er5  1  0.528739  0.471261  0.978403  1
  Er  Er6  1  0.942520  0.471261  0.978403  1
  Er  Er7  1  0.528739  0.057480  0.978403  1
  Er  Er8  1  0.824079  0.175921  0.274556  1
  Er  Er9  1  0.351842  0.175921  0.274556  1
  Er  Er10  1  0.824079  0.648158  0.274556  1
  Er  Er11  1  0.176925  0.823075  0.772765  1
  Er  Er12  1  0.646148  0.823075  0.772765  1
  Er  Er13  1  0.176925  0.353852  0.772765  1
  Er  Er14  1  0.333333  0.666667  0.103716  1
  Er  Er15  1  0.666667  0.333333  0.605426  1
  In  In16  1  0.162652  0.837348  0.233788  1
  In  In17  1  0.674699  0.837348  0.233788  1
  In  In18  1  0.162652  0.325301  0.233788  1
  In  In19  1  0.836082  0.163918  0.735790  1
  In  In20  1  0.327835  0.163918  0.735790  1
  In  In21  1  0.836082  0.672165  0.735790  1
  Os  Os22  1  0.333333  0.666667  0.707937  1
  Pd  Pd23  1  0.666667  0.333333  0.207512  1
