# generated using pymatgen
data_Tb3Dy(YPt)4
_symmetry_space_group_name_H-M   'P 1'
_cell_length_a   4.77283600
_cell_length_b   7.20254110
_cell_length_c   8.86008381
_cell_angle_alpha   89.93857665
_cell_angle_beta   90.00000000
_cell_angle_gamma   90.00000000
_symmetry_Int_Tables_number   1
_chemical_formula_structural   Tb3Dy(YPt)4
_chemical_formula_sum   'Tb3 Dy1 Y4 Pt4'
_cell_volume   304.57891670
_cell_formula_units_Z   1
loop_
 _symmetry_equiv_pos_site_id
 _symmetry_equiv_pos_as_xyz
  1  'x, y, z'
loop_
 _atom_site_type_symbol
 _atom_site_label
 _atom_site_symmetry_multiplicity
 _atom_site_fract_x
 _atom_site_fract_y
 _atom_site_fract_z
 _atom_site_occupancy
  Tb  Tb0  1  0.250000  0.855038  0.919367  1
  Tb  Tb1  1  0.250000  0.354730  0.580156  1
  Tb  Tb2  1  0.750000  0.145460  0.080858  1
  Dy  Dy3  1  0.750000  0.645311  0.419414  1
  Y  Y4  1  0.250000  0.990593  0.332613  1
  Y  Y5  1  0.250000  0.491515  0.167854  1
  Y  Y6  1  0.750000  0.008447  0.667918  1
  Y  Y7  1  0.750000  0.509327  0.831877  1
  Pt  Pt8  1  0.250000  0.258215  0.906371  1
  Pt  Pt9  1  0.250000  0.757319  0.593443  1
  Pt  Pt10  1  0.750000  0.742014  0.093819  1
  Pt  Pt11  1  0.750000  0.242033  0.406307  1
