# generated using pymatgen
data_Tb3Nd3Ho10(CdIr)4
_symmetry_space_group_name_H-M   'P 1'
_cell_length_a   9.68168027
_cell_length_b   9.68090069
_cell_length_c   9.67782331
_cell_angle_alpha   60.01584573
_cell_angle_beta   59.95901257
_cell_angle_gamma   59.97631063
_symmetry_Int_Tables_number   1
_chemical_formula_structural   Tb3Nd3Ho10(CdIr)4
_chemical_formula_sum   'Tb3 Nd3 Ho10 Cd4 Ir4'
_cell_volume   641.16329121
_cell_formula_units_Z   1
loop_
 _symmetry_equiv_pos_site_id
 _symmetry_equiv_pos_as_xyz
  1  'x, y, z'
loop_
 _atom_site_type_symbol
 _atom_site_label
 _atom_site_symmetry_multiplicity
 _atom_site_fract_x
 _atom_site_fract_y
 _atom_site_fract_z
 _atom_site_occupancy
  Tb  Tb0  1  0.940382  0.559856  0.557891  1
  Tb  Tb1  1  0.557891  0.941870  0.940382  1
  Tb  Tb2  1  0.559954  0.940046  0.559954  1
  Nd  Nd3  1  0.939533  0.560467  0.939533  1
  Nd  Nd4  1  0.560623  0.562555  0.938000  1
  Nd  Nd5  1  0.938000  0.938821  0.560623  1
  Ho  Ho6  1  0.348239  0.347063  0.348731  1
  Ho  Ho7  1  0.349447  0.347304  0.955795  1
  Ho  Ho8  1  0.348731  0.955967  0.348239  1
  Ho  Ho9  1  0.955795  0.347453  0.349447  1
  Ho  Ho10  1  0.811517  0.187329  0.187785  1
  Ho  Ho11  1  0.187785  0.813369  0.811517  1
  Ho  Ho12  1  0.188129  0.811871  0.188129  1
  Ho  Ho13  1  0.812016  0.187984  0.812016  1
  Ho  Ho14  1  0.188613  0.188134  0.810805  1
  Ho  Ho15  1  0.810805  0.812448  0.188613  1
  Cd  Cd16  1  0.580966  0.580858  0.578693  1
  Cd  Cd17  1  0.579110  0.581173  0.260454  1
  Cd  Cd18  1  0.578693  0.259482  0.580966  1
  Cd  Cd19  1  0.260454  0.579263  0.579110  1
  Ir  Ir20  1  0.143862  0.140025  0.140529  1
  Ir  Ir21  1  0.143243  0.141891  0.575681  1
  Ir  Ir22  1  0.140529  0.575583  0.143862  1
  Ir  Ir23  1  0.575681  0.139184  0.143243  1
