# generated using pymatgen
data_Lu20Cd6FeNi
_symmetry_space_group_name_H-M   'P 1'
_cell_length_a   9.37960900
_cell_length_b   9.37961040
_cell_length_c   9.58785100
_cell_angle_alpha   90.00000000
_cell_angle_beta   90.00000000
_cell_angle_gamma   119.99999859
_symmetry_Int_Tables_number   1
_chemical_formula_structural   Lu20Cd6FeNi
_chemical_formula_sum   'Lu20 Cd6 Fe1 Ni1'
_cell_volume   730.50206567
_cell_formula_units_Z   1
loop_
 _symmetry_equiv_pos_site_id
 _symmetry_equiv_pos_as_xyz
  1  'x, y, z'
loop_
 _atom_site_type_symbol
 _atom_site_label
 _atom_site_symmetry_multiplicity
 _atom_site_fract_x
 _atom_site_fract_y
 _atom_site_fract_z
 _atom_site_occupancy
  Lu  Lu0  1  0.000000  0.000000  0.500065  1
  Lu  Lu1  1  0.000000  0.000000  0.999935  1
  Lu  Lu2  1  0.540396  0.459604  0.250000  1
  Lu  Lu3  1  0.540396  0.080792  0.250000  1
  Lu  Lu4  1  0.919208  0.459604  0.250000  1
  Lu  Lu5  1  0.457175  0.542825  0.750000  1
  Lu  Lu6  1  0.457175  0.914351  0.750000  1
  Lu  Lu7  1  0.085649  0.542825  0.750000  1
  Lu  Lu8  1  0.211974  0.788026  0.437174  1
  Lu  Lu9  1  0.211974  0.423950  0.437174  1
  Lu  Lu10  1  0.576050  0.788026  0.437174  1
  Lu  Lu11  1  0.788996  0.211004  0.560895  1
  Lu  Lu12  1  0.788996  0.577991  0.560895  1
  Lu  Lu13  1  0.422009  0.211004  0.560895  1
  Lu  Lu14  1  0.788996  0.211004  0.939105  1
  Lu  Lu15  1  0.788996  0.577991  0.939105  1
  Lu  Lu16  1  0.422009  0.211004  0.939105  1
  Lu  Lu17  1  0.211974  0.788026  0.062826  1
  Lu  Lu18  1  0.211974  0.423950  0.062826  1
  Lu  Lu19  1  0.576050  0.788026  0.062826  1
  Cd  Cd20  1  0.885986  0.114014  0.250000  1
  Cd  Cd21  1  0.885986  0.771972  0.250000  1
  Cd  Cd22  1  0.228028  0.114014  0.250000  1
  Cd  Cd23  1  0.114128  0.885872  0.750000  1
  Cd  Cd24  1  0.114128  0.228257  0.750000  1
  Cd  Cd25  1  0.771743  0.885872  0.750000  1
  Fe  Fe26  1  0.333333  0.666667  0.250000  1
  Ni  Ni27  1  0.666667  0.333333  0.750000  1
