# generated using pymatgen
data_Tm6ReB14Ru
_symmetry_space_group_name_H-M   'P 1'
_cell_length_a   7.95892341
_cell_length_b   7.95892387
_cell_length_c   9.24787400
_cell_angle_alpha   90.00000000
_cell_angle_beta   90.00000000
_cell_angle_gamma   154.62865079
_symmetry_Int_Tables_number   1
_chemical_formula_structural   Tm6ReB14Ru
_chemical_formula_sum   'Tm6 Re1 B14 Ru1'
_cell_volume   251.00625704
_cell_formula_units_Z   1
loop_
 _symmetry_equiv_pos_site_id
 _symmetry_equiv_pos_as_xyz
  1  'x, y, z'
loop_
 _atom_site_type_symbol
 _atom_site_label
 _atom_site_symmetry_multiplicity
 _atom_site_fract_x
 _atom_site_fract_y
 _atom_site_fract_z
 _atom_site_occupancy
  Tm  Tm0  1  0.894190  0.105810  0.059542  1
  Tm  Tm1  1  0.105896  0.894104  0.560396  1
  Tm  Tm2  1  0.105896  0.894104  0.939604  1
  Tm  Tm3  1  0.894190  0.105810  0.440458  1
  Tm  Tm4  1  0.243742  0.756258  0.250000  1
  Tm  Tm5  1  0.756408  0.243592  0.750000  1
  Re  Re6  1  0.947655  0.052345  0.750000  1
  B  B7  1  0.454531  0.545469  0.250000  1
  B  B8  1  0.546326  0.453674  0.750000  1
  B  B9  1  0.727220  0.272780  0.034472  1
  B  B10  1  0.272273  0.727727  0.533567  1
  B  B11  1  0.272273  0.727727  0.966433  1
  B  B12  1  0.727220  0.272780  0.465528  1
  B  B13  1  0.631853  0.368147  0.349056  1
  B  B14  1  0.367424  0.632576  0.849575  1
  B  B15  1  0.367424  0.632576  0.650425  1
  B  B16  1  0.631853  0.368147  0.150944  1
  B  B17  1  0.519846  0.480154  0.404332  1
  B  B18  1  0.480287  0.519713  0.905566  1
  B  B19  1  0.480287  0.519713  0.594434  1
  B  B20  1  0.519846  0.480154  0.095668  1
  Ru  Ru21  1  0.053362  0.946638  0.250000  1
