# generated using pymatgen
data_Nd2ZnRh2
_symmetry_space_group_name_H-M   'P 1'
_cell_length_a   5.62132367
_cell_length_b   5.62132481
_cell_length_c   5.62132377
_cell_angle_alpha   135.35689163
_cell_angle_beta   115.87316405
_cell_angle_gamma   81.49603443
_symmetry_Int_Tables_number   1
_chemical_formula_structural   Nd2ZnRh2
_chemical_formula_sum   'Nd2 Zn1 Rh2'
_cell_volume   108.52917417
_cell_formula_units_Z   1
loop_
 _symmetry_equiv_pos_site_id
 _symmetry_equiv_pos_as_xyz
  1  'x, y, z'
loop_
 _atom_site_type_symbol
 _atom_site_label
 _atom_site_symmetry_multiplicity
 _atom_site_fract_x
 _atom_site_fract_y
 _atom_site_fract_z
 _atom_site_occupancy
  Nd  Nd0  1  0.702445  0.202445  0.500001  1
  Nd  Nd1  1  0.297555  0.797556  0.500000  1
  Zn  Zn2  1  0.000000  0.000000  0.000000  1
  Rh  Rh3  1  0.739091  0.500000  0.239091  1
  Rh  Rh4  1  0.260910  0.500000  0.760910  1
