# generated using pymatgen
data_La6Al2SiSe14
_symmetry_space_group_name_H-M   'P 1'
_cell_length_a   10.64815900
_cell_length_b   10.64815958
_cell_length_c   6.32644400
_cell_angle_alpha   90.00000000
_cell_angle_beta   90.00000000
_cell_angle_gamma   120.00000752
_symmetry_Int_Tables_number   1
_chemical_formula_structural   La6Al2SiSe14
_chemical_formula_sum   'La6 Al2 Si1 Se14'
_cell_volume   621.21129772
_cell_formula_units_Z   1
loop_
 _symmetry_equiv_pos_site_id
 _symmetry_equiv_pos_as_xyz
  1  'x, y, z'
loop_
 _atom_site_type_symbol
 _atom_site_label
 _atom_site_symmetry_multiplicity
 _atom_site_fract_x
 _atom_site_fract_y
 _atom_site_fract_z
 _atom_site_occupancy
  La  La0  1  0.807863  0.698972  0.519432  1
  La  La1  1  0.891110  0.192137  0.519432  1
  La  La2  1  0.301028  0.108890  0.519432  1
  La  La3  1  0.517062  0.965253  0.036357  1
  La  La4  1  0.448191  0.482938  0.036357  1
  La  La5  1  0.034747  0.551809  0.036357  1
  Al  Al6  1  0.666667  0.333333  0.331052  1
  Al  Al7  1  0.333333  0.666667  0.443174  1
  Si  Si8  1  0.000000  0.000000  0.939186  1
  Se  Se9  1  0.000000  0.000000  0.300500  1
  Se  Se10  1  0.333333  0.666667  0.818741  1
  Se  Se11  1  0.086665  0.857747  0.801403  1
  Se  Se12  1  0.771081  0.913335  0.801403  1
  Se  Se13  1  0.142253  0.228919  0.801403  1
  Se  Se14  1  0.236385  0.810940  0.300246  1
  Se  Se15  1  0.574554  0.763615  0.300246  1
  Se  Se16  1  0.189060  0.425446  0.300246  1
  Se  Se17  1  0.907628  0.480277  0.554418  1
  Se  Se18  1  0.572650  0.092372  0.554418  1
  Se  Se19  1  0.519723  0.427350  0.554418  1
  Se  Se20  1  0.434500  0.197235  0.091263  1
  Se  Se21  1  0.762735  0.565500  0.091263  1
  Se  Se22  1  0.802765  0.237265  0.091263  1
