# generated using pymatgen
data_Ho6Er2Re3B24Rh
_symmetry_space_group_name_H-M   'P 1'
_cell_length_a   3.66528500
_cell_length_b   9.13752816
_cell_length_c   11.51441601
_cell_angle_alpha   90.16131881
_cell_angle_beta   90.00000000
_cell_angle_gamma   90.00000000
_symmetry_Int_Tables_number   1
_chemical_formula_structural   Ho6Er2Re3B24Rh
_chemical_formula_sum   'Ho6 Er2 Re3 B24 Rh1'
_cell_volume   385.63520347
_cell_formula_units_Z   1
loop_
 _symmetry_equiv_pos_site_id
 _symmetry_equiv_pos_as_xyz
  1  'x, y, z'
loop_
 _atom_site_type_symbol
 _atom_site_label
 _atom_site_symmetry_multiplicity
 _atom_site_fract_x
 _atom_site_fract_y
 _atom_site_fract_z
 _atom_site_occupancy
  Ho  Ho0  1  0.000000  0.318410  0.415395  1
  Ho  Ho1  1  0.000000  0.678302  0.591052  1
  Ho  Ho2  1  0.000000  0.826788  0.081426  1
  Ho  Ho3  1  0.000000  0.177356  0.912783  1
  Ho  Ho4  1  0.000000  0.943363  0.370088  1
  Ho  Ho5  1  0.000000  0.055739  0.628904  1
  Er  Er6  1  0.000000  0.441555  0.128889  1
  Er  Er7  1  0.000000  0.556545  0.871582  1
  Re  Re8  1  0.000000  0.362620  0.677737  1
  Re  Re9  1  0.000000  0.138690  0.179887  1
  Re  Re10  1  0.000000  0.861369  0.821057  1
  B  B11  1  0.500000  0.554092  0.433727  1
  B  B12  1  0.500000  0.446663  0.566489  1
  B  B13  1  0.500000  0.053459  0.066512  1
  B  B14  1  0.500000  0.946994  0.932878  1
  B  B15  1  0.500000  0.749103  0.420389  1
  B  B16  1  0.500000  0.250464  0.580819  1
  B  B17  1  0.500000  0.249674  0.081153  1
  B  B18  1  0.500000  0.751208  0.919022  1
  B  B19  1  0.500000  0.791092  0.264918  1
  B  B20  1  0.500000  0.208315  0.734250  1
  B  B21  1  0.500000  0.292256  0.235265  1
  B  B22  1  0.500000  0.707791  0.765777  1
  B  B23  1  0.500000  0.631814  0.183928  1
  B  B24  1  0.500000  0.369529  0.814337  1
  B  B25  1  0.500000  0.131034  0.314981  1
  B  B26  1  0.500000  0.868306  0.685438  1
  B  B27  1  0.500000  0.982851  0.211888  1
  B  B28  1  0.500000  0.017384  0.787181  1
  B  B29  1  0.500000  0.483137  0.287915  1
  B  B30  1  0.500000  0.518301  0.712446  1
  B  B31  1  0.500000  0.603427  0.029278  1
  B  B32  1  0.500000  0.397802  0.972176  1
  B  B33  1  0.500000  0.101909  0.471029  1
  B  B34  1  0.500000  0.894953  0.528262  1
  Rh  Rh35  1  0.000000  0.637707  0.321138  1
