# generated using pymatgen
data_Th4CoCuSi6
_symmetry_space_group_name_H-M   'P 1'
_cell_length_a   8.09397600
_cell_length_b   8.09397614
_cell_length_c   4.24806600
_cell_angle_alpha   90.00000000
_cell_angle_beta   90.00000000
_cell_angle_gamma   119.99999941
_symmetry_Int_Tables_number   1
_chemical_formula_structural   Th4CoCuSi6
_chemical_formula_sum   'Th4 Co1 Cu1 Si6'
_cell_volume   241.01591548
_cell_formula_units_Z   1
loop_
 _symmetry_equiv_pos_site_id
 _symmetry_equiv_pos_as_xyz
  1  'x, y, z'
loop_
 _atom_site_type_symbol
 _atom_site_label
 _atom_site_symmetry_multiplicity
 _atom_site_fract_x
 _atom_site_fract_y
 _atom_site_fract_z
 _atom_site_occupancy
  Th  Th0  1  0.505400  0.494600  0.000000  1
  Th  Th1  1  0.989200  0.494600  0.000000  1
  Th  Th2  1  0.505400  0.010800  0.000000  1
  Th  Th3  1  0.000000  0.000000  0.000000  1
  Co  Co4  1  0.666667  0.333333  0.500000  1
  Cu  Cu5  1  0.333333  0.666667  0.500000  1
  Si  Si6  1  0.828176  0.656352  0.500000  1
  Si  Si7  1  0.168462  0.831538  0.500000  1
  Si  Si8  1  0.663076  0.831538  0.500000  1
  Si  Si9  1  0.168462  0.336924  0.500000  1
  Si  Si10  1  0.828176  0.171824  0.500000  1
  Si  Si11  1  0.343648  0.171824  0.500000  1
