# generated using pymatgen
data_Gd4Dy8InCo4Rh
_symmetry_space_group_name_H-M   'P 1'
_cell_length_a   8.33966979
_cell_length_b   8.33966950
_cell_length_c   8.33967087
_cell_angle_alpha   110.92791876
_cell_angle_beta   110.46141029
_cell_angle_gamma   107.05145684
_symmetry_Int_Tables_number   1
_chemical_formula_structural   Gd4Dy8InCo4Rh
_chemical_formula_sum   'Gd4 Dy8 In1 Co4 Rh1'
_cell_volume   445.90146334
_cell_formula_units_Z   1
loop_
 _symmetry_equiv_pos_site_id
 _symmetry_equiv_pos_as_xyz
  1  'x, y, z'
loop_
 _atom_site_type_symbol
 _atom_site_label
 _atom_site_symmetry_multiplicity
 _atom_site_fract_x
 _atom_site_fract_y
 _atom_site_fract_z
 _atom_site_occupancy
  Gd  Gd0  1  0.406731  0.211543  0.195189  1
  Gd  Gd1  1  0.593269  0.788457  0.804811  1
  Gd  Gd2  1  0.016355  0.211543  0.804811  1
  Gd  Gd3  1  0.983645  0.788457  0.195189  1
  Dy  Dy4  1  0.185955  0.293278  0.479233  1
  Dy  Dy5  1  0.814045  0.706722  0.520767  1
  Dy  Dy6  1  0.185955  0.706722  0.892676  1
  Dy  Dy7  1  0.814045  0.293278  0.107324  1
  Dy  Dy8  1  0.314424  0.619964  0.305540  1
  Dy  Dy9  1  0.685576  0.380036  0.694460  1
  Dy  Dy10  1  0.314424  0.008884  0.694460  1
  Dy  Dy11  1  0.685576  0.991116  0.305540  1
  In  In12  1  0.500000  0.500000  0.000000  1
  Co  Co13  1  0.380271  0.000000  0.380271  1
  Co  Co14  1  0.619729  0.000000  0.619729  1
  Co  Co15  1  0.111902  0.611902  0.500000  1
  Co  Co16  1  0.888098  0.388098  0.500000  1
  Rh  Rh17  1  0.000000  0.000000  0.000000  1
