# generated using pymatgen
data_Ti8MnRe3Os4
_symmetry_space_group_name_H-M   'P 1'
_cell_length_a   6.20074000
_cell_length_b   6.20086200
_cell_length_c   6.16884500
_cell_angle_alpha   89.99985178
_cell_angle_beta   89.99870303
_cell_angle_gamma   90.00040656
_symmetry_Int_Tables_number   1
_chemical_formula_structural   Ti8MnRe3Os4
_chemical_formula_sum   'Ti8 Mn1 Re3 Os4'
_cell_volume   237.19167714
_cell_formula_units_Z   1
loop_
 _symmetry_equiv_pos_site_id
 _symmetry_equiv_pos_as_xyz
  1  'x, y, z'
loop_
 _atom_site_type_symbol
 _atom_site_label
 _atom_site_symmetry_multiplicity
 _atom_site_fract_x
 _atom_site_fract_y
 _atom_site_fract_z
 _atom_site_occupancy
  Ti  Ti0  1  0.999018  0.000977  0.248951  1
  Ti  Ti1  1  0.999017  0.499027  0.248950  1
  Ti  Ti2  1  0.500951  0.000975  0.248962  1
  Ti  Ti3  1  0.500951  0.499021  0.248962  1
  Ti  Ti4  1  0.501007  0.000984  0.751037  1
  Ti  Ti5  1  0.501008  0.499018  0.751037  1
  Ti  Ti6  1  0.999023  0.000978  0.751053  1
  Ti  Ti7  1  0.999023  0.499017  0.751053  1
  Mn  Mn8  1  0.749994  0.250001  0.999993  1
  Re  Re9  1  0.250012  0.750000  0.000006  1
  Re  Re10  1  0.749999  0.250000  0.499970  1
  Re  Re11  1  0.250000  0.750001  0.500017  1
  Os  Os12  1  0.250009  0.250001  0.000003  1
  Os  Os13  1  0.749997  0.750000  0.000003  1
  Os  Os14  1  0.749996  0.750000  0.499988  1
  Os  Os15  1  0.249998  0.250000  0.500013  1
