# generated using pymatgen
data_Ho4Er5LuSn8
_symmetry_space_group_name_H-M   'P 1'
_cell_length_a   7.99629400
_cell_length_b   8.13851700
_cell_length_c   15.39006600
_cell_angle_alpha   90.00000000
_cell_angle_beta   90.00000000
_cell_angle_gamma   90.00000000
_symmetry_Int_Tables_number   1
_chemical_formula_structural   Ho4Er5LuSn8
_chemical_formula_sum   'Ho8 Er10 Lu2 Sn16'
_cell_volume   1001.55432510
_cell_formula_units_Z   2
loop_
 _symmetry_equiv_pos_site_id
 _symmetry_equiv_pos_as_xyz
  1  'x, y, z'
loop_
 _atom_site_type_symbol
 _atom_site_label
 _atom_site_symmetry_multiplicity
 _atom_site_fract_x
 _atom_site_fract_y
 _atom_site_fract_z
 _atom_site_occupancy
  Ho  Ho0  1  0.520237  0.320891  0.903226  1
  Ho  Ho1  1  0.020237  0.179109  0.596774  1
  Ho  Ho2  1  0.479671  0.679027  0.402825  1
  Ho  Ho3  1  0.979671  0.820973  0.097175  1
  Ho  Ho4  1  0.479671  0.679027  0.097175  1
  Ho  Ho5  1  0.979671  0.820973  0.402825  1
  Ho  Ho6  1  0.520237  0.320891  0.596774  1
  Ho  Ho7  1  0.020237  0.179109  0.903226  1
  Er  Er8  1  0.366523  0.836945  0.877917  1
  Er  Er9  1  0.866523  0.663055  0.622083  1
  Er  Er10  1  0.633378  0.162787  0.376846  1
  Er  Er11  1  0.133378  0.337213  0.123154  1
  Er  Er12  1  0.633378  0.162787  0.123154  1
  Er  Er13  1  0.133378  0.337213  0.376846  1
  Er  Er14  1  0.366523  0.836945  0.622083  1
  Er  Er15  1  0.866523  0.663055  0.877917  1
  Er  Er16  1  0.198013  0.503189  0.750000  1
  Er  Er17  1  0.698013  0.996811  0.750000  1
  Lu  Lu18  1  0.802272  0.496347  0.250000  1
  Lu  Lu19  1  0.302272  0.003653  0.250000  1
  Sn  Sn20  1  0.292751  0.036823  0.042058  1
  Sn  Sn21  1  0.792751  0.463177  0.457942  1
  Sn  Sn22  1  0.707085  0.963164  0.541249  1
  Sn  Sn23  1  0.207085  0.536836  0.958751  1
  Sn  Sn24  1  0.707085  0.963164  0.958751  1
  Sn  Sn25  1  0.207085  0.536836  0.541249  1
  Sn  Sn26  1  0.292751  0.036823  0.457942  1
  Sn  Sn27  1  0.792751  0.463177  0.042058  1
  Sn  Sn28  1  0.563759  0.619362  0.750000  1
  Sn  Sn29  1  0.063759  0.880638  0.750000  1
  Sn  Sn30  1  0.436928  0.380522  0.250000  1
  Sn  Sn31  1  0.936928  0.119478  0.250000  1
  Sn  Sn32  1  0.329924  0.148311  0.750000  1
  Sn  Sn33  1  0.829924  0.351689  0.750000  1
  Sn  Sn34  1  0.669814  0.850624  0.250000  1
  Sn  Sn35  1  0.169814  0.649376  0.250000  1
