# generated using pymatgen
data_Lu20Si12C
_symmetry_space_group_name_H-M   'P 1'
_cell_length_a   6.16658062
_cell_length_b   8.23439274
_cell_length_c   14.33266800
_cell_angle_alpha   90.00000696
_cell_angle_beta   90.00000000
_cell_angle_gamma   89.91369517
_symmetry_Int_Tables_number   1
_chemical_formula_structural   Lu20Si12C
_chemical_formula_sum   'Lu20 Si12 C1'
_cell_volume   727.78405954
_cell_formula_units_Z   1
loop_
 _symmetry_equiv_pos_site_id
 _symmetry_equiv_pos_as_xyz
  1  'x, y, z'
loop_
 _atom_site_type_symbol
 _atom_site_label
 _atom_site_symmetry_multiplicity
 _atom_site_fract_x
 _atom_site_fract_y
 _atom_site_fract_z
 _atom_site_occupancy
  Lu  Lu0  1  0.500005  0.999998  0.334865  1
  Lu  Lu1  1  0.500000  0.500008  0.830560  1
  Lu  Lu2  1  0.500000  0.500008  0.169440  1
  Lu  Lu3  1  0.500005  0.999998  0.665135  1
  Lu  Lu4  1  0.000001  0.499993  0.163049  1
  Lu  Lu5  1  0.000004  0.999996  0.669279  1
  Lu  Lu6  1  0.000004  0.999996  0.330721  1
  Lu  Lu7  1  0.000001  0.499993  0.836951  1
  Lu  Lu8  1  0.726208  0.234669  0.000000  1
  Lu  Lu9  1  0.750680  0.743649  0.500000  1
  Lu  Lu10  1  0.751772  0.378819  0.379309  1
  Lu  Lu11  1  0.728944  0.880872  0.882356  1
  Lu  Lu12  1  0.728944  0.880872  0.117644  1
  Lu  Lu13  1  0.751772  0.378819  0.620691  1
  Lu  Lu14  1  0.273802  0.765339  0.000000  1
  Lu  Lu15  1  0.249254  0.256336  0.500000  1
  Lu  Lu16  1  0.271071  0.119135  0.117645  1
  Lu  Lu17  1  0.248228  0.621184  0.620698  1
  Lu  Lu18  1  0.248228  0.621184  0.379302  1
  Lu  Lu19  1  0.271071  0.119135  0.882355  1
  Si  Si20  1  0.740164  0.600734  0.000000  1
  Si  Si21  1  0.752883  0.104971  0.500000  1
  Si  Si22  1  0.746071  0.198917  0.199486  1
  Si  Si23  1  0.752370  0.697000  0.697349  1
  Si  Si24  1  0.752370  0.697000  0.302651  1
  Si  Si25  1  0.746071  0.198917  0.800514  1
  Si  Si26  1  0.259842  0.399269  0.000000  1
  Si  Si27  1  0.247122  0.895029  0.500000  1
  Si  Si28  1  0.247637  0.303001  0.302651  1
  Si  Si29  1  0.253924  0.801085  0.800517  1
  Si  Si30  1  0.253924  0.801085  0.199483  1
  Si  Si31  1  0.247637  0.303001  0.697349  1
  C  C32  1  0.499995  0.999992  0.000000  1
