# generated using pymatgen
data_CaScNiAs2
_symmetry_space_group_name_H-M   'P 1'
_cell_length_a   4.11249100
_cell_length_b   4.11249066
_cell_length_c   13.63961200
_cell_angle_alpha   90.00000000
_cell_angle_beta   90.00000000
_cell_angle_gamma   120.00001076
_symmetry_Int_Tables_number   1
_chemical_formula_structural   CaScNiAs2
_chemical_formula_sum   'Ca2 Sc2 Ni2 As4'
_cell_volume   199.77561959
_cell_formula_units_Z   2
loop_
 _symmetry_equiv_pos_site_id
 _symmetry_equiv_pos_as_xyz
  1  'x, y, z'
loop_
 _atom_site_type_symbol
 _atom_site_label
 _atom_site_symmetry_multiplicity
 _atom_site_fract_x
 _atom_site_fract_y
 _atom_site_fract_z
 _atom_site_occupancy
  Ca  Ca0  1  0.666667  0.333333  0.345212  1
  Ca  Ca1  1  0.333333  0.666667  0.845212  1
  Sc  Sc2  1  0.666667  0.333333  0.617305  1
  Sc  Sc3  1  0.333333  0.666667  0.117305  1
  Ni  Ni4  1  0.000000  0.000000  0.025152  1
  Ni  Ni5  1  0.000000  0.000000  0.525152  1
  As  As6  1  0.666667  0.333333  0.985626  1
  As  As7  1  0.333333  0.666667  0.485626  1
  As  As8  1  0.000000  0.000000  0.711035  1
  As  As9  1  0.000000  0.000000  0.211035  1
