# generated using pymatgen
data_Y7Th3(In2Rh)4
_symmetry_space_group_name_H-M   'P 1'
_cell_length_a   8.04889900
_cell_length_b   18.24930890
_cell_length_c   3.71201300
_cell_angle_alpha   90.00000000
_cell_angle_beta   90.00000000
_cell_angle_gamma   90.21866520
_symmetry_Int_Tables_number   1
_chemical_formula_structural   Y7Th3(In2Rh)4
_chemical_formula_sum   'Y7 Th3 In8 Rh4'
_cell_volume   545.24190430
_cell_formula_units_Z   1
loop_
 _symmetry_equiv_pos_site_id
 _symmetry_equiv_pos_as_xyz
  1  'x, y, z'
loop_
 _atom_site_type_symbol
 _atom_site_label
 _atom_site_symmetry_multiplicity
 _atom_site_fract_x
 _atom_site_fract_y
 _atom_site_fract_z
 _atom_site_occupancy
  Y  Y0  1  0.498301  0.497006  0.000000  1
  Y  Y1  1  0.000331  0.000009  0.000000  1
  Y  Y2  1  0.247482  0.219940  0.000000  1
  Y  Y3  1  0.617839  0.086005  0.000000  1
  Y  Y4  1  0.383424  0.916881  0.000000  1
  Y  Y5  1  0.882549  0.584412  0.000000  1
  Y  Y6  1  0.113448  0.413505  0.000000  1
  Th  Th7  1  0.749682  0.277194  0.000000  1
  Th  Th8  1  0.252299  0.721484  0.000000  1
  Th  Th9  1  0.751912  0.778547  0.000000  1
  In  In10  1  0.704173  0.936692  0.500000  1
  In  In11  1  0.296290  0.068071  0.500000  1
  In  In12  1  0.794029  0.436137  0.500000  1
  In  In13  1  0.203068  0.563040  0.500000  1
  In  In14  1  0.572636  0.643395  0.500000  1
  In  In15  1  0.418738  0.350479  0.500000  1
  In  In16  1  0.937101  0.145486  0.500000  1
  In  In17  1  0.074426  0.855439  0.500000  1
  Rh  Rh18  1  0.538295  0.201282  0.500000  1
  Rh  Rh19  1  0.479038  0.800691  0.500000  1
  Rh  Rh20  1  0.977798  0.700294  0.500000  1
  Rh  Rh21  1  0.007140  0.304010  0.500000  1
