# generated using pymatgen
data_Nb12Al2Ga3Pt3N4
_symmetry_space_group_name_H-M   'P 1'
_cell_length_a   7.06921260
_cell_length_b   7.06537384
_cell_length_c   7.06968036
_cell_angle_alpha   90.28370438
_cell_angle_beta   90.13937205
_cell_angle_gamma   90.34051881
_symmetry_Int_Tables_number   1
_chemical_formula_structural   Nb12Al2Ga3Pt3N4
_chemical_formula_sum   'Nb12 Al2 Ga3 Pt3 N4'
_cell_volume   353.09507305
_cell_formula_units_Z   1
loop_
 _symmetry_equiv_pos_site_id
 _symmetry_equiv_pos_as_xyz
  1  'x, y, z'
loop_
 _atom_site_type_symbol
 _atom_site_label
 _atom_site_symmetry_multiplicity
 _atom_site_fract_x
 _atom_site_fract_y
 _atom_site_fract_z
 _atom_site_occupancy
  Nb  Nb0  1  0.788074  0.956854  0.379163  1
  Nb  Nb1  1  0.709044  0.043623  0.873845  1
  Nb  Nb2  1  0.211360  0.455033  0.123793  1
  Nb  Nb3  1  0.290174  0.544313  0.622455  1
  Nb  Nb4  1  0.956589  0.380148  0.788384  1
  Nb  Nb5  1  0.043375  0.873266  0.710253  1
  Nb  Nb6  1  0.455521  0.123904  0.210375  1
  Nb  Nb7  1  0.544323  0.623321  0.290385  1
  Nb  Nb8  1  0.379582  0.788650  0.956529  1
  Nb  Nb9  1  0.873804  0.710415  0.043519  1
  Nb  Nb10  1  0.123263  0.210323  0.455189  1
  Nb  Nb11  1  0.623222  0.290240  0.544701  1
  Al  Al12  1  0.933296  0.570622  0.421536  1
  Al  Al13  1  0.072373  0.072484  0.072658  1
  Ga  Ga14  1  0.678791  0.677508  0.676726  1
  Ga  Ga15  1  0.570242  0.423789  0.933430  1
  Ga  Ga16  1  0.423824  0.933067  0.569622  1
  Pt  Pt17  1  0.175507  0.822011  0.316139  1
  Pt  Pt18  1  0.315153  0.177597  0.824253  1
  Pt  Pt19  1  0.825408  0.317363  0.179996  1
  N  N20  1  0.878515  0.126365  0.625908  1
  N  N21  1  0.625246  0.878826  0.126684  1
  N  N22  1  0.127366  0.625313  0.879026  1
  N  N23  1  0.375946  0.374960  0.375428  1
