# generated using pymatgen
data_Th4Al23CuPt9
_symmetry_space_group_name_H-M   'P 1'
_cell_length_a   7.63451721
_cell_length_b   7.64006631
_cell_length_c   13.19574053
_cell_angle_alpha   84.41193534
_cell_angle_beta   78.79682792
_cell_angle_gamma   59.87724463
_symmetry_Int_Tables_number   1
_chemical_formula_structural   Th4Al23CuPt9
_chemical_formula_sum   'Th4 Al23 Cu1 Pt9'
_cell_volume   653.05379225
_cell_formula_units_Z   1
loop_
 _symmetry_equiv_pos_site_id
 _symmetry_equiv_pos_as_xyz
  1  'x, y, z'
loop_
 _atom_site_type_symbol
 _atom_site_label
 _atom_site_symmetry_multiplicity
 _atom_site_fract_x
 _atom_site_fract_y
 _atom_site_fract_z
 _atom_site_occupancy
  Th  Th0  1  0.396741  0.164574  0.808476  1
  Th  Th1  1  0.607454  0.831900  0.188742  1
  Th  Th2  1  0.732303  0.501812  0.808521  1
  Th  Th3  1  0.266436  0.501766  0.192129  1
  Al  Al4  1  0.323165  0.157517  0.051671  1
  Al  Al5  1  0.146896  0.833216  0.561813  1
  Al  Al6  1  0.853635  0.166592  0.439453  1
  Al  Al7  1  0.481705  0.166666  0.558405  1
  Al  Al8  1  0.518536  0.833223  0.441979  1
  Al  Al9  1  0.212842  0.164727  0.334698  1
  Al  Al10  1  0.789160  0.834389  0.665066  1
  Al  Al11  1  0.435260  0.509350  0.667195  1
  Al  Al12  1  0.564568  0.490441  0.334480  1
  Al  Al13  1  0.110798  0.156533  0.665765  1
  Al  Al14  1  0.887756  0.844251  0.335877  1
  Al  Al15  1  0.349144  0.503663  0.943944  1
  Al  Al16  1  0.653328  0.505486  0.051884  1
  Al  Al17  1  0.015282  0.164533  0.956543  1
  Al  Al18  1  0.978310  0.835029  0.036322  1
  Al  Al19  1  0.185596  0.500145  0.442738  1
  Al  Al20  1  0.814164  0.500222  0.558382  1
  Al  Al21  1  0.738917  0.164582  0.183411  1
  Al  Al22  1  0.258175  0.837021  0.816652  1
  Al  Al23  1  0.051934  0.638069  0.819193  1
  Al  Al24  1  0.940238  0.363295  0.185208  1
  Al  Al25  1  0.853352  0.034864  0.820598  1
  Al  Al26  1  0.138680  0.962057  0.183865  1
  Cu  Cu27  1  0.692445  0.834028  0.939270  1
  Pt  Pt28  1  0.121542  0.491476  0.639236  1
  Pt  Pt29  1  0.879410  0.508952  0.361619  1
  Pt  Pt30  1  0.654550  0.185548  0.002022  1
  Pt  Pt31  1  0.334104  0.827307  0.001954  1
  Pt  Pt32  1  0.536298  0.167133  0.361615  1
  Pt  Pt33  1  0.463061  0.832949  0.638569  1
  Pt  Pt34  1  0.780122  0.174981  0.637959  1
  Pt  Pt35  1  0.221443  0.824337  0.362905  1
  Pt  Pt36  1  0.012647  0.487365  0.001843  1
