# generated using pymatgen
data_AcNiSbH2
_symmetry_space_group_name_H-M   'P 1'
_cell_length_a   4.40628800
_cell_length_b   4.40628684
_cell_length_c   8.86131300
_cell_angle_alpha   90.00000000
_cell_angle_beta   90.00000000
_cell_angle_gamma   120.00000874
_symmetry_Int_Tables_number   1
_chemical_formula_structural   AcNiSbH2
_chemical_formula_sum   'Ac2 Ni2 Sb2 H4'
_cell_volume   148.99589907
_cell_formula_units_Z   2
loop_
 _symmetry_equiv_pos_site_id
 _symmetry_equiv_pos_as_xyz
  1  'x, y, z'
loop_
 _atom_site_type_symbol
 _atom_site_label
 _atom_site_symmetry_multiplicity
 _atom_site_fract_x
 _atom_site_fract_y
 _atom_site_fract_z
 _atom_site_occupancy
  Ac  Ac0  1  0.000000  0.000000  0.500000  1
  Ac  Ac1  1  0.000000  0.000000  0.000000  1
  Ni  Ni2  1  0.333333  0.666667  0.750000  1
  Ni  Ni3  1  0.666667  0.333333  0.250000  1
  Sb  Sb4  1  0.666667  0.333333  0.750000  1
  Sb  Sb5  1  0.333333  0.666667  0.250000  1
  H  H6  1  0.666667  0.333333  0.069357  1
  H  H7  1  0.333333  0.666667  0.930643  1
  H  H8  1  0.666667  0.333333  0.430643  1
  H  H9  1  0.333333  0.666667  0.569357  1
