# generated using pymatgen
data_NbP3PbO12
_symmetry_space_group_name_H-M   'P 1'
_cell_length_a   8.85197502
_cell_length_b   8.85031938
_cell_length_c   9.23730739
_cell_angle_alpha   90.06366413
_cell_angle_beta   118.52616876
_cell_angle_gamma   120.00852073
_symmetry_Int_Tables_number   1
_chemical_formula_structural   NbP3PbO12
_chemical_formula_sum   'Nb2 P6 Pb2 O24'
_cell_volume   522.49025423
_cell_formula_units_Z   2
loop_
 _symmetry_equiv_pos_site_id
 _symmetry_equiv_pos_as_xyz
  1  'x, y, z'
loop_
 _atom_site_type_symbol
 _atom_site_label
 _atom_site_symmetry_multiplicity
 _atom_site_fract_x
 _atom_site_fract_y
 _atom_site_fract_z
 _atom_site_occupancy
  Nb  Nb0  1  0.209154  0.355395  0.563560  1
  Nb  Nb1  1  0.789074  0.143961  0.932992  1
  P  P2  1  0.996654  0.963980  0.247889  1
  P  P3  1  0.284380  0.534142  0.250193  1
  P  P4  1  0.288582  0.750775  0.748142  1
  P  P5  1  0.715715  0.249583  0.251105  1
  P  P6  1  0.712539  0.461883  0.749444  1
  P  P7  1  0.001501  0.039476  0.752022  1
  Pb  Pb8  1  0.212063  0.857898  0.069317  1
  Pb  Pb9  1  0.788328  0.642607  0.431441  1
  O  O10  1  0.306848  0.716731  0.245033  1
  O  O11  1  0.883060  0.005093  0.080851  1
  O  O12  1  0.837404  0.859831  0.599642  1
  O  O13  1  0.823965  0.796932  0.255051  1
  O  O14  1  0.155708  0.936929  0.250050  1
  O  O15  1  0.459508  0.530384  0.257790  1
  O  O16  1  0.122863  0.757302  0.587760  1
  O  O17  1  0.879899  0.634401  0.909606  1
  O  O18  1  0.276870  0.752513  0.908233  1
  O  O19  1  0.502762  0.918171  0.789951  1
  O  O20  1  0.734476  0.468637  0.593932  1
  O  O21  1  0.719403  0.425132  0.251302  1
  O  O22  1  0.283038  0.576563  0.707726  1
  O  O23  1  0.277233  0.497418  0.411995  1
  O  O24  1  0.531565  0.088698  0.250159  1
  O  O25  1  0.713159  0.197780  0.088880  1
  O  O26  1  0.076496  0.373083  0.087137  1
  O  O27  1  0.917440  0.287653  0.415309  1
  O  O28  1  0.499746  0.423954  0.700639  1
  O  O29  1  0.874172  0.088089  0.789373  1
  O  O30  1  0.129993  0.202366  0.703555  1
  O  O31  1  0.123187  0.134421  0.406493  1
  O  O32  1  0.165143  0.037284  0.918224  1
  O  O33  1  0.708073  0.290935  0.795205  1
