# generated using pymatgen
data_NdEr(SeO3)3
_symmetry_space_group_name_H-M   'P 1'
_cell_length_a   7.22408989
_cell_length_b   8.25938892
_cell_length_c   9.17059887
_cell_angle_alpha   70.88767037
_cell_angle_beta   70.24127950
_cell_angle_gamma   66.24332579
_symmetry_Int_Tables_number   1
_chemical_formula_structural   NdEr(SeO3)3
_chemical_formula_sum   'Nd2 Er2 Se6 O18'
_cell_volume   459.56518427
_cell_formula_units_Z   2
loop_
 _symmetry_equiv_pos_site_id
 _symmetry_equiv_pos_as_xyz
  1  'x, y, z'
loop_
 _atom_site_type_symbol
 _atom_site_label
 _atom_site_symmetry_multiplicity
 _atom_site_fract_x
 _atom_site_fract_y
 _atom_site_fract_z
 _atom_site_occupancy
  Nd  Nd0  1  0.332645  0.730470  0.591954  1
  Nd  Nd1  1  0.667355  0.269530  0.408046  1
  Er  Er2  1  0.741381  0.735737  0.801534  1
  Er  Er3  1  0.258619  0.264263  0.198466  1
  Se  Se4  1  0.425773  0.782969  0.191418  1
  Se  Se5  1  0.574227  0.217031  0.808582  1
  Se  Se6  1  0.149633  0.746216  0.969084  1
  Se  Se7  1  0.850367  0.253784  0.030916  1
  Se  Se8  1  0.887013  0.753394  0.420458  1
  Se  Se9  1  0.112987  0.246606  0.579542  1
  O  O10  1  0.644990  0.794243  0.045760  1
  O  O11  1  0.355010  0.205757  0.954240  1
  O  O12  1  0.364542  0.951149  0.291921  1
  O  O13  1  0.635458  0.048851  0.708079  1
  O  O14  1  0.514238  0.603009  0.344138  1
  O  O15  1  0.485762  0.396991  0.655862  1
  O  O16  1  0.172569  0.559578  0.120761  1
  O  O17  1  0.827431  0.440422  0.879239  1
  O  O18  1  0.404141  0.711370  0.852792  1
  O  O19  1  0.595859  0.288630  0.147208  1
  O  O20  1  0.340917  0.249129  0.431204  1
  O  O21  1  0.659083  0.750871  0.568796  1
  O  O22  1  0.973092  0.294161  0.439201  1
  O  O23  1  0.026908  0.705839  0.560799  1
  O  O24  1  0.149324  0.023987  0.659312  1
  O  O25  1  0.850676  0.976013  0.340688  1
  O  O26  1  0.940710  0.301735  0.160882  1
  O  O27  1  0.059290  0.698265  0.839118  1
