# generated using pymatgen
data_La8YIr6
_symmetry_space_group_name_H-M   'P 1'
_cell_length_a   7.78149203
_cell_length_b   7.78149272
_cell_length_c   7.78149339
_cell_angle_alpha   70.14616785
_cell_angle_beta   70.14616827
_cell_angle_gamma   70.14616609
_symmetry_Int_Tables_number   1
_chemical_formula_structural   La8YIr6
_chemical_formula_sum   'La8 Y1 Ir6'
_cell_volume   403.21653387
_cell_formula_units_Z   1
loop_
 _symmetry_equiv_pos_site_id
 _symmetry_equiv_pos_as_xyz
  1  'x, y, z'
loop_
 _atom_site_type_symbol
 _atom_site_label
 _atom_site_symmetry_multiplicity
 _atom_site_fract_x
 _atom_site_fract_y
 _atom_site_fract_z
 _atom_site_occupancy
  La  La0  1  0.802776  0.802776  0.802776  1
  La  La1  1  0.197224  0.197224  0.197224  1
  La  La2  1  0.153227  0.387016  0.675589  1
  La  La3  1  0.675589  0.153227  0.387016  1
  La  La4  1  0.387016  0.675589  0.153227  1
  La  La5  1  0.846773  0.612984  0.324411  1
  La  La6  1  0.324411  0.846773  0.612984  1
  La  La7  1  0.612984  0.324411  0.846773  1
  Y  Y8  1  0.000000  0.000000  0.000000  1
  Ir  Ir9  1  0.957390  0.165668  0.593845  1
  Ir  Ir10  1  0.593845  0.957390  0.165668  1
  Ir  Ir11  1  0.165668  0.593845  0.957390  1
  Ir  Ir12  1  0.042610  0.834332  0.406155  1
  Ir  Ir13  1  0.406155  0.042610  0.834332  1
  Ir  Ir14  1  0.834332  0.406155  0.042610  1
