# generated using pymatgen
data_Dy3Y4RhI12
_symmetry_space_group_name_H-M   'P 1'
_cell_length_a   9.79992372
_cell_length_b   9.79992227
_cell_length_c   9.79992201
_cell_angle_alpha   106.90570629
_cell_angle_beta   106.90570902
_cell_angle_gamma   106.90571072
_symmetry_Int_Tables_number   1
_chemical_formula_structural   Dy3Y4RhI12
_chemical_formula_sum   'Dy3 Y4 Rh1 I12'
_cell_volume   785.82253173
_cell_formula_units_Z   1
loop_
 _symmetry_equiv_pos_site_id
 _symmetry_equiv_pos_as_xyz
  1  'x, y, z'
loop_
 _atom_site_type_symbol
 _atom_site_label
 _atom_site_symmetry_multiplicity
 _atom_site_fract_x
 _atom_site_fract_y
 _atom_site_fract_z
 _atom_site_occupancy
  Dy  Dy0  1  0.094473  0.022597  0.295207  1
  Dy  Dy1  1  0.022597  0.295207  0.094473  1
  Dy  Dy2  1  0.295207  0.094473  0.022597  1
  Y  Y3  1  0.499928  0.499928  0.499928  1
  Y  Y4  1  0.905225  0.977057  0.703990  1
  Y  Y5  1  0.977057  0.703990  0.905225  1
  Y  Y6  1  0.703990  0.905225  0.977057  1
  Rh  Rh7  1  0.000717  0.000717  0.000717  1
  I  I8  1  0.536570  0.837744  0.613432  1
  I  I9  1  0.837744  0.613432  0.536570  1
  I  I10  1  0.613432  0.536570  0.837744  1
  I  I11  1  0.464022  0.162832  0.386988  1
  I  I12  1  0.162832  0.386988  0.464022  1
  I  I13  1  0.386988  0.464022  0.162832  1
  I  I14  1  0.675751  0.223748  0.070297  1
  I  I15  1  0.223748  0.070297  0.675751  1
  I  I16  1  0.070297  0.675751  0.223748  1
  I  I17  1  0.324546  0.775551  0.929324  1
  I  I18  1  0.775551  0.929324  0.324546  1
  I  I19  1  0.929324  0.324546  0.775551  1
