# generated using pymatgen
data_KTi2(AsO4)3
_symmetry_space_group_name_H-M   'P 1'
_cell_length_a   9.49351301
_cell_length_b   9.49351310
_cell_length_c   9.49351421
_cell_angle_alpha   55.72779330
_cell_angle_beta   55.72779258
_cell_angle_gamma   55.72780211
_symmetry_Int_Tables_number   1
_chemical_formula_structural   KTi2(AsO4)3
_chemical_formula_sum   'K2 Ti4 As6 O24'
_cell_volume   545.06098143
_cell_formula_units_Z   2
loop_
 _symmetry_equiv_pos_site_id
 _symmetry_equiv_pos_as_xyz
  1  'x, y, z'
loop_
 _atom_site_type_symbol
 _atom_site_label
 _atom_site_symmetry_multiplicity
 _atom_site_fract_x
 _atom_site_fract_y
 _atom_site_fract_z
 _atom_site_occupancy
  K  K0  1  0.500000  0.500000  0.500000  1
  K  K1  1  0.000000  0.000000  0.000000  1
  Ti  Ti2  1  0.353043  0.353043  0.353043  1
  Ti  Ti3  1  0.853043  0.853043  0.853043  1
  Ti  Ti4  1  0.646957  0.646957  0.646957  1
  Ti  Ti5  1  0.146957  0.146957  0.146957  1
  As  As6  1  0.972888  0.527112  0.250000  1
  As  As7  1  0.250000  0.972888  0.527112  1
  As  As8  1  0.527112  0.250000  0.972888  1
  As  As9  1  0.750000  0.027112  0.472888  1
  As  As10  1  0.472888  0.750000  0.027112  1
  As  As11  1  0.027112  0.472888  0.750000  1
  O  O12  1  0.162469  0.511323  0.248492  1
  O  O13  1  0.248492  0.162469  0.511323  1
  O  O14  1  0.511323  0.248492  0.162469  1
  O  O15  1  0.748492  0.011323  0.662469  1
  O  O16  1  0.662469  0.748492  0.011323  1
  O  O17  1  0.011323  0.662469  0.748492  1
  O  O18  1  0.837531  0.488677  0.751508  1
  O  O19  1  0.751508  0.837531  0.488677  1
  O  O20  1  0.488677  0.751508  0.837531  1
  O  O21  1  0.251508  0.988677  0.337531  1
  O  O22  1  0.337531  0.251508  0.988677  1
  O  O23  1  0.988677  0.337531  0.251508  1
  O  O24  1  0.212462  0.439619  0.558591  1
  O  O25  1  0.558591  0.212462  0.439619  1
  O  O26  1  0.439619  0.558591  0.212462  1
  O  O27  1  0.058591  0.939619  0.712462  1
  O  O28  1  0.712462  0.058591  0.939619  1
  O  O29  1  0.939619  0.712462  0.058591  1
  O  O30  1  0.787538  0.560381  0.441409  1
  O  O31  1  0.441409  0.787538  0.560381  1
  O  O32  1  0.560381  0.441409  0.787538  1
  O  O33  1  0.941409  0.060381  0.287538  1
  O  O34  1  0.287538  0.941409  0.060381  1
  O  O35  1  0.060381  0.287538  0.941409  1
