# generated using pymatgen
data_Sr4CuH12Ir
_symmetry_space_group_name_H-M   'P 1'
_cell_length_a   7.56791739
_cell_length_b   7.56791665
_cell_length_c   5.51346215
_cell_angle_alpha   90.08736298
_cell_angle_beta   90.08736653
_cell_angle_gamma   137.29681808
_symmetry_Int_Tables_number   1
_chemical_formula_structural   Sr4CuH12Ir
_chemical_formula_sum   'Sr4 Cu1 H12 Ir1'
_cell_volume   214.15657186
_cell_formula_units_Z   1
loop_
 _symmetry_equiv_pos_site_id
 _symmetry_equiv_pos_as_xyz
  1  'x, y, z'
loop_
 _atom_site_type_symbol
 _atom_site_label
 _atom_site_symmetry_multiplicity
 _atom_site_fract_x
 _atom_site_fract_y
 _atom_site_fract_z
 _atom_site_occupancy
  Sr  Sr0  1  0.146988  0.853012  0.500000  1
  Sr  Sr1  1  0.646641  0.353359  0.000000  1
  Sr  Sr2  1  0.853012  0.146988  0.500000  1
  Sr  Sr3  1  0.353359  0.646641  0.000000  1
  Cu  Cu4  1  0.000000  0.000000  0.000000  1
  H  H5  1  0.999646  0.500312  0.751380  1
  H  H6  1  0.499688  0.000354  0.248620  1
  H  H7  1  0.000354  0.499688  0.248620  1
  H  H8  1  0.500312  0.999646  0.751380  1
  H  H9  1  0.380368  0.619632  0.500000  1
  H  H10  1  0.888305  0.111695  0.000000  1
  H  H11  1  0.619632  0.380368  0.500000  1
  H  H12  1  0.111695  0.888305  0.000000  1
  H  H13  1  0.281275  0.281275  0.718765  1
  H  H14  1  0.718725  0.718725  0.281235  1
  H  H15  1  0.280061  0.280061  0.280397  1
  H  H16  1  0.719939  0.719939  0.719603  1
  Ir  Ir17  1  0.500000  0.500000  0.500000  1
