# generated using pymatgen
data_Ti4SiBi2
_symmetry_space_group_name_H-M   'P 1'
_cell_length_a   7.86767577
_cell_length_b   7.86767556
_cell_length_c   7.86767659
_cell_angle_alpha   95.71637766
_cell_angle_beta   95.71637730
_cell_angle_gamma   143.20577134
_symmetry_Int_Tables_number   1
_chemical_formula_structural   Ti4SiBi2
_chemical_formula_sum   'Ti8 Si2 Bi4'
_cell_volume   276.78437868
_cell_formula_units_Z   2
loop_
 _symmetry_equiv_pos_site_id
 _symmetry_equiv_pos_as_xyz
  1  'x, y, z'
loop_
 _atom_site_type_symbol
 _atom_site_label
 _atom_site_symmetry_multiplicity
 _atom_site_fract_x
 _atom_site_fract_y
 _atom_site_fract_z
 _atom_site_occupancy
  Ti  Ti0  1  0.081838  0.197443  0.279281  1
  Ti  Ti1  1  0.918162  0.802557  0.720719  1
  Ti  Ti2  1  0.802557  0.081838  0.884393  1
  Ti  Ti3  1  0.418162  0.697443  0.115607  1
  Ti  Ti4  1  0.197443  0.918162  0.115607  1
  Ti  Ti5  1  0.581838  0.302557  0.884393  1
  Ti  Ti6  1  0.697443  0.581838  0.279281  1
  Ti  Ti7  1  0.302557  0.418162  0.720719  1
  Si  Si8  1  0.250000  0.250000  0.000000  1
  Si  Si9  1  0.750000  0.750000  0.000000  1
  Bi  Bi10  1  0.139427  0.639427  0.778852  1
  Bi  Bi11  1  0.860573  0.360573  0.221148  1
  Bi  Bi12  1  0.360573  0.139427  0.500000  1
  Bi  Bi13  1  0.639427  0.860573  0.500000  1
