# generated using pymatgen
data_Zr3U(AlCo2)2
_symmetry_space_group_name_H-M   'P 1'
_cell_length_a   6.99650539
_cell_length_b   6.99650617
_cell_length_c   3.33177300
_cell_angle_alpha   90.00000000
_cell_angle_beta   90.00000000
_cell_angle_gamma   93.15869677
_symmetry_Int_Tables_number   1
_chemical_formula_structural   Zr3U(AlCo2)2
_chemical_formula_sum   'Zr3 U1 Al2 Co4'
_cell_volume   162.84614907
_cell_formula_units_Z   1
loop_
 _symmetry_equiv_pos_site_id
 _symmetry_equiv_pos_as_xyz
  1  'x, y, z'
loop_
 _atom_site_type_symbol
 _atom_site_label
 _atom_site_symmetry_multiplicity
 _atom_site_fract_x
 _atom_site_fract_y
 _atom_site_fract_z
 _atom_site_occupancy
  Zr  Zr0  1  0.679726  0.179726  0.500000  1
  Zr  Zr1  1  0.170861  0.322354  0.500000  1
  Zr  Zr2  1  0.822354  0.670861  0.500000  1
  U  U3  1  0.329923  0.829923  0.500000  1
  Al  Al4  1  0.988306  0.003653  0.000000  1
  Al  Al5  1  0.503653  0.488306  0.000000  1
  Co  Co6  1  0.883783  0.383783  0.000000  1
  Co  Co7  1  0.361563  0.109459  0.000000  1
  Co  Co8  1  0.609459  0.861563  0.000000  1
  Co  Co9  1  0.150372  0.650372  0.000000  1
