# generated using pymatgen
data_Tb3YbEr2Al19Si5Os8
_symmetry_space_group_name_H-M   'P 1'
_cell_length_a   8.69912612
_cell_length_b   8.67310851
_cell_length_c   9.60476700
_cell_angle_alpha   90.00000000
_cell_angle_beta   90.00000000
_cell_angle_gamma   120.11826461
_symmetry_Int_Tables_number   1
_chemical_formula_structural   Tb3YbEr2Al19Si5Os8
_chemical_formula_sum   'Tb3 Yb1 Er2 Al19 Si5 Os8'
_cell_volume   626.82900449
_cell_formula_units_Z   1
loop_
 _symmetry_equiv_pos_site_id
 _symmetry_equiv_pos_as_xyz
  1  'x, y, z'
loop_
 _atom_site_type_symbol
 _atom_site_label
 _atom_site_symmetry_multiplicity
 _atom_site_fract_x
 _atom_site_fract_y
 _atom_site_fract_z
 _atom_site_occupancy
  Tb  Tb0  1  0.805911  0.611326  0.750000  1
  Tb  Tb1  1  0.609236  0.806402  0.250000  1
  Tb  Tb2  1  0.389472  0.195470  0.750000  1
  Yb  Yb3  1  0.194183  0.388594  0.250000  1
  Er  Er4  1  0.198076  0.805808  0.250000  1
  Er  Er5  1  0.805378  0.196752  0.750000  1
  Al  Al6  1  0.164955  0.330373  0.575472  1
  Al  Al7  1  0.834502  0.668423  0.421402  1
  Al  Al8  1  0.668985  0.835809  0.576448  1
  Al  Al9  1  0.834502  0.668423  0.078598  1
  Al  Al10  1  0.329243  0.165499  0.422202  1
  Al  Al11  1  0.164955  0.330373  0.924528  1
  Al  Al12  1  0.166661  0.835422  0.576007  1
  Al  Al13  1  0.329243  0.165499  0.077798  1
  Al  Al14  1  0.836489  0.165843  0.422553  1
  Al  Al15  1  0.668985  0.835809  0.923552  1
  Al  Al16  1  0.836489  0.165843  0.077447  1
  Al  Al17  1  0.166661  0.835422  0.923993  1
  Al  Al18  1  0.437562  0.874490  0.750000  1
  Al  Al19  1  0.874318  0.433112  0.250000  1
  Al  Al20  1  0.128481  0.564495  0.750000  1
  Al  Al21  1  0.558939  0.432413  0.250000  1
  Al  Al22  1  0.436021  0.565071  0.750000  1
  Al  Al23  1  0.000518  0.999691  0.250000  1
  Al  Al24  1  0.000269  0.002175  0.750000  1
  Si  Si25  1  0.331611  0.664119  0.039410  1
  Si  Si26  1  0.667322  0.333935  0.960835  1
  Si  Si27  1  0.667322  0.333935  0.539165  1
  Si  Si28  1  0.331611  0.664119  0.460590  1
  Si  Si29  1  0.563894  0.128509  0.250000  1
  Os  Os30  1  0.500821  0.001939  0.005806  1
  Os  Os31  1  0.998235  0.499261  0.999375  1
  Os  Os32  1  0.500821  0.001939  0.494194  1
  Os  Os33  1  0.501028  0.499262  0.999408  1
  Os  Os34  1  0.998235  0.499261  0.500625  1
  Os  Os35  1  0.501028  0.499262  0.500592  1
  Os  Os36  1  0.999017  0.997961  0.999808  1
  Os  Os37  1  0.999017  0.997961  0.500192  1
