# generated using pymatgen
data_Pr2DyIn3Ag2Ir
_symmetry_space_group_name_H-M   'P 1'
_cell_length_a   7.93077759
_cell_length_b   7.95963079
_cell_length_c   4.00289700
_cell_angle_alpha   90.00000000
_cell_angle_beta   90.00000000
_cell_angle_gamma   120.13072167
_symmetry_Int_Tables_number   1
_chemical_formula_structural   Pr2DyIn3Ag2Ir
_chemical_formula_sum   'Pr2 Dy1 In3 Ag2 Ir1'
_cell_volume   218.54464189
_cell_formula_units_Z   1
loop_
 _symmetry_equiv_pos_site_id
 _symmetry_equiv_pos_as_xyz
  1  'x, y, z'
loop_
 _atom_site_type_symbol
 _atom_site_label
 _atom_site_symmetry_multiplicity
 _atom_site_fract_x
 _atom_site_fract_y
 _atom_site_fract_z
 _atom_site_occupancy
  Pr  Pr0  1  0.577131  0.602210  0.000000  1
  Pr  Pr1  1  0.394596  0.973507  0.000000  1
  Dy  Dy2  1  0.031991  0.425205  0.000000  1
  In  In3  1  0.994871  0.732636  0.500000  1
  In  In4  1  0.260688  0.261143  0.500000  1
  In  In5  1  0.744758  0.009353  0.500000  1
  Ag  Ag6  1  0.000054  0.002586  0.000000  1
  Ag  Ag7  1  0.673687  0.334867  0.500000  1
  Ir  Ir8  1  0.322225  0.658495  0.500000  1
