# generated using pymatgen
data_Cs4ReRhCl12
_symmetry_space_group_name_H-M   'P 1'
_cell_length_a   7.40292400
_cell_length_b   7.40292400
_cell_length_c   10.82236500
_cell_angle_alpha   90.00000000
_cell_angle_beta   90.00000000
_cell_angle_gamma   90.00000000
_symmetry_Int_Tables_number   1
_chemical_formula_structural   Cs4ReRhCl12
_chemical_formula_sum   'Cs4 Re1 Rh1 Cl12'
_cell_volume   593.10113994
_cell_formula_units_Z   1
loop_
 _symmetry_equiv_pos_site_id
 _symmetry_equiv_pos_as_xyz
  1  'x, y, z'
loop_
 _atom_site_type_symbol
 _atom_site_label
 _atom_site_symmetry_multiplicity
 _atom_site_fract_x
 _atom_site_fract_y
 _atom_site_fract_z
 _atom_site_occupancy
  Cs  Cs0  1  0.500000  0.000000  0.769523  1
  Cs  Cs1  1  0.000000  0.500000  0.230477  1
  Cs  Cs2  1  0.500000  0.000000  0.230477  1
  Cs  Cs3  1  0.000000  0.500000  0.769523  1
  Re  Re4  1  0.500000  0.500000  0.500000  1
  Rh  Rh5  1  0.000000  0.000000  0.000000  1
  Cl  Cl6  1  0.000000  0.000000  0.781210  1
  Cl  Cl7  1  0.500000  0.500000  0.280901  1
  Cl  Cl8  1  0.724670  0.724670  0.500000  1
  Cl  Cl9  1  0.225987  0.225987  0.000000  1
  Cl  Cl10  1  0.724670  0.275330  0.500000  1
  Cl  Cl11  1  0.225987  0.774013  0.000000  1
  Cl  Cl12  1  0.000000  0.000000  0.218790  1
  Cl  Cl13  1  0.500000  0.500000  0.719099  1
  Cl  Cl14  1  0.275330  0.275330  0.500000  1
  Cl  Cl15  1  0.774013  0.774013  0.000000  1
  Cl  Cl16  1  0.275330  0.724670  0.500000  1
  Cl  Cl17  1  0.774013  0.225987  0.000000  1
