# generated using pymatgen
data_Li4Ta5(WN4)3
_symmetry_space_group_name_H-M   'P 1'
_cell_length_a   5.13941013
_cell_length_b   5.13743146
_cell_length_c   10.36352300
_cell_angle_alpha   90.00000000
_cell_angle_beta   90.00000000
_cell_angle_gamma   119.98727209
_symmetry_Int_Tables_number   1
_chemical_formula_structural   Li4Ta5(WN4)3
_chemical_formula_sum   'Li4 Ta5 W3 N12'
_cell_volume   237.00256719
_cell_formula_units_Z   1
loop_
 _symmetry_equiv_pos_site_id
 _symmetry_equiv_pos_as_xyz
  1  'x, y, z'
loop_
 _atom_site_type_symbol
 _atom_site_label
 _atom_site_symmetry_multiplicity
 _atom_site_fract_x
 _atom_site_fract_y
 _atom_site_fract_z
 _atom_site_occupancy
  Li  Li0  1  0.333482  0.666552  0.999975  1
  Li  Li1  1  0.333482  0.666552  0.500025  1
  Li  Li2  1  0.666518  0.333069  0.500025  1
  Li  Li3  1  0.666518  0.333069  0.999975  1
  Ta  Ta4  1  0.000000  0.999046  0.496458  1
  Ta  Ta5  1  0.000000  0.999046  0.003542  1
  Ta  Ta6  1  0.656177  0.655171  0.250000  1
  Ta  Ta7  1  0.343823  0.998994  0.250000  1
  Ta  Ta8  1  0.000000  0.659832  0.750000  1
  W  W9  1  0.000000  0.345165  0.250000  1
  W  W10  1  0.658669  0.999101  0.750000  1
  W  W11  1  0.341331  0.340432  0.750000  1
  N  N12  1  0.670309  0.673880  0.624789  1
  N  N13  1  0.670309  0.673880  0.875211  1
  N  N14  1  0.323770  0.326754  0.123017  1
  N  N15  1  0.323770  0.326754  0.376983  1
  N  N16  1  0.329691  0.003570  0.875211  1
  N  N17  1  0.329691  0.003570  0.624789  1
  N  N18  1  0.000000  0.671308  0.376828  1
  N  N19  1  0.000000  0.671308  0.123172  1
  N  N20  1  0.676230  0.002984  0.123017  1
  N  N21  1  0.676230  0.002984  0.376983  1
  N  N22  1  0.000000  0.323489  0.875432  1
  N  N23  1  0.000000  0.323489  0.624568  1
