# generated using pymatgen
data_Dy5Tm5Pt18
_symmetry_space_group_name_H-M   'P 1'
_cell_length_a   9.72328566
_cell_length_b   9.73715264
_cell_length_c   5.75962600
_cell_angle_alpha   90.00000000
_cell_angle_beta   90.00000000
_cell_angle_gamma   90.14368975
_symmetry_Int_Tables_number   1
_chemical_formula_structural   Dy5Tm5Pt18
_chemical_formula_sum   'Dy5 Tm5 Pt18'
_cell_volume   545.30306772
_cell_formula_units_Z   1
loop_
 _symmetry_equiv_pos_site_id
 _symmetry_equiv_pos_as_xyz
  1  'x, y, z'
loop_
 _atom_site_type_symbol
 _atom_site_label
 _atom_site_symmetry_multiplicity
 _atom_site_fract_x
 _atom_site_fract_y
 _atom_site_fract_z
 _atom_site_occupancy
  Dy  Dy0  1  0.452704  0.808894  0.000000  1
  Dy  Dy1  1  0.547548  0.191019  0.000000  1
  Dy  Dy2  1  0.190903  0.547376  0.000000  1
  Dy  Dy3  1  0.809068  0.452652  0.000000  1
  Dy  Dy4  1  0.308744  0.047590  0.500000  1
  Tm  Tm5  1  0.500045  0.500026  0.500000  1
  Tm  Tm6  1  0.691495  0.952346  0.500000  1
  Tm  Tm7  1  0.952355  0.691278  0.500000  1
  Tm  Tm8  1  0.047416  0.308925  0.500000  1
  Tm  Tm9  1  0.999884  0.999977  0.000000  1
  Pt  Pt10  1  0.190754  0.808239  0.251292  1
  Pt  Pt11  1  0.809062  0.191025  0.748284  1
  Pt  Pt12  1  0.809062  0.191025  0.251716  1
  Pt  Pt13  1  0.190754  0.808239  0.748708  1
  Pt  Pt14  1  0.441692  0.781406  0.500000  1
  Pt  Pt15  1  0.559238  0.218300  0.500000  1
  Pt  Pt16  1  0.217713  0.558535  0.500000  1
  Pt  Pt17  1  0.782299  0.441490  0.500000  1
  Pt  Pt18  1  0.307714  0.308578  0.249885  1
  Pt  Pt19  1  0.692324  0.692286  0.749504  1
  Pt  Pt20  1  0.692324  0.692286  0.250496  1
  Pt  Pt21  1  0.307714  0.308578  0.750115  1
  Pt  Pt22  1  0.281005  0.058836  0.000000  1
  Pt  Pt23  1  0.718879  0.941228  0.000000  1
  Pt  Pt24  1  0.941164  0.718891  0.000000  1
  Pt  Pt25  1  0.058699  0.281028  0.000000  1
  Pt  Pt26  1  0.999361  0.999866  0.500000  1
  Pt  Pt27  1  0.500081  0.500082  0.000000  1
