# generated using pymatgen
data_Ho2TcB6
_symmetry_space_group_name_H-M   'P 1'
_cell_length_a   3.67385800
_cell_length_b   9.14525000
_cell_length_c   11.52327100
_cell_angle_alpha   90.00000000
_cell_angle_beta   90.00000000
_cell_angle_gamma   90.00000000
_symmetry_Int_Tables_number   1
_chemical_formula_structural   Ho2TcB6
_chemical_formula_sum   'Ho8 Tc4 B24'
_cell_volume   387.16289076
_cell_formula_units_Z   4
loop_
 _symmetry_equiv_pos_site_id
 _symmetry_equiv_pos_as_xyz
  1  'x, y, z'
loop_
 _atom_site_type_symbol
 _atom_site_label
 _atom_site_symmetry_multiplicity
 _atom_site_fract_x
 _atom_site_fract_y
 _atom_site_fract_z
 _atom_site_occupancy
  Ho  Ho0  1  0.000000  0.323928  0.414223  1
  Ho  Ho1  1  0.000000  0.676072  0.585777  1
  Ho  Ho2  1  0.000000  0.823928  0.085777  1
  Ho  Ho3  1  0.000000  0.176072  0.914223  1
  Ho  Ho4  1  0.000000  0.943146  0.369700  1
  Ho  Ho5  1  0.000000  0.056854  0.630300  1
  Ho  Ho6  1  0.000000  0.443146  0.130300  1
  Ho  Ho7  1  0.000000  0.556854  0.869700  1
  Tc  Tc8  1  0.000000  0.639037  0.320685  1
  Tc  Tc9  1  0.000000  0.360963  0.679315  1
  Tc  Tc10  1  0.000000  0.139037  0.179315  1
  Tc  Tc11  1  0.000000  0.860963  0.820685  1
  B  B12  1  0.500000  0.553527  0.433072  1
  B  B13  1  0.500000  0.446473  0.566928  1
  B  B14  1  0.500000  0.053527  0.066928  1
  B  B15  1  0.500000  0.946473  0.933072  1
  B  B16  1  0.500000  0.749122  0.418904  1
  B  B17  1  0.500000  0.250878  0.581096  1
  B  B18  1  0.500000  0.249122  0.081096  1
  B  B19  1  0.500000  0.750878  0.918904  1
  B  B20  1  0.500000  0.792396  0.265367  1
  B  B21  1  0.500000  0.207604  0.734633  1
  B  B22  1  0.500000  0.292396  0.234633  1
  B  B23  1  0.500000  0.707604  0.765367  1
  B  B24  1  0.500000  0.631187  0.185495  1
  B  B25  1  0.500000  0.368813  0.814505  1
  B  B26  1  0.500000  0.131187  0.314505  1
  B  B27  1  0.500000  0.868813  0.685495  1
  B  B28  1  0.500000  0.982371  0.211714  1
  B  B29  1  0.500000  0.017629  0.788286  1
  B  B30  1  0.500000  0.482371  0.288286  1
  B  B31  1  0.500000  0.517629  0.711714  1
  B  B32  1  0.500000  0.600511  0.028079  1
  B  B33  1  0.500000  0.399489  0.971921  1
  B  B34  1  0.500000  0.100511  0.471921  1
  B  B35  1  0.500000  0.899489  0.528079  1
