# generated using pymatgen
data_Li(TmP)2
_symmetry_space_group_name_H-M   'P 1'
_cell_length_a   4.01774800
_cell_length_b   4.01774864
_cell_length_c   13.46568500
_cell_angle_alpha   90.00000000
_cell_angle_beta   90.00000000
_cell_angle_gamma   120.00001117
_symmetry_Int_Tables_number   1
_chemical_formula_structural   Li(TmP)2
_chemical_formula_sum   'Li2 Tm4 P4'
_cell_volume   188.24545113
_cell_formula_units_Z   2
loop_
 _symmetry_equiv_pos_site_id
 _symmetry_equiv_pos_as_xyz
  1  'x, y, z'
loop_
 _atom_site_type_symbol
 _atom_site_label
 _atom_site_symmetry_multiplicity
 _atom_site_fract_x
 _atom_site_fract_y
 _atom_site_fract_z
 _atom_site_occupancy
  Li  Li0  1  0.000000  0.000000  0.746163  1
  Li  Li1  1  0.000000  0.000000  0.246163  1
  Tm  Tm2  1  0.333333  0.666667  0.887112  1
  Tm  Tm3  1  0.666667  0.333333  0.387112  1
  Tm  Tm4  1  0.666667  0.333333  0.106372  1
  Tm  Tm5  1  0.333333  0.666667  0.606372  1
  P  P6  1  0.000000  0.000000  0.497030  1
  P  P7  1  0.000000  0.000000  0.997030  1
  P  P8  1  0.666667  0.333333  0.746993  1
  P  P9  1  0.333333  0.666667  0.246993  1
