# generated using pymatgen
data_Ca10HfReN10
_symmetry_space_group_name_H-M   'P 1'
_cell_length_a   6.98410638
_cell_length_b   6.98410531
_cell_length_c   8.98038848
_cell_angle_alpha   80.39491069
_cell_angle_beta   80.39491052
_cell_angle_gamma   59.76687913
_symmetry_Int_Tables_number   1
_chemical_formula_structural   Ca10HfReN10
_chemical_formula_sum   'Ca10 Hf1 Re1 N10'
_cell_volume   371.38790386
_cell_formula_units_Z   1
loop_
 _symmetry_equiv_pos_site_id
 _symmetry_equiv_pos_as_xyz
  1  'x, y, z'
loop_
 _atom_site_type_symbol
 _atom_site_label
 _atom_site_symmetry_multiplicity
 _atom_site_fract_x
 _atom_site_fract_y
 _atom_site_fract_z
 _atom_site_occupancy
  Ca  Ca0  1  0.875743  0.352718  0.827219  1
  Ca  Ca1  1  0.873975  0.873975  0.819649  1
  Ca  Ca2  1  0.738975  0.738975  0.534186  1
  Ca  Ca3  1  0.751077  0.248224  0.510764  1
  Ca  Ca4  1  0.631046  0.138133  0.148745  1
  Ca  Ca5  1  0.352718  0.875743  0.827219  1
  Ca  Ca6  1  0.248224  0.751077  0.510764  1
  Ca  Ca7  1  0.240889  0.240889  0.501599  1
  Ca  Ca8  1  0.141246  0.141246  0.156158  1
  Ca  Ca9  1  0.138133  0.631046  0.148745  1
  Hf  Hf10  1  0.369593  0.369593  0.778946  1
  Re  Re11  1  0.632181  0.632181  0.228663  1
  N  N12  1  0.903056  0.473605  0.315790  1
  N  N13  1  0.996082  0.996082  0.014707  1
  N  N14  1  0.675283  0.675283  0.023292  1
  N  N15  1  0.542049  0.542049  0.687871  1
  N  N16  1  0.473605  0.903056  0.315790  1
  N  N17  1  0.543201  0.076089  0.672894  1
  N  N18  1  0.476646  0.476646  0.295733  1
  N  N19  1  0.320559  0.320559  0.009917  1
  N  N20  1  0.061915  0.061915  0.644264  1
  N  N21  1  0.076089  0.543201  0.672894  1
