# generated using pymatgen
data_Nd16Lu4Ir11Ru
_symmetry_space_group_name_H-M   'P 1'
_cell_length_a   11.16051400
_cell_length_b   11.16051400
_cell_length_c   6.50385800
_cell_angle_alpha   90.00000000
_cell_angle_beta   90.00000000
_cell_angle_gamma   90.00000000
_symmetry_Int_Tables_number   1
_chemical_formula_structural   Nd16Lu4Ir11Ru
_chemical_formula_sum   'Nd16 Lu4 Ir11 Ru1'
_cell_volume   810.10151402
_cell_formula_units_Z   1
loop_
 _symmetry_equiv_pos_site_id
 _symmetry_equiv_pos_as_xyz
  1  'x, y, z'
loop_
 _atom_site_type_symbol
 _atom_site_label
 _atom_site_symmetry_multiplicity
 _atom_site_fract_x
 _atom_site_fract_y
 _atom_site_fract_z
 _atom_site_occupancy
  Nd  Nd0  1  0.087205  0.289274  0.118218  1
  Nd  Nd1  1  0.789274  0.412795  0.118218  1
  Nd  Nd2  1  0.210726  0.587205  0.118218  1
  Nd  Nd3  1  0.912795  0.710726  0.118218  1
  Nd  Nd4  1  0.412490  0.788378  0.382293  1
  Nd  Nd5  1  0.587510  0.211622  0.382293  1
  Nd  Nd6  1  0.288378  0.087510  0.382293  1
  Nd  Nd7  1  0.711622  0.912490  0.382293  1
  Nd  Nd8  1  0.412394  0.211759  0.882122  1
  Nd  Nd9  1  0.711759  0.087606  0.882122  1
  Nd  Nd10  1  0.288241  0.912394  0.882122  1
  Nd  Nd11  1  0.587606  0.788241  0.882122  1
  Nd  Nd12  1  0.087182  0.710597  0.616309  1
  Nd  Nd13  1  0.912818  0.289403  0.616309  1
  Nd  Nd14  1  0.210597  0.412818  0.616309  1
  Nd  Nd15  1  0.789403  0.587182  0.616309  1
  Lu  Lu16  1  0.000000  0.000000  0.000639  1
  Lu  Lu17  1  0.500000  0.500000  0.000639  1
  Lu  Lu18  1  0.500000  0.500000  0.500617  1
  Lu  Lu19  1  0.000000  0.000000  0.500617  1
  Ir  Ir20  1  0.147115  0.853429  0.250019  1
  Ir  Ir21  1  0.353429  0.352885  0.250019  1
  Ir  Ir22  1  0.646571  0.647115  0.250019  1
  Ir  Ir23  1  0.852885  0.146571  0.250019  1
  Ir  Ir24  1  0.353523  0.646932  0.750186  1
  Ir  Ir25  1  0.146932  0.146477  0.750186  1
  Ir  Ir26  1  0.853068  0.853523  0.750186  1
  Ir  Ir27  1  0.646477  0.353068  0.750186  1
  Ir  Ir28  1  0.500000  0.000000  0.121188  1
  Ir  Ir29  1  0.500000  0.000000  0.621440  1
  Ir  Ir30  1  0.000000  0.500000  0.878974  1
  Ru  Ru31  1  0.000000  0.500000  0.379301  1
