# generated using pymatgen
data_Dy2ErMg3Pb2Au
_symmetry_space_group_name_H-M   'P 1'
_cell_length_a   7.57111405
_cell_length_b   7.57111505
_cell_length_c   4.49952200
_cell_angle_alpha   90.00000000
_cell_angle_beta   90.00000000
_cell_angle_gamma   119.98671002
_symmetry_Int_Tables_number   1
_chemical_formula_structural   Dy2ErMg3Pb2Au
_chemical_formula_sum   'Dy2 Er1 Mg3 Pb2 Au1'
_cell_volume   223.39569006
_cell_formula_units_Z   1
loop_
 _symmetry_equiv_pos_site_id
 _symmetry_equiv_pos_as_xyz
  1  'x, y, z'
loop_
 _atom_site_type_symbol
 _atom_site_label
 _atom_site_symmetry_multiplicity
 _atom_site_fract_x
 _atom_site_fract_y
 _atom_site_fract_z
 _atom_site_occupancy
  Dy  Dy0  1  0.596781  0.999946  0.000000  1
  Dy  Dy1  1  0.999946  0.596781  0.000000  1
  Er  Er2  1  0.403130  0.403130  0.000000  1
  Mg  Mg3  1  0.233471  0.000062  0.500000  1
  Mg  Mg4  1  0.000062  0.233471  0.500000  1
  Mg  Mg5  1  0.766463  0.766463  0.500000  1
  Pb  Pb6  1  0.333415  0.666512  0.500000  1
  Pb  Pb7  1  0.666512  0.333415  0.500000  1
  Au  Au8  1  0.000220  0.000220  0.000000  1
