# generated using pymatgen
data_Tm8InHg3Au8
_symmetry_space_group_name_H-M   'P 1'
_cell_length_a   7.91394800
_cell_length_b   7.91394800
_cell_length_c   7.29681700
_cell_angle_alpha   90.00000000
_cell_angle_beta   90.00000000
_cell_angle_gamma   90.00000000
_symmetry_Int_Tables_number   1
_chemical_formula_structural   Tm8InHg3Au8
_chemical_formula_sum   'Tm8 In1 Hg3 Au8'
_cell_volume   457.00382940
_cell_formula_units_Z   1
loop_
 _symmetry_equiv_pos_site_id
 _symmetry_equiv_pos_as_xyz
  1  'x, y, z'
loop_
 _atom_site_type_symbol
 _atom_site_label
 _atom_site_symmetry_multiplicity
 _atom_site_fract_x
 _atom_site_fract_y
 _atom_site_fract_z
 _atom_site_occupancy
  Tm  Tm0  1  0.840171  0.157421  0.500288  1
  Tm  Tm1  1  0.159829  0.842579  0.500288  1
  Tm  Tm2  1  0.342579  0.340171  0.999712  1
  Tm  Tm3  1  0.657421  0.659829  0.999712  1
  Tm  Tm4  1  0.681152  0.685197  0.500480  1
  Tm  Tm5  1  0.318848  0.314803  0.500480  1
  Tm  Tm6  1  0.185197  0.818848  0.999520  1
  Tm  Tm7  1  0.814803  0.181152  0.999520  1
  In  In8  1  0.000000  0.500000  0.250000  1
  Hg  Hg9  1  0.500000  0.000000  0.250000  1
  Hg  Hg10  1  0.000000  0.500000  0.750000  1
  Hg  Hg11  1  0.500000  0.000000  0.750000  1
  Au  Au12  1  0.630430  0.373145  0.274621  1
  Au  Au13  1  0.369570  0.626855  0.274621  1
  Au  Au14  1  0.127973  0.128343  0.774516  1
  Au  Au15  1  0.872027  0.871657  0.774516  1
  Au  Au16  1  0.371657  0.627973  0.725484  1
  Au  Au17  1  0.628343  0.372027  0.725484  1
  Au  Au18  1  0.873145  0.869570  0.225379  1
  Au  Au19  1  0.126855  0.130430  0.225379  1
