# generated using pymatgen
data_Sr8Co2OsN8
_symmetry_space_group_name_H-M   'P 1'
_cell_length_a   9.78484941
_cell_length_b   9.78484931
_cell_length_c   7.58143060
_cell_angle_alpha   75.41375513
_cell_angle_beta   75.41375743
_cell_angle_gamma   31.65349531
_symmetry_Int_Tables_number   1
_chemical_formula_structural   Sr8Co2OsN8
_chemical_formula_sum   'Sr8 Co2 Os1 N8'
_cell_volume   367.64158265
_cell_formula_units_Z   1
loop_
 _symmetry_equiv_pos_site_id
 _symmetry_equiv_pos_as_xyz
  1  'x, y, z'
loop_
 _atom_site_type_symbol
 _atom_site_label
 _atom_site_symmetry_multiplicity
 _atom_site_fract_x
 _atom_site_fract_y
 _atom_site_fract_z
 _atom_site_occupancy
  Sr  Sr0  1  0.979230  0.979230  0.262938  1
  Sr  Sr1  1  0.031908  0.031908  0.741206  1
  Sr  Sr2  1  0.660173  0.660173  0.527646  1
  Sr  Sr3  1  0.331416  0.331416  0.476828  1
  Sr  Sr4  1  0.595180  0.595180  0.038822  1
  Sr  Sr5  1  0.400626  0.400626  0.954637  1
  Sr  Sr6  1  0.202477  0.202477  0.178271  1
  Sr  Sr7  1  0.797807  0.797807  0.799737  1
  Co  Co8  1  0.497647  0.497647  0.507125  1
  Co  Co9  1  0.187589  0.187589  0.788428  1
  Os  Os10  1  0.813393  0.813393  0.206729  1
  N  N11  1  0.897106  0.897106  0.008294  1
  N  N12  1  0.105315  0.105315  0.993341  1
  N  N13  1  0.824178  0.824178  0.441532  1
  N  N14  1  0.177567  0.177567  0.562764  1
  N  N15  1  0.719239  0.719239  0.168435  1
  N  N16  1  0.279298  0.279298  0.832394  1
  N  N17  1  0.476275  0.476275  0.294644  1
  N  N18  1  0.523575  0.523575  0.716231  1
