# generated using pymatgen
data_Tb6GdFeI12
_symmetry_space_group_name_H-M   'P 1'
_cell_length_a   9.71432844
_cell_length_b   9.71432816
_cell_length_c   9.71432800
_cell_angle_alpha   106.89174926
_cell_angle_beta   106.89174875
_cell_angle_gamma   106.89173394
_symmetry_Int_Tables_number   1
_chemical_formula_structural   Tb6GdFeI12
_chemical_formula_sum   'Tb6 Gd1 Fe1 I12'
_cell_volume   765.69939581
_cell_formula_units_Z   1
loop_
 _symmetry_equiv_pos_site_id
 _symmetry_equiv_pos_as_xyz
  1  'x, y, z'
loop_
 _atom_site_type_symbol
 _atom_site_label
 _atom_site_symmetry_multiplicity
 _atom_site_fract_x
 _atom_site_fract_y
 _atom_site_fract_z
 _atom_site_occupancy
  Tb  Tb0  1  0.092882  0.290567  0.023702  1
  Tb  Tb1  1  0.023702  0.092882  0.290567  1
  Tb  Tb2  1  0.290567  0.023702  0.092882  1
  Tb  Tb3  1  0.907118  0.709433  0.976298  1
  Tb  Tb4  1  0.976298  0.907118  0.709433  1
  Tb  Tb5  1  0.709433  0.976298  0.907118  1
  Gd  Gd6  1  0.500000  0.500000  0.500000  1
  Fe  Fe7  1  0.000000  0.000000  0.000000  1
  I  I8  1  0.466599  0.388694  0.159875  1
  I  I9  1  0.159875  0.466599  0.388694  1
  I  I10  1  0.388694  0.159875  0.466599  1
  I  I11  1  0.533401  0.611306  0.840125  1
  I  I12  1  0.840125  0.533401  0.611306  1
  I  I13  1  0.611306  0.840125  0.533401  1
  I  I14  1  0.773325  0.320073  0.927257  1
  I  I15  1  0.927257  0.773325  0.320073  1
  I  I16  1  0.320073  0.927257  0.773325  1
  I  I17  1  0.226675  0.679927  0.072743  1
  I  I18  1  0.072743  0.226675  0.679927  1
  I  I19  1  0.679927  0.072743  0.226675  1
