# generated using pymatgen
data_Er8Tm2Si5Ge
_symmetry_space_group_name_H-M   'P 1'
_cell_length_a   8.37239400
_cell_length_b   8.37239347
_cell_length_c   6.27091400
_cell_angle_alpha   89.99978711
_cell_angle_beta   89.99978086
_cell_angle_gamma   120.01171303
_symmetry_Int_Tables_number   1
_chemical_formula_structural   Er8Tm2Si5Ge
_chemical_formula_sum   'Er8 Tm2 Si5 Ge1'
_cell_volume   380.63567807
_cell_formula_units_Z   1
loop_
 _symmetry_equiv_pos_site_id
 _symmetry_equiv_pos_as_xyz
  1  'x, y, z'
loop_
 _atom_site_type_symbol
 _atom_site_label
 _atom_site_symmetry_multiplicity
 _atom_site_fract_x
 _atom_site_fract_y
 _atom_site_fract_z
 _atom_site_occupancy
  Er  Er0  1  0.667501  0.333183  0.500699  1
  Er  Er1  1  0.333183  0.667501  0.500699  1
  Er  Er2  1  0.758226  0.758226  0.249923  1
  Er  Er3  1  0.242420  0.998743  0.249934  1
  Er  Er4  1  0.998743  0.242420  0.249934  1
  Er  Er5  1  0.242385  0.242385  0.750072  1
  Er  Er6  1  0.757182  0.999913  0.750081  1
  Er  Er7  1  0.999913  0.757182  0.750081  1
  Tm  Tm8  1  0.333175  0.667500  0.999293  1
  Tm  Tm9  1  0.667500  0.333175  0.999293  1
  Si  Si10  1  0.605947  0.999950  0.249814  1
  Si  Si11  1  0.999950  0.605947  0.249814  1
  Si  Si12  1  0.606187  0.606187  0.750186  1
  Si  Si13  1  0.393986  0.000074  0.750188  1
  Si  Si14  1  0.000074  0.393986  0.750188  1
  Ge  Ge15  1  0.393625  0.393625  0.249803  1
