# generated using pymatgen
data_La7Tc3OsC9
_symmetry_space_group_name_H-M   'P 1'
_cell_length_a   6.61346526
_cell_length_b   6.61346549
_cell_length_c   12.11358762
_cell_angle_alpha   71.22016431
_cell_angle_beta   71.22016283
_cell_angle_gamma   48.21827301
_symmetry_Int_Tables_number   1
_chemical_formula_structural   La7Tc3OsC9
_chemical_formula_sum   'La7 Tc3 Os1 C9'
_cell_volume   369.69381156
_cell_formula_units_Z   1
loop_
 _symmetry_equiv_pos_site_id
 _symmetry_equiv_pos_as_xyz
  1  'x, y, z'
loop_
 _atom_site_type_symbol
 _atom_site_label
 _atom_site_symmetry_multiplicity
 _atom_site_fract_x
 _atom_site_fract_y
 _atom_site_fract_z
 _atom_site_occupancy
  La  La0  1  0.372130  0.372130  0.843246  1
  La  La1  1  0.144440  0.144440  0.683125  1
  La  La2  1  0.855219  0.855219  0.316751  1
  La  La3  1  0.137979  0.137979  0.380339  1
  La  La4  1  0.861938  0.861938  0.619479  1
  La  La5  1  0.999746  0.999746  0.000070  1
  La  La6  1  0.626299  0.626299  0.157284  1
  Tc  Tc7  1  0.565875  0.565875  0.569913  1
  Tc  Tc8  1  0.433298  0.433298  0.428910  1
  Tc  Tc9  1  0.641434  0.641434  0.860670  1
  Os  Os10  1  0.357248  0.357248  0.140468  1
  C  C11  1  0.384433  0.384433  0.289324  1
  C  C12  1  0.922706  0.922706  0.818303  1
  C  C13  1  0.393337  0.393337  0.611267  1
  C  C14  1  0.196098  0.196098  0.143567  1
  C  C15  1  0.805291  0.805291  0.857601  1
  C  C16  1  0.499768  0.499768  0.000563  1
  C  C17  1  0.078785  0.078785  0.180718  1
  C  C18  1  0.616805  0.616805  0.709576  1
  C  C19  1  0.607172  0.607172  0.388826  1
