# generated using pymatgen
data_Nd6Ni19As12PPt
_symmetry_space_group_name_H-M   'P 1'
_cell_length_a   13.28012000
_cell_length_b   13.28012012
_cell_length_c   3.97104900
_cell_angle_alpha   90.00000000
_cell_angle_beta   90.00000000
_cell_angle_gamma   119.99999472
_symmetry_Int_Tables_number   1
_chemical_formula_structural   Nd6Ni19As12PPt
_chemical_formula_sum   'Nd6 Ni19 As12 P1 Pt1'
_cell_volume   606.51270593
_cell_formula_units_Z   1
loop_
 _symmetry_equiv_pos_site_id
 _symmetry_equiv_pos_as_xyz
  1  'x, y, z'
loop_
 _atom_site_type_symbol
 _atom_site_label
 _atom_site_symmetry_multiplicity
 _atom_site_fract_x
 _atom_site_fract_y
 _atom_site_fract_z
 _atom_site_occupancy
  Nd  Nd0  1  0.796790  0.947239  0.000000  1
  Nd  Nd1  1  0.052761  0.849553  0.000000  1
  Nd  Nd2  1  0.150447  0.203210  0.000000  1
  Nd  Nd3  1  0.519674  0.132861  0.500000  1
  Nd  Nd4  1  0.867139  0.386813  0.500000  1
  Nd  Nd5  1  0.613187  0.480326  0.500000  1
  Ni  Ni6  1  0.519263  0.770817  0.000000  1
  Ni  Ni7  1  0.229183  0.748445  0.000000  1
  Ni  Ni8  1  0.251555  0.480737  0.000000  1
  Ni  Ni9  1  0.394177  0.799294  0.500000  1
  Ni  Ni10  1  0.200706  0.594882  0.500000  1
  Ni  Ni11  1  0.405118  0.605823  0.500000  1
  Ni  Ni12  1  0.666667  0.333333  0.000000  1
  Ni  Ni13  1  0.770923  0.686198  0.000000  1
  Ni  Ni14  1  0.313802  0.084726  0.000000  1
  Ni  Ni15  1  0.915274  0.229077  0.000000  1
  Ni  Ni16  1  0.638253  0.735558  0.500000  1
  Ni  Ni17  1  0.264442  0.902695  0.500000  1
  Ni  Ni18  1  0.097305  0.361747  0.500000  1
  Ni  Ni19  1  0.359906  0.257875  0.500000  1
  Ni  Ni20  1  0.742125  0.102032  0.500000  1
  Ni  Ni21  1  0.897968  0.640094  0.500000  1
  Ni  Ni22  1  0.576634  0.985924  0.000000  1
  Ni  Ni23  1  0.014076  0.590710  0.000000  1
  Ni  Ni24  1  0.409290  0.423366  0.000000  1
  As  As25  1  0.845642  0.791697  0.500000  1
  As  As26  1  0.208303  0.053944  0.500000  1
  As  As27  1  0.946056  0.154358  0.500000  1
  As  As28  1  0.604127  0.898150  0.500000  1
  As  As29  1  0.101850  0.705976  0.500000  1
  As  As30  1  0.294024  0.395873  0.500000  1
  As  As31  1  0.471581  0.281658  0.000000  1
  As  As32  1  0.718342  0.189923  0.000000  1
  As  As33  1  0.810077  0.528419  0.000000  1
  As  As34  1  0.378546  0.944578  0.000000  1
  As  As35  1  0.055422  0.433967  0.000000  1
  As  As36  1  0.566033  0.621454  0.000000  1
  P  P37  1  0.333333  0.666667  0.000000  1
  Pt  Pt38  1  0.000000  0.000000  0.500000  1
