# generated using pymatgen
data_Dy2Ho18(Bi3Sb)3
_symmetry_space_group_name_H-M   'P 1'
_cell_length_a   8.17251019
_cell_length_b   9.45419000
_cell_length_c   11.95671543
_cell_angle_alpha   90.00000000
_cell_angle_beta   90.04635756
_cell_angle_gamma   90.00000000
_symmetry_Int_Tables_number   1
_chemical_formula_structural   Dy2Ho18(Bi3Sb)3
_chemical_formula_sum   'Dy2 Ho18 Bi9 Sb3'
_cell_volume   923.82890811
_cell_formula_units_Z   1
loop_
 _symmetry_equiv_pos_site_id
 _symmetry_equiv_pos_as_xyz
  1  'x, y, z'
loop_
 _atom_site_type_symbol
 _atom_site_label
 _atom_site_symmetry_multiplicity
 _atom_site_fract_x
 _atom_site_fract_y
 _atom_site_fract_z
 _atom_site_occupancy
  Dy  Dy0  1  0.811442  0.250000  0.278958  1
  Dy  Dy1  1  0.183816  0.750000  0.717910  1
  Ho  Ho2  1  0.352691  0.750000  0.213104  1
  Ho  Ho3  1  0.853062  0.750000  0.286382  1
  Ho  Ho4  1  0.647176  0.250000  0.786633  1
  Ho  Ho5  1  0.148099  0.250000  0.716596  1
  Ho  Ho6  1  0.689196  0.563053  0.057446  1
  Ho  Ho7  1  0.190445  0.933612  0.442434  1
  Ho  Ho8  1  0.310995  0.062652  0.942720  1
  Ho  Ho9  1  0.808323  0.439725  0.559108  1
  Ho  Ho10  1  0.310995  0.437348  0.942720  1
  Ho  Ho11  1  0.808323  0.060275  0.559108  1
  Ho  Ho12  1  0.689196  0.936947  0.057446  1
  Ho  Ho13  1  0.190445  0.566388  0.442434  1
  Ho  Ho14  1  0.475585  0.250000  0.488087  1
  Ho  Ho15  1  0.972910  0.250000  0.011762  1
  Ho  Ho16  1  0.528632  0.750000  0.512581  1
  Ho  Ho17  1  0.027652  0.750000  0.988041  1
  Ho  Ho18  1  0.317997  0.250000  0.216017  1
  Ho  Ho19  1  0.683331  0.750000  0.782312  1
  Bi  Bi20  1  0.092544  0.250000  0.456763  1
  Bi  Bi21  1  0.565271  0.995031  0.325605  1
  Bi  Bi22  1  0.065974  0.504109  0.174321  1
  Bi  Bi23  1  0.434135  0.495454  0.674581  1
  Bi  Bi24  1  0.933897  0.004049  0.825884  1
  Bi  Bi25  1  0.434135  0.004546  0.674581  1
  Bi  Bi26  1  0.933897  0.495951  0.825884  1
  Bi  Bi27  1  0.565271  0.504969  0.325605  1
  Bi  Bi28  1  0.065974  0.995891  0.174321  1
  Sb  Sb29  1  0.407421  0.750000  0.958165  1
  Sb  Sb30  1  0.907858  0.750000  0.541367  1
  Sb  Sb31  1  0.593311  0.250000  0.041124  1
