# generated using pymatgen
data_DyEr6Lu9(In3Co)2
_symmetry_space_group_name_H-M   'P 1'
_cell_length_a   10.18693800
_cell_length_b   10.18693928
_cell_length_c   6.94576600
_cell_angle_alpha   90.00000000
_cell_angle_beta   90.00000000
_cell_angle_gamma   120.00000233
_symmetry_Int_Tables_number   1
_chemical_formula_structural   DyEr6Lu9(In3Co)2
_chemical_formula_sum   'Dy1 Er6 Lu9 In6 Co2'
_cell_volume   624.22067675
_cell_formula_units_Z   1
loop_
 _symmetry_equiv_pos_site_id
 _symmetry_equiv_pos_as_xyz
  1  'x, y, z'
loop_
 _atom_site_type_symbol
 _atom_site_label
 _atom_site_symmetry_multiplicity
 _atom_site_fract_x
 _atom_site_fract_y
 _atom_site_fract_z
 _atom_site_occupancy
  Dy  Dy0  1  0.000000  0.000000  0.001090  1
  Er  Er1  1  0.534317  0.068634  0.512446  1
  Er  Er2  1  0.931366  0.465683  0.512446  1
  Er  Er3  1  0.534317  0.465683  0.512446  1
  Er  Er4  1  0.465612  0.931224  0.012684  1
  Er  Er5  1  0.068776  0.534388  0.012684  1
  Er  Er6  1  0.465612  0.534388  0.012684  1
  Lu  Lu7  1  0.179197  0.358394  0.718315  1
  Lu  Lu8  1  0.641606  0.820803  0.718315  1
  Lu  Lu9  1  0.179197  0.820803  0.718315  1
  Lu  Lu10  1  0.820740  0.641481  0.219664  1
  Lu  Lu11  1  0.358519  0.179260  0.219664  1
  Lu  Lu12  1  0.820740  0.179260  0.219664  1
  Lu  Lu13  1  0.666667  0.333333  0.905117  1
  Lu  Lu14  1  0.333333  0.666667  0.406202  1
  Lu  Lu15  1  0.000000  0.000000  0.500743  1
  In  In16  1  0.836923  0.673845  0.759396  1
  In  In17  1  0.326155  0.163077  0.759396  1
  In  In18  1  0.836923  0.163077  0.759396  1
  In  In19  1  0.163272  0.326544  0.263035  1
  In  In20  1  0.673456  0.836728  0.263035  1
  In  In21  1  0.163272  0.836728  0.263035  1
  Co  Co22  1  0.666667  0.333333  0.286278  1
  Co  Co23  1  0.333333  0.666667  0.788148  1
