# generated using pymatgen
data_DyErPa2Ge6Os7
_symmetry_space_group_name_H-M   'P 1'
_cell_length_a   7.26604289
_cell_length_b   7.26604297
_cell_length_c   7.25336915
_cell_angle_alpha   109.46442916
_cell_angle_beta   109.46442548
_cell_angle_gamma   109.45951702
_symmetry_Int_Tables_number   1
_chemical_formula_structural   DyErPa2Ge6Os7
_chemical_formula_sum   'Dy1 Er1 Pa2 Ge6 Os7'
_cell_volume   294.88269315
_cell_formula_units_Z   1
loop_
 _symmetry_equiv_pos_site_id
 _symmetry_equiv_pos_as_xyz
  1  'x, y, z'
loop_
 _atom_site_type_symbol
 _atom_site_label
 _atom_site_symmetry_multiplicity
 _atom_site_fract_x
 _atom_site_fract_y
 _atom_site_fract_z
 _atom_site_occupancy
  Dy  Dy0  1  0.000000  0.000000  0.500000  1
  Er  Er1  1  0.500000  0.500000  0.500000  1
  Pa  Pa2  1  0.000000  0.500000  0.000000  1
  Pa  Pa3  1  0.500000  0.000000  0.000000  1
  Ge  Ge4  1  0.688535  0.688535  0.999634  1
  Ge  Ge5  1  0.310673  0.004812  0.315099  1
  Ge  Ge6  1  0.004812  0.310673  0.315099  1
  Ge  Ge7  1  0.311465  0.311465  0.000366  1
  Ge  Ge8  1  0.689327  0.995188  0.684901  1
  Ge  Ge9  1  0.995188  0.689327  0.684901  1
  Os  Os10  1  0.749552  0.250448  0.500000  1
  Os  Os11  1  0.750338  0.494286  0.245453  1
  Os  Os12  1  0.505714  0.249662  0.754547  1
  Os  Os13  1  0.249662  0.505714  0.754547  1
  Os  Os14  1  0.250448  0.749552  0.500000  1
  Os  Os15  1  0.494286  0.750338  0.245453  1
  Os  Os16  1  0.000000  0.000000  0.000000  1
