# generated using pymatgen
data_Y17Ho3Ir11Ru
_symmetry_space_group_name_H-M   'P 1'
_cell_length_a   10.91702200
_cell_length_b   10.91670200
_cell_length_c   6.41695700
_cell_angle_alpha   90.00000000
_cell_angle_beta   90.00000000
_cell_angle_gamma   89.99998950
_symmetry_Int_Tables_number   1
_chemical_formula_structural   Y17Ho3Ir11Ru
_chemical_formula_sum   'Y17 Ho3 Ir11 Ru1'
_cell_volume   764.75930501
_cell_formula_units_Z   1
loop_
 _symmetry_equiv_pos_site_id
 _symmetry_equiv_pos_as_xyz
  1  'x, y, z'
loop_
 _atom_site_type_symbol
 _atom_site_label
 _atom_site_symmetry_multiplicity
 _atom_site_fract_x
 _atom_site_fract_y
 _atom_site_fract_z
 _atom_site_occupancy
  Y  Y0  1  0.292124  0.087200  0.377683  1
  Y  Y1  1  0.292560  0.912761  0.880448  1
  Y  Y2  1  0.707440  0.087239  0.880448  1
  Y  Y3  1  0.707876  0.912800  0.377683  1
  Y  Y4  1  0.587263  0.792572  0.880442  1
  Y  Y5  1  0.587280  0.207677  0.377669  1
  Y  Y6  1  0.412720  0.792323  0.377669  1
  Y  Y7  1  0.412737  0.207428  0.880442  1
  Y  Y8  1  0.209012  0.411515  0.621296  1
  Y  Y9  1  0.209164  0.588193  0.120964  1
  Y  Y10  1  0.790836  0.411807  0.120964  1
  Y  Y11  1  0.790988  0.588485  0.621296  1
  Y  Y12  1  0.911836  0.709172  0.120929  1
  Y  Y13  1  0.911602  0.290795  0.621278  1
  Y  Y14  1  0.088398  0.709205  0.621278  1
  Y  Y15  1  0.088164  0.290828  0.120929  1
  Y  Y16  1  0.500000  0.500000  0.499072  1
  Ho  Ho17  1  0.000000  0.000000  0.499100  1
  Ho  Ho18  1  0.000000  0.000000  0.999072  1
  Ho  Ho19  1  0.500000  0.500000  0.999063  1
  Ir  Ir20  1  0.848087  0.152738  0.249850  1
  Ir  Ir21  1  0.848115  0.847664  0.749725  1
  Ir  Ir22  1  0.151885  0.152336  0.749725  1
  Ir  Ir23  1  0.151913  0.847262  0.249850  1
  Ir  Ir24  1  0.652880  0.347528  0.750696  1
  Ir  Ir25  1  0.653333  0.652455  0.248870  1
  Ir  Ir26  1  0.346667  0.347545  0.248870  1
  Ir  Ir27  1  0.347120  0.652472  0.750696  1
  Ir  Ir28  1  0.500000  0.000000  0.625176  1
  Ir  Ir29  1  0.000000  0.500000  0.876017  1
  Ir  Ir30  1  0.000000  0.500000  0.376222  1
  Ru  Ru31  1  0.500000  0.000000  0.126573  1
