# generated using pymatgen
data_La3Pr5MgHgIr2
_symmetry_space_group_name_H-M   'P 1'
_cell_length_a   10.04221466
_cell_length_b   10.10494777
_cell_length_c   10.13638402
_cell_angle_alpha   59.48758705
_cell_angle_beta   60.10047926
_cell_angle_gamma   60.36653607
_symmetry_Int_Tables_number   1
_chemical_formula_structural   La3Pr5MgHgIr2
_chemical_formula_sum   'La6 Pr10 Mg2 Hg2 Ir4'
_cell_volume   726.99090891
_cell_formula_units_Z   2
loop_
 _symmetry_equiv_pos_site_id
 _symmetry_equiv_pos_as_xyz
  1  'x, y, z'
loop_
 _atom_site_type_symbol
 _atom_site_label
 _atom_site_symmetry_multiplicity
 _atom_site_fract_x
 _atom_site_fract_y
 _atom_site_fract_z
 _atom_site_occupancy
  La  La0  1  0.345448  0.347682  0.346566  1
  La  La1  1  0.347682  0.345448  0.960304  1
  La  La2  1  0.349491  0.956331  0.345951  1
  La  La3  1  0.956331  0.349491  0.348227  1
  La  La4  1  0.812406  0.185891  0.188652  1
  La  La5  1  0.185891  0.812406  0.813051  1
  Pr  Pr6  1  0.189715  0.808377  0.191940  1
  Pr  Pr7  1  0.808377  0.189715  0.809968  1
  Pr  Pr8  1  0.188745  0.188745  0.811255  1
  Pr  Pr9  1  0.803890  0.803890  0.196110  1
  Pr  Pr10  1  0.937020  0.561498  0.564681  1
  Pr  Pr11  1  0.561498  0.937020  0.936802  1
  Pr  Pr12  1  0.560423  0.937599  0.562600  1
  Pr  Pr13  1  0.937599  0.560423  0.939379  1
  Pr  Pr14  1  0.560968  0.560968  0.939032  1
  Pr  Pr15  1  0.937288  0.937288  0.562712  1
  Mg  Mg16  1  0.579484  0.272657  0.574798  1
  Mg  Mg17  1  0.272657  0.579484  0.573062  1
  Hg  Hg18  1  0.582337  0.580851  0.587616  1
  Hg  Hg19  1  0.580851  0.582337  0.249197  1
  Ir  Ir20  1  0.136994  0.145059  0.142992  1
  Ir  Ir21  1  0.145059  0.136994  0.574956  1
  Ir  Ir22  1  0.144691  0.575156  0.136336  1
  Ir  Ir23  1  0.575156  0.144691  0.143816  1
