# generated using pymatgen
data_Dy2Ga9Ru2Pt
_symmetry_space_group_name_H-M   'P 1'
_cell_length_a   7.56834755
_cell_length_b   7.56832399
_cell_length_c   9.64509100
_cell_angle_alpha   90.00000000
_cell_angle_beta   90.00000000
_cell_angle_gamma   119.66110835
_symmetry_Int_Tables_number   1
_chemical_formula_structural   Dy2Ga9Ru2Pt
_chemical_formula_sum   'Dy4 Ga18 Ru4 Pt2'
_cell_volume   480.07678878
_cell_formula_units_Z   2
loop_
 _symmetry_equiv_pos_site_id
 _symmetry_equiv_pos_as_xyz
  1  'x, y, z'
loop_
 _atom_site_type_symbol
 _atom_site_label
 _atom_site_symmetry_multiplicity
 _atom_site_fract_x
 _atom_site_fract_y
 _atom_site_fract_z
 _atom_site_occupancy
  Dy  Dy0  1  0.324164  0.001827  0.749994  1
  Dy  Dy1  1  0.675836  0.998173  0.249994  1
  Dy  Dy2  1  0.001828  0.324166  0.750006  1
  Dy  Dy3  1  0.998172  0.675834  0.250006  1
  Ga  Ga4  1  0.859659  0.859659  0.749999  1
  Ga  Ga5  1  0.140341  0.140341  0.249999  1
  Ga  Ga6  1  0.658258  0.658228  0.434718  1
  Ga  Ga7  1  0.341742  0.341772  0.934718  1
  Ga  Ga8  1  0.658230  0.658258  0.065281  1
  Ga  Ga9  1  0.341770  0.341742  0.565281  1
  Ga  Ga10  1  0.445435  0.662842  0.749930  1
  Ga  Ga11  1  0.554565  0.337158  0.249930  1
  Ga  Ga12  1  0.662845  0.445438  0.750070  1
  Ga  Ga13  1  0.337155  0.554562  0.250070  1
  Ga  Ga14  1  0.003802  0.341554  0.080080  1
  Ga  Ga15  1  0.996198  0.658446  0.580080  1
  Ga  Ga16  1  0.341551  0.003802  0.419918  1
  Ga  Ga17  1  0.658449  0.996198  0.919918  1
  Ga  Ga18  1  0.996294  0.658428  0.919935  1
  Ga  Ga19  1  0.003706  0.341572  0.419935  1
  Ga  Ga20  1  0.658429  0.996292  0.580068  1
  Ga  Ga21  1  0.341571  0.003708  0.080068  1
  Ru  Ru22  1  0.673420  0.326586  0.499999  1
  Ru  Ru23  1  0.326580  0.673414  0.999999  1
  Ru  Ru24  1  0.326486  0.673515  0.500000  1
  Ru  Ru25  1  0.673514  0.326485  0.000000  1
  Pt  Pt26  1  0.999985  0.000016  0.500002  1
  Pt  Pt27  1  0.000015  0.999984  0.000002  1
