# generated using pymatgen
data_YCo(Sn2Ru)3
_symmetry_space_group_name_H-M   'P 1'
_cell_length_a   6.87846547
_cell_length_b   6.96043958
_cell_length_c   6.86735244
_cell_angle_alpha   120.49565644
_cell_angle_beta   120.10014239
_cell_angle_gamma   89.92042850
_symmetry_Int_Tables_number   1
_chemical_formula_structural   YCo(Sn2Ru)3
_chemical_formula_sum   'Y1 Co1 Sn6 Ru3'
_cell_volume   230.54218571
_cell_formula_units_Z   1
loop_
 _symmetry_equiv_pos_site_id
 _symmetry_equiv_pos_as_xyz
  1  'x, y, z'
loop_
 _atom_site_type_symbol
 _atom_site_label
 _atom_site_symmetry_multiplicity
 _atom_site_fract_x
 _atom_site_fract_y
 _atom_site_fract_z
 _atom_site_occupancy
  Y  Y0  1  0.985655  0.010504  0.000000  1
  Co  Co1  1  0.252829  0.592483  0.000000  1
  Sn  Sn2  1  0.893120  0.531882  0.000000  1
  Sn  Sn3  1  0.529638  0.879893  0.000000  1
  Sn  Sn4  1  0.120554  0.121251  0.654853  1
  Sn  Sn5  1  0.004674  0.507497  0.514176  1
  Sn  Sn6  1  0.465701  0.466398  0.345147  1
  Sn  Sn7  1  0.490498  0.993321  0.485824  1
  Ru  Ru8  1  0.407229  0.405920  0.660515  1
  Ru  Ru9  1  0.603387  0.245446  0.000000  1
  Ru  Ru10  1  0.746715  0.745405  0.339485  1
