# generated using pymatgen
data_K4Ru2NCl10
_symmetry_space_group_name_H-M   'P 1'
_cell_length_a   7.31007508
_cell_length_b   7.31007513
_cell_length_c   10.08967700
_cell_angle_alpha   111.23876262
_cell_angle_beta   111.23876276
_cell_angle_gamma   89.99999297
_symmetry_Int_Tables_number   1
_chemical_formula_structural   K4Ru2NCl10
_chemical_formula_sum   'K4 Ru2 N1 Cl10'
_cell_volume   463.03563254
_cell_formula_units_Z   1
loop_
 _symmetry_equiv_pos_site_id
 _symmetry_equiv_pos_as_xyz
  1  'x, y, z'
loop_
 _atom_site_type_symbol
 _atom_site_label
 _atom_site_symmetry_multiplicity
 _atom_site_fract_x
 _atom_site_fract_y
 _atom_site_fract_z
 _atom_site_occupancy
  K  K0  1  0.500000  0.000000  0.000000  1
  K  K1  1  0.250000  0.750000  0.500000  1
  K  K2  1  0.750000  0.250000  0.500000  1
  K  K3  1  0.000000  0.500000  0.000000  1
  Ru  Ru4  1  0.897818  0.897818  0.795637  1
  Ru  Ru5  1  0.102182  0.102182  0.204363  1
  N  N6  1  0.000000  0.000000  0.000000  1
  Cl  Cl7  1  0.881259  0.342832  0.224092  1
  Cl  Cl8  1  0.657168  0.118741  0.775908  1
  Cl  Cl9  1  0.118741  0.657168  0.775908  1
  Cl  Cl10  1  0.881259  0.881259  0.224092  1
  Cl  Cl11  1  0.118741  0.118741  0.775908  1
  Cl  Cl12  1  0.757160  0.757160  0.514319  1
  Cl  Cl13  1  0.342832  0.881259  0.224092  1
  Cl  Cl14  1  0.342832  0.342832  0.224092  1
  Cl  Cl15  1  0.242840  0.242840  0.485681  1
  Cl  Cl16  1  0.657168  0.657168  0.775908  1
