# generated using pymatgen
data_Y6Er14Cd3Ni2Au3
_symmetry_space_group_name_H-M   'P 1'
_cell_length_a   9.54759200
_cell_length_b   9.54761316
_cell_length_c   9.46170300
_cell_angle_alpha   90.00002996
_cell_angle_beta   89.99971670
_cell_angle_gamma   120.00093064
_symmetry_Int_Tables_number   1
_chemical_formula_structural   Y6Er14Cd3Ni2Au3
_chemical_formula_sum   'Y6 Er14 Cd3 Ni2 Au3'
_cell_volume   746.93796977
_cell_formula_units_Z   1
loop_
 _symmetry_equiv_pos_site_id
 _symmetry_equiv_pos_as_xyz
  1  'x, y, z'
loop_
 _atom_site_type_symbol
 _atom_site_label
 _atom_site_symmetry_multiplicity
 _atom_site_fract_x
 _atom_site_fract_y
 _atom_site_fract_z
 _atom_site_occupancy
  Y  Y0  1  0.457300  0.542679  0.749176  1
  Y  Y1  1  0.457355  0.914652  0.749172  1
  Y  Y2  1  0.085341  0.542667  0.749173  1
  Y  Y3  1  0.208918  0.791122  0.062883  1
  Y  Y4  1  0.208864  0.417776  0.062903  1
  Y  Y5  1  0.582222  0.791096  0.062905  1
  Er  Er6  1  0.000025  0.999994  0.459098  1
  Er  Er7  1  0.000025  0.999988  0.040558  1
  Er  Er8  1  0.542270  0.457666  0.250545  1
  Er  Er9  1  0.542324  0.084599  0.250547  1
  Er  Er10  1  0.915386  0.457738  0.250552  1
  Er  Er11  1  0.209782  0.790246  0.437127  1
  Er  Er12  1  0.209732  0.419517  0.437105  1
  Er  Er13  1  0.580490  0.790231  0.437100  1
  Er  Er14  1  0.790666  0.209336  0.559439  1
  Er  Er15  1  0.790654  0.581334  0.559450  1
  Er  Er16  1  0.418666  0.209339  0.559446  1
  Er  Er17  1  0.790369  0.209618  0.940253  1
  Er  Er18  1  0.790364  0.580758  0.940251  1
  Er  Er19  1  0.419250  0.209633  0.940250  1
  Cd  Cd20  1  0.109361  0.890645  0.749730  1
  Cd  Cd21  1  0.109346  0.218692  0.749740  1
  Cd  Cd22  1  0.781315  0.890635  0.749738  1
  Ni  Ni23  1  0.333315  0.666674  0.252755  1
  Ni  Ni24  1  0.666667  0.333332  0.749664  1
  Au  Au25  1  0.869327  0.130719  0.250147  1
  Au  Au26  1  0.869252  0.738598  0.250146  1
  Au  Au27  1  0.261416  0.130719  0.250148  1
