# generated using pymatgen
data_YTh2Sn3IrRh2
_symmetry_space_group_name_H-M   'P 1'
_cell_length_a   7.58567916
_cell_length_b   7.58892309
_cell_length_c   4.06603300
_cell_angle_alpha   90.00000000
_cell_angle_beta   90.00000000
_cell_angle_gamma   120.30844334
_symmetry_Int_Tables_number   1
_chemical_formula_structural   YTh2Sn3IrRh2
_chemical_formula_sum   'Y1 Th2 Sn3 Ir1 Rh2'
_cell_volume   202.07748227
_cell_formula_units_Z   1
loop_
 _symmetry_equiv_pos_site_id
 _symmetry_equiv_pos_as_xyz
  1  'x, y, z'
loop_
 _atom_site_type_symbol
 _atom_site_label
 _atom_site_symmetry_multiplicity
 _atom_site_fract_x
 _atom_site_fract_y
 _atom_site_fract_z
 _atom_site_occupancy
  Y  Y0  1  0.591836  0.592908  0.500000  1
  Th  Th1  1  0.412831  0.999203  0.500000  1
  Th  Th2  1  0.001113  0.413572  0.500000  1
  Sn  Sn3  1  0.747109  0.990398  0.000000  1
  Sn  Sn4  1  0.988784  0.746411  0.000000  1
  Sn  Sn5  1  0.262246  0.261499  0.000000  1
  Ir  Ir6  1  0.321926  0.667947  0.000000  1
  Rh  Rh7  1  0.667852  0.321967  0.000000  1
  Rh  Rh8  1  0.006302  0.006096  0.500000  1
