# generated using pymatgen
data_Er4Tm12MgZn3Co4
_symmetry_space_group_name_H-M   'P 1'
_cell_length_a   9.31342906
_cell_length_b   9.27002417
_cell_length_c   9.27002330
_cell_angle_alpha   59.99223006
_cell_angle_beta   60.12483265
_cell_angle_gamma   60.12483021
_symmetry_Int_Tables_number   1
_chemical_formula_structural   Er4Tm12MgZn3Co4
_chemical_formula_sum   'Er4 Tm12 Mg1 Zn3 Co4'
_cell_volume   566.95366536
_cell_formula_units_Z   1
loop_
 _symmetry_equiv_pos_site_id
 _symmetry_equiv_pos_as_xyz
  1  'x, y, z'
loop_
 _atom_site_type_symbol
 _atom_site_label
 _atom_site_symmetry_multiplicity
 _atom_site_fract_x
 _atom_site_fract_y
 _atom_site_fract_z
 _atom_site_occupancy
  Er  Er0  1  0.811217  0.187348  0.814095  1
  Er  Er1  1  0.183342  0.812298  0.192171  1
  Er  Er2  1  0.811217  0.814095  0.187348  1
  Er  Er3  1  0.183342  0.192171  0.812298  1
  Tm  Tm4  1  0.599318  0.596288  0.596288  1
  Tm  Tm5  1  0.599477  0.596166  0.208155  1
  Tm  Tm6  1  0.599477  0.208155  0.596166  1
  Tm  Tm7  1  0.194984  0.601712  0.601712  1
  Tm  Tm8  1  0.058729  0.440617  0.440617  1
  Tm  Tm9  1  0.437690  0.062603  0.062603  1
  Tm  Tm10  1  0.437729  0.062530  0.437128  1
  Tm  Tm11  1  0.058745  0.440668  0.059884  1
  Tm  Tm12  1  0.437729  0.437128  0.062530  1
  Tm  Tm13  1  0.058745  0.059884  0.440668  1
  Tm  Tm14  1  0.183434  0.812167  0.812167  1
  Tm  Tm15  1  0.811205  0.187422  0.187422  1
  Mg  Mg16  1  0.537890  0.820685  0.820685  1
  Zn  Zn17  1  0.835199  0.828526  0.828526  1
  Zn  Zn18  1  0.835091  0.828632  0.507730  1
  Zn  Zn19  1  0.835091  0.507730  0.828632  1
  Co  Co20  1  0.388304  0.393628  0.393628  1
  Co  Co21  1  0.388170  0.393737  0.824433  1
  Co  Co22  1  0.388170  0.824433  0.393737  1
  Co  Co23  1  0.825701  0.391378  0.391378  1
