# generated using pymatgen
data_NdGaSiIrRh
_symmetry_space_group_name_H-M   'P 1'
_cell_length_a   4.16718000
_cell_length_b   4.16718000
_cell_length_c   10.35863400
_cell_angle_alpha   90.00000000
_cell_angle_beta   90.00000000
_cell_angle_gamma   90.00000000
_symmetry_Int_Tables_number   1
_chemical_formula_structural   NdGaSiIrRh
_chemical_formula_sum   'Nd2 Ga2 Si2 Ir2 Rh2'
_cell_volume   179.88171050
_cell_formula_units_Z   2
loop_
 _symmetry_equiv_pos_site_id
 _symmetry_equiv_pos_as_xyz
  1  'x, y, z'
loop_
 _atom_site_type_symbol
 _atom_site_label
 _atom_site_symmetry_multiplicity
 _atom_site_fract_x
 _atom_site_fract_y
 _atom_site_fract_z
 _atom_site_occupancy
  Nd  Nd0  1  0.000000  0.500000  0.248795  1
  Nd  Nd1  1  0.500000  0.000000  0.751205  1
  Ga  Ga2  1  0.000000  0.000000  0.500000  1
  Ga  Ga3  1  0.500000  0.500000  0.500000  1
  Si  Si4  1  0.000000  0.500000  0.876592  1
  Si  Si5  1  0.500000  0.000000  0.123408  1
  Ir  Ir6  1  0.000000  0.000000  0.000000  1
  Ir  Ir7  1  0.500000  0.500000  0.000000  1
  Rh  Rh8  1  0.000000  0.500000  0.644773  1
  Rh  Rh9  1  0.500000  0.000000  0.355227  1
