# generated using pymatgen
data_Ho3Lu5Cd2IrRu
_symmetry_space_group_name_H-M   'P 1'
_cell_length_a   9.49198304
_cell_length_b   9.49198315
_cell_length_c   9.54542900
_cell_angle_alpha   59.81356827
_cell_angle_beta   59.81356791
_cell_angle_gamma   59.65341365
_symmetry_Int_Tables_number   1
_chemical_formula_structural   Ho3Lu5Cd2IrRu
_chemical_formula_sum   'Ho6 Lu10 Cd4 Ir2 Ru2'
_cell_volume   604.81245379
_cell_formula_units_Z   2
loop_
 _symmetry_equiv_pos_site_id
 _symmetry_equiv_pos_as_xyz
  1  'x, y, z'
loop_
 _atom_site_type_symbol
 _atom_site_label
 _atom_site_symmetry_multiplicity
 _atom_site_fract_x
 _atom_site_fract_y
 _atom_site_fract_z
 _atom_site_occupancy
  Ho  Ho0  1  0.189364  0.807782  0.812606  1
  Ho  Ho1  1  0.807782  0.189364  0.190248  1
  Ho  Ho2  1  0.807782  0.189364  0.812606  1
  Ho  Ho3  1  0.189364  0.807782  0.190248  1
  Ho  Ho4  1  0.809092  0.809092  0.190908  1
  Ho  Ho5  1  0.189879  0.189879  0.810121  1
  Lu  Lu6  1  0.598224  0.598224  0.597868  1
  Lu  Lu7  1  0.598224  0.598224  0.205684  1
  Lu  Lu8  1  0.597375  0.210397  0.596114  1
  Lu  Lu9  1  0.210397  0.597375  0.596114  1
  Lu  Lu10  1  0.062993  0.436586  0.439594  1
  Lu  Lu11  1  0.436586  0.062993  0.060826  1
  Lu  Lu12  1  0.436586  0.062993  0.439594  1
  Lu  Lu13  1  0.062993  0.436586  0.060826  1
  Lu  Lu14  1  0.437076  0.437076  0.062924  1
  Lu  Lu15  1  0.060258  0.060258  0.439742  1
  Cd  Cd16  1  0.830392  0.830392  0.830088  1
  Cd  Cd17  1  0.830392  0.830392  0.509128  1
  Cd  Cd18  1  0.830889  0.507136  0.830987  1
  Cd  Cd19  1  0.507136  0.830889  0.830987  1
  Ir  Ir20  1  0.394478  0.827483  0.389020  1
  Ir  Ir21  1  0.827483  0.394478  0.389020  1
  Ru  Ru22  1  0.392628  0.392628  0.387142  1
  Ru  Ru23  1  0.392628  0.392628  0.827603  1
