# generated using pymatgen
data_KLa3Ti4O12
_symmetry_space_group_name_H-M   'P 1'
_cell_length_a   5.58975777
_cell_length_b   5.58975709
_cell_length_c   9.66037604
_cell_angle_alpha   73.19848258
_cell_angle_beta   73.19848287
_cell_angle_gamma   60.22041929
_symmetry_Int_Tables_number   1
_chemical_formula_structural   KLa3Ti4O12
_chemical_formula_sum   'K1 La3 Ti4 O12'
_cell_volume   246.92330306
_cell_formula_units_Z   1
loop_
 _symmetry_equiv_pos_site_id
 _symmetry_equiv_pos_as_xyz
  1  'x, y, z'
loop_
 _atom_site_type_symbol
 _atom_site_label
 _atom_site_symmetry_multiplicity
 _atom_site_fract_x
 _atom_site_fract_y
 _atom_site_fract_z
 _atom_site_occupancy
  K  K0  1  0.625451  0.374549  0.000000  1
  La  La1  1  0.121398  0.878602  0.500000  1
  La  La2  1  0.378118  0.114055  0.763800  1
  La  La3  1  0.885945  0.621882  0.236200  1
  Ti  Ti4  1  0.253567  0.997353  0.122692  1
  Ti  Ti5  1  0.746876  0.501268  0.626565  1
  Ti  Ti6  1  0.002647  0.746433  0.877308  1
  Ti  Ti7  1  0.498732  0.253124  0.373435  1
  O  O8  1  0.950822  0.563424  0.739825  1
  O  O9  1  0.436576  0.049178  0.260175  1
  O  O10  1  0.093531  0.906469  0.000000  1
  O  O11  1  0.554552  0.445448  0.500000  1
  O  O12  1  0.646238  0.899666  0.520006  1
  O  O13  1  0.129170  0.384960  0.012362  1
  O  O14  1  0.615040  0.870830  0.987638  1
  O  O15  1  0.100334  0.353762  0.479994  1
  O  O16  1  0.380971  0.661987  0.752139  1
  O  O17  1  0.889982  0.147962  0.270722  1
  O  O18  1  0.338013  0.619029  0.247861  1
  O  O19  1  0.852038  0.110018  0.729278  1
