# generated using pymatgen
data_Ho2MnFeSi2C
_symmetry_space_group_name_H-M   'P 1'
_cell_length_a   3.93632718
_cell_length_b   5.66085232
_cell_length_c   5.62128812
_cell_angle_alpha   73.51458834
_cell_angle_beta   69.50492790
_cell_angle_gamma   69.65453612
_symmetry_Int_Tables_number   1
_chemical_formula_structural   Ho2MnFeSi2C
_chemical_formula_sum   'Ho2 Mn1 Fe1 Si2 C1'
_cell_volume   108.12193368
_cell_formula_units_Z   1
loop_
 _symmetry_equiv_pos_site_id
 _symmetry_equiv_pos_as_xyz
  1  'x, y, z'
loop_
 _atom_site_type_symbol
 _atom_site_label
 _atom_site_symmetry_multiplicity
 _atom_site_fract_x
 _atom_site_fract_y
 _atom_site_fract_z
 _atom_site_occupancy
  Ho  Ho0  1  0.440343  0.826312  0.293003  1
  Ho  Ho1  1  0.559844  0.172465  0.707846  1
  Mn  Mn2  1  0.798738  0.305893  0.096630  1
  Fe  Fe3  1  0.203102  0.691351  0.902445  1
  Si  Si4  1  0.837827  0.608083  0.716264  1
  Si  Si5  1  0.160144  0.396109  0.283604  1
  C  C6  1  0.000002  0.999788  0.000208  1
