# generated using pymatgen
data_Tb(Y3In2)3
_symmetry_space_group_name_H-M   'P 1'
_cell_length_a   9.17646909
_cell_length_b   9.17646687
_cell_length_c   9.17518285
_cell_angle_alpha   96.41845408
_cell_angle_beta   96.43853360
_cell_angle_gamma   140.90534983
_symmetry_Int_Tables_number   1
_chemical_formula_structural   Tb(Y3In2)3
_chemical_formula_sum   'Tb1 Y9 In6'
_cell_volume   459.12795537
_cell_formula_units_Z   1
loop_
 _symmetry_equiv_pos_site_id
 _symmetry_equiv_pos_as_xyz
  1  'x, y, z'
loop_
 _atom_site_type_symbol
 _atom_site_label
 _atom_site_symmetry_multiplicity
 _atom_site_fract_x
 _atom_site_fract_y
 _atom_site_fract_z
 _atom_site_occupancy
  Tb  Tb0  1  0.082046  0.783402  0.865448  1
  Y  Y1  1  0.716063  0.418058  0.134121  1
  Y  Y2  1  0.283457  0.581970  0.865426  1
  Y  Y3  1  0.581938  0.716354  0.298291  1
  Y  Y4  1  0.216263  0.081873  0.298136  1
  Y  Y5  1  0.917989  0.216280  0.134269  1
  Y  Y6  1  0.750288  0.250221  0.500102  1
  Y  Y7  1  0.249881  0.749814  0.500102  1
  Y  Y8  1  0.783694  0.918344  0.702039  1
  Y  Y9  1  0.418360  0.283728  0.702089  1
  In  In10  1  0.838327  0.661382  0.499710  1
  In  In11  1  0.338699  0.838584  0.177283  1
  In  In12  1  0.749934  0.750191  0.000014  1
  In  In13  1  0.661718  0.161429  0.823147  1
  In  In14  1  0.161522  0.338289  0.499812  1
  In  In15  1  0.249822  0.250079  0.000014  1
