# generated using pymatgen
data_Np2AlReB8
_symmetry_space_group_name_H-M   'P 1'
_cell_length_a   3.57454200
_cell_length_b   5.92940970
_cell_length_c   5.92941056
_cell_angle_alpha   103.98502529
_cell_angle_beta   90.00000000
_cell_angle_gamma   90.00000000
_symmetry_Int_Tables_number   1
_chemical_formula_structural   Np2AlReB8
_chemical_formula_sum   'Np2 Al1 Re1 B8'
_cell_volume   121.94831083
_cell_formula_units_Z   1
loop_
 _symmetry_equiv_pos_site_id
 _symmetry_equiv_pos_as_xyz
  1  'x, y, z'
loop_
 _atom_site_type_symbol
 _atom_site_label
 _atom_site_symmetry_multiplicity
 _atom_site_fract_x
 _atom_site_fract_y
 _atom_site_fract_z
 _atom_site_occupancy
  Np  Np0  1  0.000000  0.302092  0.699134  1
  Np  Np1  1  0.000000  0.699134  0.302092  1
  Al  Al2  1  0.000000  0.816031  0.816031  1
  Re  Re3  1  0.000000  0.172233  0.172233  1
  B  B4  1  0.500000  0.937642  0.617721  1
  B  B5  1  0.500000  0.067109  0.384029  1
  B  B6  1  0.500000  0.617721  0.937642  1
  B  B7  1  0.500000  0.384029  0.067109  1
  B  B8  1  0.500000  0.620208  0.620208  1
  B  B9  1  0.500000  0.377148  0.377148  1
  B  B10  1  0.500000  0.096892  0.909759  1
  B  B11  1  0.500000  0.909759  0.096892  1
