# generated using pymatgen
data_NdHo3CdIr
_symmetry_space_group_name_H-M   'P 1'
_cell_length_a   9.68828978
_cell_length_b   9.68236192
_cell_length_c   9.68236082
_cell_angle_alpha   60.04050846
_cell_angle_beta   59.97974762
_cell_angle_gamma   59.97974506
_symmetry_Int_Tables_number   1
_chemical_formula_structural   NdHo3CdIr
_chemical_formula_sum   'Nd4 Ho12 Cd4 Ir4'
_cell_volume   642.23559946
_cell_formula_units_Z   4
loop_
 _symmetry_equiv_pos_site_id
 _symmetry_equiv_pos_as_xyz
  1  'x, y, z'
loop_
 _atom_site_type_symbol
 _atom_site_label
 _atom_site_symmetry_multiplicity
 _atom_site_fract_x
 _atom_site_fract_y
 _atom_site_fract_z
 _atom_site_occupancy
  Nd  Nd0  1  0.561084  0.938916  0.561084  1
  Nd  Nd1  1  0.938916  0.561084  0.938916  1
  Nd  Nd2  1  0.561084  0.561084  0.938916  1
  Nd  Nd3  1  0.938916  0.938916  0.561084  1
  Ho  Ho4  1  0.347966  0.347934  0.347934  1
  Ho  Ho5  1  0.347934  0.347966  0.956166  1
  Ho  Ho6  1  0.347934  0.956166  0.347966  1
  Ho  Ho7  1  0.956166  0.347934  0.347934  1
  Ho  Ho8  1  0.812631  0.187369  0.187369  1
  Ho  Ho9  1  0.187369  0.812631  0.812631  1
  Ho  Ho10  1  0.188623  0.811377  0.188623  1
  Ho  Ho11  1  0.811377  0.188623  0.811377  1
  Ho  Ho12  1  0.188623  0.188623  0.811377  1
  Ho  Ho13  1  0.811377  0.811377  0.188623  1
  Ho  Ho14  1  0.943455  0.556545  0.556545  1
  Ho  Ho15  1  0.556545  0.943455  0.943455  1
  Cd  Cd16  1  0.582458  0.579046  0.579046  1
  Cd  Cd17  1  0.579046  0.582458  0.259449  1
  Cd  Cd18  1  0.579046  0.259449  0.582458  1
  Cd  Cd19  1  0.259449  0.579046  0.579046  1
  Ir  Ir20  1  0.144297  0.139843  0.139843  1
  Ir  Ir21  1  0.139843  0.144297  0.576016  1
  Ir  Ir22  1  0.139843  0.576016  0.144297  1
  Ir  Ir23  1  0.576016  0.139843  0.139843  1
