# generated using pymatgen
data_PrPa2(GaIr)3
_symmetry_space_group_name_H-M   'P 1'
_cell_length_a   7.24894078
_cell_length_b   7.15072791
_cell_length_c   3.98779900
_cell_angle_alpha   90.00000000
_cell_angle_beta   90.00000000
_cell_angle_gamma   119.55281799
_symmetry_Int_Tables_number   1
_chemical_formula_structural   PrPa2(GaIr)3
_chemical_formula_sum   'Pr1 Pa2 Ga3 Ir3'
_cell_volume   179.81589891
_cell_formula_units_Z   1
loop_
 _symmetry_equiv_pos_site_id
 _symmetry_equiv_pos_as_xyz
  1  'x, y, z'
loop_
 _atom_site_type_symbol
 _atom_site_label
 _atom_site_symmetry_multiplicity
 _atom_site_fract_x
 _atom_site_fract_y
 _atom_site_fract_z
 _atom_site_occupancy
  Pr  Pr0  1  0.000000  0.586992  0.500000  1
  Pa  Pa1  1  0.584914  0.998088  0.500000  1
  Pa  Pa2  1  0.415087  0.413175  0.500000  1
  Ga  Ga3  1  0.230496  0.991249  0.000000  1
  Ga  Ga4  1  0.000000  0.252248  0.000000  1
  Ga  Ga5  1  0.769504  0.760754  0.000000  1
  Ir  Ir6  1  0.631602  0.302107  0.000000  1
  Ir  Ir7  1  0.368398  0.670504  0.000000  1
  Ir  Ir8  1  0.000000  0.024881  0.500000  1
