# generated using pymatgen
data_EuTc2F10
_symmetry_space_group_name_H-M   'P 1'
_cell_length_a   11.01770100
_cell_length_b   5.99576540
_cell_length_c   7.85053100
_cell_angle_alpha   71.79294727
_cell_angle_beta   90.00000000
_cell_angle_gamma   90.00000000
_symmetry_Int_Tables_number   1
_chemical_formula_structural   EuTc2F10
_chemical_formula_sum   'Eu2 Tc4 F20'
_cell_volume   492.63798500
_cell_formula_units_Z   2
loop_
 _symmetry_equiv_pos_site_id
 _symmetry_equiv_pos_as_xyz
  1  'x, y, z'
loop_
 _atom_site_type_symbol
 _atom_site_label
 _atom_site_symmetry_multiplicity
 _atom_site_fract_x
 _atom_site_fract_y
 _atom_site_fract_z
 _atom_site_occupancy
  Eu  Eu0  1  0.757335  0.484212  0.745438  1
  Eu  Eu1  1  0.242665  0.484212  0.245438  1
  Tc  Tc2  1  0.003542  0.085969  0.600490  1
  Tc  Tc3  1  0.502777  0.910742  0.901266  1
  Tc  Tc4  1  0.497223  0.910742  0.401266  1
  Tc  Tc5  1  0.996458  0.085969  0.100490  1
  F  F6  1  0.123320  0.348719  0.523836  1
  F  F7  1  0.621338  0.655220  0.902917  1
  F  F8  1  0.378662  0.655220  0.402917  1
  F  F9  1  0.876680  0.348719  0.023836  1
  F  F10  1  0.868874  0.323110  0.545542  1
  F  F11  1  0.376297  0.675188  0.008688  1
  F  F12  1  0.623703  0.675188  0.508688  1
  F  F13  1  0.131126  0.323110  0.045542  1
  F  F14  1  0.635089  0.140884  0.805092  1
  F  F15  1  0.132500  0.867737  0.676101  1
  F  F16  1  0.867500  0.867737  0.176101  1
  F  F17  1  0.364911  0.140884  0.305092  1
  F  F18  1  0.393178  0.158176  0.888750  1
  F  F19  1  0.882604  0.823957  0.654728  1
  F  F20  1  0.117396  0.823957  0.154728  1
  F  F21  1  0.606822  0.158176  0.388750  1
  F  F22  1  0.969759  0.090990  0.848798  1
  F  F23  1  0.448530  0.905952  0.652893  1
  F  F24  1  0.551470  0.905952  0.152893  1
  F  F25  1  0.030241  0.090990  0.348798  1
