# generated using pymatgen
data_Na3Sr5(In4Au3)4
_symmetry_space_group_name_H-M   'P 1'
_cell_length_a   15.29036800
_cell_length_b   15.29036790
_cell_length_c   4.50762200
_cell_angle_alpha   90.00000000
_cell_angle_beta   90.00000000
_cell_angle_gamma   120.00000023
_symmetry_Int_Tables_number   1
_chemical_formula_structural   Na3Sr5(In4Au3)4
_chemical_formula_sum   'Na3 Sr5 In16 Au12'
_cell_volume   912.67045836
_cell_formula_units_Z   1
loop_
 _symmetry_equiv_pos_site_id
 _symmetry_equiv_pos_as_xyz
  1  'x, y, z'
loop_
 _atom_site_type_symbol
 _atom_site_label
 _atom_site_symmetry_multiplicity
 _atom_site_fract_x
 _atom_site_fract_y
 _atom_site_fract_z
 _atom_site_occupancy
  Na  Na0  1  0.450481  0.000000  0.000000  1
  Na  Na1  1  0.000000  0.450481  0.000000  1
  Na  Na2  1  0.549519  0.549519  0.000000  1
  Sr  Sr3  1  0.333333  0.666667  0.000000  1
  Sr  Sr4  1  0.666667  0.333333  0.000000  1
  Sr  Sr5  1  0.819322  0.000000  0.500000  1
  Sr  Sr6  1  0.000000  0.819322  0.500000  1
  Sr  Sr7  1  0.180678  0.180678  0.500000  1
  In  In8  1  0.180768  0.379546  0.000000  1
  In  In9  1  0.620454  0.801223  0.000000  1
  In  In10  1  0.379546  0.180768  0.000000  1
  In  In11  1  0.198777  0.819232  0.000000  1
  In  In12  1  0.801223  0.620454  0.000000  1
  In  In13  1  0.819232  0.198777  0.000000  1
  In  In14  1  0.285750  0.000000  0.500000  1
  In  In15  1  0.000000  0.285750  0.500000  1
  In  In16  1  0.714250  0.714250  0.500000  1
  In  In17  1  0.354475  0.477391  0.500000  1
  In  In18  1  0.522609  0.877084  0.500000  1
  In  In19  1  0.477391  0.354475  0.500000  1
  In  In20  1  0.122916  0.645525  0.500000  1
  In  In21  1  0.877084  0.522609  0.500000  1
  In  In22  1  0.645525  0.122916  0.500000  1
  In  In23  1  0.000000  0.000000  0.000000  1
  Au  Au24  1  0.172295  0.491986  0.500000  1
  Au  Au25  1  0.508014  0.680310  0.500000  1
  Au  Au26  1  0.491986  0.172295  0.500000  1
  Au  Au27  1  0.319690  0.827705  0.500000  1
  Au  Au28  1  0.680310  0.508014  0.500000  1
  Au  Au29  1  0.827705  0.319690  0.500000  1
  Au  Au30  1  0.177686  0.000000  0.000000  1
  Au  Au31  1  0.000000  0.177686  0.000000  1
  Au  Au32  1  0.822314  0.822314  0.000000  1
  Au  Au33  1  0.653206  0.000000  0.000000  1
  Au  Au34  1  0.000000  0.653206  0.000000  1
  Au  Au35  1  0.346794  0.346794  0.000000  1
