# generated using pymatgen
data_BeNb6Al6Cu5
_symmetry_space_group_name_H-M   'P 1'
_cell_length_a   8.74529600
_cell_length_b   8.73894673
_cell_length_c   8.10427600
_cell_angle_alpha   90.00000000
_cell_angle_beta   90.00000000
_cell_angle_gamma   120.45307946
_symmetry_Int_Tables_number   1
_chemical_formula_structural   BeNb6Al6Cu5
_chemical_formula_sum   'Be2 Nb12 Al12 Cu10'
_cell_volume   533.92163091
_cell_formula_units_Z   2
loop_
 _symmetry_equiv_pos_site_id
 _symmetry_equiv_pos_as_xyz
  1  'x, y, z'
loop_
 _atom_site_type_symbol
 _atom_site_label
 _atom_site_symmetry_multiplicity
 _atom_site_fract_x
 _atom_site_fract_y
 _atom_site_fract_z
 _atom_site_occupancy
  Be  Be0  1  0.000000  0.000000  0.500000  1
  Be  Be1  1  0.000000  0.000000  0.000000  1
  Nb  Nb2  1  0.326206  0.996128  0.067325  1
  Nb  Nb3  1  0.673794  0.003872  0.932675  1
  Nb  Nb4  1  0.995776  0.329603  0.065181  1
  Nb  Nb5  1  0.673794  0.003872  0.567325  1
  Nb  Nb6  1  0.995776  0.329603  0.434819  1
  Nb  Nb7  1  0.004224  0.670397  0.934819  1
  Nb  Nb8  1  0.326206  0.996128  0.432675  1
  Nb  Nb9  1  0.004224  0.670397  0.565181  1
  Nb  Nb10  1  0.667244  0.668672  0.067209  1
  Nb  Nb11  1  0.332756  0.331328  0.932791  1
  Nb  Nb12  1  0.332756  0.331328  0.567209  1
  Nb  Nb13  1  0.667244  0.668672  0.432791  1
  Al  Al14  1  0.842942  0.342918  0.750000  1
  Al  Al15  1  0.157058  0.657082  0.250000  1
  Al  Al16  1  0.340315  0.667134  0.507235  1
  Al  Al17  1  0.659685  0.332866  0.492765  1
  Al  Al18  1  0.659685  0.332866  0.007235  1
  Al  Al19  1  0.340315  0.667134  0.992765  1
  Al  Al20  1  0.182085  0.999584  0.750000  1
  Al  Al21  1  0.817915  0.000416  0.250000  1
  Al  Al22  1  0.007655  0.174304  0.750000  1
  Al  Al23  1  0.992345  0.825696  0.250000  1
  Al  Al24  1  0.823320  0.819244  0.750000  1
  Al  Al25  1  0.176680  0.180756  0.250000  1
  Cu  Cu26  1  0.164290  0.496317  0.750000  1
  Cu  Cu27  1  0.835710  0.503683  0.250000  1
  Cu  Cu28  1  0.506392  0.665290  0.750000  1
  Cu  Cu29  1  0.502223  0.164673  0.750000  1
  Cu  Cu30  1  0.493608  0.334710  0.250000  1
  Cu  Cu31  1  0.497777  0.835327  0.250000  1
  Cu  Cu32  1  0.339188  0.839612  0.750000  1
  Cu  Cu33  1  0.664364  0.499777  0.750000  1
  Cu  Cu34  1  0.660812  0.160388  0.250000  1
  Cu  Cu35  1  0.335636  0.500223  0.250000  1
