# generated using pymatgen
data_TbDy5YRhI12
_symmetry_space_group_name_H-M   'P 1'
_cell_length_a   9.81893635
_cell_length_b   9.81619487
_cell_length_c   9.81492429
_cell_angle_alpha   106.91552769
_cell_angle_beta   106.93283611
_cell_angle_gamma   106.93092995
_symmetry_Int_Tables_number   1
_chemical_formula_structural   TbDy5YRhI12
_chemical_formula_sum   'Tb1 Dy5 Y1 Rh1 I12'
_cell_volume   789.41983314
_cell_formula_units_Z   1
loop_
 _symmetry_equiv_pos_site_id
 _symmetry_equiv_pos_as_xyz
  1  'x, y, z'
loop_
 _atom_site_type_symbol
 _atom_site_label
 _atom_site_symmetry_multiplicity
 _atom_site_fract_x
 _atom_site_fract_y
 _atom_site_fract_z
 _atom_site_occupancy
  Tb  Tb0  1  0.296287  0.094998  0.023097  1
  Dy  Dy1  1  0.905213  0.976946  0.704730  1
  Dy  Dy2  1  0.976801  0.704719  0.905513  1
  Dy  Dy3  1  0.704981  0.905573  0.977030  1
  Dy  Dy4  1  0.094271  0.022901  0.295187  1
  Dy  Dy5  1  0.022769  0.295145  0.094477  1
  Y  Y6  1  0.499960  0.500013  0.500029  1
  Rh  Rh7  1  0.999642  0.999821  0.999925  1
  I  I8  1  0.535861  0.837447  0.612903  1
  I  I9  1  0.837473  0.612942  0.535860  1
  I  I10  1  0.612942  0.535845  0.837457  1
  I  I11  1  0.464177  0.162511  0.387431  1
  I  I12  1  0.162507  0.387069  0.464148  1
  I  I13  1  0.387019  0.464570  0.162633  1
  I  I14  1  0.676454  0.224338  0.070657  1
  I  I15  1  0.223951  0.070493  0.675606  1
  I  I16  1  0.070563  0.676039  0.224174  1
  I  I17  1  0.323853  0.775203  0.929260  1
  I  I18  1  0.775830  0.929457  0.324047  1
  I  I19  1  0.929444  0.323971  0.775835  1
