# generated using pymatgen
data_Y2LuSc3Bi2Ir
_symmetry_space_group_name_H-M   'P 1'
_cell_length_a   7.95220600
_cell_length_b   8.00880543
_cell_length_c   4.18066300
_cell_angle_alpha   90.00000000
_cell_angle_beta   90.00000000
_cell_angle_gamma   119.76649464
_symmetry_Int_Tables_number   1
_chemical_formula_structural   Y2LuSc3Bi2Ir
_chemical_formula_sum   'Y2 Lu1 Sc3 Bi2 Ir1'
_cell_volume   231.12569541
_cell_formula_units_Z   1
loop_
 _symmetry_equiv_pos_site_id
 _symmetry_equiv_pos_as_xyz
  1  'x, y, z'
loop_
 _atom_site_type_symbol
 _atom_site_label
 _atom_site_symmetry_multiplicity
 _atom_site_fract_x
 _atom_site_fract_y
 _atom_site_fract_z
 _atom_site_occupancy
  Y  Y0  1  0.000808  0.613141  0.000000  1
  Y  Y1  1  0.387667  0.386859  0.000000  1
  Lu  Lu2  1  0.619612  0.000000  0.000000  1
  Sc  Sc3  1  0.226241  0.000000  0.500000  1
  Sc  Sc4  1  0.001975  0.227568  0.500000  1
  Sc  Sc5  1  0.774407  0.772432  0.500000  1
  Bi  Bi6  1  0.336896  0.669712  0.500000  1
  Bi  Bi7  1  0.667186  0.330288  0.500000  1
  Ir  Ir8  1  0.985209  0.000000  0.000000  1
