# generated using pymatgen
data_Tb2Dy2Cd2Cu3Ni
_symmetry_space_group_name_H-M   'P 1'
_cell_length_a   7.54671857
_cell_length_b   7.54671967
_cell_length_c   3.70767900
_cell_angle_alpha   90.00000000
_cell_angle_beta   90.00000000
_cell_angle_gamma   89.12426182
_symmetry_Int_Tables_number   1
_chemical_formula_structural   Tb2Dy2Cd2Cu3Ni
_chemical_formula_sum   'Tb2 Dy2 Cd2 Cu3 Ni1'
_cell_volume   211.13866377
_cell_formula_units_Z   1
loop_
 _symmetry_equiv_pos_site_id
 _symmetry_equiv_pos_as_xyz
  1  'x, y, z'
loop_
 _atom_site_type_symbol
 _atom_site_label
 _atom_site_symmetry_multiplicity
 _atom_site_fract_x
 _atom_site_fract_y
 _atom_site_fract_z
 _atom_site_occupancy
  Tb  Tb0  1  0.182217  0.317783  0.500000  1
  Tb  Tb1  1  0.828088  0.671912  0.500000  1
  Dy  Dy2  1  0.662046  0.176337  0.500000  1
  Dy  Dy3  1  0.323663  0.837954  0.500000  1
  Cd  Cd4  1  0.997983  0.000489  0.000000  1
  Cd  Cd5  1  0.499511  0.502017  0.000000  1
  Cu  Cu6  1  0.121451  0.617170  0.000000  1
  Cu  Cu7  1  0.882830  0.378549  0.000000  1
  Cu  Cu8  1  0.619486  0.880514  0.000000  1
  Ni  Ni9  1  0.382723  0.117277  0.000000  1
