# generated using pymatgen
data_ScS23
_symmetry_space_group_name_H-M   'P 1'
_cell_length_a   5.45556065
_cell_length_b   9.35382023
_cell_length_c   15.89152000
_cell_angle_alpha   82.42591985
_cell_angle_beta   85.98404661
_cell_angle_gamma   91.36398717
_symmetry_Int_Tables_number   1
_chemical_formula_structural   ScS23
_chemical_formula_sum   'Sc1 S23'
_cell_volume   801.45279356
_cell_formula_units_Z   1
loop_
 _symmetry_equiv_pos_site_id
 _symmetry_equiv_pos_as_xyz
  1  'x, y, z'
loop_
 _atom_site_type_symbol
 _atom_site_label
 _atom_site_symmetry_multiplicity
 _atom_site_fract_x
 _atom_site_fract_y
 _atom_site_fract_z
 _atom_site_occupancy
  Sc  Sc0  1  0.615300  0.170357  0.431358  1
  S  S1  1  0.735484  0.930535  0.395247  1
  S  S2  1  0.018148  0.308030  0.101344  1
  S  S3  1  0.785775  0.220826  0.563417  1
  S  S4  1  0.461912  0.895787  0.491142  1
  S  S5  1  0.178067  0.284054  0.982745  1
  S  S6  1  0.810152  0.737975  0.026520  1
  S  S7  1  0.133787  0.194542  0.382150  1
  S  S8  1  0.612873  0.400522  0.317655  1
  S  S9  1  0.849053  0.113551  0.153701  1
  S  S10  1  0.274846  0.873290  0.119646  1
  S  S11  1  0.706683  0.647841  0.631168  1
  S  S12  1  0.298659  0.439536  0.562687  1
  S  S13  1  0.155672  0.900261  0.858169  1
  S  S14  1  0.726553  0.141276  0.885184  1
  S  S15  1  0.063571  0.688518  0.115513  1
  S  S16  1  0.614881  0.858747  0.610470  1
  S  S17  1  0.412251  0.224725  0.584422  1
  S  S18  1  0.968244  0.710238  0.908183  1
  S  S19  1  0.923045  0.329611  0.893826  1
  S  S20  1  0.248192  0.382878  0.310539  1
  S  S21  1  0.111701  0.986147  0.210427  1
  S  S22  1  0.383556  0.526691  0.668663  1
  S  S23  1  0.911592  0.034061  0.795824  1
