# generated using pymatgen
data_Lu5Ni19
_symmetry_space_group_name_H-M   'P 1'
_cell_length_a   4.83135259
_cell_length_b   4.83135278
_cell_length_c   16.26924946
_cell_angle_alpha   81.46108189
_cell_angle_beta   81.46108207
_cell_angle_gamma   59.99999548
_symmetry_Int_Tables_number   1
_chemical_formula_structural   Lu5Ni19
_chemical_formula_sum   'Lu5 Ni19'
_cell_volume   324.00876224
_cell_formula_units_Z   1
loop_
 _symmetry_equiv_pos_site_id
 _symmetry_equiv_pos_as_xyz
  1  'x, y, z'
loop_
 _atom_site_type_symbol
 _atom_site_label
 _atom_site_symmetry_multiplicity
 _atom_site_fract_x
 _atom_site_fract_y
 _atom_site_fract_z
 _atom_site_occupancy
  Lu  Lu0  1  0.000000  0.000000  0.000000  1
  Lu  Lu1  1  0.921805  0.921805  0.234586  1
  Lu  Lu2  1  0.078195  0.078195  0.765414  1
  Lu  Lu3  1  0.848131  0.848131  0.455607  1
  Lu  Lu4  1  0.151869  0.151869  0.544393  1
  Ni  Ni5  1  0.500000  0.500000  0.500000  1
  Ni  Ni6  1  0.749405  0.749406  0.751785  1
  Ni  Ni7  1  0.250594  0.250594  0.248216  1
  Ni  Ni8  1  0.666677  0.666677  0.999971  1
  Ni  Ni9  1  0.333323  0.333323  0.000029  1
  Ni  Ni10  1  0.583999  0.583999  0.248003  1
  Ni  Ni11  1  0.416001  0.416001  0.751997  1
  Ni  Ni12  1  0.375182  0.375182  0.372036  1
  Ni  Ni13  1  0.877598  0.375182  0.372036  1
  Ni  Ni14  1  0.375182  0.877598  0.372036  1
  Ni  Ni15  1  0.624818  0.624818  0.627964  1
  Ni  Ni16  1  0.122402  0.624818  0.627964  1
  Ni  Ni17  1  0.624818  0.122402  0.627964  1
  Ni  Ni18  1  0.459066  0.459066  0.123246  1
  Ni  Ni19  1  0.958623  0.459066  0.123246  1
  Ni  Ni20  1  0.459066  0.958623  0.123246  1
  Ni  Ni21  1  0.540934  0.540934  0.876754  1
  Ni  Ni22  1  0.041377  0.540934  0.876754  1
  Ni  Ni23  1  0.540934  0.041377  0.876754  1
