# generated using pymatgen
data_Cs6SnMoS8
_symmetry_space_group_name_H-M   'P 1'
_cell_length_a   10.05159500
_cell_length_b   10.13807600
_cell_length_c   11.77753600
_cell_angle_alpha   90.00000000
_cell_angle_beta   90.00000000
_cell_angle_gamma   90.00000000
_symmetry_Int_Tables_number   1
_chemical_formula_structural   Cs6SnMoS8
_chemical_formula_sum   'Cs12 Sn2 Mo2 S16'
_cell_volume   1200.17607384
_cell_formula_units_Z   2
loop_
 _symmetry_equiv_pos_site_id
 _symmetry_equiv_pos_as_xyz
  1  'x, y, z'
loop_
 _atom_site_type_symbol
 _atom_site_label
 _atom_site_symmetry_multiplicity
 _atom_site_fract_x
 _atom_site_fract_y
 _atom_site_fract_z
 _atom_site_occupancy
  Cs  Cs0  1  0.546018  0.209330  0.055622  1
  Cs  Cs1  1  0.046018  0.290670  0.444378  1
  Cs  Cs2  1  0.453074  0.795984  0.526205  1
  Cs  Cs3  1  0.953074  0.704016  0.973795  1
  Cs  Cs4  1  0.453074  0.795984  0.973795  1
  Cs  Cs5  1  0.953074  0.704016  0.526205  1
  Cs  Cs6  1  0.546018  0.209330  0.444378  1
  Cs  Cs7  1  0.046018  0.290670  0.055622  1
  Cs  Cs8  1  0.649885  0.421870  0.750000  1
  Cs  Cs9  1  0.149885  0.078130  0.750000  1
  Cs  Cs10  1  0.355510  0.583302  0.250000  1
  Cs  Cs11  1  0.855510  0.916698  0.250000  1
  Sn  Sn12  1  0.273991  0.017257  0.250000  1
  Sn  Sn13  1  0.773991  0.482743  0.250000  1
  Mo  Mo14  1  0.721688  0.984361  0.750000  1
  Mo  Mo15  1  0.221688  0.515639  0.750000  1
  S  S16  1  0.829775  0.048567  0.597682  1
  S  S17  1  0.329775  0.451433  0.902318  1
  S  S18  1  0.160403  0.955632  0.075114  1
  S  S19  1  0.660403  0.544368  0.424886  1
  S  S20  1  0.160403  0.955632  0.424886  1
  S  S21  1  0.660403  0.544368  0.075114  1
  S  S22  1  0.829775  0.048567  0.902318  1
  S  S23  1  0.329775  0.451433  0.597682  1
  S  S24  1  0.519049  0.071075  0.750000  1
  S  S25  1  0.019049  0.428925  0.750000  1
  S  S26  1  0.495551  0.922264  0.250000  1
  S  S27  1  0.995551  0.577736  0.250000  1
  S  S28  1  0.709302  0.767001  0.750000  1
  S  S29  1  0.209302  0.732999  0.750000  1
  S  S30  1  0.296483  0.255900  0.250000  1
  S  S31  1  0.796483  0.244100  0.250000  1
