# generated using pymatgen
data_Ta12Cr3Co5(AsN)4
_symmetry_space_group_name_H-M   'P 1'
_cell_length_a   8.08300056
_cell_length_b   8.08300103
_cell_length_c   8.08300046
_cell_angle_alpha   59.86463063
_cell_angle_beta   59.86463041
_cell_angle_gamma   59.86462592
_symmetry_Int_Tables_number   1
_chemical_formula_structural   Ta12Cr3Co5(AsN)4
_chemical_formula_sum   'Ta12 Cr3 Co5 As4 N4'
_cell_volume   372.27744812
_cell_formula_units_Z   1
loop_
 _symmetry_equiv_pos_site_id
 _symmetry_equiv_pos_as_xyz
  1  'x, y, z'
loop_
 _atom_site_type_symbol
 _atom_site_label
 _atom_site_symmetry_multiplicity
 _atom_site_fract_x
 _atom_site_fract_y
 _atom_site_fract_z
 _atom_site_occupancy
  Ta  Ta0  1  0.803637  0.803637  0.195189  1
  Ta  Ta1  1  0.195497  0.195497  0.805134  1
  Ta  Ta2  1  0.803637  0.195189  0.803637  1
  Ta  Ta3  1  0.195497  0.805134  0.195497  1
  Ta  Ta4  1  0.195189  0.803637  0.803637  1
  Ta  Ta5  1  0.805134  0.195497  0.195497  1
  Ta  Ta6  1  0.442942  0.442942  0.053049  1
  Ta  Ta7  1  0.058668  0.058668  0.442865  1
  Ta  Ta8  1  0.442942  0.053049  0.442942  1
  Ta  Ta9  1  0.058668  0.442865  0.058668  1
  Ta  Ta10  1  0.053049  0.442942  0.442942  1
  Ta  Ta11  1  0.442865  0.058668  0.058668  1
  Cr  Cr12  1  0.743730  0.418966  0.418966  1
  Cr  Cr13  1  0.418966  0.743730  0.418966  1
  Cr  Cr14  1  0.418966  0.418966  0.743730  1
  Co  Co15  1  0.416296  0.416296  0.416296  1
  Co  Co16  1  0.486780  0.838864  0.838864  1
  Co  Co17  1  0.838864  0.486780  0.838864  1
  Co  Co18  1  0.838864  0.838864  0.486780  1
  Co  Co19  1  0.836004  0.836004  0.836004  1
  As  As20  1  0.113100  0.629127  0.629127  1
  As  As21  1  0.629127  0.113100  0.629127  1
  As  As22  1  0.629127  0.629127  0.113100  1
  As  As23  1  0.629871  0.629871  0.629871  1
  N  N24  1  0.623941  0.126777  0.126777  1
  N  N25  1  0.126777  0.623941  0.126777  1
  N  N26  1  0.126777  0.126777  0.623941  1
  N  N27  1  0.125084  0.125084  0.125084  1
