# generated using pymatgen
data_Rb4Si2AgAu6
_symmetry_space_group_name_H-M   'P 1'
_cell_length_a   10.15539012
_cell_length_b   10.15539011
_cell_length_c   10.15539052
_cell_angle_alpha   38.17344116
_cell_angle_beta   38.17344331
_cell_angle_gamma   38.17344053
_symmetry_Int_Tables_number   1
_chemical_formula_structural   Rb4Si2AgAu6
_chemical_formula_sum   'Rb4 Si2 Ag1 Au6'
_cell_volume   359.22958172
_cell_formula_units_Z   1
loop_
 _symmetry_equiv_pos_site_id
 _symmetry_equiv_pos_as_xyz
  1  'x, y, z'
loop_
 _atom_site_type_symbol
 _atom_site_label
 _atom_site_symmetry_multiplicity
 _atom_site_fract_x
 _atom_site_fract_y
 _atom_site_fract_z
 _atom_site_occupancy
  Rb  Rb0  1  0.682778  0.682778  0.682778  1
  Rb  Rb1  1  0.317222  0.317222  0.317222  1
  Rb  Rb2  1  0.808684  0.808684  0.808684  1
  Rb  Rb3  1  0.191316  0.191316  0.191316  1
  Si  Si4  1  0.544836  0.544836  0.544836  1
  Si  Si5  1  0.455164  0.455164  0.455164  1
  Ag  Ag6  1  0.000000  0.000000  0.000000  1
  Au  Au7  1  0.227696  0.227696  0.797714  1
  Au  Au8  1  0.797714  0.227696  0.227696  1
  Au  Au9  1  0.227696  0.797714  0.227696  1
  Au  Au10  1  0.772304  0.202286  0.772304  1
  Au  Au11  1  0.772304  0.772304  0.202286  1
  Au  Au12  1  0.202286  0.772304  0.772304  1
