# generated using pymatgen
data_Tb3Tm(MoO6)2
_symmetry_space_group_name_H-M   'P 1'
_cell_length_a   9.96506368
_cell_length_b   9.96506335
_cell_length_c   5.39753333
_cell_angle_alpha   74.91661375
_cell_angle_beta   74.91661568
_cell_angle_gamma   68.08246660
_symmetry_Int_Tables_number   1
_chemical_formula_structural   Tb3Tm(MoO6)2
_chemical_formula_sum   'Tb6 Tm2 Mo4 O24'
_cell_volume   472.09244396
_cell_formula_units_Z   2
loop_
 _symmetry_equiv_pos_site_id
 _symmetry_equiv_pos_as_xyz
  1  'x, y, z'
loop_
 _atom_site_type_symbol
 _atom_site_label
 _atom_site_symmetry_multiplicity
 _atom_site_fract_x
 _atom_site_fract_y
 _atom_site_fract_z
 _atom_site_occupancy
  Tb  Tb0  1  0.551319  0.783403  0.622356  1
  Tb  Tb1  1  0.783403  0.551319  0.122356  1
  Tb  Tb2  1  0.448681  0.216597  0.377644  1
  Tb  Tb3  1  0.216597  0.448681  0.877644  1
  Tb  Tb4  1  0.862936  0.137064  0.250000  1
  Tb  Tb5  1  0.137064  0.862936  0.750000  1
  Tm  Tm6  1  0.396007  0.603993  0.250000  1
  Tm  Tm7  1  0.603993  0.396007  0.750000  1
  Mo  Mo8  1  0.296189  0.011798  0.062177  1
  Mo  Mo9  1  0.988202  0.703811  0.437823  1
  Mo  Mo10  1  0.703811  0.988202  0.937823  1
  Mo  Mo11  1  0.011798  0.296189  0.562177  1
  O  O12  1  0.607932  0.570305  0.923159  1
  O  O13  1  0.429695  0.392068  0.576841  1
  O  O14  1  0.392068  0.429695  0.076841  1
  O  O15  1  0.570305  0.607932  0.423159  1
  O  O16  1  0.337829  0.804966  0.926665  1
  O  O17  1  0.195034  0.662171  0.573335  1
  O  O18  1  0.662171  0.195034  0.073335  1
  O  O19  1  0.804966  0.337829  0.426665  1
  O  O20  1  0.326659  0.885818  0.375023  1
  O  O21  1  0.114182  0.673341  0.124977  1
  O  O22  1  0.673341  0.114182  0.624977  1
  O  O23  1  0.885818  0.326659  0.875023  1
  O  O24  1  0.184291  0.289376  0.634732  1
  O  O25  1  0.710624  0.815709  0.865268  1
  O  O26  1  0.815709  0.710624  0.365268  1
  O  O27  1  0.289376  0.184291  0.134732  1
  O  O28  1  0.048631  0.111260  0.513111  1
  O  O29  1  0.888740  0.951369  0.986889  1
  O  O30  1  0.431728  0.024028  0.756300  1
  O  O31  1  0.111260  0.048631  0.013111  1
  O  O32  1  0.024028  0.431728  0.256300  1
  O  O33  1  0.568272  0.975972  0.243700  1
  O  O34  1  0.975972  0.568272  0.743700  1
  O  O35  1  0.951369  0.888740  0.486889  1
