# generated using pymatgen
data_Pr5Th5(Bi3Se)2
_symmetry_space_group_name_H-M   'P 1'
_cell_length_a   9.63632661
_cell_length_b   9.63632601
_cell_length_c   6.78281800
_cell_angle_alpha   90.00000000
_cell_angle_beta   90.00000000
_cell_angle_gamma   120.16179513
_symmetry_Int_Tables_number   1
_chemical_formula_structural   Pr5Th5(Bi3Se)2
_chemical_formula_sum   'Pr5 Th5 Bi6 Se2'
_cell_volume   544.56964007
_cell_formula_units_Z   1
loop_
 _symmetry_equiv_pos_site_id
 _symmetry_equiv_pos_as_xyz
  1  'x, y, z'
loop_
 _atom_site_type_symbol
 _atom_site_label
 _atom_site_symmetry_multiplicity
 _atom_site_fract_x
 _atom_site_fract_y
 _atom_site_fract_z
 _atom_site_occupancy
  Pr  Pr0  1  0.259085  0.999315  0.750000  1
  Pr  Pr1  1  0.999315  0.259085  0.750000  1
  Pr  Pr2  1  0.258226  0.258226  0.250000  1
  Pr  Pr3  1  0.739204  0.999314  0.250000  1
  Pr  Pr4  1  0.999314  0.739204  0.250000  1
  Th  Th5  1  0.667607  0.336217  0.999214  1
  Th  Th6  1  0.336217  0.667607  0.999214  1
  Th  Th7  1  0.336217  0.667607  0.500786  1
  Th  Th8  1  0.667607  0.336217  0.500786  1
  Th  Th9  1  0.741791  0.741791  0.750000  1
  Bi  Bi10  1  0.390588  0.390588  0.750000  1
  Bi  Bi11  1  0.609444  0.000965  0.750000  1
  Bi  Bi12  1  0.000965  0.609444  0.750000  1
  Bi  Bi13  1  0.609119  0.609119  0.250000  1
  Bi  Bi14  1  0.390970  0.000121  0.250000  1
  Bi  Bi15  1  0.000121  0.390970  0.250000  1
  Se  Se16  1  0.997105  0.997105  0.999031  1
  Se  Se17  1  0.997105  0.997105  0.500969  1
