# generated using pymatgen
data_Nb7Fe8Si14W
_symmetry_space_group_name_H-M   'P 1'
_cell_length_a   9.26115150
_cell_length_b   9.26115246
_cell_length_c   9.24826202
_cell_angle_alpha   94.18961845
_cell_angle_beta   94.18962441
_cell_angle_gamma   148.65914834
_symmetry_Int_Tables_number   1
_chemical_formula_structural   Nb7Fe8Si14W
_chemical_formula_sum   'Nb7 Fe8 Si14 W1'
_cell_volume   397.19438098
_cell_formula_units_Z   1
loop_
 _symmetry_equiv_pos_site_id
 _symmetry_equiv_pos_as_xyz
  1  'x, y, z'
loop_
 _atom_site_type_symbol
 _atom_site_label
 _atom_site_symmetry_multiplicity
 _atom_site_fract_x
 _atom_site_fract_y
 _atom_site_fract_z
 _atom_site_occupancy
  Nb  Nb0  1  0.865348  0.865348  0.730697  1
  Nb  Nb1  1  0.864517  0.133846  0.998363  1
  Nb  Nb2  1  0.133846  0.864517  0.998363  1
  Nb  Nb3  1  0.501858  0.691505  0.193362  1
  Nb  Nb4  1  0.499318  0.309295  0.808613  1
  Nb  Nb5  1  0.309295  0.499318  0.808613  1
  Nb  Nb6  1  0.691505  0.501858  0.193362  1
  Fe  Fe7  1  0.399387  0.899387  0.798775  1
  Fe  Fe8  1  0.101183  0.601183  0.202365  1
  Fe  Fe9  1  0.100242  0.900477  0.498623  1
  Fe  Fe10  1  0.398381  0.598146  0.498623  1
  Fe  Fe11  1  0.598146  0.398381  0.498623  1
  Fe  Fe12  1  0.900477  0.100242  0.498623  1
  Fe  Fe13  1  0.899387  0.399387  0.798775  1
  Fe  Fe14  1  0.601183  0.101183  0.202365  1
  Si  Si15  1  0.290385  0.290385  0.580770  1
  Si  Si16  1  0.709193  0.709193  0.418384  1
  Si  Si17  1  0.708225  0.291911  0.000136  1
  Si  Si18  1  0.291911  0.708225  0.000136  1
  Si  Si19  1  0.002554  0.294149  0.296704  1
  Si  Si20  1  0.998304  0.702247  0.700552  1
  Si  Si21  1  0.702247  0.998304  0.700552  1
  Si  Si22  1  0.294149  0.002554  0.296704  1
  Si  Si23  1  0.502180  0.906446  0.408626  1
  Si  Si24  1  0.498183  0.094520  0.592703  1
  Si  Si25  1  0.094520  0.498183  0.592703  1
  Si  Si26  1  0.906446  0.502180  0.408626  1
  Si  Si27  1  0.752636  0.752636  0.002635  1
  Si  Si28  1  0.249998  0.249998  0.002635  1
  W  W29  1  0.134994  0.134994  0.269988  1
