# generated using pymatgen
data_LaCuPF
_symmetry_space_group_name_H-M   'P 1'
_cell_length_a   5.55700643
_cell_length_b   5.56068400
_cell_length_c   10.24465109
_cell_angle_alpha   90.00000000
_cell_angle_beta   122.71798863
_cell_angle_gamma   90.00000000
_symmetry_Int_Tables_number   1
_chemical_formula_structural   LaCuPF
_chemical_formula_sum   'La4 Cu4 P4 F4'
_cell_volume   266.34123290
_cell_formula_units_Z   4
loop_
 _symmetry_equiv_pos_site_id
 _symmetry_equiv_pos_as_xyz
  1  'x, y, z'
loop_
 _atom_site_type_symbol
 _atom_site_label
 _atom_site_symmetry_multiplicity
 _atom_site_fract_x
 _atom_site_fract_y
 _atom_site_fract_z
 _atom_site_occupancy
  La  La0  1  0.693800  0.237046  0.193149  1
  La  La1  1  0.194751  0.737892  0.194148  1
  La  La2  1  0.805249  0.237892  0.805852  1
  La  La3  1  0.306200  0.737045  0.806851  1
  Cu  Cu4  1  0.249413  0.486564  0.499862  1
  Cu  Cu5  1  0.752702  0.485271  0.500388  1
  Cu  Cu6  1  0.247298  0.985270  0.499612  1
  Cu  Cu7  1  0.750587  0.986566  0.500138  1
  P  P8  1  0.835730  0.736106  0.335987  1
  P  P9  1  0.336863  0.237032  0.336830  1
  P  P10  1  0.663137  0.737031  0.663170  1
  P  P11  1  0.164270  0.236106  0.664013  1
  F  F12  1  0.752288  0.990552  0.999928  1
  F  F13  1  0.247712  0.490551  0.000072  1
  F  F14  1  0.252265  0.989515  0.999811  1
  F  F15  1  0.747735  0.489516  0.000189  1
