# generated using pymatgen
data_Yb3VN3
_symmetry_space_group_name_H-M   'P 1'
_cell_length_a   6.63960767
_cell_length_b   6.63960716
_cell_length_c   5.03148200
_cell_angle_alpha   90.00000000
_cell_angle_beta   90.00000000
_cell_angle_gamma   101.25243531
_symmetry_Int_Tables_number   1
_chemical_formula_structural   Yb3VN3
_chemical_formula_sum   'Yb6 V2 N6'
_cell_volume   217.54594523
_cell_formula_units_Z   2
loop_
 _symmetry_equiv_pos_site_id
 _symmetry_equiv_pos_as_xyz
  1  'x, y, z'
loop_
 _atom_site_type_symbol
 _atom_site_label
 _atom_site_symmetry_multiplicity
 _atom_site_fract_x
 _atom_site_fract_y
 _atom_site_fract_z
 _atom_site_occupancy
  Yb  Yb0  1  0.597858  0.828100  0.250000  1
  Yb  Yb1  1  0.402142  0.171900  0.750000  1
  Yb  Yb2  1  0.891240  0.108760  0.750000  1
  Yb  Yb3  1  0.108760  0.891240  0.250000  1
  Yb  Yb4  1  0.828100  0.597858  0.750000  1
  Yb  Yb5  1  0.171900  0.402142  0.250000  1
  V  V6  1  0.303378  0.696622  0.750000  1
  V  V7  1  0.696622  0.303378  0.250000  1
  N  N8  1  0.819567  0.573199  0.250000  1
  N  N9  1  0.180433  0.426801  0.750000  1
  N  N10  1  0.874114  0.125886  0.250000  1
  N  N11  1  0.125886  0.874114  0.750000  1
  N  N12  1  0.426801  0.180433  0.250000  1
  N  N13  1  0.573199  0.819567  0.750000  1
