# generated using pymatgen
data_Rb4Li2ScInSb4
_symmetry_space_group_name_H-M   'P 1'
_cell_length_a   11.05268036
_cell_length_b   11.05267983
_cell_length_c   7.02522100
_cell_angle_alpha   90.00000000
_cell_angle_beta   90.00000000
_cell_angle_gamma   101.55909664
_symmetry_Int_Tables_number   1
_chemical_formula_structural   Rb4Li2ScInSb4
_chemical_formula_sum   'Rb8 Li4 Sc2 In2 Sb8'
_cell_volume   840.80739288
_cell_formula_units_Z   2
loop_
 _symmetry_equiv_pos_site_id
 _symmetry_equiv_pos_as_xyz
  1  'x, y, z'
loop_
 _atom_site_type_symbol
 _atom_site_label
 _atom_site_symmetry_multiplicity
 _atom_site_fract_x
 _atom_site_fract_y
 _atom_site_fract_z
 _atom_site_occupancy
  Rb  Rb0  1  0.574949  0.925051  0.750000  1
  Rb  Rb1  1  0.925051  0.574949  0.250000  1
  Rb  Rb2  1  0.424078  0.075922  0.250000  1
  Rb  Rb3  1  0.075922  0.424078  0.750000  1
  Rb  Rb4  1  0.671708  0.326276  0.774191  1
  Rb  Rb5  1  0.828292  0.173724  0.274191  1
  Rb  Rb6  1  0.326276  0.671708  0.225809  1
  Rb  Rb7  1  0.173724  0.828292  0.725809  1
  Li  Li8  1  0.621018  0.621018  0.000000  1
  Li  Li9  1  0.878982  0.878982  0.500000  1
  Li  Li10  1  0.378542  0.378542  0.000000  1
  Li  Li11  1  0.121458  0.121458  0.500000  1
  Sc  Sc12  1  0.873012  0.873012  0.000000  1
  Sc  Sc13  1  0.626988  0.626988  0.500000  1
  In  In14  1  0.128946  0.128946  0.000000  1
  In  In15  1  0.371054  0.371054  0.500000  1
  Sb  Sb16  1  0.347459  0.152541  0.750000  1
  Sb  Sb17  1  0.152541  0.347459  0.250000  1
  Sb  Sb18  1  0.660052  0.839948  0.250000  1
  Sb  Sb19  1  0.839948  0.660052  0.750000  1
  Sb  Sb20  1  0.904146  0.093164  0.767929  1
  Sb  Sb21  1  0.595854  0.406836  0.267929  1
  Sb  Sb22  1  0.093164  0.904146  0.232071  1
  Sb  Sb23  1  0.406836  0.595854  0.732071  1
