# generated using pymatgen
data_Gd2Dy2Ho(SiB4)2
_symmetry_space_group_name_H-M   'P 1'
_cell_length_a   7.24954806
_cell_length_b   7.24834708
_cell_length_c   8.14416306
_cell_angle_alpha   89.98866948
_cell_angle_beta   90.00728041
_cell_angle_gamma   90.01285229
_symmetry_Int_Tables_number   1
_chemical_formula_structural   Gd2Dy2Ho(SiB4)2
_chemical_formula_sum   'Gd4 Dy4 Ho2 Si4 B16'
_cell_volume   427.95327237
_cell_formula_units_Z   2
loop_
 _symmetry_equiv_pos_site_id
 _symmetry_equiv_pos_as_xyz
  1  'x, y, z'
loop_
 _atom_site_type_symbol
 _atom_site_label
 _atom_site_symmetry_multiplicity
 _atom_site_fract_x
 _atom_site_fract_y
 _atom_site_fract_z
 _atom_site_occupancy
  Gd  Gd0  1  0.819251  0.680716  0.774142  1
  Gd  Gd1  1  0.680437  0.180307  0.774372  1
  Gd  Gd2  1  0.180449  0.319637  0.774316  1
  Gd  Gd3  1  0.180695  0.319377  0.226302  1
  Dy  Dy4  1  0.680488  0.180335  0.222974  1
  Dy  Dy5  1  0.319758  0.819704  0.777475  1
  Dy  Dy6  1  0.319681  0.819554  0.223149  1
  Dy  Dy7  1  0.819534  0.680477  0.223513  1
  Ho  Ho8  1  0.000033  0.999724  0.499598  1
  Ho  Ho9  1  0.499792  0.500302  0.499618  1
  Si  Si10  1  0.115280  0.616195  0.498679  1
  Si  Si11  1  0.884750  0.385787  0.498461  1
  Si  Si12  1  0.385125  0.113707  0.498577  1
  Si  Si13  1  0.614841  0.884143  0.498307  1
  B  B14  1  0.172390  0.038736  0.000788  1
  B  B15  1  0.827593  0.960566  0.000423  1
  B  B16  1  0.960735  0.172117  0.000661  1
  B  B17  1  0.327658  0.539620  0.000819  1
  B  B18  1  0.039296  0.827335  0.000589  1
  B  B19  1  0.672454  0.461038  0.000410  1
  B  B20  1  0.539155  0.672651  0.000633  1
  B  B21  1  0.461021  0.327878  0.000577  1
  B  B22  1  0.090011  0.590242  0.000782  1
  B  B23  1  0.909819  0.410060  0.000702  1
  B  B24  1  0.410070  0.089704  0.000732  1
  B  B25  1  0.589752  0.910029  0.000639  1
  B  B26  1  0.999558  0.999500  0.161678  1
  B  B27  1  0.000327  0.999732  0.839710  1
  B  B28  1  0.499681  0.500575  0.839707  1
  B  B29  1  0.500366  0.500254  0.161666  1
