# generated using pymatgen
data_TmLu3(CrB4)4
_symmetry_space_group_name_H-M   'P 1'
_cell_length_a   3.39313400
_cell_length_b   5.88031751
_cell_length_c   11.35500525
_cell_angle_alpha   89.98094910
_cell_angle_beta   90.00000000
_cell_angle_gamma   90.00000000
_symmetry_Int_Tables_number   1
_chemical_formula_structural   TmLu3(CrB4)4
_chemical_formula_sum   'Tm1 Lu3 Cr4 B16'
_cell_volume   226.56306046
_cell_formula_units_Z   1
loop_
 _symmetry_equiv_pos_site_id
 _symmetry_equiv_pos_as_xyz
  1  'x, y, z'
loop_
 _atom_site_type_symbol
 _atom_site_label
 _atom_site_symmetry_multiplicity
 _atom_site_fract_x
 _atom_site_fract_y
 _atom_site_fract_z
 _atom_site_occupancy
  Tm  Tm0  1  0.000000  0.625370  0.349298  1
  Lu  Lu1  1  0.000000  0.374469  0.650566  1
  Lu  Lu2  1  0.000000  0.125542  0.150533  1
  Lu  Lu3  1  0.000000  0.874670  0.849443  1
  Cr  Cr4  1  0.000000  0.624893  0.080962  1
  Cr  Cr5  1  0.000000  0.375225  0.919095  1
  Cr  Cr6  1  0.000000  0.124840  0.418841  1
  Cr  Cr7  1  0.000000  0.874699  0.581166  1
  B  B8  1  0.500000  0.783880  0.184563  1
  B  B9  1  0.500000  0.216434  0.815242  1
  B  B10  1  0.500000  0.283081  0.315026  1
  B  B11  1  0.500000  0.716227  0.684815  1
  B  B12  1  0.500000  0.864715  0.032266  1
  B  B13  1  0.500000  0.135538  0.967962  1
  B  B14  1  0.500000  0.364039  0.467902  1
  B  B15  1  0.500000  0.635505  0.532329  1
  B  B16  1  0.500000  0.886141  0.452607  1
  B  B17  1  0.500000  0.114075  0.547578  1
  B  B18  1  0.500000  0.385881  0.047599  1
  B  B19  1  0.500000  0.614257  0.952555  1
  B  B20  1  0.500000  0.976404  0.307109  1
  B  B21  1  0.500000  0.024110  0.692822  1
  B  B22  1  0.500000  0.475853  0.192496  1
  B  B23  1  0.500000  0.524152  0.807225  1
