# generated using pymatgen
data_Ho16Er4Si15Hg
_symmetry_space_group_name_H-M   'P 1'
_cell_length_a   7.40317942
_cell_length_b   7.67060897
_cell_length_c   14.57987302
_cell_angle_alpha   89.95131151
_cell_angle_beta   89.25743738
_cell_angle_gamma   90.11316414
_symmetry_Int_Tables_number   1
_chemical_formula_structural   Ho16Er4Si15Hg
_chemical_formula_sum   'Ho16 Er4 Si15 Hg1'
_cell_volume   827.87424578
_cell_formula_units_Z   1
loop_
 _symmetry_equiv_pos_site_id
 _symmetry_equiv_pos_as_xyz
  1  'x, y, z'
loop_
 _atom_site_type_symbol
 _atom_site_label
 _atom_site_symmetry_multiplicity
 _atom_site_fract_x
 _atom_site_fract_y
 _atom_site_fract_z
 _atom_site_occupancy
  Ho  Ho0  1  0.977819  0.823492  0.102084  1
  Ho  Ho1  1  0.471951  0.684274  0.401241  1
  Ho  Ho2  1  0.517130  0.311967  0.898799  1
  Ho  Ho3  1  0.029959  0.182112  0.598039  1
  Ho  Ho4  1  0.027019  0.176117  0.899878  1
  Ho  Ho5  1  0.529344  0.315961  0.598178  1
  Ho  Ho6  1  0.476092  0.682797  0.101277  1
  Ho  Ho7  1  0.970067  0.816485  0.400541  1
  Ho  Ho8  1  0.672006  0.830595  0.873502  1
  Ho  Ho9  1  0.182121  0.679813  0.621486  1
  Ho  Ho10  1  0.823093  0.320298  0.126614  1
  Ho  Ho11  1  0.318934  0.178198  0.377838  1
  Ho  Ho12  1  0.324125  0.176695  0.124480  1
  Ho  Ho13  1  0.819922  0.321162  0.377462  1
  Ho  Ho14  1  0.181164  0.675527  0.876871  1
  Ho  Ho15  1  0.681722  0.822427  0.621678  1
  Er  Er16  1  0.649691  0.990644  0.250392  1
  Er  Er17  1  0.152382  0.510979  0.248506  1
  Er  Er18  1  0.848103  0.489593  0.747783  1
  Er  Er19  1  0.347706  0.011502  0.749475  1
  Si  Si20  1  0.769125  0.630029  0.252339  1
  Si  Si21  1  0.269085  0.871742  0.252110  1
  Si  Si22  1  0.732699  0.128001  0.747656  1
  Si  Si23  1  0.229027  0.371840  0.747322  1
  Si  Si24  1  0.023325  0.103961  0.252152  1
  Si  Si25  1  0.523894  0.395054  0.252758  1
  Si  Si26  1  0.476233  0.604694  0.747380  1
  Si  Si27  1  0.976833  0.891977  0.747449  1
  Si  Si28  1  0.354391  0.971637  0.540704  1
  Si  Si29  1  0.653346  0.029832  0.041364  1
  Si  Si30  1  0.147226  0.470455  0.459910  1
  Si  Si31  1  0.162515  0.469339  0.042610  1
  Si  Si32  1  0.646712  0.028483  0.458633  1
  Si  Si33  1  0.347305  0.967874  0.961375  1
  Si  Si34  1  0.854517  0.530271  0.539381  1
  Hg  Hg35  1  0.833412  0.534174  0.960735  1
