# generated using pymatgen
data_Ho2Tm6Al3Si8Ge
_symmetry_space_group_name_H-M   'P 1'
_cell_length_a   5.53366205
_cell_length_b   5.53366369
_cell_length_c   19.35902435
_cell_angle_alpha   81.85138715
_cell_angle_beta   81.85138439
_cell_angle_gamma   42.66144952
_symmetry_Int_Tables_number   1
_chemical_formula_structural   Ho2Tm6Al3Si8Ge
_chemical_formula_sum   'Ho2 Tm6 Al3 Si8 Ge1'
_cell_volume   397.04245505
_cell_formula_units_Z   1
loop_
 _symmetry_equiv_pos_site_id
 _symmetry_equiv_pos_as_xyz
  1  'x, y, z'
loop_
 _atom_site_type_symbol
 _atom_site_label
 _atom_site_symmetry_multiplicity
 _atom_site_fract_x
 _atom_site_fract_y
 _atom_site_fract_z
 _atom_site_occupancy
  Ho  Ho0  1  0.297878  0.297878  0.070938  1
  Ho  Ho1  1  0.537975  0.537975  0.323878  1
  Tm  Tm2  1  0.461771  0.461771  0.676252  1
  Tm  Tm3  1  0.702712  0.702712  0.927894  1
  Tm  Tm4  1  0.975078  0.975078  0.179635  1
  Tm  Tm5  1  0.216972  0.216972  0.428618  1
  Tm  Tm6  1  0.782400  0.782400  0.572393  1
  Tm  Tm7  1  0.025138  0.025138  0.820213  1
  Al  Al8  1  0.256399  0.256399  0.252476  1
  Al  Al9  1  0.499486  0.499486  0.500462  1
  Al  Al10  1  0.744259  0.744259  0.747313  1
  Si  Si11  1  0.171537  0.171537  0.676183  1
  Si  Si12  1  0.415724  0.415724  0.922164  1
  Si  Si13  1  0.688431  0.688431  0.180121  1
  Si  Si14  1  0.927812  0.927812  0.428812  1
  Si  Si15  1  0.071052  0.071052  0.572203  1
  Si  Si16  1  0.311463  0.311463  0.819442  1
  Si  Si17  1  0.584782  0.584782  0.076908  1
  Si  Si18  1  0.827793  0.827793  0.324431  1
  Ge  Ge19  1  0.001338  0.001338  0.999663  1
