# generated using pymatgen
data_Tl13Cd5
_symmetry_space_group_name_H-M   'P 1'
_cell_length_a   17.10535549
_cell_length_b   17.10535537
_cell_length_c   7.66392900
_cell_angle_alpha   95.06599350
_cell_angle_beta   95.06599346
_cell_angle_gamma   14.34502726
_symmetry_Int_Tables_number   1
_chemical_formula_structural   Tl13Cd5
_chemical_formula_sum   'Tl13 Cd5'
_cell_volume   553.37664202
_cell_formula_units_Z   1
loop_
 _symmetry_equiv_pos_site_id
 _symmetry_equiv_pos_as_xyz
  1  'x, y, z'
loop_
 _atom_site_type_symbol
 _atom_site_label
 _atom_site_symmetry_multiplicity
 _atom_site_fract_x
 _atom_site_fract_y
 _atom_site_fract_z
 _atom_site_occupancy
  Tl  Tl0  1  0.114795  0.114795  0.086441  1
  Tl  Tl1  1  0.221281  0.221281  0.120978  1
  Tl  Tl2  1  0.337096  0.337096  0.173700  1
  Tl  Tl3  1  0.445431  0.445431  0.200030  1
  Tl  Tl4  1  0.557104  0.557104  0.294702  1
  Tl  Tl5  1  0.780997  0.780997  0.403861  1
  Tl  Tl6  1  0.000000  0.000000  0.500000  1
  Tl  Tl7  1  0.219003  0.219003  0.596140  1
  Tl  Tl8  1  0.442896  0.442896  0.705298  1
  Tl  Tl9  1  0.554569  0.554569  0.799969  1
  Tl  Tl10  1  0.662903  0.662903  0.826300  1
  Tl  Tl11  1  0.778718  0.778718  0.879021  1
  Tl  Tl12  1  0.885206  0.885206  0.913560  1
  Cd  Cd13  1  0.000000  0.000000  0.000000  1
  Cd  Cd14  1  0.664888  0.664888  0.352459  1
  Cd  Cd15  1  0.887407  0.887407  0.438430  1
  Cd  Cd16  1  0.112593  0.112593  0.561571  1
  Cd  Cd17  1  0.335112  0.335112  0.647541  1
