# generated using pymatgen
data_Ba3SrFe4(P2O7)4
_symmetry_space_group_name_H-M   'P 1'
_cell_length_a   5.58347297
_cell_length_b   8.51625690
_cell_length_c   13.05922004
_cell_angle_alpha   89.46937155
_cell_angle_beta   89.07319478
_cell_angle_gamma   90.19118688
_symmetry_Int_Tables_number   1
_chemical_formula_structural   Ba3SrFe4(P2O7)4
_chemical_formula_sum   'Ba3 Sr1 Fe4 P8 O28'
_cell_volume   620.85806282
_cell_formula_units_Z   1
loop_
 _symmetry_equiv_pos_site_id
 _symmetry_equiv_pos_as_xyz
  1  'x, y, z'
loop_
 _atom_site_type_symbol
 _atom_site_label
 _atom_site_symmetry_multiplicity
 _atom_site_fract_x
 _atom_site_fract_y
 _atom_site_fract_z
 _atom_site_occupancy
  Ba  Ba0  1  0.219247  0.356192  0.216808  1
  Ba  Ba1  1  0.280378  0.856073  0.283387  1
  Ba  Ba2  1  0.778773  0.645655  0.780005  1
  Sr  Sr3  1  0.711492  0.149113  0.719073  1
  Fe  Fe4  1  0.185162  0.342475  0.890288  1
  Fe  Fe5  1  0.684954  0.156242  0.395389  1
  Fe  Fe6  1  0.811058  0.657712  0.107283  1
  Fe  Fe7  1  0.315676  0.843301  0.609674  1
  P  P8  1  0.244769  0.959579  0.835340  1
  P  P9  1  0.744563  0.546494  0.339895  1
  P  P10  1  0.755452  0.047620  0.161439  1
  P  P11  1  0.255819  0.446225  0.662297  1
  P  P12  1  0.686686  0.308510  0.015282  1
  P  P13  1  0.189210  0.189755  0.519643  1
  P  P14  1  0.307997  0.693762  0.980640  1
  P  P15  1  0.814231  0.806824  0.484542  1
  O  O16  1  0.802960  0.322473  0.908000  1
  O  O17  1  0.298412  0.174625  0.411128  1
  O  O18  1  0.192725  0.677854  0.087979  1
  O  O19  1  0.696866  0.818843  0.591246  1
  O  O20  1  0.414662  0.332730  0.018260  1
  O  O21  1  0.916731  0.163522  0.527224  1
  O  O22  1  0.581042  0.673393  0.978566  1
  O  O23  1  0.086787  0.829834  0.482702  1
  O  O24  1  0.506413  0.411567  0.701603  1
  O  O25  1  0.009424  0.075471  0.197740  1
  O  O26  1  0.491905  0.574780  0.302164  1
  O  O27  1  0.991426  0.941610  0.794756  1
  O  O28  1  0.321811  0.129933  0.852125  1
  O  O29  1  0.804778  0.372867  0.356211  1
  O  O30  1  0.692991  0.873993  0.147455  1
  O  O31  1  0.204895  0.621858  0.649909  1
  O  O32  1  0.251234  0.874356  0.947224  1
  O  O33  1  0.764242  0.625993  0.451897  1
  O  O34  1  0.735165  0.127206  0.048572  1
  O  O35  1  0.238202  0.372584  0.548566  1
  O  O36  1  0.436249  0.880712  0.766406  1
  O  O37  1  0.935376  0.622531  0.268165  1
  O  O38  1  0.566727  0.124099  0.232770  1
  O  O39  1  0.057441  0.368976  0.730090  1
  O  O40  1  0.811036  0.412972  0.095088  1
  O  O41  1  0.326016  0.089117  0.598623  1
  O  O42  1  0.186611  0.588264  0.900711  1
  O  O43  1  0.692401  0.912301  0.403833  1
