# generated using pymatgen
data_Ca3Y(Al3Pd)6
_symmetry_space_group_name_H-M   'P 1'
_cell_length_a   7.66380071
_cell_length_b   7.66051073
_cell_length_c   9.52270400
_cell_angle_alpha   90.00000000
_cell_angle_beta   90.00000000
_cell_angle_gamma   119.58748607
_symmetry_Int_Tables_number   1
_chemical_formula_structural   Ca3Y(Al3Pd)6
_chemical_formula_sum   'Ca3 Y1 Al18 Pd6'
_cell_volume   486.16438183
_cell_formula_units_Z   1
loop_
 _symmetry_equiv_pos_site_id
 _symmetry_equiv_pos_as_xyz
  1  'x, y, z'
loop_
 _atom_site_type_symbol
 _atom_site_label
 _atom_site_symmetry_multiplicity
 _atom_site_fract_x
 _atom_site_fract_y
 _atom_site_fract_z
 _atom_site_occupancy
  Ca  Ca0  1  0.994969  0.669212  0.250000  1
  Ca  Ca1  1  0.004008  0.330431  0.750000  1
  Ca  Ca2  1  0.670783  0.996334  0.250000  1
  Y  Y3  1  0.330623  0.003288  0.750000  1
  Al  Al4  1  0.132241  0.132033  0.250000  1
  Al  Al5  1  0.871495  0.869259  0.750000  1
  Al  Al6  1  0.001133  0.334689  0.074734  1
  Al  Al7  1  0.999298  0.665207  0.922836  1
  Al  Al8  1  0.999298  0.665207  0.577164  1
  Al  Al9  1  0.334516  0.000525  0.425160  1
  Al  Al10  1  0.001133  0.334689  0.425266  1
  Al  Al11  1  0.665635  0.999590  0.576883  1
  Al  Al12  1  0.665635  0.999590  0.923117  1
  Al  Al13  1  0.334516  0.000525  0.074840  1
  Al  Al14  1  0.333173  0.332723  0.558162  1
  Al  Al15  1  0.666160  0.666194  0.445249  1
  Al  Al16  1  0.666160  0.666194  0.054751  1
  Al  Al17  1  0.333173  0.332723  0.941838  1
  Al  Al18  1  0.339130  0.545309  0.250000  1
  Al  Al19  1  0.657135  0.453038  0.750000  1
  Al  Al20  1  0.543349  0.339212  0.250000  1
  Al  Al21  1  0.456486  0.664197  0.750000  1
  Pd  Pd22  1  0.670918  0.328090  0.999506  1
  Pd  Pd23  1  0.328434  0.671635  0.999128  1
  Pd  Pd24  1  0.328434  0.671635  0.500872  1
  Pd  Pd25  1  0.670918  0.328090  0.500494  1
  Pd  Pd26  1  0.000625  0.000191  0.999320  1
  Pd  Pd27  1  0.000625  0.000191  0.500680  1
