# generated using pymatgen
data_Ho2Sc8Bi5Pb
_symmetry_space_group_name_H-M   'P 1'
_cell_length_a   7.87826100
_cell_length_b   9.07420274
_cell_length_c   11.55324194
_cell_angle_alpha   90.04621233
_cell_angle_beta   90.00000000
_cell_angle_gamma   90.00000000
_symmetry_Int_Tables_number   1
_chemical_formula_structural   Ho2Sc8Bi5Pb
_chemical_formula_sum   'Ho4 Sc16 Bi10 Pb2'
_cell_volume   825.92872270
_cell_formula_units_Z   2
loop_
 _symmetry_equiv_pos_site_id
 _symmetry_equiv_pos_as_xyz
  1  'x, y, z'
loop_
 _atom_site_type_symbol
 _atom_site_label
 _atom_site_symmetry_multiplicity
 _atom_site_fract_x
 _atom_site_fract_y
 _atom_site_fract_z
 _atom_site_occupancy
  Ho  Ho0  1  0.314041  0.251679  0.218877  1
  Ho  Ho1  1  0.814041  0.248321  0.281123  1
  Ho  Ho2  1  0.684828  0.749617  0.781205  1
  Ho  Ho3  1  0.184828  0.750383  0.718795  1
  Sc  Sc4  1  0.346845  0.749764  0.222279  1
  Sc  Sc5  1  0.846845  0.750236  0.277721  1
  Sc  Sc6  1  0.652993  0.250895  0.779389  1
  Sc  Sc7  1  0.152993  0.249105  0.720611  1
  Sc  Sc8  1  0.695244  0.566123  0.062377  1
  Sc  Sc9  1  0.195244  0.933877  0.437623  1
  Sc  Sc10  1  0.307667  0.066862  0.937505  1
  Sc  Sc11  1  0.807667  0.433138  0.562495  1
  Sc  Sc12  1  0.307165  0.432399  0.937351  1
  Sc  Sc13  1  0.807165  0.067601  0.562649  1
  Sc  Sc14  1  0.692321  0.933005  0.063550  1
  Sc  Sc15  1  0.192321  0.566995  0.436450  1
  Sc  Sc16  1  0.484204  0.247549  0.488615  1
  Sc  Sc17  1  0.984204  0.252451  0.011385  1
  Sc  Sc18  1  0.517056  0.751441  0.508769  1
  Sc  Sc19  1  0.017056  0.748559  0.991231  1
  Bi  Bi20  1  0.402201  0.749287  0.967405  1
  Bi  Bi21  1  0.902201  0.750713  0.532595  1
  Bi  Bi22  1  0.597807  0.249725  0.033520  1
  Bi  Bi23  1  0.097807  0.250275  0.466480  1
  Bi  Bi24  1  0.437038  0.490510  0.671034  1
  Bi  Bi25  1  0.937038  0.009490  0.828966  1
  Bi  Bi26  1  0.437878  0.009297  0.672701  1
  Bi  Bi27  1  0.937878  0.490703  0.827299  1
  Bi  Bi28  1  0.562051  0.508558  0.328459  1
  Bi  Bi29  1  0.062051  0.991442  0.171541  1
  Pb  Pb30  1  0.560661  0.991255  0.326906  1
  Pb  Pb31  1  0.060661  0.508745  0.173094  1
