# generated using pymatgen
data_LuSc3Al15(SiIr2)3
_symmetry_space_group_name_H-M   'P 1'
_cell_length_a   7.47038000
_cell_length_b   7.47476287
_cell_length_c   9.16322500
_cell_angle_alpha   90.00000000
_cell_angle_beta   90.00000000
_cell_angle_gamma   119.75375548
_symmetry_Int_Tables_number   1
_chemical_formula_structural   LuSc3Al15(SiIr2)3
_chemical_formula_sum   'Lu1 Sc3 Al15 Si3 Ir6'
_cell_volume   444.21312028
_cell_formula_units_Z   1
loop_
 _symmetry_equiv_pos_site_id
 _symmetry_equiv_pos_as_xyz
  1  'x, y, z'
loop_
 _atom_site_type_symbol
 _atom_site_label
 _atom_site_symmetry_multiplicity
 _atom_site_fract_x
 _atom_site_fract_y
 _atom_site_fract_z
 _atom_site_occupancy
  Lu  Lu0  1  0.667589  0.989523  0.250000  1
  Sc  Sc1  1  0.999190  0.674647  0.250000  1
  Sc  Sc2  1  0.004281  0.323742  0.750000  1
  Sc  Sc3  1  0.325879  0.005766  0.750000  1
  Al  Al4  1  0.998936  0.336078  0.076803  1
  Al  Al5  1  0.004911  0.665065  0.921635  1
  Al  Al6  1  0.004911  0.665065  0.578365  1
  Al  Al7  1  0.333991  0.002027  0.424141  1
  Al  Al8  1  0.998936  0.336078  0.423197  1
  Al  Al9  1  0.663210  0.001754  0.580798  1
  Al  Al10  1  0.663210  0.001754  0.919202  1
  Al  Al11  1  0.333991  0.002027  0.075859  1
  Al  Al12  1  0.333275  0.333054  0.568324  1
  Al  Al13  1  0.669311  0.664233  0.439915  1
  Al  Al14  1  0.669311  0.664233  0.060085  1
  Al  Al15  1  0.333275  0.333054  0.931676  1
  Al  Al16  1  0.667665  0.450899  0.750000  1
  Al  Al17  1  0.551606  0.340392  0.250000  1
  Al  Al18  1  0.442877  0.665368  0.750000  1
  Si  Si19  1  0.122587  0.125997  0.250000  1
  Si  Si20  1  0.873202  0.872635  0.750000  1
  Si  Si21  1  0.332751  0.542682  0.250000  1
  Ir  Ir22  1  0.672268  0.328664  0.000222  1
  Ir  Ir23  1  0.330174  0.671428  0.008219  1
  Ir  Ir24  1  0.330174  0.671428  0.491781  1
  Ir  Ir25  1  0.672268  0.328664  0.499778  1
  Ir  Ir26  1  0.000112  0.001872  0.000050  1
  Ir  Ir27  1  0.000112  0.001872  0.499950  1
