# generated using pymatgen
data_TbErFe3Tc14C3
_symmetry_space_group_name_H-M   'P 1'
_cell_length_a   6.89125655
_cell_length_b   6.89125699
_cell_length_c   6.89125587
_cell_angle_alpha   82.38715869
_cell_angle_beta   82.38715567
_cell_angle_gamma   82.38715428
_symmetry_Int_Tables_number   1
_chemical_formula_structural   TbErFe3Tc14C3
_chemical_formula_sum   'Tb1 Er1 Fe3 Tc14 C3'
_cell_volume   319.31061406
_cell_formula_units_Z   1
loop_
 _symmetry_equiv_pos_site_id
 _symmetry_equiv_pos_as_xyz
  1  'x, y, z'
loop_
 _atom_site_type_symbol
 _atom_site_label
 _atom_site_symmetry_multiplicity
 _atom_site_fract_x
 _atom_site_fract_y
 _atom_site_fract_z
 _atom_site_occupancy
  Tb  Tb0  1  0.651274  0.651274  0.651274  1
  Er  Er1  1  0.348237  0.348237  0.348237  1
  Fe  Fe2  1  0.999788  0.999788  0.500141  1
  Fe  Fe3  1  0.500141  0.999788  0.999788  1
  Fe  Fe4  1  0.999788  0.500141  0.999788  1
  Tc  Tc5  1  0.723969  0.275954  0.000134  1
  Tc  Tc6  1  0.000134  0.723969  0.275954  1
  Tc  Tc7  1  0.275954  0.000134  0.723969  1
  Tc  Tc8  1  0.000134  0.275954  0.723969  1
  Tc  Tc9  1  0.723969  0.000134  0.275954  1
  Tc  Tc10  1  0.275954  0.723969  0.000134  1
  Tc  Tc11  1  0.348243  0.861069  0.348243  1
  Tc  Tc12  1  0.348243  0.348243  0.861069  1
  Tc  Tc13  1  0.861069  0.348243  0.348243  1
  Tc  Tc14  1  0.651317  0.140027  0.651317  1
  Tc  Tc15  1  0.651317  0.651317  0.140027  1
  Tc  Tc16  1  0.140027  0.651317  0.651317  1
  Tc  Tc17  1  0.898925  0.898925  0.898925  1
  Tc  Tc18  1  0.101339  0.101339  0.101339  1
  C  C19  1  0.498966  0.498966  0.002245  1
  C  C20  1  0.002245  0.498966  0.498966  1
  C  C21  1  0.498966  0.002245  0.498966  1
