# generated using pymatgen
data_Tb5CoAu2
_symmetry_space_group_name_H-M   'P 1'
_cell_length_a   8.11086600
_cell_length_b   8.42746700
_cell_length_c   11.76452900
_cell_angle_alpha   90.00000000
_cell_angle_beta   90.00000000
_cell_angle_gamma   90.00000000
_symmetry_Int_Tables_number   1
_chemical_formula_structural   Tb5CoAu2
_chemical_formula_sum   'Tb20 Co4 Au8'
_cell_volume   804.15326886
_cell_formula_units_Z   4
loop_
 _symmetry_equiv_pos_site_id
 _symmetry_equiv_pos_as_xyz
  1  'x, y, z'
loop_
 _atom_site_type_symbol
 _atom_site_label
 _atom_site_symmetry_multiplicity
 _atom_site_fract_x
 _atom_site_fract_y
 _atom_site_fract_z
 _atom_site_occupancy
  Tb  Tb0  1  0.158101  0.750000  0.217670  1
  Tb  Tb1  1  0.658101  0.250000  0.282330  1
  Tb  Tb2  1  0.841899  0.250000  0.782330  1
  Tb  Tb3  1  0.341899  0.750000  0.717670  1
  Tb  Tb4  1  0.451664  0.750000  0.007292  1
  Tb  Tb5  1  0.951664  0.250000  0.492708  1
  Tb  Tb6  1  0.548336  0.250000  0.992708  1
  Tb  Tb7  1  0.048336  0.750000  0.507292  1
  Tb  Tb8  1  0.617297  0.750000  0.307129  1
  Tb  Tb9  1  0.117297  0.250000  0.192871  1
  Tb  Tb10  1  0.382703  0.250000  0.692871  1
  Tb  Tb11  1  0.882703  0.750000  0.807129  1
  Tb  Tb12  1  0.828600  0.961035  0.077368  1
  Tb  Tb13  1  0.328600  0.038965  0.422632  1
  Tb  Tb14  1  0.171400  0.461035  0.922632  1
  Tb  Tb15  1  0.671400  0.538965  0.577368  1
  Tb  Tb16  1  0.171400  0.038965  0.922632  1
  Tb  Tb17  1  0.671400  0.961035  0.577368  1
  Tb  Tb18  1  0.828600  0.538965  0.077368  1
  Tb  Tb19  1  0.328600  0.461035  0.422632  1
  Co  Co20  1  0.426049  0.750000  0.494923  1
  Co  Co21  1  0.926049  0.250000  0.005077  1
  Co  Co22  1  0.573951  0.250000  0.505077  1
  Co  Co23  1  0.073951  0.750000  0.994923  1
  Au  Au24  1  0.923019  0.981603  0.330830  1
  Au  Au25  1  0.423019  0.018397  0.169170  1
  Au  Au26  1  0.076981  0.481603  0.669170  1
  Au  Au27  1  0.576981  0.518397  0.830830  1
  Au  Au28  1  0.076981  0.018397  0.669170  1
  Au  Au29  1  0.576981  0.981603  0.830830  1
  Au  Au30  1  0.923019  0.518397  0.330830  1
  Au  Au31  1  0.423019  0.481603  0.169170  1
