# generated using pymatgen
data_CaCe2Sc2(In2Rh)2
_symmetry_space_group_name_H-M   'P 1'
_cell_length_a   3.63828800
_cell_length_b   7.98584100
_cell_length_c   17.77771100
_cell_angle_alpha   90.00000000
_cell_angle_beta   90.00000000
_cell_angle_gamma   90.00000000
_symmetry_Int_Tables_number   1
_chemical_formula_structural   CaCe2Sc2(In2Rh)2
_chemical_formula_sum   'Ca2 Ce4 Sc4 In8 Rh4'
_cell_volume   516.52765054
_cell_formula_units_Z   2
loop_
 _symmetry_equiv_pos_site_id
 _symmetry_equiv_pos_as_xyz
  1  'x, y, z'
loop_
 _atom_site_type_symbol
 _atom_site_label
 _atom_site_symmetry_multiplicity
 _atom_site_fract_x
 _atom_site_fract_y
 _atom_site_fract_z
 _atom_site_occupancy
  Ca  Ca0  1  0.000000  0.000000  0.000000  1
  Ca  Ca1  1  0.000000  0.500000  0.500000  1
  Ce  Ce2  1  0.000000  0.767992  0.785980  1
  Ce  Ce3  1  0.000000  0.232008  0.214020  1
  Ce  Ce4  1  0.000000  0.267992  0.714020  1
  Ce  Ce5  1  0.000000  0.732008  0.285980  1
  Sc  Sc6  1  0.000000  0.888268  0.589700  1
  Sc  Sc7  1  0.000000  0.111732  0.410300  1
  Sc  Sc8  1  0.000000  0.388268  0.910300  1
  Sc  Sc9  1  0.000000  0.611732  0.089700  1
  In  In10  1  0.500000  0.814843  0.444383  1
  In  In11  1  0.500000  0.185157  0.555617  1
  In  In12  1  0.500000  0.314843  0.055617  1
  In  In13  1  0.500000  0.685157  0.944383  1
  In  In14  1  0.500000  0.899944  0.149541  1
  In  In15  1  0.500000  0.100056  0.850459  1
  In  In16  1  0.500000  0.399944  0.350459  1
  In  In17  1  0.500000  0.600056  0.649541  1
  Rh  Rh18  1  0.500000  0.982036  0.695482  1
  Rh  Rh19  1  0.500000  0.017964  0.304518  1
  Rh  Rh20  1  0.500000  0.482036  0.804518  1
  Rh  Rh21  1  0.500000  0.517964  0.195482  1
