# generated using pymatgen
data_Tm4MnCo16(ReP4)3
_symmetry_space_group_name_H-M   'P 1'
_cell_length_a   3.69818300
_cell_length_b   10.32319497
_cell_length_c   11.78807100
_cell_angle_alpha   89.97928408
_cell_angle_beta   90.00000000
_cell_angle_gamma   90.00000000
_symmetry_Int_Tables_number   1
_chemical_formula_structural   Tm4MnCo16(ReP4)3
_chemical_formula_sum   'Tm4 Mn1 Co16 Re3 P12'
_cell_volume   450.03391326
_cell_formula_units_Z   1
loop_
 _symmetry_equiv_pos_site_id
 _symmetry_equiv_pos_as_xyz
  1  'x, y, z'
loop_
 _atom_site_type_symbol
 _atom_site_label
 _atom_site_symmetry_multiplicity
 _atom_site_fract_x
 _atom_site_fract_y
 _atom_site_fract_z
 _atom_site_occupancy
  Tm  Tm0  1  0.250000  0.581390  0.702641  1
  Tm  Tm1  1  0.250000  0.915978  0.205589  1
  Tm  Tm2  1  0.750000  0.415181  0.295426  1
  Tm  Tm3  1  0.750000  0.083564  0.794053  1
  Mn  Mn4  1  0.750000  0.212047  0.513644  1
  Co  Co5  1  0.250000  0.405866  0.487020  1
  Co  Co6  1  0.250000  0.093551  0.987357  1
  Co  Co7  1  0.750000  0.593345  0.511405  1
  Co  Co8  1  0.750000  0.906525  0.011935  1
  Co  Co9  1  0.250000  0.221070  0.176148  1
  Co  Co10  1  0.250000  0.277329  0.678000  1
  Co  Co11  1  0.750000  0.778012  0.822615  1
  Co  Co12  1  0.750000  0.722340  0.323167  1
  Co  Co13  1  0.250000  0.886717  0.701493  1
  Co  Co14  1  0.250000  0.613707  0.202266  1
  Co  Co15  1  0.750000  0.116920  0.299816  1
  Co  Co16  1  0.750000  0.387671  0.798420  1
  Co  Co17  1  0.250000  0.464199  0.933277  1
  Co  Co18  1  0.250000  0.034906  0.431473  1
  Co  Co19  1  0.750000  0.536285  0.067832  1
  Co  Co20  1  0.750000  0.965114  0.568277  1
  Re  Re21  1  0.250000  0.710631  0.988491  1
  Re  Re22  1  0.250000  0.789047  0.489968  1
  Re  Re23  1  0.750000  0.289245  0.010844  1
  P  P24  1  0.250000  0.419509  0.115359  1
  P  P25  1  0.250000  0.082324  0.612028  1
  P  P26  1  0.750000  0.579967  0.884951  1
  P  P27  1  0.750000  0.922011  0.385868  1
  P  P28  1  0.250000  0.268396  0.864821  1
  P  P29  1  0.250000  0.231158  0.367917  1
  P  P30  1  0.750000  0.732019  0.134999  1
  P  P31  1  0.750000  0.768642  0.633698  1
  P  P32  1  0.250000  0.594311  0.391000  1
  P  P33  1  0.250000  0.905439  0.889538  1
  P  P34  1  0.750000  0.400316  0.607708  1
  P  P35  1  0.750000  0.095261  0.110959  1
