# generated using pymatgen
data_Dy3Tm3Co16(MoP6)2
_symmetry_space_group_name_H-M   'P 1'
_cell_length_a   3.70656400
_cell_length_b   10.51878508
_cell_length_c   12.21466210
_cell_angle_alpha   89.98553645
_cell_angle_beta   90.00000000
_cell_angle_gamma   90.00000000
_symmetry_Int_Tables_number   1
_chemical_formula_structural   Dy3Tm3Co16(MoP6)2
_chemical_formula_sum   'Dy3 Tm3 Co16 Mo2 P12'
_cell_volume   476.23195015
_cell_formula_units_Z   1
loop_
 _symmetry_equiv_pos_site_id
 _symmetry_equiv_pos_as_xyz
  1  'x, y, z'
loop_
 _atom_site_type_symbol
 _atom_site_label
 _atom_site_symmetry_multiplicity
 _atom_site_fract_x
 _atom_site_fract_y
 _atom_site_fract_z
 _atom_site_occupancy
  Dy  Dy0  1  0.000000  0.500037  0.524560  1
  Dy  Dy1  1  0.500000  0.999974  0.475302  1
  Dy  Dy2  1  0.000000  0.319223  0.795032  1
  Tm  Tm3  1  0.500000  0.819132  0.204937  1
  Tm  Tm4  1  0.500000  0.180871  0.204865  1
  Tm  Tm5  1  0.000000  0.681006  0.795109  1
  Co  Co6  1  0.500000  0.500788  0.701824  1
  Co  Co7  1  0.000000  0.999964  0.297795  1
  Co  Co8  1  0.000000  0.500378  0.986457  1
  Co  Co9  1  0.500000  0.999723  0.014069  1
  Co  Co10  1  0.500000  0.332380  0.990576  1
  Co  Co11  1  0.500000  0.667855  0.990067  1
  Co  Co12  1  0.000000  0.167370  0.010398  1
  Co  Co13  1  0.000000  0.832348  0.010149  1
  Co  Co14  1  0.500000  0.295842  0.430950  1
  Co  Co15  1  0.500000  0.704195  0.431150  1
  Co  Co16  1  0.000000  0.204036  0.568322  1
  Co  Co17  1  0.000000  0.795852  0.568803  1
  Co  Co18  1  0.500000  0.877443  0.707121  1
  Co  Co19  1  0.500000  0.121701  0.706691  1
  Co  Co20  1  0.000000  0.622415  0.292892  1
  Co  Co21  1  0.000000  0.377576  0.292824  1
  Mo  Mo22  1  0.500000  0.500059  0.156297  1
  Mo  Mo23  1  0.000000  0.999775  0.843820  1
  P  P24  1  0.500000  0.500761  0.880702  1
  P  P25  1  0.000000  0.999921  0.119802  1
  P  P26  1  0.500000  0.499994  0.349441  1
  P  P27  1  0.000000  0.000090  0.650519  1
  P  P28  1  0.500000  0.311379  0.615762  1
  P  P29  1  0.500000  0.688652  0.616659  1
  P  P30  1  0.000000  0.188429  0.383143  1
  P  P31  1  0.000000  0.811494  0.383286  1
  P  P32  1  0.500000  0.844065  0.892400  1
  P  P33  1  0.500000  0.155204  0.893031  1
  P  P34  1  0.000000  0.656017  0.107723  1
  P  P35  1  0.000000  0.344050  0.107523  1
