# generated using pymatgen
data_CsScPt7O16
_symmetry_space_group_name_H-M   'P 1'
_cell_length_a   6.25287569
_cell_length_b   7.55377448
_cell_length_c   7.66614000
_cell_angle_alpha   88.56561526
_cell_angle_beta   78.94683392
_cell_angle_gamma   77.75348639
_symmetry_Int_Tables_number   1
_chemical_formula_structural   CsScPt7O16
_chemical_formula_sum   'Cs1 Sc1 Pt7 O16'
_cell_volume   347.24332889
_cell_formula_units_Z   1
loop_
 _symmetry_equiv_pos_site_id
 _symmetry_equiv_pos_as_xyz
  1  'x, y, z'
loop_
 _atom_site_type_symbol
 _atom_site_label
 _atom_site_symmetry_multiplicity
 _atom_site_fract_x
 _atom_site_fract_y
 _atom_site_fract_z
 _atom_site_occupancy
  Cs  Cs0  1  0.000191  0.997381  0.001018  1
  Sc  Sc1  1  0.577870  0.518249  0.186862  1
  Pt  Pt2  1  0.082501  0.507253  0.182813  1
  Pt  Pt3  1  0.170482  0.814758  0.523121  1
  Pt  Pt4  1  0.668945  0.815176  0.522948  1
  Pt  Pt5  1  0.337425  0.183299  0.480687  1
  Pt  Pt6  1  0.840146  0.181846  0.481698  1
  Pt  Pt7  1  0.430330  0.481546  0.813981  1
  Pt  Pt8  1  0.928771  0.485009  0.814856  1
  O  O9  1  0.844012  0.637819  0.043348  1
  O  O10  1  0.321802  0.635413  0.043235  1
  O  O11  1  0.981024  0.710647  0.377679  1
  O  O12  1  0.479030  0.703252  0.394240  1
  O  O13  1  0.854790  0.953830  0.641746  1
  O  O14  1  0.357373  0.956514  0.643649  1
  O  O15  1  0.338861  0.375490  0.294809  1
  O  O16  1  0.839260  0.373322  0.292728  1
  O  O17  1  0.164790  0.631723  0.721792  1
  O  O18  1  0.663211  0.631854  0.723741  1
  O  O19  1  0.153347  0.040060  0.365232  1
  O  O20  1  0.651379  0.042135  0.362595  1
  O  O21  1  0.028462  0.285680  0.621319  1
  O  O22  1  0.528540  0.324761  0.585083  1
  O  O23  1  0.180980  0.356334  0.944791  1
  O  O24  1  0.683572  0.356649  0.936026  1
