# generated using pymatgen
data_Ba5SrLa2Co4O15
_symmetry_space_group_name_H-M   'P 1'
_cell_length_a   11.85529743
_cell_length_b   11.85529772
_cell_length_c   7.04398619
_cell_angle_alpha   89.95304827
_cell_angle_beta   89.95304421
_cell_angle_gamma   119.90517332
_symmetry_Int_Tables_number   1
_chemical_formula_structural   Ba5SrLa2Co4O15
_chemical_formula_sum   'Ba10 Sr2 La4 Co8 O30'
_cell_volume   858.19831288
_cell_formula_units_Z   2
loop_
 _symmetry_equiv_pos_site_id
 _symmetry_equiv_pos_as_xyz
  1  'x, y, z'
loop_
 _atom_site_type_symbol
 _atom_site_label
 _atom_site_symmetry_multiplicity
 _atom_site_fract_x
 _atom_site_fract_y
 _atom_site_fract_z
 _atom_site_occupancy
  Ba  Ba0  1  0.000008  0.000126  0.498170  1
  Ba  Ba1  1  0.000126  0.000008  0.998170  1
  Ba  Ba2  1  0.333644  0.667480  0.024013  1
  Ba  Ba3  1  0.667480  0.333644  0.524013  1
  Ba  Ba4  1  0.825288  0.647759  0.830927  1
  Ba  Ba5  1  0.354196  0.178008  0.836457  1
  Ba  Ba6  1  0.821053  0.178718  0.833530  1
  Ba  Ba7  1  0.178008  0.354196  0.336457  1
  Ba  Ba8  1  0.647759  0.825288  0.330927  1
  Ba  Ba9  1  0.178718  0.821053  0.333530  1
  Sr  Sr10  1  0.525919  0.049723  0.168163  1
  Sr  Sr11  1  0.049723  0.525919  0.668163  1
  La  La12  1  0.952833  0.478671  0.163437  1
  La  La13  1  0.523297  0.476524  0.165991  1
  La  La14  1  0.478671  0.952833  0.663437  1
  La  La15  1  0.476524  0.523297  0.665991  1
  Co  Co16  1  0.665062  0.332359  0.989448  1
  Co  Co17  1  0.332359  0.665062  0.489448  1
  Co  Co18  1  0.180188  0.824162  0.835760  1
  Co  Co19  1  0.173950  0.355595  0.837561  1
  Co  Co20  1  0.646096  0.824910  0.834739  1
  Co  Co21  1  0.824162  0.180188  0.335760  1
  Co  Co22  1  0.824910  0.646096  0.334739  1
  Co  Co23  1  0.355595  0.173950  0.337561  1
  O  O24  1  0.931575  0.327883  0.464693  1
  O  O25  1  0.665899  0.601787  0.465073  1
  O  O26  1  0.395428  0.068949  0.478351  1
  O  O27  1  0.930691  0.602592  0.461141  1
  O  O28  1  0.670526  0.064940  0.477450  1
  O  O29  1  0.397253  0.332392  0.468574  1
  O  O30  1  0.064940  0.670526  0.977450  1
  O  O31  1  0.332392  0.397253  0.968574  1
  O  O32  1  0.602592  0.930691  0.961141  1
  O  O33  1  0.068949  0.395428  0.978351  1
  O  O34  1  0.327883  0.931575  0.964693  1
  O  O35  1  0.601787  0.665899  0.965073  1
  O  O36  1  0.412806  0.585806  0.337841  1
  O  O37  1  0.412070  0.824323  0.342582  1
  O  O38  1  0.174837  0.587189  0.334050  1
  O  O39  1  0.585806  0.412806  0.837841  1
  O  O40  1  0.587189  0.174837  0.834050  1
  O  O41  1  0.824323  0.412070  0.842582  1
  O  O42  1  0.752287  0.255848  0.158818  1
  O  O43  1  0.748404  0.499231  0.155881  1
  O  O44  1  0.501917  0.256047  0.160691  1
  O  O45  1  0.255848  0.752287  0.658818  1
  O  O46  1  0.256047  0.501917  0.660691  1
  O  O47  1  0.499231  0.748404  0.655881  1
  O  O48  1  0.102325  0.195768  0.733803  1
  O  O49  1  0.807181  0.896251  0.735425  1
  O  O50  1  0.088837  0.893230  0.731914  1
  O  O51  1  0.896251  0.807181  0.235425  1
  O  O52  1  0.195768  0.102325  0.233803  1
  O  O53  1  0.893230  0.088837  0.231914  1
