# generated using pymatgen
data_Cs2Tb7BBr18
_symmetry_space_group_name_H-M   'P 1'
_cell_length_a   10.74492798
_cell_length_b   10.74492747
_cell_length_c   11.65776102
_cell_angle_alpha   117.44189390
_cell_angle_beta   62.55811039
_cell_angle_gamma   120.00000596
_symmetry_Int_Tables_number   1
_chemical_formula_structural   Cs2Tb7BBr18
_chemical_formula_sum   'Cs2 Tb7 B1 Br18'
_cell_volume   986.86826844
_cell_formula_units_Z   1
loop_
 _symmetry_equiv_pos_site_id
 _symmetry_equiv_pos_as_xyz
  1  'x, y, z'
loop_
 _atom_site_type_symbol
 _atom_site_label
 _atom_site_symmetry_multiplicity
 _atom_site_fract_x
 _atom_site_fract_y
 _atom_site_fract_z
 _atom_site_occupancy
  Cs  Cs0  1  0.222066  0.777934  0.333806  1
  Cs  Cs1  1  0.777935  0.222065  0.666194  1
  Tb  Tb2  1  0.776735  0.108541  0.156071  1
  Tb  Tb3  1  0.891458  0.824266  0.156071  1
  Tb  Tb4  1  0.175735  0.223265  0.156071  1
  Tb  Tb5  1  0.500000  0.500000  0.500000  1
  Tb  Tb6  1  0.824266  0.776736  0.843929  1
  Tb  Tb7  1  0.108541  0.175733  0.843929  1
  Tb  Tb8  1  0.223264  0.891457  0.843929  1
  B  B9  1  0.000000  0.000000  0.000000  1
  Br  Br10  1  0.286430  0.424558  0.007678  1
  Br  Br11  1  0.575440  0.869551  0.007678  1
  Br  Br12  1  0.130450  0.713571  0.007678  1
  Br  Br13  1  0.946264  0.348316  0.333493  1
  Br  Br14  1  0.068559  0.053736  0.333493  1
  Br  Br15  1  0.651683  0.931441  0.333493  1
  Br  Br16  1  0.522448  0.214454  0.335043  1
  Br  Br17  1  0.785545  0.643037  0.335043  1
  Br  Br18  1  0.356963  0.477551  0.335043  1
  Br  Br19  1  0.643037  0.522449  0.664957  1
  Br  Br20  1  0.214456  0.356965  0.664957  1
  Br  Br21  1  0.477551  0.785545  0.664957  1
  Br  Br22  1  0.348316  0.068558  0.666506  1
  Br  Br23  1  0.931442  0.946263  0.666506  1
  Br  Br24  1  0.053736  0.651683  0.666506  1
  Br  Br25  1  0.869552  0.286430  0.992322  1
  Br  Br26  1  0.424558  0.130448  0.992322  1
  Br  Br27  1  0.713570  0.575442  0.992322  1
