# generated using pymatgen
data_Mn2V17Si12Pt
_symmetry_space_group_name_H-M   'P 1'
_cell_length_a   7.00975297
_cell_length_b   7.00975286
_cell_length_c   13.17811100
_cell_angle_alpha   90.00000000
_cell_angle_beta   90.00000000
_cell_angle_gamma   140.05789207
_symmetry_Int_Tables_number   1
_chemical_formula_structural   Mn2V17Si12Pt
_chemical_formula_sum   'Mn2 V17 Si12 Pt1'
_cell_volume   415.72159237
_cell_formula_units_Z   1
loop_
 _symmetry_equiv_pos_site_id
 _symmetry_equiv_pos_as_xyz
  1  'x, y, z'
loop_
 _atom_site_type_symbol
 _atom_site_label
 _atom_site_symmetry_multiplicity
 _atom_site_fract_x
 _atom_site_fract_y
 _atom_site_fract_z
 _atom_site_occupancy
  Mn  Mn0  1  0.498407  0.498407  0.500000  1
  Mn  Mn1  1  0.001207  0.001207  0.000000  1
  V  V2  1  0.068480  0.420474  0.400719  1
  V  V3  1  0.571987  0.928446  0.900547  1
  V  V4  1  0.420474  0.068480  0.599281  1
  V  V5  1  0.928446  0.571987  0.099453  1
  V  V6  1  0.851675  0.653729  0.676530  1
  V  V7  1  0.352723  0.153874  0.177835  1
  V  V8  1  0.653729  0.851675  0.323470  1
  V  V9  1  0.153874  0.352723  0.822165  1
  V  V10  1  0.653729  0.851675  0.676530  1
  V  V11  1  0.153874  0.352723  0.177835  1
  V  V12  1  0.851675  0.653729  0.323470  1
  V  V13  1  0.352723  0.153874  0.822165  1
  V  V14  1  0.420474  0.068480  0.400719  1
  V  V15  1  0.928446  0.571987  0.900547  1
  V  V16  1  0.068480  0.420474  0.599281  1
  V  V17  1  0.571987  0.928446  0.099453  1
  V  V18  1  0.997606  0.997606  0.500000  1
  Si  Si19  1  0.250377  0.749777  0.749550  1
  Si  Si20  1  0.749777  0.250377  0.250450  1
  Si  Si21  1  0.749777  0.250377  0.749550  1
  Si  Si22  1  0.250377  0.749777  0.250450  1
  Si  Si23  1  0.255887  0.255887  0.662835  1
  Si  Si24  1  0.770781  0.770781  0.163352  1
  Si  Si25  1  0.255887  0.255887  0.337165  1
  Si  Si26  1  0.770781  0.770781  0.836648  1
  Si  Si27  1  0.575103  0.901712  0.500000  1
  Si  Si28  1  0.071087  0.396931  0.000000  1
  Si  Si29  1  0.901712  0.575103  0.500000  1
  Si  Si30  1  0.396931  0.071087  0.000000  1
  Pt  Pt31  1  0.501528  0.501528  0.000000  1
