# generated using pymatgen
data_Rb4CdO3
_symmetry_space_group_name_H-M   'P 1'
_cell_length_a   7.47148894
_cell_length_b   9.77522443
_cell_length_c   12.06235472
_cell_angle_alpha   102.83712339
_cell_angle_beta   89.22864412
_cell_angle_gamma   109.96663571
_symmetry_Int_Tables_number   1
_chemical_formula_structural   Rb4CdO3
_chemical_formula_sum   'Rb16 Cd4 O12'
_cell_volume   805.45542996
_cell_formula_units_Z   4
loop_
 _symmetry_equiv_pos_site_id
 _symmetry_equiv_pos_as_xyz
  1  'x, y, z'
loop_
 _atom_site_type_symbol
 _atom_site_label
 _atom_site_symmetry_multiplicity
 _atom_site_fract_x
 _atom_site_fract_y
 _atom_site_fract_z
 _atom_site_occupancy
  Rb  Rb0  1  0.370802  0.081204  0.118836  1
  Rb  Rb1  1  0.775147  0.342948  0.979095  1
  Rb  Rb2  1  0.146922  0.119792  0.624307  1
  Rb  Rb3  1  0.853078  0.880208  0.375693  1
  Rb  Rb4  1  0.691817  0.647051  0.576793  1
  Rb  Rb5  1  0.884914  0.139490  0.202489  1
  Rb  Rb6  1  0.115086  0.860510  0.797511  1
  Rb  Rb7  1  0.616141  0.103376  0.671291  1
  Rb  Rb8  1  0.383859  0.896624  0.328709  1
  Rb  Rb9  1  0.991895  0.450939  0.712059  1
  Rb  Rb10  1  0.008105  0.549061  0.287941  1
  Rb  Rb11  1  0.497780  0.519478  0.202129  1
  Rb  Rb12  1  0.502220  0.480522  0.797871  1
  Rb  Rb13  1  0.308183  0.352949  0.423207  1
  Rb  Rb14  1  0.224853  0.657052  0.020905  1
  Rb  Rb15  1  0.629198  0.918796  0.881164  1
  Cd  Cd16  1  0.168208  0.233624  0.940013  1
  Cd  Cd17  1  0.831792  0.766376  0.059987  1
  Cd  Cd18  1  0.284939  0.720326  0.557756  1
  Cd  Cd19  1  0.715061  0.279674  0.442244  1
  O  O20  1  0.366911  0.689180  0.719548  1
  O  O21  1  0.068453  0.812064  0.537689  1
  O  O22  1  0.931547  0.187936  0.462311  1
  O  O23  1  0.439580  0.669150  0.410398  1
  O  O24  1  0.560420  0.330850  0.589602  1
  O  O25  1  0.133439  0.369317  0.101483  1
  O  O26  1  0.866561  0.630683  0.898517  1
  O  O27  1  0.396892  0.147308  0.895165  1
  O  O28  1  0.603108  0.852692  0.104835  1
  O  O29  1  0.633089  0.310820  0.280452  1
  O  O30  1  0.065575  0.822912  0.187341  1
  O  O31  1  0.934425  0.177088  0.812659  1
