# generated using pymatgen
data_RbY3F10
_symmetry_space_group_name_H-M   'P 1'
_cell_length_a   8.06846200
_cell_length_b   8.06846220
_cell_length_c   16.54486100
_cell_angle_alpha   90.00000000
_cell_angle_beta   90.00000000
_cell_angle_gamma   114.67485202
_symmetry_Int_Tables_number   1
_chemical_formula_structural   RbY3F10
_chemical_formula_sum   'Rb4 Y12 F40'
_cell_volume   978.72597389
_cell_formula_units_Z   4
loop_
 _symmetry_equiv_pos_site_id
 _symmetry_equiv_pos_as_xyz
  1  'x, y, z'
loop_
 _atom_site_type_symbol
 _atom_site_label
 _atom_site_symmetry_multiplicity
 _atom_site_fract_x
 _atom_site_fract_y
 _atom_site_fract_z
 _atom_site_occupancy
  Rb  Rb0  1  0.500000  0.500000  0.000000  1
  Rb  Rb1  1  0.000000  0.000000  0.000000  1
  Rb  Rb2  1  0.000000  0.000000  0.500000  1
  Rb  Rb3  1  0.500000  0.500000  0.500000  1
  Y  Y4  1  0.480929  0.023170  0.113234  1
  Y  Y5  1  0.976830  0.519071  0.113234  1
  Y  Y6  1  0.751388  0.748612  0.750000  1
  Y  Y7  1  0.023170  0.480929  0.886766  1
  Y  Y8  1  0.251388  0.248612  0.750000  1
  Y  Y9  1  0.519071  0.976830  0.886766  1
  Y  Y10  1  0.748612  0.751388  0.250000  1
  Y  Y11  1  0.980929  0.523170  0.386766  1
  Y  Y12  1  0.248612  0.251388  0.250000  1
  Y  Y13  1  0.476830  0.019071  0.386766  1
  Y  Y14  1  0.523170  0.980929  0.613234  1
  Y  Y15  1  0.019071  0.476830  0.613234  1
  F  F16  1  0.429410  0.070590  0.250000  1
  F  F17  1  0.246508  0.753492  0.114755  1
  F  F18  1  0.995009  0.004991  0.721745  1
  F  F19  1  0.097733  0.414304  0.487471  1
  F  F20  1  0.303045  0.696955  0.897492  1
  F  F21  1  0.718007  0.847077  0.872579  1
  F  F22  1  0.402267  0.085696  0.987471  1
  F  F23  1  0.085696  0.402267  0.012529  1
  F  F24  1  0.929410  0.570590  0.250000  1
  F  F25  1  0.696955  0.303045  0.102508  1
  F  F26  1  0.902267  0.585696  0.512529  1
  F  F27  1  0.196955  0.803045  0.397492  1
  F  F28  1  0.064530  0.327634  0.174146  1
  F  F29  1  0.827634  0.564530  0.674146  1
  F  F30  1  0.753492  0.246508  0.885245  1
  F  F31  1  0.847077  0.718007  0.127421  1
  F  F32  1  0.504991  0.495009  0.221745  1
  F  F33  1  0.564530  0.827634  0.325854  1
  F  F34  1  0.004991  0.995009  0.278255  1
  F  F35  1  0.570590  0.929410  0.750000  1
  F  F36  1  0.935470  0.672366  0.825854  1
  F  F37  1  0.781993  0.652923  0.372579  1
  F  F38  1  0.070590  0.429410  0.750000  1
  F  F39  1  0.495009  0.504991  0.778255  1
  F  F40  1  0.218007  0.347077  0.627421  1
  F  F41  1  0.585696  0.902267  0.487471  1
  F  F42  1  0.597733  0.914304  0.012529  1
  F  F43  1  0.253492  0.746508  0.614755  1
  F  F44  1  0.347077  0.218007  0.372579  1
  F  F45  1  0.414304  0.097733  0.512529  1
  F  F46  1  0.152923  0.281993  0.872579  1
  F  F47  1  0.746508  0.253492  0.385245  1
  F  F48  1  0.172366  0.435470  0.325854  1
  F  F49  1  0.672366  0.935470  0.174146  1
  F  F50  1  0.803045  0.196955  0.602508  1
  F  F51  1  0.327634  0.064530  0.825854  1
  F  F52  1  0.652923  0.781993  0.627421  1
  F  F53  1  0.914304  0.597733  0.987471  1
  F  F54  1  0.435470  0.172366  0.674146  1
  F  F55  1  0.281993  0.152923  0.127421  1
