# generated using pymatgen
data_Dy4Y2CrCo17P12
_symmetry_space_group_name_H-M   'P 1'
_cell_length_a   3.69004700
_cell_length_b   10.51856500
_cell_length_c   12.19229100
_cell_angle_alpha   90.00000000
_cell_angle_beta   90.00000000
_cell_angle_gamma   90.00000000
_symmetry_Int_Tables_number   1
_chemical_formula_structural   Dy4Y2CrCo17P12
_chemical_formula_sum   'Dy4 Y2 Cr1 Co17 P12'
_cell_volume   473.23157340
_cell_formula_units_Z   1
loop_
 _symmetry_equiv_pos_site_id
 _symmetry_equiv_pos_as_xyz
  1  'x, y, z'
loop_
 _atom_site_type_symbol
 _atom_site_label
 _atom_site_symmetry_multiplicity
 _atom_site_fract_x
 _atom_site_fract_y
 _atom_site_fract_z
 _atom_site_occupancy
  Dy  Dy0  1  0.500000  0.817486  0.206106  1
  Dy  Dy1  1  0.500000  0.182514  0.206106  1
  Dy  Dy2  1  0.000000  0.682288  0.795504  1
  Dy  Dy3  1  0.000000  0.317712  0.795504  1
  Y  Y4  1  0.000000  0.500000  0.521924  1
  Y  Y5  1  0.500000  0.000000  0.477901  1
  Cr  Cr6  1  0.500000  0.500000  0.155253  1
  Co  Co7  1  0.000000  0.000000  0.840603  1
  Co  Co8  1  0.500000  0.500000  0.702914  1
  Co  Co9  1  0.000000  0.000000  0.296264  1
  Co  Co10  1  0.000000  0.500000  0.987470  1
  Co  Co11  1  0.500000  0.000000  0.014523  1
  Co  Co12  1  0.500000  0.332946  0.993475  1
  Co  Co13  1  0.500000  0.667054  0.993475  1
  Co  Co14  1  0.000000  0.167001  0.006358  1
  Co  Co15  1  0.000000  0.832999  0.006358  1
  Co  Co16  1  0.500000  0.296432  0.430484  1
  Co  Co17  1  0.500000  0.703568  0.430484  1
  Co  Co18  1  0.000000  0.203037  0.569244  1
  Co  Co19  1  0.000000  0.796963  0.569244  1
  Co  Co20  1  0.500000  0.879198  0.709262  1
  Co  Co21  1  0.500000  0.120802  0.709262  1
  Co  Co22  1  0.000000  0.620439  0.290656  1
  Co  Co23  1  0.000000  0.379561  0.290656  1
  P  P24  1  0.500000  0.500000  0.882333  1
  P  P25  1  0.000000  0.000000  0.117133  1
  P  P26  1  0.500000  0.500000  0.344366  1
  P  P27  1  0.000000  0.000000  0.656718  1
  P  P28  1  0.500000  0.310784  0.616261  1
  P  P29  1  0.500000  0.689216  0.616261  1
  P  P30  1  0.000000  0.188967  0.384026  1
  P  P31  1  0.000000  0.811033  0.384026  1
  P  P32  1  0.500000  0.848725  0.892749  1
  P  P33  1  0.500000  0.151275  0.892749  1
  P  P34  1  0.000000  0.653079  0.107173  1
  P  P35  1  0.000000  0.346921  0.107173  1
