# generated using pymatgen
data_TbDyCdCuNi
_symmetry_space_group_name_H-M   'P 1'
_cell_length_a   7.50565001
_cell_length_b   7.50564924
_cell_length_c   3.65875100
_cell_angle_alpha   90.00000000
_cell_angle_beta   90.00000000
_cell_angle_gamma   89.26610799
_symmetry_Int_Tables_number   1
_chemical_formula_structural   TbDyCdCuNi
_chemical_formula_sum   'Tb2 Dy2 Cd2 Cu2 Ni2'
_cell_volume   206.09801106
_cell_formula_units_Z   2
loop_
 _symmetry_equiv_pos_site_id
 _symmetry_equiv_pos_as_xyz
  1  'x, y, z'
loop_
 _atom_site_type_symbol
 _atom_site_label
 _atom_site_symmetry_multiplicity
 _atom_site_fract_x
 _atom_site_fract_y
 _atom_site_fract_z
 _atom_site_occupancy
  Tb  Tb0  1  0.184594  0.315406  0.500000  1
  Tb  Tb1  1  0.815406  0.684594  0.500000  1
  Dy  Dy2  1  0.667371  0.167371  0.500000  1
  Dy  Dy3  1  0.332629  0.832629  0.500000  1
  Cd  Cd4  1  0.000000  0.000000  0.000000  1
  Cd  Cd5  1  0.500000  0.500000  0.000000  1
  Cu  Cu6  1  0.118609  0.618609  0.000000  1
  Cu  Cu7  1  0.881391  0.381391  0.000000  1
  Ni  Ni8  1  0.618200  0.881800  0.000000  1
  Ni  Ni9  1  0.381800  0.118200  0.000000  1
