# generated using pymatgen
data_Ce3Cd3Pd2Pt
_symmetry_space_group_name_H-M   'P 1'
_cell_length_a   7.78757500
_cell_length_b   7.78757530
_cell_length_c   3.96901900
_cell_angle_alpha   90.00000000
_cell_angle_beta   90.00000000
_cell_angle_gamma   119.99998597
_symmetry_Int_Tables_number   1
_chemical_formula_structural   Ce3Cd3Pd2Pt
_chemical_formula_sum   'Ce3 Cd3 Pd2 Pt1'
_cell_volume   208.45790675
_cell_formula_units_Z   1
loop_
 _symmetry_equiv_pos_site_id
 _symmetry_equiv_pos_as_xyz
  1  'x, y, z'
loop_
 _atom_site_type_symbol
 _atom_site_label
 _atom_site_symmetry_multiplicity
 _atom_site_fract_x
 _atom_site_fract_y
 _atom_site_fract_z
 _atom_site_occupancy
  Ce  Ce0  1  0.407629  0.413126  0.000000  1
  Ce  Ce1  1  0.586874  0.994503  0.000000  1
  Ce  Ce2  1  0.005497  0.592371  0.000000  1
  Cd  Cd3  1  0.749438  0.745934  0.500000  1
  Cd  Cd4  1  0.254066  0.003505  0.500000  1
  Cd  Cd5  1  0.996495  0.250562  0.500000  1
  Pd  Pd6  1  0.666667  0.333333  0.500000  1
  Pd  Pd7  1  0.000000  0.000000  0.000000  1
  Pt  Pt8  1  0.333333  0.666667  0.500000  1
