# generated using pymatgen
data_Ti12CdPb9
_symmetry_space_group_name_H-M   'P 1'
_cell_length_a   9.47827900
_cell_length_b   9.47827977
_cell_length_c   5.82867600
_cell_angle_alpha   90.00000000
_cell_angle_beta   90.00000000
_cell_angle_gamma   120.00000080
_symmetry_Int_Tables_number   1
_chemical_formula_structural   Ti12CdPb9
_chemical_formula_sum   'Ti12 Cd1 Pb9'
_cell_volume   453.48147958
_cell_formula_units_Z   1
loop_
 _symmetry_equiv_pos_site_id
 _symmetry_equiv_pos_as_xyz
  1  'x, y, z'
loop_
 _atom_site_type_symbol
 _atom_site_label
 _atom_site_symmetry_multiplicity
 _atom_site_fract_x
 _atom_site_fract_y
 _atom_site_fract_z
 _atom_site_occupancy
  Ti  Ti0  1  0.841829  0.683659  0.752671  1
  Ti  Ti1  1  0.158171  0.841829  0.247329  1
  Ti  Ti2  1  0.683659  0.841829  0.247329  1
  Ti  Ti3  1  0.316341  0.158171  0.752671  1
  Ti  Ti4  1  0.841829  0.158171  0.752671  1
  Ti  Ti5  1  0.158171  0.316341  0.247329  1
  Ti  Ti6  1  0.500000  0.000000  0.500000  1
  Ti  Ti7  1  0.500000  0.500000  0.000000  1
  Ti  Ti8  1  0.000000  0.500000  0.000000  1
  Ti  Ti9  1  0.000000  0.500000  0.500000  1
  Ti  Ti10  1  0.500000  0.000000  0.000000  1
  Ti  Ti11  1  0.500000  0.500000  0.500000  1
  Cd  Cd12  1  0.000000  0.000000  0.500000  1
  Pb  Pb13  1  0.200339  0.400677  0.748223  1
  Pb  Pb14  1  0.799661  0.200339  0.251777  1
  Pb  Pb15  1  0.400677  0.200339  0.251777  1
  Pb  Pb16  1  0.599323  0.799661  0.748223  1
  Pb  Pb17  1  0.200339  0.799661  0.748223  1
  Pb  Pb18  1  0.799661  0.599323  0.251777  1
  Pb  Pb19  1  0.666667  0.333333  0.751732  1
  Pb  Pb20  1  0.333333  0.666667  0.248268  1
  Pb  Pb21  1  0.000000  0.000000  0.000000  1
