# generated using pymatgen
data_Rb12Na8Cr(SiP4)3
_symmetry_space_group_name_H-M   'P 1'
_cell_length_a   10.47643567
_cell_length_b   10.47643641
_cell_length_c   15.29432775
_cell_angle_alpha   89.97968393
_cell_angle_beta   89.97968311
_cell_angle_gamma   142.56492068
_symmetry_Int_Tables_number   1
_chemical_formula_structural   Rb12Na8Cr(SiP4)3
_chemical_formula_sum   'Rb12 Na8 Cr1 Si3 P12'
_cell_volume   1020.38092147
_cell_formula_units_Z   1
loop_
 _symmetry_equiv_pos_site_id
 _symmetry_equiv_pos_as_xyz
  1  'x, y, z'
loop_
 _atom_site_type_symbol
 _atom_site_label
 _atom_site_symmetry_multiplicity
 _atom_site_fract_x
 _atom_site_fract_y
 _atom_site_fract_z
 _atom_site_occupancy
  Rb  Rb0  1  0.943577  0.610922  0.824976  1
  Rb  Rb1  1  0.562987  0.891395  0.327727  1
  Rb  Rb2  1  0.389078  0.056423  0.175024  1
  Rb  Rb3  1  0.064854  0.392096  0.173124  1
  Rb  Rb4  1  0.891749  0.562469  0.327898  1
  Rb  Rb5  1  0.437531  0.108251  0.672102  1
  Rb  Rb6  1  0.607904  0.935146  0.826876  1
  Rb  Rb7  1  0.265243  0.265150  0.317682  1
  Rb  Rb8  1  0.766128  0.768572  0.181773  1
  Rb  Rb9  1  0.231428  0.233872  0.818227  1
  Rb  Rb10  1  0.734850  0.734757  0.682318  1
  Rb  Rb11  1  0.108605  0.437013  0.672273  1
  Na  Na12  1  0.920614  0.079386  0.000000  1
  Na  Na13  1  0.577998  0.422002  0.500000  1
  Na  Na14  1  0.077693  0.922307  0.000000  1
  Na  Na15  1  0.421933  0.578067  0.500000  1
  Na  Na16  1  0.756262  0.243738  0.000000  1
  Na  Na17  1  0.744556  0.255444  0.500000  1
  Na  Na18  1  0.244652  0.755348  0.000000  1
  Na  Na19  1  0.255546  0.744454  0.500000  1
  Cr  Cr20  1  0.585155  0.414845  0.000000  1
  Si  Si21  1  0.916178  0.083822  0.500000  1
  Si  Si22  1  0.415304  0.584696  0.000000  1
  Si  Si23  1  0.083567  0.916433  0.500000  1
  P  P24  1  0.849128  0.547205  0.091266  1
  P  P25  1  0.452795  0.150872  0.908734  1
  P  P26  1  0.652170  0.952640  0.590058  1
  P  P27  1  0.952425  0.652149  0.589863  1
  P  P28  1  0.150500  0.453017  0.909192  1
  P  P29  1  0.546983  0.849500  0.090808  1
  P  P30  1  0.347851  0.047575  0.410137  1
  P  P31  1  0.177923  0.178023  0.578029  1
  P  P32  1  0.676050  0.678553  0.922840  1
  P  P33  1  0.321447  0.323950  0.077160  1
  P  P34  1  0.047360  0.347830  0.409942  1
  P  P35  1  0.821977  0.822077  0.421971  1
