# generated using pymatgen
data_Sm7Er(SiBr6)2
_symmetry_space_group_name_H-M   'P 1'
_cell_length_a   4.14224900
_cell_length_b   13.51874590
_cell_length_c   14.32595166
_cell_angle_alpha   89.54611628
_cell_angle_beta   90.00000000
_cell_angle_gamma   90.00000000
_symmetry_Int_Tables_number   1
_chemical_formula_structural   Sm7Er(SiBr6)2
_chemical_formula_sum   'Sm7 Er1 Si2 Br12'
_cell_volume   802.19963711
_cell_formula_units_Z   1
loop_
 _symmetry_equiv_pos_site_id
 _symmetry_equiv_pos_as_xyz
  1  'x, y, z'
loop_
 _atom_site_type_symbol
 _atom_site_label
 _atom_site_symmetry_multiplicity
 _atom_site_fract_x
 _atom_site_fract_y
 _atom_site_fract_z
 _atom_site_occupancy
  Sm  Sm0  1  0.500000  0.119972  0.339574  1
  Sm  Sm1  1  0.500000  0.881497  0.658689  1
  Sm  Sm2  1  0.500000  0.616442  0.159797  1
  Sm  Sm3  1  0.500000  0.380159  0.842408  1
  Sm  Sm4  1  0.000000  0.118804  0.577981  1
  Sm  Sm5  1  0.000000  0.881756  0.420364  1
  Sm  Sm6  1  0.000000  0.617186  0.921743  1
  Er  Er7  1  0.000000  0.384776  0.076838  1
  Si  Si8  1  0.500000  0.000443  0.498866  1
  Si  Si9  1  0.500000  0.498232  0.001147  1
  Br  Br10  1  0.500000  0.255502  0.161884  1
  Br  Br11  1  0.500000  0.753097  0.836299  1
  Br  Br12  1  0.500000  0.744585  0.335380  1
  Br  Br13  1  0.500000  0.253675  0.665986  1
  Br  Br14  1  0.000000  0.255799  0.410781  1
  Br  Br15  1  0.000000  0.745115  0.588176  1
  Br  Br16  1  0.000000  0.752923  0.088216  1
  Br  Br17  1  0.000000  0.246181  0.920257  1
  Br  Br18  1  0.000000  0.004095  0.242260  1
  Br  Br19  1  0.000000  0.997935  0.755810  1
  Br  Br20  1  0.000000  0.494406  0.252614  1
  Br  Br21  1  0.000000  0.497420  0.744928  1
