# generated using pymatgen
data_Cs2ZrTi6CBr18
_symmetry_space_group_name_H-M   'P 1'
_cell_length_a   10.85943948
_cell_length_b   10.85863664
_cell_length_c   10.85839288
_cell_angle_alpha   55.62247537
_cell_angle_beta   55.62045016
_cell_angle_gamma   55.62334230
_symmetry_Int_Tables_number   1
_chemical_formula_structural   Cs2ZrTi6CBr18
_chemical_formula_sum   'Cs2 Zr1 Ti6 C1 Br18'
_cell_volume   813.40370319
_cell_formula_units_Z   1
loop_
 _symmetry_equiv_pos_site_id
 _symmetry_equiv_pos_as_xyz
  1  'x, y, z'
loop_
 _atom_site_type_symbol
 _atom_site_label
 _atom_site_symmetry_multiplicity
 _atom_site_fract_x
 _atom_site_fract_y
 _atom_site_fract_z
 _atom_site_occupancy
  Cs  Cs0  1  0.774970  0.774964  0.774954  1
  Cs  Cs1  1  0.225030  0.225036  0.225046  1
  Zr  Zr2  1  0.500000  0.500000  0.500000  1
  Ti  Ti3  1  0.143922  0.910548  0.814105  1
  Ti  Ti4  1  0.856078  0.089452  0.185895  1
  Ti  Ti5  1  0.089505  0.185985  0.856001  1
  Ti  Ti6  1  0.186024  0.855967  0.089518  1
  Ti  Ti7  1  0.910495  0.814015  0.143999  1
  Ti  Ti8  1  0.813976  0.144033  0.910482  1
  C  C9  1  0.000000  0.000000  0.000000  1
  Br  Br10  1  0.218137  0.468775  0.646097  1
  Br  Br11  1  0.781863  0.531225  0.353903  1
  Br  Br12  1  0.333404  0.051916  0.934971  1
  Br  Br13  1  0.666596  0.948084  0.065029  1
  Br  Br14  1  0.934963  0.333376  0.051936  1
  Br  Br15  1  0.719428  0.882610  0.398017  1
  Br  Br16  1  0.353887  0.781875  0.531240  1
  Br  Br17  1  0.602004  0.280554  0.117475  1
  Br  Br18  1  0.280572  0.117390  0.601983  1
  Br  Br19  1  0.117416  0.601961  0.280585  1
  Br  Br20  1  0.948164  0.064972  0.666590  1
  Br  Br21  1  0.397996  0.719446  0.882525  1
  Br  Br22  1  0.882584  0.398039  0.719415  1
  Br  Br23  1  0.065037  0.666624  0.948064  1
  Br  Br24  1  0.468759  0.646106  0.218138  1
  Br  Br25  1  0.646113  0.218125  0.468760  1
  Br  Br26  1  0.531241  0.353894  0.781862  1
  Br  Br27  1  0.051836  0.935028  0.333410  1
