# generated using pymatgen
data_Tb3CoP6Ir7W
_symmetry_space_group_name_H-M   'P 1'
_cell_length_a   3.94611100
_cell_length_b   11.09804200
_cell_length_c   12.79635100
_cell_angle_alpha   90.00000000
_cell_angle_beta   90.00000000
_cell_angle_gamma   90.00000000
_symmetry_Int_Tables_number   1
_chemical_formula_structural   Tb3CoP6Ir7W
_chemical_formula_sum   'Tb6 Co2 P12 Ir14 W2'
_cell_volume   560.40474718
_cell_formula_units_Z   2
loop_
 _symmetry_equiv_pos_site_id
 _symmetry_equiv_pos_as_xyz
  1  'x, y, z'
loop_
 _atom_site_type_symbol
 _atom_site_label
 _atom_site_symmetry_multiplicity
 _atom_site_fract_x
 _atom_site_fract_y
 _atom_site_fract_z
 _atom_site_occupancy
  Tb  Tb0  1  0.000000  0.500000  0.522365  1
  Tb  Tb1  1  0.500000  0.000000  0.477635  1
  Tb  Tb2  1  0.500000  0.818181  0.200877  1
  Tb  Tb3  1  0.500000  0.181819  0.200877  1
  Tb  Tb4  1  0.000000  0.681819  0.799123  1
  Tb  Tb5  1  0.000000  0.318181  0.799123  1
  Co  Co6  1  0.000000  0.500000  0.996286  1
  Co  Co7  1  0.500000  0.000000  0.003714  1
  P  P8  1  0.500000  0.500000  0.878769  1
  P  P9  1  0.000000  0.000000  0.121231  1
  P  P10  1  0.500000  0.500000  0.346975  1
  P  P11  1  0.000000  0.000000  0.653025  1
  P  P12  1  0.500000  0.314625  0.618786  1
  P  P13  1  0.500000  0.685375  0.618786  1
  P  P14  1  0.000000  0.185375  0.381214  1
  P  P15  1  0.000000  0.814625  0.381214  1
  P  P16  1  0.500000  0.849319  0.892113  1
  P  P17  1  0.500000  0.150681  0.892113  1
  P  P18  1  0.000000  0.650681  0.107887  1
  P  P19  1  0.000000  0.349319  0.107887  1
  Ir  Ir20  1  0.500000  0.500000  0.700555  1
  Ir  Ir21  1  0.000000  0.000000  0.299445  1
  Ir  Ir22  1  0.500000  0.335261  0.987073  1
  Ir  Ir23  1  0.500000  0.664739  0.987073  1
  Ir  Ir24  1  0.000000  0.164739  0.012927  1
  Ir  Ir25  1  0.000000  0.835261  0.012927  1
  Ir  Ir26  1  0.500000  0.296702  0.430965  1
  Ir  Ir27  1  0.500000  0.703298  0.430965  1
  Ir  Ir28  1  0.000000  0.203298  0.569035  1
  Ir  Ir29  1  0.000000  0.796702  0.569035  1
  Ir  Ir30  1  0.500000  0.872579  0.713677  1
  Ir  Ir31  1  0.500000  0.127421  0.713677  1
  Ir  Ir32  1  0.000000  0.627421  0.286323  1
  Ir  Ir33  1  0.000000  0.372579  0.286323  1
  W  W34  1  0.500000  0.500000  0.158209  1
  W  W35  1  0.000000  0.000000  0.841791  1
