# generated using pymatgen
data_CsCdSiAs2
_symmetry_space_group_name_H-M   'P 1'
_cell_length_a   8.80230645
_cell_length_b   8.64127882
_cell_length_c   8.81098815
_cell_angle_alpha   70.77281095
_cell_angle_beta   76.28776187
_cell_angle_gamma   73.57264577
_symmetry_Int_Tables_number   1
_chemical_formula_structural   CsCdSiAs2
_chemical_formula_sum   'Cs4 Cd4 Si4 As8'
_cell_volume   599.26458434
_cell_formula_units_Z   4
loop_
 _symmetry_equiv_pos_site_id
 _symmetry_equiv_pos_as_xyz
  1  'x, y, z'
loop_
 _atom_site_type_symbol
 _atom_site_label
 _atom_site_symmetry_multiplicity
 _atom_site_fract_x
 _atom_site_fract_y
 _atom_site_fract_z
 _atom_site_occupancy
  Cs  Cs0  1  0.447773  0.765575  0.322112  1
  Cs  Cs1  1  0.552227  0.234425  0.677888  1
  Cs  Cs2  1  0.433415  0.800839  0.814991  1
  Cs  Cs3  1  0.566585  0.199161  0.185009  1
  Cd  Cd4  1  0.995413  0.896944  0.687997  1
  Cd  Cd5  1  0.004587  0.103056  0.312003  1
  Cd  Cd6  1  0.967667  0.815672  0.171722  1
  Cd  Cd7  1  0.032333  0.184328  0.828278  1
  Si  Si8  1  0.963226  0.583110  0.595774  1
  Si  Si9  1  0.036774  0.416890  0.404226  1
  Si  Si10  1  0.138916  0.449922  0.979131  1
  Si  Si11  1  0.861084  0.550078  0.020869  1
  As  As12  1  0.819376  0.860881  0.466762  1
  As  As13  1  0.180624  0.139119  0.533238  1
  As  As14  1  0.798370  0.412450  0.308804  1
  As  As15  1  0.201630  0.587550  0.691196  1
  As  As16  1  0.776946  0.851336  0.962596  1
  As  As17  1  0.223054  0.148664  0.037404  1
  As  As18  1  0.781350  0.455105  0.825386  1
  As  As19  1  0.218650  0.544895  0.174614  1
