# generated using pymatgen
data_Ti3BeSi5W7
_symmetry_space_group_name_H-M   'P 1'
_cell_length_a   7.28918862
_cell_length_b   7.28919020
_cell_length_c   7.25509196
_cell_angle_alpha   96.43333491
_cell_angle_beta   96.61042150
_cell_angle_gamma   140.70520542
_symmetry_Int_Tables_number   1
_chemical_formula_structural   Ti3BeSi5W7
_chemical_formula_sum   'Ti3 Be1 Si5 W7'
_cell_volume   229.77661676
_cell_formula_units_Z   1
loop_
 _symmetry_equiv_pos_site_id
 _symmetry_equiv_pos_as_xyz
  1  'x, y, z'
loop_
 _atom_site_type_symbol
 _atom_site_label
 _atom_site_symmetry_multiplicity
 _atom_site_fract_x
 _atom_site_fract_y
 _atom_site_fract_z
 _atom_site_occupancy
  Ti  Ti0  1  0.727293  0.581166  0.297577  1
  Ti  Ti1  1  0.283591  0.429716  0.702424  1
  Ti  Ti2  1  0.750837  0.250836  0.500000  1
  Be  Be3  1  0.753057  0.753057  0.000000  1
  Si  Si4  1  0.245567  0.245566  0.000001  1
  Si  Si5  1  0.334266  0.166818  0.496714  1
  Si  Si6  1  0.827628  0.332099  0.164570  1
  Si  Si7  1  0.167529  0.663058  0.835428  1
  Si  Si8  1  0.670103  0.837552  0.503286  1
  W  W9  1  0.248924  0.748924  0.500000  1
  W  W10  1  0.578842  0.286529  0.852858  1
  W  W11  1  0.433672  0.725984  0.147141  1
  W  W12  1  0.776160  0.072918  0.853958  1
  W  W13  1  0.919891  0.770848  0.707169  1
  W  W14  1  0.063679  0.212724  0.292832  1
  W  W15  1  0.218963  0.922203  0.146043  1
