# generated using pymatgen
data_CaYTh2(Ga3Ir)6
_symmetry_space_group_name_H-M   'P 1'
_cell_length_a   7.66641793
_cell_length_b   7.66450984
_cell_length_c   9.53785600
_cell_angle_alpha   90.00000000
_cell_angle_beta   90.00000000
_cell_angle_gamma   119.73090270
_symmetry_Int_Tables_number   1
_chemical_formula_structural   CaYTh2(Ga3Ir)6
_chemical_formula_sum   'Ca1 Y1 Th2 Ga18 Ir6'
_cell_volume   486.66434458
_cell_formula_units_Z   1
loop_
 _symmetry_equiv_pos_site_id
 _symmetry_equiv_pos_as_xyz
  1  'x, y, z'
loop_
 _atom_site_type_symbol
 _atom_site_label
 _atom_site_symmetry_multiplicity
 _atom_site_fract_x
 _atom_site_fract_y
 _atom_site_fract_z
 _atom_site_occupancy
  Ca  Ca0  1  0.002823  0.329283  0.750000  1
  Y  Y1  1  0.329004  0.001071  0.750000  1
  Th  Th2  1  0.995996  0.670393  0.250000  1
  Th  Th3  1  0.671594  0.997569  0.250000  1
  Ga  Ga4  1  0.134370  0.135295  0.250000  1
  Ga  Ga5  1  0.873995  0.874432  0.750000  1
  Ga  Ga6  1  0.005419  0.335946  0.073693  1
  Ga  Ga7  1  0.001310  0.663151  0.913993  1
  Ga  Ga8  1  0.001310  0.663151  0.586007  1
  Ga  Ga9  1  0.335495  0.005178  0.424240  1
  Ga  Ga10  1  0.005419  0.335946  0.426307  1
  Ga  Ga11  1  0.665954  0.002369  0.585494  1
  Ga  Ga12  1  0.665954  0.002369  0.914506  1
  Ga  Ga13  1  0.335495  0.005178  0.075760  1
  Ga  Ga14  1  0.329262  0.330082  0.566636  1
  Ga  Ga15  1  0.662654  0.662924  0.444942  1
  Ga  Ga16  1  0.662654  0.662924  0.055058  1
  Ga  Ga17  1  0.329262  0.330082  0.933364  1
  Ga  Ga18  1  0.340507  0.543804  0.250000  1
  Ga  Ga19  1  0.658036  0.448854  0.750000  1
  Ga  Ga20  1  0.542903  0.340931  0.250000  1
  Ga  Ga21  1  0.450199  0.659894  0.750000  1
  Ir  Ir22  1  0.671736  0.329151  0.002727  1
  Ir  Ir23  1  0.330931  0.674838  0.002478  1
  Ir  Ir24  1  0.330931  0.674838  0.497522  1
  Ir  Ir25  1  0.671736  0.329151  0.497273  1
  Ir  Ir26  1  0.997525  0.995599  0.003400  1
  Ir  Ir27  1  0.997525  0.995599  0.496600  1
