# generated using pymatgen
data_Li6PtO6
_symmetry_space_group_name_H-M   'P 1'
_cell_length_a   5.12822611
_cell_length_b   5.12822631
_cell_length_c   5.12822671
_cell_angle_alpha   100.61732859
_cell_angle_beta   100.61731700
_cell_angle_gamma   100.61733356
_symmetry_Int_Tables_number   1
_chemical_formula_structural   Li6PtO6
_chemical_formula_sum   'Li6 Pt1 O6'
_cell_volume   126.92059244
_cell_formula_units_Z   1
loop_
 _symmetry_equiv_pos_site_id
 _symmetry_equiv_pos_as_xyz
  1  'x, y, z'
loop_
 _atom_site_type_symbol
 _atom_site_label
 _atom_site_symmetry_multiplicity
 _atom_site_fract_x
 _atom_site_fract_y
 _atom_site_fract_z
 _atom_site_occupancy
  Li  Li0  1  0.910294  0.709346  0.407406  1
  Li  Li1  1  0.290654  0.592594  0.089706  1
  Li  Li2  1  0.592594  0.089706  0.290654  1
  Li  Li3  1  0.089706  0.290654  0.592594  1
  Li  Li4  1  0.709346  0.407406  0.910294  1
  Li  Li5  1  0.407406  0.910294  0.709346  1
  Pt  Pt6  1  0.000000  0.000000  0.000000  1
  O  O7  1  0.668268  0.774578  0.066313  1
  O  O8  1  0.225422  0.933687  0.331732  1
  O  O9  1  0.933687  0.331732  0.225422  1
  O  O10  1  0.331732  0.225422  0.933687  1
  O  O11  1  0.774578  0.066313  0.668268  1
  O  O12  1  0.066313  0.668268  0.774578  1
