# generated using pymatgen
data_Hf10CuSn2Sb5
_symmetry_space_group_name_H-M   'P 1'
_cell_length_a   5.84426471
_cell_length_b   8.66613830
_cell_length_c   8.65881532
_cell_angle_alpha   120.02797676
_cell_angle_beta   90.02601642
_cell_angle_gamma   89.94801133
_symmetry_Int_Tables_number   1
_chemical_formula_structural   Hf10CuSn2Sb5
_chemical_formula_sum   'Hf10 Cu1 Sn2 Sb5'
_cell_volume   379.68367224
_cell_formula_units_Z   1
loop_
 _symmetry_equiv_pos_site_id
 _symmetry_equiv_pos_as_xyz
  1  'x, y, z'
loop_
 _atom_site_type_symbol
 _atom_site_label
 _atom_site_symmetry_multiplicity
 _atom_site_fract_x
 _atom_site_fract_y
 _atom_site_fract_z
 _atom_site_occupancy
  Hf  Hf0  1  0.498790  0.333183  0.666980  1
  Hf  Hf1  1  0.498790  0.666203  0.333020  1
  Hf  Hf2  1  0.000892  0.666389  0.332913  1
  Hf  Hf3  1  0.000892  0.333476  0.667087  1
  Hf  Hf4  1  0.733537  0.274069  0.000000  1
  Hf  Hf5  1  0.732484  0.726875  0.726540  1
  Hf  Hf6  1  0.732484  0.000335  0.273460  1
  Hf  Hf7  1  0.267494  0.723776  0.000000  1
  Hf  Hf8  1  0.268103  0.274811  0.274715  1
  Hf  Hf9  1  0.268103  0.000096  0.725285  1
  Cu  Cu10  1  0.498265  0.999434  0.000000  1
  Sn  Sn11  1  0.245203  0.614576  0.614751  1
  Sn  Sn12  1  0.245203  0.999825  0.385249  1
  Sb  Sb13  1  0.753398  0.613215  0.000000  1
  Sb  Sb14  1  0.753900  0.388230  0.388695  1
  Sb  Sb15  1  0.753900  0.999534  0.611305  1
  Sb  Sb16  1  0.246316  0.386411  0.000000  1
  Sb  Sb17  1  0.002247  0.999561  0.000000  1
