# generated using pymatgen
data_Hf8NbSi8W
_symmetry_space_group_name_H-M   'P 1'
_cell_length_a   6.97457608
_cell_length_b   6.97457608
_cell_length_c   12.75195800
_cell_angle_alpha   90.00000000
_cell_angle_beta   90.00000000
_cell_angle_gamma   90.01766214
_symmetry_Int_Tables_number   1
_chemical_formula_structural   Hf8NbSi8W
_chemical_formula_sum   'Hf16 Nb2 Si16 W2'
_cell_volume   620.31528895
_cell_formula_units_Z   2
loop_
 _symmetry_equiv_pos_site_id
 _symmetry_equiv_pos_as_xyz
  1  'x, y, z'
loop_
 _atom_site_type_symbol
 _atom_site_label
 _atom_site_symmetry_multiplicity
 _atom_site_fract_x
 _atom_site_fract_y
 _atom_site_fract_z
 _atom_site_occupancy
  Hf  Hf0  1  0.496761  0.154792  0.530289  1
  Hf  Hf1  1  0.503239  0.845208  0.030289  1
  Hf  Hf2  1  0.654725  0.003295  0.280969  1
  Hf  Hf3  1  0.345275  0.996705  0.780969  1
  Hf  Hf4  1  0.845208  0.503239  0.969711  1
  Hf  Hf5  1  0.154792  0.496761  0.469711  1
  Hf  Hf6  1  0.003295  0.654725  0.719031  1
  Hf  Hf7  1  0.996705  0.345275  0.219031  1
  Hf  Hf8  1  0.497629  0.354772  0.125146  1
  Hf  Hf9  1  0.502371  0.645228  0.625146  1
  Hf  Hf10  1  0.855564  0.002971  0.875909  1
  Hf  Hf11  1  0.144436  0.997029  0.375909  1
  Hf  Hf12  1  0.645228  0.502371  0.374854  1
  Hf  Hf13  1  0.354772  0.497629  0.874854  1
  Hf  Hf14  1  0.002971  0.855564  0.124091  1
  Hf  Hf15  1  0.997029  0.144436  0.624091  1
  Nb  Nb16  1  0.675051  0.324949  0.750000  1
  Nb  Nb17  1  0.324949  0.675051  0.250000  1
  Si  Si18  1  0.797248  0.146393  0.071297  1
  Si  Si19  1  0.202752  0.853607  0.571297  1
  Si  Si20  1  0.645743  0.704213  0.821792  1
  Si  Si21  1  0.354257  0.295787  0.321792  1
  Si  Si22  1  0.853607  0.202752  0.428703  1
  Si  Si23  1  0.146393  0.797248  0.928703  1
  Si  Si24  1  0.704213  0.645743  0.178208  1
  Si  Si25  1  0.295787  0.354257  0.678208  1
  Si  Si26  1  0.544563  0.195741  0.934774  1
  Si  Si27  1  0.455437  0.804259  0.434774  1
  Si  Si28  1  0.696813  0.951909  0.683047  1
  Si  Si29  1  0.303187  0.048091  0.183047  1
  Si  Si30  1  0.804259  0.455437  0.565226  1
  Si  Si31  1  0.195741  0.544563  0.065226  1
  Si  Si32  1  0.951909  0.696813  0.316953  1
  Si  Si33  1  0.048091  0.303187  0.816953  1
  W  W34  1  0.826585  0.826585  0.500000  1
  W  W35  1  0.173415  0.173415  0.000000  1
