# generated using pymatgen
data_Ho8Hf11Si16Mo
_symmetry_space_group_name_H-M   'P 1'
_cell_length_a   7.23482700
_cell_length_b   7.23482598
_cell_length_c   13.27397611
_cell_angle_alpha   89.95348991
_cell_angle_beta   90.04651112
_cell_angle_gamma   90.04540118
_symmetry_Int_Tables_number   1
_chemical_formula_structural   Ho8Hf11Si16Mo
_chemical_formula_sum   'Ho8 Hf11 Si16 Mo1'
_cell_volume   694.79526391
_cell_formula_units_Z   1
loop_
 _symmetry_equiv_pos_site_id
 _symmetry_equiv_pos_as_xyz
  1  'x, y, z'
loop_
 _atom_site_type_symbol
 _atom_site_label
 _atom_site_symmetry_multiplicity
 _atom_site_fract_x
 _atom_site_fract_y
 _atom_site_fract_z
 _atom_site_occupancy
  Ho  Ho0  1  0.998482  0.343489  0.212464  1
  Ho  Ho1  1  0.004434  0.656479  0.716767  1
  Ho  Ho2  1  0.156284  0.495364  0.465324  1
  Ho  Ho3  1  0.501374  0.845852  0.034187  1
  Ho  Ho4  1  0.845852  0.501374  0.965813  1
  Ho  Ho5  1  0.495364  0.156284  0.534676  1
  Ho  Ho6  1  0.343489  0.998482  0.787536  1
  Ho  Ho7  1  0.656479  0.004434  0.283233  1
  Hf  Hf8  1  0.825462  0.825462  0.500000  1
  Hf  Hf9  1  0.324380  0.674691  0.248812  1
  Hf  Hf10  1  0.674691  0.324380  0.751188  1
  Hf  Hf11  1  0.147566  0.997249  0.373524  1
  Hf  Hf12  1  0.853966  0.004625  0.877753  1
  Hf  Hf13  1  0.503856  0.647988  0.624877  1
  Hf  Hf14  1  0.350128  0.493306  0.877152  1
  Hf  Hf15  1  0.493306  0.350128  0.122848  1
  Hf  Hf16  1  0.647988  0.503856  0.375123  1
  Hf  Hf17  1  0.997249  0.147566  0.626476  1
  Hf  Hf18  1  0.004625  0.853966  0.122247  1
  Si  Si19  1  0.361341  0.295463  0.316482  1
  Si  Si20  1  0.638182  0.704559  0.818237  1
  Si  Si21  1  0.204786  0.861512  0.567510  1
  Si  Si22  1  0.138773  0.796115  0.932608  1
  Si  Si23  1  0.796115  0.138773  0.067392  1
  Si  Si24  1  0.861512  0.204786  0.432490  1
  Si  Si25  1  0.295463  0.361341  0.683518  1
  Si  Si26  1  0.704559  0.638182  0.181763  1
  Si  Si27  1  0.294937  0.051135  0.182668  1
  Si  Si28  1  0.703189  0.951751  0.686331  1
  Si  Si29  1  0.450744  0.796631  0.435020  1
  Si  Si30  1  0.203195  0.547324  0.064025  1
  Si  Si31  1  0.547324  0.203195  0.935975  1
  Si  Si32  1  0.796631  0.450744  0.564980  1
  Si  Si33  1  0.051135  0.294937  0.817332  1
  Si  Si34  1  0.951751  0.703189  0.313669  1
  Mo  Mo35  1  0.175389  0.175389  0.000000  1
