# generated using pymatgen
data_Er16MgIn(AgRh2)2
_symmetry_space_group_name_H-M   'P 1'
_cell_length_a   9.58775359
_cell_length_b   9.55114142
_cell_length_c   9.55175802
_cell_angle_alpha   59.49229906
_cell_angle_beta   59.52248443
_cell_angle_gamma   59.52883317
_symmetry_Int_Tables_number   1
_chemical_formula_structural   Er16MgIn(AgRh2)2
_chemical_formula_sum   'Er16 Mg1 In1 Ag2 Rh4'
_cell_volume   611.67284808
_cell_formula_units_Z   1
loop_
 _symmetry_equiv_pos_site_id
 _symmetry_equiv_pos_as_xyz
  1  'x, y, z'
loop_
 _atom_site_type_symbol
 _atom_site_label
 _atom_site_symmetry_multiplicity
 _atom_site_fract_x
 _atom_site_fract_y
 _atom_site_fract_z
 _atom_site_occupancy
  Er  Er0  1  0.348370  0.347555  0.347493  1
  Er  Er1  1  0.350662  0.350124  0.952564  1
  Er  Er2  1  0.350723  0.952461  0.350156  1
  Er  Er3  1  0.944696  0.352833  0.352718  1
  Er  Er4  1  0.808757  0.188934  0.188950  1
  Er  Er5  1  0.189209  0.810480  0.810602  1
  Er  Er6  1  0.186046  0.811070  0.187643  1
  Er  Er7  1  0.809604  0.190310  0.809743  1
  Er  Er8  1  0.186035  0.187711  0.811085  1
  Er  Er9  1  0.809634  0.809722  0.190268  1
  Er  Er10  1  0.936309  0.565125  0.565141  1
  Er  Er11  1  0.562109  0.937643  0.937689  1
  Er  Er12  1  0.563238  0.941526  0.565268  1
  Er  Er13  1  0.934282  0.563598  0.940147  1
  Er  Er14  1  0.563252  0.565329  0.941452  1
  Er  Er15  1  0.934320  0.940186  0.563539  1
  Mg  Mg16  1  0.278873  0.570666  0.570726  1
  In  In17  1  0.583281  0.580240  0.580242  1
  Ag  Ag18  1  0.582347  0.583854  0.249020  1
  Ag  Ag19  1  0.582337  0.249007  0.583861  1
  Rh  Rh20  1  0.140504  0.143270  0.143305  1
  Rh  Rh21  1  0.141632  0.143913  0.571445  1
  Rh  Rh22  1  0.141629  0.571444  0.143924  1
  Rh  Rh23  1  0.572148  0.142995  0.143014  1
