# generated using pymatgen
data_Ba2TaBrO4
_symmetry_space_group_name_H-M   'P 1'
_cell_length_a   7.21080500
_cell_length_b   8.07943400
_cell_length_c   12.65804900
_cell_angle_alpha   90.00000000
_cell_angle_beta   90.00000000
_cell_angle_gamma   90.00000000
_symmetry_Int_Tables_number   1
_chemical_formula_structural   Ba2TaBrO4
_chemical_formula_sum   'Ba8 Ta4 Br4 O16'
_cell_volume   737.44810050
_cell_formula_units_Z   4
loop_
 _symmetry_equiv_pos_site_id
 _symmetry_equiv_pos_as_xyz
  1  'x, y, z'
loop_
 _atom_site_type_symbol
 _atom_site_label
 _atom_site_symmetry_multiplicity
 _atom_site_fract_x
 _atom_site_fract_y
 _atom_site_fract_z
 _atom_site_occupancy
  Ba  Ba0  1  0.622308  0.250000  0.000000  1
  Ba  Ba1  1  0.377692  0.750000  0.000000  1
  Ba  Ba2  1  0.377692  0.750000  0.500000  1
  Ba  Ba3  1  0.622308  0.250000  0.500000  1
  Ba  Ba4  1  0.123617  0.025537  0.250000  1
  Ba  Ba5  1  0.876383  0.974463  0.750000  1
  Ba  Ba6  1  0.876383  0.525537  0.250000  1
  Ba  Ba7  1  0.123617  0.474463  0.750000  1
  Ta  Ta8  1  0.124642  0.250000  0.000000  1
  Ta  Ta9  1  0.875358  0.750000  0.000000  1
  Ta  Ta10  1  0.875358  0.750000  0.500000  1
  Ta  Ta11  1  0.124642  0.250000  0.500000  1
  Br  Br12  1  0.469106  0.325060  0.250000  1
  Br  Br13  1  0.530894  0.674940  0.750000  1
  Br  Br14  1  0.530894  0.825060  0.250000  1
  Br  Br15  1  0.469106  0.174940  0.750000  1
  O  O16  1  0.030462  0.772172  0.118534  1
  O  O17  1  0.969538  0.227828  0.881466  1
  O  O18  1  0.969538  0.227828  0.618534  1
  O  O19  1  0.969538  0.272172  0.381466  1
  O  O20  1  0.030462  0.772172  0.381466  1
  O  O21  1  0.030462  0.727828  0.618534  1
  O  O22  1  0.030462  0.727828  0.881466  1
  O  O23  1  0.969538  0.272172  0.118534  1
  O  O24  1  0.280098  0.070994  0.028489  1
  O  O25  1  0.719902  0.929006  0.971511  1
  O  O26  1  0.719902  0.929006  0.528489  1
  O  O27  1  0.719902  0.570994  0.471511  1
  O  O28  1  0.280098  0.070994  0.471511  1
  O  O29  1  0.280098  0.429006  0.528489  1
  O  O30  1  0.280098  0.429006  0.971511  1
  O  O31  1  0.719902  0.570994  0.028489  1
