# generated using pymatgen
data_Er3Tm9Th4MgHg3Rh4
_symmetry_space_group_name_H-M   'P 1'
_cell_length_a   9.63678095
_cell_length_b   9.66549608
_cell_length_c   9.66379874
_cell_angle_alpha   59.76340157
_cell_angle_beta   59.75461828
_cell_angle_gamma   59.74593933
_symmetry_Int_Tables_number   1
_chemical_formula_structural   Er3Tm9Th4MgHg3Rh4
_chemical_formula_sum   'Er3 Tm9 Th4 Mg1 Hg3 Rh4'
_cell_volume   632.94024317
_cell_formula_units_Z   1
loop_
 _symmetry_equiv_pos_site_id
 _symmetry_equiv_pos_as_xyz
  1  'x, y, z'
loop_
 _atom_site_type_symbol
 _atom_site_label
 _atom_site_symmetry_multiplicity
 _atom_site_fract_x
 _atom_site_fract_y
 _atom_site_fract_z
 _atom_site_occupancy
  Er  Er0  1  0.934077  0.566298  0.934785  1
  Er  Er1  1  0.565808  0.566662  0.935356  1
  Er  Er2  1  0.933731  0.934804  0.566209  1
  Tm  Tm3  1  0.812019  0.187543  0.188048  1
  Tm  Tm4  1  0.183698  0.814921  0.814787  1
  Tm  Tm5  1  0.185264  0.813859  0.187458  1
  Tm  Tm6  1  0.812959  0.186738  0.813815  1
  Tm  Tm7  1  0.185481  0.187200  0.813868  1
  Tm  Tm8  1  0.812823  0.813808  0.187045  1
  Tm  Tm9  1  0.934856  0.566599  0.566348  1
  Tm  Tm10  1  0.565419  0.935498  0.935117  1
  Tm  Tm11  1  0.565683  0.935810  0.566204  1
  Th  Th12  1  0.349407  0.349783  0.349839  1
  Th  Th13  1  0.352618  0.351773  0.945785  1
  Th  Th14  1  0.352583  0.945734  0.351798  1
  Th  Th15  1  0.938980  0.354422  0.354463  1
  Mg  Mg16  1  0.273156  0.573774  0.573834  1
  Hg  Hg17  1  0.584554  0.589871  0.589462  1
  Hg  Hg18  1  0.581929  0.588549  0.236750  1
  Hg  Hg19  1  0.581991  0.236244  0.588611  1
  Rh  Rh20  1  0.142578  0.144285  0.144321  1
  Rh  Rh21  1  0.141121  0.143154  0.569707  1
  Rh  Rh22  1  0.140929  0.569736  0.143222  1
  Rh  Rh23  1  0.568332  0.142925  0.143157  1
