# generated using pymatgen
data_Tm16Ga6OsRh
_symmetry_space_group_name_H-M   'P 1'
_cell_length_a   9.92083100
_cell_length_b   9.92083067
_cell_length_c   6.91549500
_cell_angle_alpha   90.00000000
_cell_angle_beta   90.00000000
_cell_angle_gamma   120.00000444
_symmetry_Int_Tables_number   1
_chemical_formula_structural   Tm16Ga6OsRh
_chemical_formula_sum   'Tm16 Ga6 Os1 Rh1'
_cell_volume   589.45407235
_cell_formula_units_Z   1
loop_
 _symmetry_equiv_pos_site_id
 _symmetry_equiv_pos_as_xyz
  1  'x, y, z'
loop_
 _atom_site_type_symbol
 _atom_site_label
 _atom_site_symmetry_multiplicity
 _atom_site_fract_x
 _atom_site_fract_y
 _atom_site_fract_z
 _atom_site_occupancy
  Tm  Tm0  1  0.171490  0.828510  0.990237  1
  Tm  Tm1  1  0.341974  0.170988  0.489345  1
  Tm  Tm2  1  0.829012  0.658026  0.489345  1
  Tm  Tm3  1  0.171490  0.342978  0.990237  1
  Tm  Tm4  1  0.657022  0.828510  0.990237  1
  Tm  Tm5  1  0.829012  0.170988  0.489345  1
  Tm  Tm6  1  0.333333  0.666667  0.660135  1
  Tm  Tm7  1  0.666667  0.333333  0.161910  1
  Tm  Tm8  1  0.465582  0.534418  0.294416  1
  Tm  Tm9  1  0.932899  0.466449  0.795854  1
  Tm  Tm10  1  0.533551  0.067101  0.795854  1
  Tm  Tm11  1  0.465582  0.931165  0.294416  1
  Tm  Tm12  1  0.068835  0.534418  0.294416  1
  Tm  Tm13  1  0.533551  0.466449  0.795854  1
  Tm  Tm14  1  0.000000  0.000000  0.266495  1
  Tm  Tm15  1  0.000000  0.000000  0.765350  1
  Ga  Ga16  1  0.163241  0.836759  0.541357  1
  Ga  Ga17  1  0.327403  0.163701  0.041526  1
  Ga  Ga18  1  0.836299  0.672597  0.041526  1
  Ga  Ga19  1  0.163241  0.326482  0.541357  1
  Ga  Ga20  1  0.673518  0.836759  0.541357  1
  Ga  Ga21  1  0.836299  0.163701  0.041526  1
  Os  Os22  1  0.333333  0.666667  0.056040  1
  Rh  Rh23  1  0.666667  0.333333  0.555871  1
