# generated using pymatgen
data_Nb12AlZn7N4
_symmetry_space_group_name_H-M   'P 1'
_cell_length_a   7.04604001
_cell_length_b   7.04604001
_cell_length_c   7.04604001
_cell_angle_alpha   89.99573895
_cell_angle_beta   89.99573895
_cell_angle_gamma   89.99573895
_symmetry_Int_Tables_number   1
_chemical_formula_structural   Nb12AlZn7N4
_chemical_formula_sum   'Nb12 Al1 Zn7 N4'
_cell_volume   349.81248945
_cell_formula_units_Z   1
loop_
 _symmetry_equiv_pos_site_id
 _symmetry_equiv_pos_as_xyz
  1  'x, y, z'
loop_
 _atom_site_type_symbol
 _atom_site_label
 _atom_site_symmetry_multiplicity
 _atom_site_fract_x
 _atom_site_fract_y
 _atom_site_fract_z
 _atom_site_occupancy
  Nb  Nb0  1  0.792341  0.957789  0.373629  1
  Nb  Nb1  1  0.708121  0.042835  0.875933  1
  Nb  Nb2  1  0.207755  0.457207  0.125356  1
  Nb  Nb3  1  0.292634  0.542671  0.624727  1
  Nb  Nb4  1  0.957789  0.373629  0.792341  1
  Nb  Nb5  1  0.042835  0.875933  0.708121  1
  Nb  Nb6  1  0.457207  0.125356  0.207755  1
  Nb  Nb7  1  0.542671  0.624727  0.292634  1
  Nb  Nb8  1  0.373629  0.792341  0.957789  1
  Nb  Nb9  1  0.875933  0.708121  0.042835  1
  Nb  Nb10  1  0.125356  0.207755  0.457207  1
  Nb  Nb11  1  0.624727  0.292634  0.542671  1
  Al  Al12  1  0.072585  0.072585  0.072585  1
  Zn  Zn13  1  0.179533  0.819368  0.322921  1
  Zn  Zn14  1  0.322921  0.179533  0.819368  1
  Zn  Zn15  1  0.819368  0.322921  0.179533  1
  Zn  Zn16  1  0.678730  0.678730  0.678730  1
  Zn  Zn17  1  0.571192  0.429123  0.928698  1
  Zn  Zn18  1  0.429123  0.928698  0.571192  1
  Zn  Zn19  1  0.928698  0.571192  0.429123  1
  N  N20  1  0.873690  0.124319  0.623346  1
  N  N21  1  0.623346  0.873690  0.124319  1
  N  N22  1  0.124319  0.623346  0.873690  1
  N  N23  1  0.375496  0.375496  0.375496  1
