# generated using pymatgen
data_K4Mn2CrGaF14
_symmetry_space_group_name_H-M   'P 1'
_cell_length_a   7.82317995
_cell_length_b   7.81868678
_cell_length_c   7.81868661
_cell_angle_alpha   120.79041224
_cell_angle_beta   117.20696101
_cell_angle_gamma   91.75436081
_symmetry_Int_Tables_number   1
_chemical_formula_structural   K4Mn2CrGaF14
_chemical_formula_sum   'K4 Mn2 Cr1 Ga1 F14'
_cell_volume   342.75710626
_cell_formula_units_Z   1
loop_
 _symmetry_equiv_pos_site_id
 _symmetry_equiv_pos_as_xyz
  1  'x, y, z'
loop_
 _atom_site_type_symbol
 _atom_site_label
 _atom_site_symmetry_multiplicity
 _atom_site_fract_x
 _atom_site_fract_y
 _atom_site_fract_z
 _atom_site_occupancy
  K  K0  1  0.500000  0.500000  0.000000  1
  K  K1  1  0.000000  0.000000  0.000000  1
  K  K2  1  0.000000  0.500000  0.000000  1
  K  K3  1  0.000000  0.000000  0.500000  1
  Mn  Mn4  1  0.500000  0.500000  0.500000  1
  Mn  Mn5  1  0.500000  0.000000  0.000000  1
  Cr  Cr6  1  0.500000  0.000000  0.500000  1
  Ga  Ga7  1  0.000000  0.500000  0.500000  1
  F  F8  1  0.875980  0.582692  0.293288  1
  F  F9  1  0.205518  0.915352  0.290168  1
  F  F10  1  0.182176  0.793888  0.751848  1
  F  F11  1  0.457299  0.703293  0.386907  1
  F  F12  1  0.457299  0.070392  0.754006  1
  F  F13  1  0.182176  0.430327  0.388287  1
  F  F14  1  0.817824  0.569673  0.611713  1
  F  F15  1  0.542701  0.929608  0.245994  1
  F  F16  1  0.542701  0.296707  0.613093  1
  F  F17  1  0.817824  0.206112  0.248152  1
  F  F18  1  0.386935  0.249877  0.137058  1
  F  F19  1  0.124020  0.417308  0.706712  1
  F  F20  1  0.794482  0.084648  0.709832  1
  F  F21  1  0.613065  0.750123  0.862942  1
