# generated using pymatgen
data_Dy7Sn23(Os2Rh)2
_symmetry_space_group_name_H-M   'P 1'
_cell_length_a   9.85865879
_cell_length_b   9.85992826
_cell_length_c   10.13855020
_cell_angle_alpha   90.00000090
_cell_angle_beta   89.68738705
_cell_angle_gamma   120.00424529
_symmetry_Int_Tables_number   1
_chemical_formula_structural   Dy7Sn23(Os2Rh)2
_chemical_formula_sum   'Dy7 Sn23 Os4 Rh2'
_cell_volume   853.43584278
_cell_formula_units_Z   1
loop_
 _symmetry_equiv_pos_site_id
 _symmetry_equiv_pos_as_xyz
  1  'x, y, z'
loop_
 _atom_site_type_symbol
 _atom_site_label
 _atom_site_symmetry_multiplicity
 _atom_site_fract_x
 _atom_site_fract_y
 _atom_site_fract_z
 _atom_site_occupancy
  Dy  Dy0  1  0.000000  0.000000  0.000000  1
  Dy  Dy1  1  0.483966  0.519606  0.305840  1
  Dy  Dy2  1  0.516034  0.480394  0.694160  1
  Dy  Dy3  1  0.483966  0.964359  0.305840  1
  Dy  Dy4  1  0.516034  0.035641  0.694160  1
  Dy  Dy5  1  0.035195  0.517597  0.303906  1
  Dy  Dy6  1  0.964805  0.482403  0.696094  1
  Sn  Sn7  1  0.349740  0.998286  0.000173  1
  Sn  Sn8  1  0.650260  0.001714  0.999827  1
  Sn  Sn9  1  0.000000  0.350119  0.000000  1
  Sn  Sn10  1  0.000000  0.649881  0.000000  1
  Sn  Sn11  1  0.650260  0.648545  0.999827  1
  Sn  Sn12  1  0.349740  0.351455  0.000173  1
  Sn  Sn13  1  0.331200  0.665600  0.819649  1
  Sn  Sn14  1  0.668800  0.334400  0.180351  1
  Sn  Sn15  1  0.000000  0.000000  0.500000  1
  Sn  Sn16  1  0.779824  0.220168  0.458902  1
  Sn  Sn17  1  0.220176  0.779832  0.541098  1
  Sn  Sn18  1  0.779824  0.559656  0.458902  1
  Sn  Sn19  1  0.220176  0.440344  0.541098  1
  Sn  Sn20  1  0.441341  0.220671  0.457178  1
  Sn  Sn21  1  0.558659  0.779329  0.542822  1
  Sn  Sn22  1  0.334224  0.667113  0.123657  1
  Sn  Sn23  1  0.665776  0.332887  0.876343  1
  Sn  Sn24  1  0.118530  0.882561  0.277232  1
  Sn  Sn25  1  0.881470  0.117439  0.722768  1
  Sn  Sn26  1  0.118530  0.235968  0.277232  1
  Sn  Sn27  1  0.881470  0.764032  0.722768  1
  Sn  Sn28  1  0.763954  0.881976  0.276375  1
  Sn  Sn29  1  0.236046  0.118024  0.723625  1
  Os  Os30  1  0.830574  0.169122  0.200742  1
  Os  Os31  1  0.169426  0.830878  0.799258  1
  Os  Os32  1  0.830574  0.661450  0.200742  1
  Os  Os33  1  0.169426  0.338550  0.799258  1
  Rh  Rh34  1  0.339525  0.169762  0.198600  1
  Rh  Rh35  1  0.660475  0.830238  0.801400  1
