# generated using pymatgen
data_Ba3CePbS6
_symmetry_space_group_name_H-M   'P 1'
_cell_length_a   8.70411312
_cell_length_b   8.70411225
_cell_length_c   8.70411251
_cell_angle_alpha   91.00839388
_cell_angle_beta   91.00839152
_cell_angle_gamma   91.00840559
_symmetry_Int_Tables_number   1
_chemical_formula_structural   Ba3CePbS6
_chemical_formula_sum   'Ba6 Ce2 Pb2 S12'
_cell_volume   659.12726376
_cell_formula_units_Z   2
loop_
 _symmetry_equiv_pos_site_id
 _symmetry_equiv_pos_as_xyz
  1  'x, y, z'
loop_
 _atom_site_type_symbol
 _atom_site_label
 _atom_site_symmetry_multiplicity
 _atom_site_fract_x
 _atom_site_fract_y
 _atom_site_fract_z
 _atom_site_occupancy
  Ba  Ba0  1  0.877840  0.622160  0.250000  1
  Ba  Ba1  1  0.250000  0.877840  0.622160  1
  Ba  Ba2  1  0.622160  0.250000  0.877840  1
  Ba  Ba3  1  0.750000  0.122160  0.377840  1
  Ba  Ba4  1  0.377840  0.750000  0.122160  1
  Ba  Ba5  1  0.122160  0.377840  0.750000  1
  Ce  Ce6  1  0.500000  0.500000  0.500000  1
  Ce  Ce7  1  0.000000  0.000000  0.000000  1
  Pb  Pb8  1  0.250000  0.250000  0.250000  1
  Pb  Pb9  1  0.750000  0.750000  0.750000  1
  S  S10  1  0.202444  0.554347  0.418416  1
  S  S11  1  0.418416  0.202444  0.554347  1
  S  S12  1  0.554347  0.418416  0.202444  1
  S  S13  1  0.918416  0.054347  0.702444  1
  S  S14  1  0.702444  0.918416  0.054347  1
  S  S15  1  0.054347  0.702444  0.918416  1
  S  S16  1  0.797556  0.445653  0.581584  1
  S  S17  1  0.581584  0.797556  0.445653  1
  S  S18  1  0.445653  0.581584  0.797556  1
  S  S19  1  0.081584  0.945653  0.297556  1
  S  S20  1  0.297556  0.081584  0.945653  1
  S  S21  1  0.945653  0.297556  0.081584  1
