# generated using pymatgen
data_Ce8Zn2CoSi12Rh
_symmetry_space_group_name_H-M   'P 1'
_cell_length_a   8.16206900
_cell_length_b   8.16206866
_cell_length_c   8.29842000
_cell_angle_alpha   90.00000000
_cell_angle_beta   90.00000000
_cell_angle_gamma   119.99999732
_symmetry_Int_Tables_number   1
_chemical_formula_structural   Ce8Zn2CoSi12Rh
_chemical_formula_sum   'Ce8 Zn2 Co1 Si12 Rh1'
_cell_volume   478.76959357
_cell_formula_units_Z   1
loop_
 _symmetry_equiv_pos_site_id
 _symmetry_equiv_pos_as_xyz
  1  'x, y, z'
loop_
 _atom_site_type_symbol
 _atom_site_label
 _atom_site_symmetry_multiplicity
 _atom_site_fract_x
 _atom_site_fract_y
 _atom_site_fract_z
 _atom_site_occupancy
  Ce  Ce0  1  0.000000  0.000000  0.250452  1
  Ce  Ce1  1  0.000000  0.000000  0.749226  1
  Ce  Ce2  1  0.494493  0.505507  0.251396  1
  Ce  Ce3  1  0.494493  0.988984  0.251396  1
  Ce  Ce4  1  0.011016  0.505507  0.251396  1
  Ce  Ce5  1  0.493532  0.506468  0.748833  1
  Ce  Ce6  1  0.493532  0.987064  0.748833  1
  Ce  Ce7  1  0.012936  0.506468  0.748833  1
  Zn  Zn8  1  0.666667  0.333333  0.505056  1
  Zn  Zn9  1  0.666667  0.333333  0.996276  1
  Co  Co10  1  0.333333  0.666667  0.498577  1
  Si  Si11  1  0.171616  0.828384  0.500376  1
  Si  Si12  1  0.171616  0.343233  0.500376  1
  Si  Si13  1  0.656767  0.828384  0.500376  1
  Si  Si14  1  0.835701  0.164299  0.500118  1
  Si  Si15  1  0.835701  0.671399  0.500118  1
  Si  Si16  1  0.328601  0.164299  0.500118  1
  Si  Si17  1  0.834791  0.165209  0.998963  1
  Si  Si18  1  0.834791  0.669581  0.998963  1
  Si  Si19  1  0.330419  0.165209  0.998963  1
  Si  Si20  1  0.165732  0.834268  0.000127  1
  Si  Si21  1  0.165732  0.331467  0.000127  1
  Si  Si22  1  0.668533  0.834268  0.000127  1
  Rh  Rh23  1  0.333333  0.666667  0.000976  1
