# generated using pymatgen
data_Ho6B14RuW
_symmetry_space_group_name_H-M   'P 1'
_cell_length_a   8.07865345
_cell_length_b   8.07865357
_cell_length_c   9.36833900
_cell_angle_alpha   90.00000000
_cell_angle_beta   90.00000000
_cell_angle_gamma   155.07809216
_symmetry_Int_Tables_number   1
_chemical_formula_structural   Ho6B14RuW
_chemical_formula_sum   'Ho6 B14 Ru1 W1'
_cell_volume   257.64229750
_cell_formula_units_Z   1
loop_
 _symmetry_equiv_pos_site_id
 _symmetry_equiv_pos_as_xyz
  1  'x, y, z'
loop_
 _atom_site_type_symbol
 _atom_site_label
 _atom_site_symmetry_multiplicity
 _atom_site_fract_x
 _atom_site_fract_y
 _atom_site_fract_z
 _atom_site_occupancy
  Ho  Ho0  1  0.893920  0.106080  0.437754  1
  Ho  Ho1  1  0.107263  0.892737  0.558018  1
  Ho  Ho2  1  0.893920  0.106080  0.062246  1
  Ho  Ho3  1  0.107263  0.892737  0.941982  1
  Ho  Ho4  1  0.243441  0.756559  0.250000  1
  Ho  Ho5  1  0.754621  0.245379  0.750000  1
  B  B6  1  0.726624  0.273376  0.464797  1
  B  B7  1  0.271905  0.728095  0.531877  1
  B  B8  1  0.726624  0.273376  0.035203  1
  B  B9  1  0.271905  0.728095  0.968123  1
  B  B10  1  0.631559  0.368441  0.151584  1
  B  B11  1  0.365138  0.634862  0.852774  1
  B  B12  1  0.631559  0.368441  0.348416  1
  B  B13  1  0.365138  0.634862  0.647226  1
  B  B14  1  0.520896  0.479104  0.096517  1
  B  B15  1  0.480814  0.519186  0.909295  1
  B  B16  1  0.520896  0.479104  0.403483  1
  B  B17  1  0.480814  0.519186  0.590705  1
  B  B18  1  0.457615  0.542385  0.250000  1
  B  B19  1  0.546448  0.453552  0.750000  1
  Ru  Ru20  1  0.053920  0.946080  0.250000  1
  W  W21  1  0.947716  0.052284  0.750000  1
