# generated using pymatgen
data_Ho2TlIn(SbO4)4
_symmetry_space_group_name_H-M   'P 1'
_cell_length_a   5.37691269
_cell_length_b   7.57051787
_cell_length_c   7.66205091
_cell_angle_alpha   80.24164094
_cell_angle_beta   92.05346321
_cell_angle_gamma   88.32758586
_symmetry_Int_Tables_number   1
_chemical_formula_structural   Ho2TlIn(SbO4)4
_chemical_formula_sum   'Ho2 Tl1 In1 Sb4 O16'
_cell_volume   306.98460683
_cell_formula_units_Z   1
loop_
 _symmetry_equiv_pos_site_id
 _symmetry_equiv_pos_as_xyz
  1  'x, y, z'
loop_
 _atom_site_type_symbol
 _atom_site_label
 _atom_site_symmetry_multiplicity
 _atom_site_fract_x
 _atom_site_fract_y
 _atom_site_fract_z
 _atom_site_occupancy
  Ho  Ho0  1  0.259248  0.617919  0.133145  1
  Ho  Ho1  1  0.740796  0.382590  0.869311  1
  Tl  Tl2  1  0.774179  0.877022  0.832863  1
  In  In3  1  0.225423  0.129860  0.168505  1
  Sb  Sb4  1  0.748072  0.810371  0.327214  1
  Sb  Sb5  1  0.248316  0.191845  0.671947  1
  Sb  Sb6  1  0.270403  0.689296  0.658288  1
  Sb  Sb7  1  0.729059  0.309094  0.340375  1
  O  O8  1  0.435123  0.887440  0.186919  1
  O  O9  1  0.561039  0.122111  0.813913  1
  O  O10  1  0.003061  0.611748  0.823440  1
  O  O11  1  0.999374  0.384760  0.176648  1
  O  O12  1  0.932031  0.808386  0.107639  1
  O  O13  1  0.073129  0.189270  0.898476  1
  O  O14  1  0.482279  0.666134  0.886318  1
  O  O15  1  0.514331  0.325706  0.114814  1
  O  O16  1  0.601325  0.563822  0.325168  1
  O  O17  1  0.399227  0.435756  0.671149  1
  O  O18  1  0.132336  0.940553  0.674819  1
  O  O19  1  0.878641  0.060281  0.321207  1
  O  O20  1  0.585784  0.804695  0.559112  1
  O  O21  1  0.410732  0.193135  0.437630  1
  O  O22  1  0.079163  0.690416  0.430516  1
  O  O23  1  0.916928  0.307791  0.570585  1
