# generated using pymatgen
data_Dy8MgSc10Si16Hg
_symmetry_space_group_name_H-M   'P 1'
_cell_length_a   7.02187824
_cell_length_b   7.41171275
_cell_length_c   14.01187700
_cell_angle_alpha   90.00000000
_cell_angle_beta   90.00000000
_cell_angle_gamma   89.81788185
_symmetry_Int_Tables_number   1
_chemical_formula_structural   Dy8MgSc10Si16Hg
_chemical_formula_sum   'Dy8 Mg1 Sc10 Si16 Hg1'
_cell_volume   729.23246756
_cell_formula_units_Z   1
loop_
 _symmetry_equiv_pos_site_id
 _symmetry_equiv_pos_as_xyz
  1  'x, y, z'
loop_
 _atom_site_type_symbol
 _atom_site_label
 _atom_site_symmetry_multiplicity
 _atom_site_fract_x
 _atom_site_fract_y
 _atom_site_fract_z
 _atom_site_occupancy
  Dy  Dy0  1  0.009468  0.177103  0.097119  1
  Dy  Dy1  1  0.990653  0.817993  0.902453  1
  Dy  Dy2  1  0.485509  0.673217  0.902671  1
  Dy  Dy3  1  0.990653  0.817993  0.597547  1
  Dy  Dy4  1  0.512783  0.325334  0.096522  1
  Dy  Dy5  1  0.009468  0.177103  0.402881  1
  Dy  Dy6  1  0.512783  0.325334  0.403478  1
  Dy  Dy7  1  0.485509  0.673217  0.597329  1
  Mg  Mg8  1  0.840653  0.494163  0.250000  1
  Sc  Sc9  1  0.341048  0.003115  0.250000  1
  Sc  Sc10  1  0.657600  0.998063  0.750000  1
  Sc  Sc11  1  0.324897  0.183251  0.625475  1
  Sc  Sc12  1  0.672608  0.820179  0.375514  1
  Sc  Sc13  1  0.166238  0.680097  0.373754  1
  Sc  Sc14  1  0.672608  0.820179  0.124486  1
  Sc  Sc15  1  0.838371  0.322821  0.625939  1
  Sc  Sc16  1  0.324897  0.183251  0.874525  1
  Sc  Sc17  1  0.838371  0.322821  0.874061  1
  Sc  Sc18  1  0.166238  0.680097  0.126246  1
  Si  Si19  1  0.027387  0.093729  0.750000  1
  Si  Si20  1  0.968716  0.898313  0.250000  1
  Si  Si21  1  0.461379  0.618589  0.250000  1
  Si  Si22  1  0.544724  0.379360  0.750000  1
  Si  Si23  1  0.291852  0.887978  0.750000  1
  Si  Si24  1  0.710359  0.118615  0.250000  1
  Si  Si25  1  0.221946  0.373251  0.250000  1
  Si  Si26  1  0.770765  0.630544  0.750000  1
  Si  Si27  1  0.162561  0.458897  0.528034  1
  Si  Si28  1  0.840167  0.538031  0.466148  1
  Si  Si29  1  0.342955  0.967285  0.461522  1
  Si  Si30  1  0.840167  0.538031  0.033852  1
  Si  Si31  1  0.657548  0.032540  0.539950  1
  Si  Si32  1  0.162561  0.458897  0.971966  1
  Si  Si33  1  0.657548  0.032540  0.960050  1
  Si  Si34  1  0.342955  0.967285  0.038478  1
  Hg  Hg35  1  0.156055  0.510784  0.750000  1
