# generated using pymatgen
data_Al4CuAu10
_symmetry_space_group_name_H-M   'P 1'
_cell_length_a   3.29125200
_cell_length_b   9.09080800
_cell_length_c   16.92791100
_cell_angle_alpha   90.00000000
_cell_angle_beta   90.00000000
_cell_angle_gamma   90.00000000
_symmetry_Int_Tables_number   1
_chemical_formula_structural   Al4CuAu10
_chemical_formula_sum   'Al8 Cu2 Au20'
_cell_volume   506.48546722
_cell_formula_units_Z   2
loop_
 _symmetry_equiv_pos_site_id
 _symmetry_equiv_pos_as_xyz
  1  'x, y, z'
loop_
 _atom_site_type_symbol
 _atom_site_label
 _atom_site_symmetry_multiplicity
 _atom_site_fract_x
 _atom_site_fract_y
 _atom_site_fract_z
 _atom_site_occupancy
  Al  Al0  1  0.000000  0.976215  0.197295  1
  Al  Al1  1  0.000000  0.023785  0.802705  1
  Al  Al2  1  0.500000  0.476215  0.302705  1
  Al  Al3  1  0.500000  0.523785  0.697295  1
  Al  Al4  1  0.000000  0.027857  0.401408  1
  Al  Al5  1  0.000000  0.972143  0.598592  1
  Al  Al6  1  0.500000  0.527857  0.098592  1
  Al  Al7  1  0.500000  0.472143  0.901408  1
  Cu  Cu8  1  0.000000  0.000000  0.000000  1
  Cu  Cu9  1  0.500000  0.500000  0.500000  1
  Au  Au10  1  0.000000  0.344333  0.015299  1
  Au  Au11  1  0.000000  0.655667  0.984701  1
  Au  Au12  1  0.500000  0.844333  0.484701  1
  Au  Au13  1  0.500000  0.155667  0.515299  1
  Au  Au14  1  0.000000  0.362052  0.188156  1
  Au  Au15  1  0.000000  0.637948  0.811844  1
  Au  Au16  1  0.500000  0.862052  0.311844  1
  Au  Au17  1  0.500000  0.137948  0.688156  1
  Au  Au18  1  0.000000  0.321999  0.405257  1
  Au  Au19  1  0.000000  0.678001  0.594743  1
  Au  Au20  1  0.500000  0.821999  0.094743  1
  Au  Au21  1  0.500000  0.178001  0.905257  1
  Au  Au22  1  0.000000  0.366543  0.606318  1
  Au  Au23  1  0.000000  0.633457  0.393682  1
  Au  Au24  1  0.500000  0.866543  0.893682  1
  Au  Au25  1  0.500000  0.133457  0.106318  1
  Au  Au26  1  0.000000  0.332616  0.785614  1
  Au  Au27  1  0.000000  0.667384  0.214386  1
  Au  Au28  1  0.500000  0.832616  0.714386  1
  Au  Au29  1  0.500000  0.167384  0.285614  1
