# generated using pymatgen
data_TiNb(TcGe)2
_symmetry_space_group_name_H-M   'P 1'
_cell_length_a   3.32209700
_cell_length_b   6.99325201
_cell_length_c   11.99957805
_cell_angle_alpha   89.66016044
_cell_angle_beta   90.00000000
_cell_angle_gamma   90.00000000
_symmetry_Int_Tables_number   1
_chemical_formula_structural   TiNb(TcGe)2
_chemical_formula_sum   'Ti3 Nb3 Tc6 Ge6'
_cell_volume   278.77243190
_cell_formula_units_Z   3
loop_
 _symmetry_equiv_pos_site_id
 _symmetry_equiv_pos_as_xyz
  1  'x, y, z'
loop_
 _atom_site_type_symbol
 _atom_site_label
 _atom_site_symmetry_multiplicity
 _atom_site_fract_x
 _atom_site_fract_y
 _atom_site_fract_z
 _atom_site_occupancy
  Ti  Ti0  1  0.500000  0.296787  0.299820  1
  Ti  Ti1  1  0.500000  0.297928  0.698109  1
  Ti  Ti2  1  0.500000  0.798951  0.201268  1
  Nb  Nb3  1  0.500000  0.405744  0.001933  1
  Nb  Nb4  1  0.500000  0.897780  0.500000  1
  Nb  Nb5  1  0.500000  0.796271  0.800976  1
  Tc  Tc6  1  0.000000  0.742003  0.000124  1
  Tc  Tc7  1  0.000000  0.239122  0.500228  1
  Tc  Tc8  1  0.000000  0.628089  0.628580  1
  Tc  Tc9  1  0.000000  0.133152  0.131387  1
  Tc  Tc10  1  0.000000  0.131684  0.869167  1
  Tc  Tc11  1  0.000000  0.631979  0.368993  1
  Ge  Ge12  1  0.000000  0.002017  0.667900  1
  Ge  Ge13  1  0.000000  0.502425  0.169462  1
  Ge  Ge14  1  0.000000  0.495284  0.830810  1
  Ge  Ge15  1  0.000000  0.001303  0.331716  1
  Ge  Ge16  1  0.500000  0.003192  0.001809  1
  Ge  Ge17  1  0.500000  0.496485  0.497719  1
