# generated using pymatgen
data_Nb3VCoNi2B7
_symmetry_space_group_name_H-M   'P 1'
_cell_length_a   9.37042802
_cell_length_b   9.37042834
_cell_length_c   9.03104500
_cell_angle_alpha   90.00000000
_cell_angle_beta   90.00000000
_cell_angle_gamma   160.09526116
_symmetry_Int_Tables_number   1
_chemical_formula_structural   Nb3VCoNi2B7
_chemical_formula_sum   'Nb6 V2 Co2 Ni4 B14'
_cell_volume   269.97251565
_cell_formula_units_Z   2
loop_
 _symmetry_equiv_pos_site_id
 _symmetry_equiv_pos_as_xyz
  1  'x, y, z'
loop_
 _atom_site_type_symbol
 _atom_site_label
 _atom_site_symmetry_multiplicity
 _atom_site_fract_x
 _atom_site_fract_y
 _atom_site_fract_z
 _atom_site_occupancy
  Nb  Nb0  1  0.699275  0.300725  0.250000  1
  Nb  Nb1  1  0.300725  0.699275  0.750000  1
  Nb  Nb2  1  0.583527  0.416473  0.555390  1
  Nb  Nb3  1  0.416473  0.583527  0.444610  1
  Nb  Nb4  1  0.416473  0.583527  0.055390  1
  Nb  Nb5  1  0.583527  0.416473  0.944610  1
  V  V6  1  0.541565  0.458435  0.250000  1
  V  V7  1  0.458435  0.541565  0.750000  1
  Co  Co8  1  0.843960  0.156040  0.250000  1
  Co  Co9  1  0.156040  0.843960  0.750000  1
  Ni  Ni10  1  0.800465  0.199535  0.504188  1
  Ni  Ni11  1  0.199535  0.800465  0.495812  1
  Ni  Ni12  1  0.199535  0.800465  0.004188  1
  Ni  Ni13  1  0.800465  0.199535  0.995812  1
  B  B14  1  0.954603  0.045397  0.250000  1
  B  B15  1  0.045397  0.954603  0.750000  1
  B  B16  1  0.888871  0.111129  0.649257  1
  B  B17  1  0.111129  0.888871  0.350743  1
  B  B18  1  0.111129  0.888871  0.149257  1
  B  B19  1  0.888871  0.111129  0.850743  1
  B  B20  1  0.709381  0.290619  0.649852  1
  B  B21  1  0.290619  0.709381  0.350148  1
  B  B22  1  0.290619  0.709381  0.149852  1
  B  B23  1  0.709381  0.290619  0.850148  1
  B  B24  1  0.985064  0.014936  0.590651  1
  B  B25  1  0.014936  0.985064  0.409349  1
  B  B26  1  0.014936  0.985064  0.090651  1
  B  B27  1  0.985064  0.014936  0.909349  1
