# generated using pymatgen
data_Tb4YEr5(CoBi2)2
_symmetry_space_group_name_H-M   'P 1'
_cell_length_a   8.01635408
_cell_length_b   8.89601800
_cell_length_c   12.43764570
_cell_angle_alpha   90.00000000
_cell_angle_beta   89.94031872
_cell_angle_gamma   90.00000000
_symmetry_Int_Tables_number   1
_chemical_formula_structural   Tb4YEr5(CoBi2)2
_chemical_formula_sum   'Tb8 Y2 Er10 Co4 Bi8'
_cell_volume   886.97318456
_cell_formula_units_Z   2
loop_
 _symmetry_equiv_pos_site_id
 _symmetry_equiv_pos_as_xyz
  1  'x, y, z'
loop_
 _atom_site_type_symbol
 _atom_site_label
 _atom_site_symmetry_multiplicity
 _atom_site_fract_x
 _atom_site_fract_y
 _atom_site_fract_z
 _atom_site_occupancy
  Tb  Tb0  1  0.653125  0.750000  0.698120  1
  Tb  Tb1  1  0.346875  0.250000  0.301880  1
  Tb  Tb2  1  0.152657  0.250000  0.800336  1
  Tb  Tb3  1  0.847343  0.750000  0.199664  1
  Tb  Tb4  1  0.121369  0.750000  0.812295  1
  Tb  Tb5  1  0.878631  0.250000  0.187705  1
  Tb  Tb6  1  0.621380  0.250000  0.687478  1
  Tb  Tb7  1  0.378620  0.750000  0.312522  1
  Y  Y8  1  0.550861  0.750000  0.997595  1
  Y  Y9  1  0.449139  0.250000  0.002405  1
  Er  Er10  1  0.052083  0.250000  0.503281  1
  Er  Er11  1  0.947917  0.750000  0.496719  1
  Er  Er12  1  0.827301  0.464668  0.935971  1
  Er  Er13  1  0.172699  0.535332  0.064029  1
  Er  Er14  1  0.325941  0.536328  0.563076  1
  Er  Er15  1  0.172699  0.964668  0.064029  1
  Er  Er16  1  0.674059  0.463672  0.436924  1
  Er  Er17  1  0.827301  0.035332  0.935971  1
  Er  Er18  1  0.674059  0.036328  0.436924  1
  Er  Er19  1  0.325941  0.963672  0.563076  1
  Co  Co20  1  0.941367  0.750000  0.993372  1
  Co  Co21  1  0.058633  0.250000  0.006628  1
  Co  Co22  1  0.437656  0.250000  0.507929  1
  Co  Co23  1  0.562344  0.750000  0.492071  1
  Bi  Bi24  1  0.932474  0.007081  0.671745  1
  Bi  Bi25  1  0.067526  0.992919  0.328255  1
  Bi  Bi26  1  0.431983  0.992449  0.826466  1
  Bi  Bi27  1  0.067526  0.507081  0.328255  1
  Bi  Bi28  1  0.568017  0.007551  0.173534  1
  Bi  Bi29  1  0.932474  0.492919  0.671745  1
  Bi  Bi30  1  0.568017  0.492449  0.173534  1
  Bi  Bi31  1  0.431983  0.507551  0.826466  1
