# generated using pymatgen
data_AlCu6MoSe8
_symmetry_space_group_name_H-M   'P 1'
_cell_length_a   7.89091700
_cell_length_b   7.89091711
_cell_length_c   13.04232200
_cell_angle_alpha   90.00000000
_cell_angle_beta   90.00000000
_cell_angle_gamma   119.99999534
_symmetry_Int_Tables_number   1
_chemical_formula_structural   AlCu6MoSe8
_chemical_formula_sum   'Al2 Cu12 Mo2 Se16'
_cell_volume   703.29985387
_cell_formula_units_Z   2
loop_
 _symmetry_equiv_pos_site_id
 _symmetry_equiv_pos_as_xyz
  1  'x, y, z'
loop_
 _atom_site_type_symbol
 _atom_site_label
 _atom_site_symmetry_multiplicity
 _atom_site_fract_x
 _atom_site_fract_y
 _atom_site_fract_z
 _atom_site_occupancy
  Al  Al0  1  0.000000  0.000000  0.851806  1
  Al  Al1  1  0.000000  0.000000  0.351806  1
  Cu  Cu2  1  0.835568  0.671138  0.103726  1
  Cu  Cu3  1  0.500822  0.499178  0.355550  1
  Cu  Cu4  1  0.001644  0.500822  0.855550  1
  Cu  Cu5  1  0.835568  0.164432  0.103726  1
  Cu  Cu6  1  0.499178  0.500822  0.855550  1
  Cu  Cu7  1  0.164432  0.328862  0.603726  1
  Cu  Cu8  1  0.500822  0.001644  0.355550  1
  Cu  Cu9  1  0.998356  0.499178  0.355550  1
  Cu  Cu10  1  0.164432  0.835568  0.603726  1
  Cu  Cu11  1  0.499178  0.998356  0.855550  1
  Cu  Cu12  1  0.671138  0.835568  0.603726  1
  Cu  Cu13  1  0.328862  0.164432  0.103726  1
  Mo  Mo14  1  0.333333  0.666667  0.480686  1
  Mo  Mo15  1  0.666667  0.333333  0.980686  1
  Se  Se16  1  0.000000  0.000000  0.037272  1
  Se  Se17  1  0.334464  0.167232  0.289523  1
  Se  Se18  1  0.832768  0.167232  0.289523  1
  Se  Se19  1  0.000742  0.500371  0.541337  1
  Se  Se20  1  0.832768  0.665536  0.289523  1
  Se  Se21  1  0.666667  0.333333  0.795829  1
  Se  Se22  1  0.167232  0.334464  0.789523  1
  Se  Se23  1  0.499629  0.500371  0.541337  1
  Se  Se24  1  0.000000  0.000000  0.537272  1
  Se  Se25  1  0.333333  0.666667  0.295829  1
  Se  Se26  1  0.999258  0.499629  0.041337  1
  Se  Se27  1  0.499629  0.999258  0.541337  1
  Se  Se28  1  0.167232  0.832768  0.789523  1
  Se  Se29  1  0.665536  0.832768  0.789523  1
  Se  Se30  1  0.500371  0.000742  0.041337  1
  Se  Se31  1  0.500371  0.499629  0.041337  1
