# generated using pymatgen
data_Ba4TaNb(ClO4)2
_symmetry_space_group_name_H-M   'P 1'
_cell_length_a   7.20499900
_cell_length_b   8.07096900
_cell_length_c   12.52996600
_cell_angle_alpha   90.00000000
_cell_angle_beta   90.00000000
_cell_angle_gamma   90.00000000
_symmetry_Int_Tables_number   1
_chemical_formula_structural   Ba4TaNb(ClO4)2
_chemical_formula_sum   'Ba8 Ta2 Nb2 Cl4 O16'
_cell_volume   728.63410724
_cell_formula_units_Z   2
loop_
 _symmetry_equiv_pos_site_id
 _symmetry_equiv_pos_as_xyz
  1  'x, y, z'
loop_
 _atom_site_type_symbol
 _atom_site_label
 _atom_site_symmetry_multiplicity
 _atom_site_fract_x
 _atom_site_fract_y
 _atom_site_fract_z
 _atom_site_occupancy
  Ba  Ba0  1  0.859220  0.527486  0.750000  1
  Ba  Ba1  1  0.377559  0.750000  0.500000  1
  Ba  Ba2  1  0.140738  0.472560  0.250000  1
  Ba  Ba3  1  0.377559  0.750000  0.000000  1
  Ba  Ba4  1  0.140738  0.027440  0.750000  1
  Ba  Ba5  1  0.859220  0.972514  0.250000  1
  Ba  Ba6  1  0.622505  0.250000  0.500000  1
  Ba  Ba7  1  0.622505  0.250000  0.000000  1
  Ta  Ta8  1  0.872897  0.750000  0.500000  1
  Ta  Ta9  1  0.872897  0.750000  0.000000  1
  Nb  Nb10  1  0.127081  0.250000  0.000000  1
  Nb  Nb11  1  0.127081  0.250000  0.500000  1
  Cl  Cl12  1  0.491535  0.194107  0.250000  1
  Cl  Cl13  1  0.508491  0.694112  0.250000  1
  Cl  Cl14  1  0.508491  0.805888  0.750000  1
  Cl  Cl15  1  0.491535  0.305893  0.750000  1
  O  O16  1  0.284402  0.071128  0.969322  1
  O  O17  1  0.284402  0.428872  0.030678  1
  O  O18  1  0.027053  0.774966  0.619239  1
  O  O19  1  0.972122  0.225109  0.119807  1
  O  O20  1  0.716410  0.928172  0.030439  1
  O  O21  1  0.027053  0.725034  0.119239  1
  O  O22  1  0.716410  0.571828  0.530439  1
  O  O23  1  0.972122  0.274891  0.880193  1
  O  O24  1  0.972122  0.274891  0.619807  1
  O  O25  1  0.716410  0.571828  0.969561  1
  O  O26  1  0.027053  0.774966  0.880761  1
  O  O27  1  0.027053  0.725034  0.380761  1
  O  O28  1  0.972122  0.225109  0.380193  1
  O  O29  1  0.284402  0.071128  0.530678  1
  O  O30  1  0.716410  0.928172  0.469561  1
  O  O31  1  0.284402  0.428872  0.469322  1
