# generated using pymatgen
data_MoP2(O3F)2
_symmetry_space_group_name_H-M   'P 1'
_cell_length_a   5.44484952
_cell_length_b   5.43920286
_cell_length_c   6.22539931
_cell_angle_alpha   90.05678524
_cell_angle_beta   90.10036535
_cell_angle_gamma   120.74164609
_symmetry_Int_Tables_number   1
_chemical_formula_structural   MoP2(O3F)2
_chemical_formula_sum   'Mo1 P2 O6 F2'
_cell_volume   158.46118334
_cell_formula_units_Z   1
loop_
 _symmetry_equiv_pos_site_id
 _symmetry_equiv_pos_as_xyz
  1  'x, y, z'
loop_
 _atom_site_type_symbol
 _atom_site_label
 _atom_site_symmetry_multiplicity
 _atom_site_fract_x
 _atom_site_fract_y
 _atom_site_fract_z
 _atom_site_occupancy
  Mo  Mo0  1  0.000000  0.000000  0.000000  1
  P  P1  1  0.333157  0.668235  0.251631  1
  P  P2  1  0.666843  0.331766  0.748369  1
  O  O3  1  0.177163  0.352842  0.190284  1
  O  O4  1  0.176671  0.820610  0.189816  1
  O  O5  1  0.647656  0.825237  0.191080  1
  O  O6  1  0.352343  0.174761  0.808921  1
  O  O7  1  0.823329  0.179391  0.810185  1
  O  O8  1  0.822837  0.647159  0.809717  1
  F  F9  1  0.665989  0.331974  0.496606  1
  F  F10  1  0.334011  0.668027  0.503395  1
