# generated using pymatgen
data_Tb4Ho2ZnTcNi
_symmetry_space_group_name_H-M   'P 1'
_cell_length_a   8.37390302
_cell_length_b   8.38165237
_cell_length_c   8.37390275
_cell_angle_alpha   112.69241352
_cell_angle_beta   111.80021653
_cell_angle_gamma   104.02019234
_symmetry_Int_Tables_number   1
_chemical_formula_structural   Tb4Ho2ZnTcNi
_chemical_formula_sum   'Tb8 Ho4 Zn2 Tc2 Ni2'
_cell_volume   449.59042585
_cell_formula_units_Z   2
loop_
 _symmetry_equiv_pos_site_id
 _symmetry_equiv_pos_as_xyz
  1  'x, y, z'
loop_
 _atom_site_type_symbol
 _atom_site_label
 _atom_site_symmetry_multiplicity
 _atom_site_fract_x
 _atom_site_fract_y
 _atom_site_fract_z
 _atom_site_occupancy
  Tb  Tb0  1  0.433896  0.245215  0.188637  1
  Tb  Tb1  1  0.566104  0.754785  0.811363  1
  Tb  Tb2  1  0.056577  0.245215  0.811320  1
  Tb  Tb3  1  0.943423  0.754785  0.188680  1
  Tb  Tb4  1  0.180422  0.278063  0.458772  1
  Tb  Tb5  1  0.819578  0.721937  0.541228  1
  Tb  Tb6  1  0.180708  0.721937  0.902360  1
  Tb  Tb7  1  0.819292  0.278063  0.097640  1
  Ho  Ho8  1  0.331717  0.648919  0.317202  1
  Ho  Ho9  1  0.668283  0.351081  0.682798  1
  Ho  Ho10  1  0.331542  0.013916  0.682375  1
  Ho  Ho11  1  0.668458  0.986084  0.317625  1
  Zn  Zn12  1  0.500000  0.500000  0.000000  1
  Zn  Zn13  1  0.000000  0.000000  0.000000  1
  Tc  Tc14  1  0.319407  0.000000  0.319407  1
  Tc  Tc15  1  0.680593  0.000000  0.680593  1
  Ni  Ni16  1  0.115953  0.615453  0.499500  1
  Ni  Ni17  1  0.884047  0.384547  0.500500  1
