# generated using pymatgen
data_TbDy3U4(ReB6)4
_symmetry_space_group_name_H-M   'P 1'
_cell_length_a   3.64102700
_cell_length_b   9.30609201
_cell_length_c   11.42701701
_cell_angle_alpha   90.00454939
_cell_angle_beta   90.00000000
_cell_angle_gamma   90.00000000
_symmetry_Int_Tables_number   1
_chemical_formula_structural   TbDy3U4(ReB6)4
_chemical_formula_sum   'Tb1 Dy3 U4 Re4 B24'
_cell_volume   387.18998368
_cell_formula_units_Z   1
loop_
 _symmetry_equiv_pos_site_id
 _symmetry_equiv_pos_as_xyz
  1  'x, y, z'
loop_
 _atom_site_type_symbol
 _atom_site_label
 _atom_site_symmetry_multiplicity
 _atom_site_fract_x
 _atom_site_fract_y
 _atom_site_fract_z
 _atom_site_occupancy
  Tb  Tb0  1  0.000000  0.336507  0.407816  1
  Dy  Dy1  1  0.000000  0.663534  0.592196  1
  Dy  Dy2  1  0.000000  0.836505  0.092171  1
  Dy  Dy3  1  0.000000  0.163496  0.907828  1
  U  U4  1  0.000000  0.956165  0.396355  1
  U  U5  1  0.000000  0.043680  0.603677  1
  U  U6  1  0.000000  0.456275  0.103586  1
  U  U7  1  0.000000  0.543743  0.896349  1
  Re  Re8  1  0.000000  0.645706  0.318367  1
  Re  Re9  1  0.000000  0.354516  0.681717  1
  Re  Re10  1  0.000000  0.145384  0.181473  1
  Re  Re11  1  0.000000  0.854511  0.818413  1
  B  B12  1  0.500000  0.552056  0.430795  1
  B  B13  1  0.500000  0.448235  0.569312  1
  B  B14  1  0.500000  0.051792  0.069168  1
  B  B15  1  0.500000  0.948193  0.930824  1
  B  B16  1  0.500000  0.742892  0.423078  1
  B  B17  1  0.500000  0.257087  0.577077  1
  B  B18  1  0.500000  0.242841  0.076905  1
  B  B19  1  0.500000  0.757147  0.923073  1
  B  B20  1  0.500000  0.801637  0.275280  1
  B  B21  1  0.500000  0.198361  0.724736  1
  B  B22  1  0.500000  0.301562  0.224596  1
  B  B23  1  0.500000  0.698369  0.775293  1
  B  B24  1  0.500000  0.643862  0.188581  1
  B  B25  1  0.500000  0.356165  0.811409  1
  B  B26  1  0.500000  0.143701  0.311317  1
  B  B27  1  0.500000  0.856160  0.688610  1
  B  B28  1  0.500000  0.988947  0.219486  1
  B  B29  1  0.500000  0.011035  0.780516  1
  B  B30  1  0.500000  0.489172  0.280404  1
  B  B31  1  0.500000  0.511049  0.719520  1
  B  B32  1  0.500000  0.639797  0.038752  1
  B  B33  1  0.500000  0.360216  0.961231  1
  B  B34  1  0.500000  0.139478  0.461328  1
  B  B35  1  0.500000  0.860224  0.538763  1
