# generated using pymatgen
data_NdMnAgO5
_symmetry_space_group_name_H-M   'P 1'
_cell_length_a   5.86777600
_cell_length_b   7.89382300
_cell_length_c   8.88885400
_cell_angle_alpha   90.00000000
_cell_angle_beta   90.00000000
_cell_angle_gamma   90.00000000
_symmetry_Int_Tables_number   1
_chemical_formula_structural   NdMnAgO5
_chemical_formula_sum   'Nd4 Mn4 Ag4 O20'
_cell_volume   411.72447418
_cell_formula_units_Z   4
loop_
 _symmetry_equiv_pos_site_id
 _symmetry_equiv_pos_as_xyz
  1  'x, y, z'
loop_
 _atom_site_type_symbol
 _atom_site_label
 _atom_site_symmetry_multiplicity
 _atom_site_fract_x
 _atom_site_fract_y
 _atom_site_fract_z
 _atom_site_occupancy
  Nd  Nd0  1  0.000000  0.349712  0.675167  1
  Nd  Nd1  1  0.000000  0.650288  0.324833  1
  Nd  Nd2  1  0.000000  0.849712  0.824833  1
  Nd  Nd3  1  0.000000  0.150288  0.175167  1
  Mn  Mn4  1  0.257885  0.500000  0.000000  1
  Mn  Mn5  1  0.742115  0.000000  0.500000  1
  Mn  Mn6  1  0.742115  0.500000  0.000000  1
  Mn  Mn7  1  0.257885  0.000000  0.500000  1
  Ag  Ag8  1  0.500000  0.067930  0.843872  1
  Ag  Ag9  1  0.500000  0.932070  0.156128  1
  Ag  Ag10  1  0.500000  0.567930  0.656128  1
  Ag  Ag11  1  0.500000  0.432070  0.343872  1
  O  O12  1  0.233165  0.906061  0.298059  1
  O  O13  1  0.233165  0.093939  0.701941  1
  O  O14  1  0.766835  0.406061  0.201941  1
  O  O15  1  0.766835  0.593939  0.798059  1
  O  O16  1  0.766835  0.093939  0.701941  1
  O  O17  1  0.766835  0.906061  0.298059  1
  O  O18  1  0.233165  0.593939  0.798059  1
  O  O19  1  0.233165  0.406061  0.201941  1
  O  O20  1  0.500000  0.358743  0.940425  1
  O  O21  1  0.500000  0.641257  0.059575  1
  O  O22  1  0.500000  0.858743  0.559575  1
  O  O23  1  0.500000  0.141257  0.440425  1
  O  O24  1  0.254691  0.000000  0.000000  1
  O  O25  1  0.745309  0.500000  0.500000  1
  O  O26  1  0.745309  0.000000  0.000000  1
  O  O27  1  0.254691  0.500000  0.500000  1
  O  O28  1  0.000000  0.155912  0.449730  1
  O  O29  1  0.000000  0.844088  0.550270  1
  O  O30  1  0.000000  0.655912  0.050270  1
  O  O31  1  0.000000  0.344088  0.949730  1
