# generated using pymatgen
data_Rb8Li4Y3InBi7Sb
_symmetry_space_group_name_H-M   'P 1'
_cell_length_a   11.17813261
_cell_length_b   11.17813140
_cell_length_c   7.19610500
_cell_angle_alpha   89.98112716
_cell_angle_beta   90.01887284
_cell_angle_gamma   100.06880902
_symmetry_Int_Tables_number   1
_chemical_formula_structural   Rb8Li4Y3InBi7Sb
_chemical_formula_sum   'Rb8 Li4 Y3 In1 Bi7 Sb1'
_cell_volume   885.30942867
_cell_formula_units_Z   1
loop_
 _symmetry_equiv_pos_site_id
 _symmetry_equiv_pos_as_xyz
  1  'x, y, z'
loop_
 _atom_site_type_symbol
 _atom_site_label
 _atom_site_symmetry_multiplicity
 _atom_site_fract_x
 _atom_site_fract_y
 _atom_site_fract_z
 _atom_site_occupancy
  Rb  Rb0  1  0.569322  0.927668  0.747656  1
  Rb  Rb1  1  0.928613  0.570541  0.253025  1
  Rb  Rb2  1  0.429799  0.079249  0.256636  1
  Rb  Rb3  1  0.080384  0.431107  0.743919  1
  Rb  Rb4  1  0.671428  0.320802  0.770036  1
  Rb  Rb5  1  0.823904  0.176280  0.278756  1
  Rb  Rb6  1  0.321665  0.670674  0.227691  1
  Rb  Rb7  1  0.177638  0.822572  0.721341  1
  Li  Li8  1  0.616336  0.618805  0.997867  1
  Li  Li9  1  0.877289  0.877335  0.500039  1
  Li  Li10  1  0.378249  0.380482  0.997057  1
  Li  Li11  1  0.125109  0.125118  0.500125  1
  Y  Y12  1  0.868516  0.868729  0.000166  1
  Y  Y13  1  0.623622  0.625225  0.501859  1
  Y  Y14  1  0.130880  0.131051  0.000369  1
  In  In15  1  0.375259  0.376571  0.502988  1
  Bi  Bi16  1  0.352675  0.154178  0.745989  1
  Bi  Bi17  1  0.154596  0.353077  0.255117  1
  Bi  Bi18  1  0.646197  0.848556  0.249989  1
  Bi  Bi19  1  0.848202  0.646494  0.750550  1
  Bi  Bi20  1  0.901619  0.100181  0.756968  1
  Bi  Bi21  1  0.596898  0.399621  0.255304  1
  Bi  Bi22  1  0.100193  0.901504  0.243189  1
  Sb  Sb23  1  0.401607  0.594178  0.743362  1
