# generated using pymatgen
data_Nd2CI3
_symmetry_space_group_name_H-M   'P 1'
_cell_length_a   14.16183600
_cell_length_b   8.72338374
_cell_length_c   17.26070700
_cell_angle_alpha   59.77007633
_cell_angle_beta   90.00000000
_cell_angle_gamma   90.00000000
_symmetry_Int_Tables_number   1
_chemical_formula_structural   Nd2CI3
_chemical_formula_sum   'Nd16 C8 I24'
_cell_volume   1842.39556538
_cell_formula_units_Z   8
loop_
 _symmetry_equiv_pos_site_id
 _symmetry_equiv_pos_as_xyz
  1  'x, y, z'
loop_
 _atom_site_type_symbol
 _atom_site_label
 _atom_site_symmetry_multiplicity
 _atom_site_fract_x
 _atom_site_fract_y
 _atom_site_fract_z
 _atom_site_occupancy
  Nd  Nd0  1  0.599952  0.139591  0.575200  1
  Nd  Nd1  1  0.404806  0.287953  0.428497  1
  Nd  Nd2  1  0.099952  0.860409  0.924800  1
  Nd  Nd3  1  0.904806  0.712047  0.071503  1
  Nd  Nd4  1  0.400048  0.860409  0.424800  1
  Nd  Nd5  1  0.595194  0.712047  0.571503  1
  Nd  Nd6  1  0.900048  0.139591  0.075200  1
  Nd  Nd7  1  0.095194  0.287953  0.928497  1
  Nd  Nd8  1  0.607791  0.628596  0.370673  1
  Nd  Nd9  1  0.392209  0.371404  0.629327  1
  Nd  Nd10  1  0.107791  0.371404  0.129327  1
  Nd  Nd11  1  0.892209  0.628596  0.870673  1
  Nd  Nd12  1  0.367181  0.841279  0.659030  1
  Nd  Nd13  1  0.632819  0.158721  0.340970  1
  Nd  Nd14  1  0.867181  0.158721  0.840970  1
  Nd  Nd15  1  0.132819  0.841279  0.159030  1
  C  C16  1  0.469410  0.963584  0.536554  1
  C  C17  1  0.530590  0.036416  0.463446  1
  C  C18  1  0.969410  0.036416  0.963446  1
  C  C19  1  0.030590  0.963584  0.036554  1
  C  C20  1  0.517323  0.417079  0.512854  1
  C  C21  1  0.017323  0.582921  0.987146  1
  C  C22  1  0.482677  0.582921  0.487146  1
  C  C23  1  0.982677  0.417079  0.012854  1
  I  I24  1  0.764965  0.327023  0.426764  1
  I  I25  1  0.236482  0.185075  0.571861  1
  I  I26  1  0.264965  0.672977  0.073236  1
  I  I27  1  0.736482  0.814925  0.928139  1
  I  I28  1  0.235035  0.672977  0.573236  1
  I  I29  1  0.763518  0.814925  0.428139  1
  I  I30  1  0.735035  0.327023  0.926764  1
  I  I31  1  0.263518  0.185075  0.071861  1
  I  I32  1  0.725206  0.337999  0.665079  1
  I  I33  1  0.274794  0.662001  0.334921  1
  I  I34  1  0.225206  0.662001  0.834921  1
  I  I35  1  0.774794  0.337999  0.165079  1
  I  I36  1  0.485417  0.992578  0.761847  1
  I  I37  1  0.512375  0.515232  0.240266  1
  I  I38  1  0.985417  0.007422  0.738153  1
  I  I39  1  0.012375  0.484768  0.259734  1
  I  I40  1  0.514583  0.007422  0.238153  1
  I  I41  1  0.487625  0.484768  0.759734  1
  I  I42  1  0.014583  0.992578  0.261847  1
  I  I43  1  0.987625  0.515232  0.740266  1
  I  I44  1  0.743928  0.813770  0.679850  1
  I  I45  1  0.256072  0.186230  0.320150  1
  I  I46  1  0.243928  0.186230  0.820150  1
  I  I47  1  0.756072  0.813770  0.179850  1
