# generated using pymatgen
data_Ti24Si4AsSe3
_symmetry_space_group_name_H-M   'P 1'
_cell_length_a   10.14421001
_cell_length_b   10.14349201
_cell_length_c   5.09271251
_cell_angle_alpha   90.00143849
_cell_angle_beta   89.94897115
_cell_angle_gamma   90.00490307
_symmetry_Int_Tables_number   1
_chemical_formula_structural   Ti24Si4AsSe3
_chemical_formula_sum   'Ti24 Si4 As1 Se3'
_cell_volume   524.02826106
_cell_formula_units_Z   1
loop_
 _symmetry_equiv_pos_site_id
 _symmetry_equiv_pos_as_xyz
  1  'x, y, z'
loop_
 _atom_site_type_symbol
 _atom_site_label
 _atom_site_symmetry_multiplicity
 _atom_site_fract_x
 _atom_site_fract_y
 _atom_site_fract_z
 _atom_site_occupancy
  Ti  Ti0  1  0.217243  0.683890  0.995054  1
  Ti  Ti1  1  0.782752  0.316157  0.995992  1
  Ti  Ti2  1  0.183816  0.282894  0.495026  1
  Ti  Ti3  1  0.816546  0.717123  0.495183  1
  Ti  Ti4  1  0.285805  0.817733  0.503951  1
  Ti  Ti5  1  0.714187  0.182355  0.503517  1
  Ti  Ti6  1  0.317556  0.214146  0.003810  1
  Ti  Ti7  1  0.681997  0.785540  0.004205  1
  Ti  Ti8  1  0.640315  0.527520  0.715789  1
  Ti  Ti9  1  0.360233  0.472699  0.715545  1
  Ti  Ti10  1  0.027439  0.860254  0.215528  1
  Ti  Ti11  1  0.972819  0.139676  0.215720  1
  Ti  Ti12  1  0.856650  0.972187  0.784896  1
  Ti  Ti13  1  0.143436  0.027879  0.785084  1
  Ti  Ti14  1  0.471957  0.643640  0.285203  1
  Ti  Ti15  1  0.527979  0.356468  0.284668  1
  Ti  Ti16  1  0.104758  0.580822  0.465622  1
  Ti  Ti17  1  0.895329  0.419533  0.465061  1
  Ti  Ti18  1  0.080798  0.395500  0.966195  1
  Ti  Ti19  1  0.918912  0.604299  0.966436  1
  Ti  Ti20  1  0.393531  0.918015  0.034673  1
  Ti  Ti21  1  0.606361  0.081900  0.034989  1
  Ti  Ti22  1  0.418158  0.106379  0.534566  1
  Ti  Ti23  1  0.581785  0.893499  0.534235  1
  Si  Si24  1  0.794041  0.958810  0.287776  1
  Si  Si25  1  0.205992  0.041192  0.287869  1
  Si  Si26  1  0.458715  0.705965  0.788096  1
  Si  Si27  1  0.541403  0.294041  0.788171  1
  As  As28  1  0.705971  0.541299  0.211528  1
  Se  Se29  1  0.293420  0.458657  0.211716  1
  Se  Se30  1  0.041424  0.793207  0.712034  1
  Se  Se31  1  0.958670  0.206721  0.711863  1
