# generated using pymatgen
data_Ca3Pr(SiPd14)2
_symmetry_space_group_name_H-M   'P 1'
_cell_length_a   8.95305500
_cell_length_b   8.95305500
_cell_length_c   7.11684400
_cell_angle_alpha   90.00000000
_cell_angle_beta   90.00000000
_cell_angle_gamma   90.00000000
_symmetry_Int_Tables_number   1
_chemical_formula_structural   Ca3Pr(SiPd14)2
_chemical_formula_sum   'Ca3 Pr1 Si2 Pd28'
_cell_volume   570.46624399
_cell_formula_units_Z   1
loop_
 _symmetry_equiv_pos_site_id
 _symmetry_equiv_pos_as_xyz
  1  'x, y, z'
loop_
 _atom_site_type_symbol
 _atom_site_label
 _atom_site_symmetry_multiplicity
 _atom_site_fract_x
 _atom_site_fract_y
 _atom_site_fract_z
 _atom_site_occupancy
  Ca  Ca0  1  0.000000  0.500000  0.061518  1
  Ca  Ca1  1  0.000000  0.000000  0.500026  1
  Ca  Ca2  1  0.500000  0.500000  0.500026  1
  Pr  Pr3  1  0.500000  0.000000  0.939077  1
  Si  Si4  1  0.500000  0.000000  0.448181  1
  Si  Si5  1  0.000000  0.500000  0.551821  1
  Pd  Pd6  1  0.333556  0.833556  0.616039  1
  Pd  Pd7  1  0.333556  0.166444  0.616039  1
  Pd  Pd8  1  0.666444  0.833556  0.616039  1
  Pd  Pd9  1  0.666444  0.166444  0.616039  1
  Pd  Pd10  1  0.165867  0.665867  0.382741  1
  Pd  Pd11  1  0.165867  0.334133  0.382741  1
  Pd  Pd12  1  0.834133  0.665867  0.382741  1
  Pd  Pd13  1  0.834133  0.334133  0.382741  1
  Pd  Pd14  1  0.500000  0.769917  0.258443  1
  Pd  Pd15  1  0.500000  0.230083  0.258443  1
  Pd  Pd16  1  0.269917  0.000000  0.258443  1
  Pd  Pd17  1  0.730083  0.000000  0.258443  1
  Pd  Pd18  1  0.000000  0.729506  0.742633  1
  Pd  Pd19  1  0.000000  0.270494  0.742633  1
  Pd  Pd20  1  0.229506  0.500000  0.742633  1
  Pd  Pd21  1  0.770494  0.500000  0.742633  1
  Pd  Pd22  1  0.500000  0.349157  0.856227  1
  Pd  Pd23  1  0.500000  0.650843  0.856227  1
  Pd  Pd24  1  0.849157  0.000000  0.856227  1
  Pd  Pd25  1  0.150843  0.000000  0.856227  1
  Pd  Pd26  1  0.000000  0.151134  0.143778  1
  Pd  Pd27  1  0.000000  0.848866  0.143778  1
  Pd  Pd28  1  0.651134  0.500000  0.143778  1
  Pd  Pd29  1  0.348866  0.500000  0.143778  1
  Pd  Pd30  1  0.249659  0.749659  0.999978  1
  Pd  Pd31  1  0.249659  0.250341  0.999978  1
  Pd  Pd32  1  0.750341  0.749659  0.999978  1
  Pd  Pd33  1  0.750341  0.250341  0.999978  1
