# generated using pymatgen
data_SmY3Fe2(AuO7)2
_symmetry_space_group_name_H-M   'P 1'
_cell_length_a   7.33636309
_cell_length_b   7.36812747
_cell_length_c   7.32341621
_cell_angle_alpha   59.79672449
_cell_angle_beta   59.61730946
_cell_angle_gamma   59.85554678
_symmetry_Int_Tables_number   1
_chemical_formula_structural   SmY3Fe2(AuO7)2
_chemical_formula_sum   'Sm1 Y3 Fe2 Au2 O14'
_cell_volume   278.37157824
_cell_formula_units_Z   1
loop_
 _symmetry_equiv_pos_site_id
 _symmetry_equiv_pos_as_xyz
  1  'x, y, z'
loop_
 _atom_site_type_symbol
 _atom_site_label
 _atom_site_symmetry_multiplicity
 _atom_site_fract_x
 _atom_site_fract_y
 _atom_site_fract_z
 _atom_site_occupancy
  Sm  Sm0  1  0.000001  0.500000  0.500001  1
  Y  Y1  1  0.499999  0.000000  0.500000  1
  Y  Y2  1  0.499999  0.499999  0.000003  1
  Y  Y3  1  0.499998  0.500004  0.500001  1
  Fe  Fe4  1  0.000009  0.499994  0.999998  1
  Fe  Fe5  1  0.999994  0.000005  0.999995  1
  Au  Au6  1  0.500002  0.000001  0.999996  1
  Au  Au7  1  0.999998  0.999998  0.500003  1
  O  O8  1  0.615368  0.630100  0.624410  1
  O  O9  1  0.384634  0.369901  0.375591  1
  O  O10  1  0.340033  0.913480  0.908206  1
  O  O11  1  0.093241  0.662017  0.660692  1
  O  O12  1  0.913685  0.334547  0.917244  1
  O  O13  1  0.906789  0.915942  0.339298  1
  O  O14  1  0.340050  0.338295  0.908183  1
  O  O15  1  0.339293  0.910672  0.339456  1
  O  O16  1  0.906757  0.337981  0.339313  1
  O  O17  1  0.659948  0.661708  0.091819  1
  O  O18  1  0.093213  0.084056  0.660701  1
  O  O19  1  0.659967  0.086522  0.091793  1
  O  O20  1  0.660708  0.089330  0.660542  1
  O  O21  1  0.086316  0.665455  0.082755  1
