# generated using pymatgen
data_TmMgCu3Ir
_symmetry_space_group_name_H-M   'P 1'
_cell_length_a   5.21042323
_cell_length_b   5.21042405
_cell_length_c   5.21042485
_cell_angle_alpha   57.32312463
_cell_angle_beta   57.32311540
_cell_angle_gamma   57.32312802
_symmetry_Int_Tables_number   1
_chemical_formula_structural   TmMgCu3Ir
_chemical_formula_sum   'Tm1 Mg1 Cu3 Ir1'
_cell_volume   93.86025594
_cell_formula_units_Z   1
loop_
 _symmetry_equiv_pos_site_id
 _symmetry_equiv_pos_as_xyz
  1  'x, y, z'
loop_
 _atom_site_type_symbol
 _atom_site_label
 _atom_site_symmetry_multiplicity
 _atom_site_fract_x
 _atom_site_fract_y
 _atom_site_fract_z
 _atom_site_occupancy
  Tm  Tm0  1  0.252362  0.252362  0.252362  1
  Mg  Mg1  1  0.000444  0.000444  0.000444  1
  Cu  Cu2  1  0.624522  0.624522  0.122675  1
  Cu  Cu3  1  0.624522  0.122675  0.624522  1
  Cu  Cu4  1  0.122675  0.624522  0.624522  1
  Ir  Ir5  1  0.625474  0.625474  0.625474  1
