# generated using pymatgen
data_Yb3Er(SiPd)4
_symmetry_space_group_name_H-M   'P 1'
_cell_length_a   4.35586100
_cell_length_b   7.36616400
_cell_length_c   14.02062100
_cell_angle_alpha   90.00000000
_cell_angle_beta   90.00000000
_cell_angle_gamma   90.00000000
_symmetry_Int_Tables_number   1
_chemical_formula_structural   Yb3Er(SiPd)4
_chemical_formula_sum   'Yb6 Er2 Si8 Pd8'
_cell_volume   449.86545595
_cell_formula_units_Z   2
loop_
 _symmetry_equiv_pos_site_id
 _symmetry_equiv_pos_as_xyz
  1  'x, y, z'
loop_
 _atom_site_type_symbol
 _atom_site_label
 _atom_site_symmetry_multiplicity
 _atom_site_fract_x
 _atom_site_fract_y
 _atom_site_fract_z
 _atom_site_occupancy
  Yb  Yb0  1  0.000000  0.295753  0.500000  1
  Yb  Yb1  1  0.500000  0.704247  0.000000  1
  Yb  Yb2  1  0.000000  0.197819  0.248253  1
  Yb  Yb3  1  0.500000  0.802181  0.251747  1
  Yb  Yb4  1  0.000000  0.197819  0.751747  1
  Yb  Yb5  1  0.500000  0.802181  0.748253  1
  Er  Er6  1  0.000000  0.298366  0.000000  1
  Er  Er7  1  0.500000  0.701634  0.500000  1
  Si  Si8  1  0.000000  0.907074  0.588495  1
  Si  Si9  1  0.500000  0.092926  0.911505  1
  Si  Si10  1  0.000000  0.907074  0.411505  1
  Si  Si11  1  0.500000  0.092926  0.088495  1
  Si  Si12  1  0.000000  0.586890  0.150204  1
  Si  Si13  1  0.500000  0.413110  0.349796  1
  Si  Si14  1  0.000000  0.586890  0.849796  1
  Si  Si15  1  0.500000  0.413110  0.650204  1
  Pd  Pd16  1  0.500000  0.084161  0.605502  1
  Pd  Pd17  1  0.000000  0.915839  0.894498  1
  Pd  Pd18  1  0.500000  0.084161  0.394498  1
  Pd  Pd19  1  0.000000  0.915839  0.105502  1
  Pd  Pd20  1  0.500000  0.418602  0.157258  1
  Pd  Pd21  1  0.000000  0.581398  0.342742  1
  Pd  Pd22  1  0.500000  0.418602  0.842742  1
  Pd  Pd23  1  0.000000  0.581398  0.657258  1
