# generated using pymatgen
data_Dy2HoV(Co4P3)2
_symmetry_space_group_name_H-M   'P 1'
_cell_length_a   3.68663700
_cell_length_b   10.54489500
_cell_length_c   12.21799200
_cell_angle_alpha   90.00000000
_cell_angle_beta   90.00000000
_cell_angle_gamma   90.00000000
_symmetry_Int_Tables_number   1
_chemical_formula_structural   Dy2HoV(Co4P3)2
_chemical_formula_sum   'Dy4 Ho2 V2 Co16 P12'
_cell_volume   474.97688343
_cell_formula_units_Z   2
loop_
 _symmetry_equiv_pos_site_id
 _symmetry_equiv_pos_as_xyz
  1  'x, y, z'
loop_
 _atom_site_type_symbol
 _atom_site_label
 _atom_site_symmetry_multiplicity
 _atom_site_fract_x
 _atom_site_fract_y
 _atom_site_fract_z
 _atom_site_occupancy
  Dy  Dy0  1  0.000000  0.500000  0.523148  1
  Dy  Dy1  1  0.500000  0.000000  0.476513  1
  Dy  Dy2  1  0.000000  0.681298  0.795661  1
  Dy  Dy3  1  0.000000  0.318702  0.795661  1
  Ho  Ho4  1  0.500000  0.818731  0.204317  1
  Ho  Ho5  1  0.500000  0.181269  0.204317  1
  V  V6  1  0.500000  0.500000  0.154550  1
  V  V7  1  0.000000  0.000000  0.845812  1
  Co  Co8  1  0.500000  0.500000  0.702039  1
  Co  Co9  1  0.000000  0.000000  0.297604  1
  Co  Co10  1  0.000000  0.500000  0.987372  1
  Co  Co11  1  0.500000  0.000000  0.013320  1
  Co  Co12  1  0.500000  0.332245  0.993413  1
  Co  Co13  1  0.500000  0.667755  0.993413  1
  Co  Co14  1  0.000000  0.167517  0.007311  1
  Co  Co15  1  0.000000  0.832483  0.007311  1
  Co  Co16  1  0.500000  0.295705  0.430792  1
  Co  Co17  1  0.500000  0.704295  0.430792  1
  Co  Co18  1  0.000000  0.204132  0.568542  1
  Co  Co19  1  0.000000  0.795868  0.568542  1
  Co  Co20  1  0.500000  0.878801  0.707560  1
  Co  Co21  1  0.500000  0.121199  0.707560  1
  Co  Co22  1  0.000000  0.621368  0.292212  1
  Co  Co23  1  0.000000  0.378632  0.292212  1
  P  P24  1  0.500000  0.500000  0.882438  1
  P  P25  1  0.000000  0.000000  0.118130  1
  P  P26  1  0.500000  0.500000  0.347068  1
  P  P27  1  0.000000  0.000000  0.652954  1
  P  P28  1  0.500000  0.311053  0.615694  1
  P  P29  1  0.500000  0.688947  0.615694  1
  P  P30  1  0.000000  0.188754  0.383611  1
  P  P31  1  0.000000  0.811246  0.383611  1
  P  P32  1  0.500000  0.846117  0.891999  1
  P  P33  1  0.500000  0.153883  0.891999  1
  P  P34  1  0.000000  0.654250  0.108412  1
  P  P35  1  0.000000  0.345750  0.108412  1
