# generated using pymatgen
data_La7Y3(US10)2
_symmetry_space_group_name_H-M   'P 1'
_cell_length_a   7.58482435
_cell_length_b   8.14053226
_cell_length_c   11.98222000
_cell_angle_alpha   90.00270272
_cell_angle_beta   90.01736665
_cell_angle_gamma   90.04262333
_symmetry_Int_Tables_number   1
_chemical_formula_structural   La7Y3(US10)2
_chemical_formula_sum   'La7 Y3 U2 S20'
_cell_volume   739.83603082
_cell_formula_units_Z   1
loop_
 _symmetry_equiv_pos_site_id
 _symmetry_equiv_pos_as_xyz
  1  'x, y, z'
loop_
 _atom_site_type_symbol
 _atom_site_label
 _atom_site_symmetry_multiplicity
 _atom_site_fract_x
 _atom_site_fract_y
 _atom_site_fract_z
 _atom_site_occupancy
  La  La0  1  0.528514  0.502813  0.324088  1
  La  La1  1  0.970452  0.995496  0.824137  1
  La  La2  1  0.477277  0.998008  0.677091  1
  La  La3  1  0.023792  0.501392  0.174462  1
  La  La4  1  0.476491  0.501273  0.677546  1
  La  La5  1  0.023815  0.998606  0.175203  1
  La  La6  1  0.529663  0.997818  0.323748  1
  Y  Y7  1  0.975085  0.499924  0.820726  1
  Y  Y8  1  0.074256  0.750003  0.493283  1
  Y  Y9  1  0.425464  0.749373  0.992383  1
  U  U10  1  0.944408  0.251353  0.507117  1
  U  U11  1  0.555455  0.252902  0.005062  1
  S  S12  1  0.839204  0.969919  0.593608  1
  S  S13  1  0.658034  0.531000  0.094692  1
  S  S14  1  0.162987  0.454406  0.407266  1
  S  S15  1  0.337266  0.045321  0.906484  1
  S  S16  1  0.162865  0.046643  0.407619  1
  S  S17  1  0.330692  0.453340  0.907349  1
  S  S18  1  0.842854  0.530168  0.598417  1
  S  S19  1  0.661864  0.971835  0.092314  1
  S  S20  1  0.833512  0.750311  0.311799  1
  S  S21  1  0.671496  0.744683  0.813066  1
  S  S22  1  0.161692  0.253954  0.686287  1
  S  S23  1  0.335093  0.249540  0.183084  1
  S  S24  1  0.455659  0.751036  0.498106  1
  S  S25  1  0.042605  0.742715  0.993534  1
  S  S26  1  0.553532  0.250196  0.502128  1
  S  S27  1  0.946059  0.257213  0.997164  1
  S  S28  1  0.188812  0.742916  0.715418  1
  S  S29  1  0.306332  0.751138  0.213284  1
  S  S30  1  0.812583  0.250097  0.291747  1
  S  S31  1  0.692185  0.254607  0.791790  1
