# generated using pymatgen
data_CaCe(SbPd)2
_symmetry_space_group_name_H-M   'P 1'
_cell_length_a   4.67090600
_cell_length_b   7.49946725
_cell_length_c   7.98154484
_cell_angle_alpha   89.48567274
_cell_angle_beta   90.00000000
_cell_angle_gamma   90.00000000
_symmetry_Int_Tables_number   1
_chemical_formula_structural   CaCe(SbPd)2
_chemical_formula_sum   'Ca2 Ce2 Sb4 Pd4'
_cell_volume   279.57671671
_cell_formula_units_Z   2
loop_
 _symmetry_equiv_pos_site_id
 _symmetry_equiv_pos_as_xyz
  1  'x, y, z'
loop_
 _atom_site_type_symbol
 _atom_site_label
 _atom_site_symmetry_multiplicity
 _atom_site_fract_x
 _atom_site_fract_y
 _atom_site_fract_z
 _atom_site_occupancy
  Ca  Ca0  1  0.750000  0.003952  0.706368  1
  Ca  Ca1  1  0.250000  0.996048  0.293632  1
  Ce  Ce2  1  0.250000  0.495176  0.209596  1
  Ce  Ce3  1  0.750000  0.504824  0.790404  1
  Sb  Sb4  1  0.250000  0.784321  0.908270  1
  Sb  Sb5  1  0.750000  0.215679  0.091730  1
  Sb  Sb6  1  0.750000  0.698099  0.403892  1
  Sb  Sb7  1  0.250000  0.301901  0.596108  1
  Pd  Pd8  1  0.250000  0.694301  0.578381  1
  Pd  Pd9  1  0.750000  0.305699  0.421619  1
  Pd  Pd10  1  0.750000  0.810999  0.077971  1
  Pd  Pd11  1  0.250000  0.189001  0.922029  1
