# generated using pymatgen
data_Cs(ScI3)2
_symmetry_space_group_name_H-M   'P 1'
_cell_length_a   8.82413600
_cell_length_b   8.82413418
_cell_length_c   13.86612900
_cell_angle_alpha   90.00000000
_cell_angle_beta   90.00000000
_cell_angle_gamma   119.99999181
_symmetry_Int_Tables_number   1
_chemical_formula_structural   Cs(ScI3)2
_chemical_formula_sum   'Cs2 Sc4 I12'
_cell_volume   935.04002227
_cell_formula_units_Z   2
loop_
 _symmetry_equiv_pos_site_id
 _symmetry_equiv_pos_as_xyz
  1  'x, y, z'
loop_
 _atom_site_type_symbol
 _atom_site_label
 _atom_site_symmetry_multiplicity
 _atom_site_fract_x
 _atom_site_fract_y
 _atom_site_fract_z
 _atom_site_occupancy
  Cs  Cs0  1  0.333333  0.666667  0.872646  1
  Cs  Cs1  1  0.666667  0.333333  0.372646  1
  Sc  Sc2  1  0.000000  0.000000  0.125829  1
  Sc  Sc3  1  0.000000  0.000000  0.375952  1
  Sc  Sc4  1  0.000000  0.000000  0.625829  1
  Sc  Sc5  1  0.000000  0.000000  0.875952  1
  I  I6  1  0.976721  0.721354  0.001885  1
  I  I7  1  0.252110  0.971010  0.249883  1
  I  I8  1  0.028990  0.281099  0.249883  1
  I  I9  1  0.278646  0.255367  0.001885  1
  I  I10  1  0.255367  0.278646  0.501885  1
  I  I11  1  0.744633  0.023279  0.001885  1
  I  I12  1  0.281099  0.028990  0.749883  1
  I  I13  1  0.718901  0.747890  0.249883  1
  I  I14  1  0.747890  0.718901  0.749883  1
  I  I15  1  0.023279  0.744633  0.501885  1
  I  I16  1  0.721354  0.976721  0.501885  1
  I  I17  1  0.971010  0.252110  0.749883  1
