# generated using pymatgen
data_Lu10Sc10AlBi11
_symmetry_space_group_name_H-M   'P 1'
_cell_length_a   7.88713608
_cell_length_b   9.15348650
_cell_length_c   11.63652820
_cell_angle_alpha   90.06045195
_cell_angle_beta   89.79393192
_cell_angle_gamma   89.97520759
_symmetry_Int_Tables_number   1
_chemical_formula_structural   Lu10Sc10AlBi11
_chemical_formula_sum   'Lu10 Sc10 Al1 Bi11'
_cell_volume   840.09077088
_cell_formula_units_Z   1
loop_
 _symmetry_equiv_pos_site_id
 _symmetry_equiv_pos_as_xyz
  1  'x, y, z'
loop_
 _atom_site_type_symbol
 _atom_site_label
 _atom_site_symmetry_multiplicity
 _atom_site_fract_x
 _atom_site_fract_y
 _atom_site_fract_z
 _atom_site_occupancy
  Lu  Lu0  1  0.351508  0.250034  0.290381  1
  Lu  Lu1  1  0.653012  0.749408  0.720159  1
  Lu  Lu2  1  0.150451  0.751430  0.781568  1
  Lu  Lu3  1  0.850556  0.247869  0.216016  1
  Lu  Lu4  1  0.191319  0.248244  0.774961  1
  Lu  Lu5  1  0.811934  0.751560  0.217898  1
  Lu  Lu6  1  0.314534  0.749822  0.280136  1
  Lu  Lu7  1  0.675556  0.249511  0.712388  1
  Lu  Lu8  1  0.685398  0.428102  0.444739  1
  Lu  Lu9  1  0.308202  0.553760  0.557965  1
  Sc  Sc10  1  0.031321  0.247458  0.510619  1
  Sc  Sc11  1  0.981874  0.751841  0.490645  1
  Sc  Sc12  1  0.481965  0.749316  0.009475  1
  Sc  Sc13  1  0.520627  0.250100  0.989175  1
  Sc  Sc14  1  0.193646  0.067716  0.059860  1
  Sc  Sc15  1  0.806670  0.934415  0.942826  1
  Sc  Sc16  1  0.306227  0.945185  0.558696  1
  Sc  Sc17  1  0.808513  0.566610  0.942573  1
  Sc  Sc18  1  0.685958  0.075804  0.445366  1
  Sc  Sc19  1  0.192124  0.430818  0.059297  1
  Al  Al20  1  0.401936  0.243132  0.540285  1
  Bi  Bi21  1  0.598353  0.758487  0.459261  1
  Bi  Bi22  1  0.098328  0.749522  0.040718  1
  Bi  Bi23  1  0.905206  0.250168  0.955792  1
  Bi  Bi24  1  0.062578  0.002997  0.328715  1
  Bi  Bi25  1  0.935849  0.996977  0.671547  1
  Bi  Bi26  1  0.437274  0.995904  0.829558  1
  Bi  Bi27  1  0.935512  0.503050  0.673095  1
  Bi  Bi28  1  0.562334  0.004846  0.169506  1
  Bi  Bi29  1  0.061693  0.496959  0.326943  1
  Bi  Bi30  1  0.562912  0.495653  0.168869  1
  Bi  Bi31  1  0.436633  0.503300  0.830965  1
