# generated using pymatgen
data_LiHo6Co(P3Ir4)4
_symmetry_space_group_name_H-M   'P 1'
_cell_length_a   3.93956900
_cell_length_b   11.17719500
_cell_length_c   12.75927500
_cell_angle_alpha   90.00000000
_cell_angle_beta   90.00000000
_cell_angle_gamma   90.00000000
_symmetry_Int_Tables_number   1
_chemical_formula_structural   LiHo6Co(P3Ir4)4
_chemical_formula_sum   'Li1 Ho6 Co1 P12 Ir16'
_cell_volume   561.83337849
_cell_formula_units_Z   1
loop_
 _symmetry_equiv_pos_site_id
 _symmetry_equiv_pos_as_xyz
  1  'x, y, z'
loop_
 _atom_site_type_symbol
 _atom_site_label
 _atom_site_symmetry_multiplicity
 _atom_site_fract_x
 _atom_site_fract_y
 _atom_site_fract_z
 _atom_site_occupancy
  Li  Li0  1  0.500000  0.500000  0.156823  1
  Ho  Ho1  1  0.000000  0.500000  0.517577  1
  Ho  Ho2  1  0.500000  0.000000  0.478248  1
  Ho  Ho3  1  0.500000  0.818737  0.202406  1
  Ho  Ho4  1  0.500000  0.181263  0.202406  1
  Ho  Ho5  1  0.000000  0.687228  0.798342  1
  Ho  Ho6  1  0.000000  0.312772  0.798342  1
  Co  Co7  1  0.500000  0.000000  0.025170  1
  P  P8  1  0.500000  0.315261  0.618957  1
  P  P9  1  0.500000  0.684739  0.618957  1
  P  P10  1  0.000000  0.186414  0.382039  1
  P  P11  1  0.000000  0.813586  0.382039  1
  P  P12  1  0.500000  0.500000  0.879599  1
  P  P13  1  0.000000  0.000000  0.121725  1
  P  P14  1  0.500000  0.854660  0.896859  1
  P  P15  1  0.500000  0.145340  0.896859  1
  P  P16  1  0.000000  0.659601  0.107563  1
  P  P17  1  0.000000  0.340399  0.107563  1
  P  P18  1  0.500000  0.500000  0.345991  1
  P  P19  1  0.000000  0.000000  0.642349  1
  Ir  Ir20  1  0.000000  0.500000  0.979491  1
  Ir  Ir21  1  0.500000  0.289887  0.431926  1
  Ir  Ir22  1  0.500000  0.710113  0.431926  1
  Ir  Ir23  1  0.000000  0.205079  0.572462  1
  Ir  Ir24  1  0.000000  0.794921  0.572462  1
  Ir  Ir25  1  0.500000  0.870653  0.715033  1
  Ir  Ir26  1  0.500000  0.129347  0.715033  1
  Ir  Ir27  1  0.000000  0.627746  0.287581  1
  Ir  Ir28  1  0.000000  0.372254  0.287581  1
  Ir  Ir29  1  0.500000  0.329562  0.996484  1
  Ir  Ir30  1  0.500000  0.670438  0.996484  1
  Ir  Ir31  1  0.000000  0.157704  0.004480  1
  Ir  Ir32  1  0.000000  0.842296  0.004480  1
  Ir  Ir33  1  0.000000  0.000000  0.822903  1
  Ir  Ir34  1  0.500000  0.500000  0.701479  1
  Ir  Ir35  1  0.000000  0.000000  0.300382  1
