# generated using pymatgen
data_TbHo3(GaRh)4
_symmetry_space_group_name_H-M   'P 1'
_cell_length_a   4.28921400
_cell_length_b   6.81925087
_cell_length_c   7.79247400
_cell_angle_alpha   89.81416283
_cell_angle_beta   90.00000000
_cell_angle_gamma   90.00000000
_symmetry_Int_Tables_number   1
_chemical_formula_structural   TbHo3(GaRh)4
_chemical_formula_sum   'Tb1 Ho3 Ga4 Rh4'
_cell_volume   227.92263657
_cell_formula_units_Z   1
loop_
 _symmetry_equiv_pos_site_id
 _symmetry_equiv_pos_as_xyz
  1  'x, y, z'
loop_
 _atom_site_type_symbol
 _atom_site_label
 _atom_site_symmetry_multiplicity
 _atom_site_fract_x
 _atom_site_fract_y
 _atom_site_fract_z
 _atom_site_occupancy
  Tb  Tb0  1  0.250000  0.972588  0.310336  1
  Ho  Ho1  1  0.250000  0.472602  0.189346  1
  Ho  Ho2  1  0.750000  0.027963  0.690659  1
  Ho  Ho3  1  0.750000  0.527211  0.809682  1
  Ga  Ga4  1  0.250000  0.346313  0.570119  1
  Ga  Ga5  1  0.250000  0.844952  0.929480  1
  Ga  Ga6  1  0.750000  0.654230  0.430343  1
  Ga  Ga7  1  0.750000  0.155242  0.069893  1
  Rh  Rh8  1  0.250000  0.234012  0.891390  1
  Rh  Rh9  1  0.250000  0.733823  0.609666  1
  Rh  Rh10  1  0.750000  0.763836  0.107527  1
  Rh  Rh11  1  0.750000  0.267227  0.391560  1
