# generated using pymatgen
data_TbHf7Ta11TiSi16
_symmetry_space_group_name_H-M   'P 1'
_cell_length_a   6.86325515
_cell_length_b   6.86246004
_cell_length_c   12.71157407
_cell_angle_alpha   89.95600457
_cell_angle_beta   89.99963649
_cell_angle_gamma   89.96350727
_symmetry_Int_Tables_number   1
_chemical_formula_structural   TbHf7Ta11TiSi16
_chemical_formula_sum   'Tb1 Hf7 Ta11 Ti1 Si16'
_cell_volume   598.69976775
_cell_formula_units_Z   1
loop_
 _symmetry_equiv_pos_site_id
 _symmetry_equiv_pos_as_xyz
  1  'x, y, z'
loop_
 _atom_site_type_symbol
 _atom_site_label
 _atom_site_symmetry_multiplicity
 _atom_site_fract_x
 _atom_site_fract_y
 _atom_site_fract_z
 _atom_site_occupancy
  Tb  Tb0  1  0.996513  0.661455  0.030869  1
  Hf  Hf1  1  0.341695  0.997999  0.469779  1
  Hf  Hf2  1  0.502797  0.840406  0.718479  1
  Hf  Hf3  1  0.497635  0.161628  0.221247  1
  Hf  Hf4  1  0.840379  0.502481  0.282244  1
  Hf  Hf5  1  0.161550  0.495858  0.779747  1
  Hf  Hf6  1  0.656236  0.003580  0.967966  1
  Hf  Hf7  1  0.998045  0.340359  0.530368  1
  Ta  Ta8  1  0.332423  0.327704  0.999656  1
  Ta  Ta9  1  0.170344  0.831305  0.252281  1
  Ta  Ta10  1  0.830384  0.169487  0.748377  1
  Ta  Ta11  1  0.669522  0.670761  0.500446  1
  Ta  Ta12  1  0.156141  0.003063  0.871021  1
  Ta  Ta13  1  0.496549  0.652358  0.124896  1
  Ta  Ta14  1  0.502900  0.347908  0.622548  1
  Ta  Ta15  1  0.652756  0.492049  0.873531  1
  Ta  Ta16  1  0.347196  0.504066  0.378091  1
  Ta  Ta17  1  0.846978  0.997238  0.374990  1
  Ta  Ta18  1  0.005011  0.153078  0.127378  1
  Ti  Ti19  1  0.994608  0.847634  0.625448  1
  Si  Si20  1  0.205573  0.132283  0.674989  1
  Si  Si21  1  0.367921  0.706471  0.925443  1
  Si  Si22  1  0.636776  0.293362  0.427284  1
  Si  Si23  1  0.704075  0.359552  0.072692  1
  Si  Si24  1  0.289512  0.639321  0.575000  1
  Si  Si25  1  0.789017  0.868500  0.180500  1
  Si  Si26  1  0.136412  0.207417  0.324117  1
  Si  Si27  1  0.862859  0.795446  0.818267  1
  Si  Si28  1  0.301659  0.957371  0.064059  1
  Si  Si29  1  0.542271  0.800459  0.314689  1
  Si  Si30  1  0.455055  0.200308  0.811407  1
  Si  Si31  1  0.802496  0.545382  0.684932  1
  Si  Si32  1  0.202600  0.454642  0.188743  1
  Si  Si33  1  0.703410  0.042835  0.564545  1
  Si  Si34  1  0.956772  0.293909  0.935039  1
  Si  Si35  1  0.043927  0.702331  0.438936  1
