# generated using pymatgen
data_VCo4Si4Tc3
_symmetry_space_group_name_H-M   'P 1'
_cell_length_a   3.72745600
_cell_length_b   5.79516493
_cell_length_c   6.79393860
_cell_angle_alpha   90.26475309
_cell_angle_beta   90.00000000
_cell_angle_gamma   90.00000000
_symmetry_Int_Tables_number   1
_chemical_formula_structural   VCo4Si4Tc3
_chemical_formula_sum   'V1 Co4 Si4 Tc3'
_cell_volume   146.75581111
_cell_formula_units_Z   1
loop_
 _symmetry_equiv_pos_site_id
 _symmetry_equiv_pos_as_xyz
  1  'x, y, z'
loop_
 _atom_site_type_symbol
 _atom_site_label
 _atom_site_symmetry_multiplicity
 _atom_site_fract_x
 _atom_site_fract_y
 _atom_site_fract_z
 _atom_site_occupancy
  V  V0  1  0.250000  0.525610  0.317705  1
  Co  Co1  1  0.250000  0.644242  0.944583  1
  Co  Co2  1  0.250000  0.144383  0.557885  1
  Co  Co3  1  0.750000  0.853129  0.440108  1
  Co  Co4  1  0.750000  0.359834  0.063194  1
  Si  Si5  1  0.250000  0.761519  0.625074  1
  Si  Si6  1  0.250000  0.260760  0.880551  1
  Si  Si7  1  0.750000  0.233427  0.378368  1
  Si  Si8  1  0.750000  0.744907  0.117840  1
  Tc  Tc9  1  0.750000  0.472453  0.677705  1
  Tc  Tc10  1  0.250000  0.026651  0.178844  1
  Tc  Tc11  1  0.750000  0.973087  0.818142  1
