# generated using pymatgen
data_DyHo5Al24(RuRh3)2
_symmetry_space_group_name_H-M   'P 1'
_cell_length_a   8.82098400
_cell_length_b   8.81978871
_cell_length_c   9.48495600
_cell_angle_alpha   90.00000000
_cell_angle_beta   90.00000000
_cell_angle_gamma   120.00448318
_symmetry_Int_Tables_number   1
_chemical_formula_structural   DyHo5Al24(RuRh3)2
_chemical_formula_sum   'Dy1 Ho5 Al24 Ru2 Rh6'
_cell_volume   639.03044074
_cell_formula_units_Z   1
loop_
 _symmetry_equiv_pos_site_id
 _symmetry_equiv_pos_as_xyz
  1  'x, y, z'
loop_
 _atom_site_type_symbol
 _atom_site_label
 _atom_site_symmetry_multiplicity
 _atom_site_fract_x
 _atom_site_fract_y
 _atom_site_fract_z
 _atom_site_occupancy
  Dy  Dy0  1  0.191387  0.382776  0.250000  1
  Ho  Ho1  1  0.808308  0.616615  0.750000  1
  Ho  Ho2  1  0.616996  0.808507  0.250000  1
  Ho  Ho3  1  0.383380  0.191708  0.750000  1
  Ho  Ho4  1  0.191509  0.808507  0.250000  1
  Ho  Ho5  1  0.808329  0.191708  0.750000  1
  Al  Al6  1  0.333397  0.666796  0.031635  1
  Al  Al7  1  0.666690  0.333380  0.968308  1
  Al  Al8  1  0.666690  0.333380  0.531692  1
  Al  Al9  1  0.333397  0.666796  0.468365  1
  Al  Al10  1  0.163074  0.326149  0.576247  1
  Al  Al11  1  0.836925  0.673849  0.423761  1
  Al  Al12  1  0.673885  0.836927  0.576161  1
  Al  Al13  1  0.836925  0.673849  0.076239  1
  Al  Al14  1  0.326176  0.163018  0.423778  1
  Al  Al15  1  0.163074  0.326149  0.923753  1
  Al  Al16  1  0.163041  0.836927  0.576161  1
  Al  Al17  1  0.326176  0.163018  0.076222  1
  Al  Al18  1  0.836843  0.163018  0.423778  1
  Al  Al19  1  0.673885  0.836927  0.923839  1
  Al  Al20  1  0.836843  0.163018  0.076222  1
  Al  Al21  1  0.163041  0.836927  0.923839  1
  Al  Al22  1  0.561748  0.123497  0.250000  1
  Al  Al23  1  0.438266  0.876531  0.750000  1
  Al  Al24  1  0.876369  0.438264  0.250000  1
  Al  Al25  1  0.123464  0.561681  0.750000  1
  Al  Al26  1  0.561894  0.438264  0.250000  1
  Al  Al27  1  0.438218  0.561681  0.750000  1
  Al  Al28  1  0.999938  0.999876  0.250000  1
  Al  Al29  1  0.999989  0.999978  0.750000  1
  Ru  Ru30  1  0.000009  0.000017  0.999666  1
  Ru  Ru31  1  0.000009  0.000017  0.500334  1
  Rh  Rh32  1  0.500009  0.000017  0.999891  1
  Rh  Rh33  1  0.999978  0.500053  0.999885  1
  Rh  Rh34  1  0.500009  0.000017  0.500109  1
  Rh  Rh35  1  0.500074  0.500053  0.999885  1
  Rh  Rh36  1  0.999978  0.500053  0.500115  1
  Rh  Rh37  1  0.500074  0.500053  0.500115  1
