# generated using pymatgen
data_Sm(ThPt4)3
_symmetry_space_group_name_H-M   'P 1'
_cell_length_a   5.96470200
_cell_length_b   5.96470074
_cell_length_c   9.80565600
_cell_angle_alpha   90.00000000
_cell_angle_beta   90.00000000
_cell_angle_gamma   120.00000700
_symmetry_Int_Tables_number   1
_chemical_formula_structural   Sm(ThPt4)3
_chemical_formula_sum   'Sm1 Th3 Pt12'
_cell_volume   302.12360931
_cell_formula_units_Z   1
loop_
 _symmetry_equiv_pos_site_id
 _symmetry_equiv_pos_as_xyz
  1  'x, y, z'
loop_
 _atom_site_type_symbol
 _atom_site_label
 _atom_site_symmetry_multiplicity
 _atom_site_fract_x
 _atom_site_fract_y
 _atom_site_fract_z
 _atom_site_occupancy
  Sm  Sm0  1  0.000000  0.000000  0.500000  1
  Th  Th1  1  0.000000  0.000000  0.000000  1
  Th  Th2  1  0.333333  0.666667  0.252909  1
  Th  Th3  1  0.666667  0.333333  0.747091  1
  Pt  Pt4  1  0.500000  0.500000  0.500000  1
  Pt  Pt5  1  0.500000  0.000000  0.500000  1
  Pt  Pt6  1  0.000000  0.500000  0.500000  1
  Pt  Pt7  1  0.500000  0.500000  0.000000  1
  Pt  Pt8  1  0.500000  0.000000  0.000000  1
  Pt  Pt9  1  0.000000  0.500000  0.000000  1
  Pt  Pt10  1  0.824360  0.648720  0.249530  1
  Pt  Pt11  1  0.351280  0.175640  0.249530  1
  Pt  Pt12  1  0.824360  0.175640  0.249530  1
  Pt  Pt13  1  0.175640  0.351280  0.750470  1
  Pt  Pt14  1  0.648720  0.824360  0.750470  1
  Pt  Pt15  1  0.175640  0.824360  0.750470  1
