# generated using pymatgen
data_BaLa(Ni9As5)2
_symmetry_space_group_name_H-M   'P 1'
_cell_length_a   6.73553000
_cell_length_b   6.73552992
_cell_length_c   11.25751400
_cell_angle_alpha   90.00000000
_cell_angle_beta   90.00000000
_cell_angle_gamma   120.00000037
_symmetry_Int_Tables_number   1
_chemical_formula_structural   BaLa(Ni9As5)2
_chemical_formula_sum   'Ba1 La1 Ni18 As10'
_cell_volume   442.29972619
_cell_formula_units_Z   1
loop_
 _symmetry_equiv_pos_site_id
 _symmetry_equiv_pos_as_xyz
  1  'x, y, z'
loop_
 _atom_site_type_symbol
 _atom_site_label
 _atom_site_symmetry_multiplicity
 _atom_site_fract_x
 _atom_site_fract_y
 _atom_site_fract_z
 _atom_site_occupancy
  Ba  Ba0  1  0.000000  0.000000  0.000000  1
  La  La1  1  0.000000  0.000000  0.500000  1
  Ni  Ni2  1  0.464656  0.929311  0.892544  1
  Ni  Ni3  1  0.929311  0.464656  0.107456  1
  Ni  Ni4  1  0.535344  0.070689  0.107456  1
  Ni  Ni5  1  0.071910  0.535955  0.604664  1
  Ni  Ni6  1  0.208572  0.417143  0.252700  1
  Ni  Ni7  1  0.791428  0.208572  0.747300  1
  Ni  Ni8  1  0.417143  0.208572  0.747300  1
  Ni  Ni9  1  0.582857  0.791428  0.252700  1
  Ni  Ni10  1  0.208572  0.791428  0.252700  1
  Ni  Ni11  1  0.791428  0.582857  0.747300  1
  Ni  Ni12  1  0.464045  0.928090  0.604664  1
  Ni  Ni13  1  0.535955  0.464045  0.395336  1
  Ni  Ni14  1  0.928090  0.464045  0.395336  1
  Ni  Ni15  1  0.070689  0.535344  0.892544  1
  Ni  Ni16  1  0.464656  0.535344  0.892544  1
  Ni  Ni17  1  0.535955  0.071910  0.395336  1
  Ni  Ni18  1  0.535344  0.464656  0.107456  1
  Ni  Ni19  1  0.464045  0.535955  0.604664  1
  As  As20  1  0.171845  0.343690  0.747745  1
  As  As21  1  0.828155  0.171845  0.252255  1
  As  As22  1  0.171845  0.828155  0.747745  1
  As  As23  1  0.828155  0.656310  0.252255  1
  As  As24  1  0.333333  0.666667  0.438507  1
  As  As25  1  0.666667  0.333333  0.939185  1
  As  As26  1  0.666667  0.333333  0.561493  1
  As  As27  1  0.333333  0.666667  0.060815  1
  As  As28  1  0.343690  0.171845  0.252255  1
  As  As29  1  0.656310  0.828155  0.747745  1
