# generated using pymatgen
data_Dy3ScIn2(B2Rh5)2
_symmetry_space_group_name_H-M   'P 1'
_cell_length_a   9.61488069
_cell_length_b   9.61488069
_cell_length_c   3.21949800
_cell_angle_alpha   90.00000000
_cell_angle_beta   90.00000000
_cell_angle_gamma   90.63299983
_symmetry_Int_Tables_number   1
_chemical_formula_structural   Dy3ScIn2(B2Rh5)2
_chemical_formula_sum   'Dy3 Sc1 In2 B4 Rh10'
_cell_volume   297.61132557
_cell_formula_units_Z   1
loop_
 _symmetry_equiv_pos_site_id
 _symmetry_equiv_pos_as_xyz
  1  'x, y, z'
loop_
 _atom_site_type_symbol
 _atom_site_label
 _atom_site_symmetry_multiplicity
 _atom_site_fract_x
 _atom_site_fract_y
 _atom_site_fract_z
 _atom_site_occupancy
  Dy  Dy0  1  0.826210  0.326210  0.000000  1
  Dy  Dy1  1  0.322307  0.174276  0.000000  1
  Dy  Dy2  1  0.674276  0.822307  0.000000  1
  Sc  Sc3  1  0.174081  0.674081  0.000000  1
  In  In4  1  0.998963  0.004075  0.000000  1
  In  In5  1  0.504075  0.498963  0.000000  1
  B  B6  1  0.619004  0.119004  0.000000  1
  B  B7  1  0.124676  0.385933  0.000000  1
  B  B8  1  0.885933  0.624676  0.000000  1
  B  B9  1  0.372317  0.872317  0.000000  1
  Rh  Rh10  1  0.071364  0.230355  0.500000  1
  Rh  Rh11  1  0.220838  0.920799  0.500000  1
  Rh  Rh12  1  0.771626  0.070033  0.500000  1
  Rh  Rh13  1  0.935293  0.775804  0.500000  1
  Rh  Rh14  1  0.420799  0.720838  0.500000  1
  Rh  Rh15  1  0.570033  0.271626  0.500000  1
  Rh  Rh16  1  0.730355  0.571364  0.500000  1
  Rh  Rh17  1  0.275804  0.435293  0.500000  1
  Rh  Rh18  1  0.496396  0.996396  0.500000  1
  Rh  Rh19  1  0.005647  0.505647  0.500000  1
