# generated using pymatgen
data_Y3Mo(P3Ir4)2
_symmetry_space_group_name_H-M   'P 1'
_cell_length_a   3.99669700
_cell_length_b   11.14356500
_cell_length_c   12.82977900
_cell_angle_alpha   90.00000000
_cell_angle_beta   90.00000000
_cell_angle_gamma   90.00000000
_symmetry_Int_Tables_number   1
_chemical_formula_structural   Y3Mo(P3Ir4)2
_chemical_formula_sum   'Y6 Mo2 P12 Ir16'
_cell_volume   571.40567671
_cell_formula_units_Z   2
loop_
 _symmetry_equiv_pos_site_id
 _symmetry_equiv_pos_as_xyz
  1  'x, y, z'
loop_
 _atom_site_type_symbol
 _atom_site_label
 _atom_site_symmetry_multiplicity
 _atom_site_fract_x
 _atom_site_fract_y
 _atom_site_fract_z
 _atom_site_occupancy
  Y  Y0  1  0.000000  0.500000  0.522200  1
  Y  Y1  1  0.500000  0.000000  0.477800  1
  Y  Y2  1  0.500000  0.817970  0.203956  1
  Y  Y3  1  0.500000  0.182030  0.203956  1
  Y  Y4  1  0.000000  0.682030  0.796044  1
  Y  Y5  1  0.000000  0.317970  0.796044  1
  Mo  Mo6  1  0.500000  0.500000  0.158856  1
  Mo  Mo7  1  0.000000  0.000000  0.841144  1
  P  P8  1  0.500000  0.500000  0.874189  1
  P  P9  1  0.000000  0.000000  0.125811  1
  P  P10  1  0.500000  0.500000  0.346502  1
  P  P11  1  0.000000  0.000000  0.653498  1
  P  P12  1  0.500000  0.314385  0.617771  1
  P  P13  1  0.500000  0.685615  0.617771  1
  P  P14  1  0.000000  0.185615  0.382229  1
  P  P15  1  0.000000  0.814385  0.382229  1
  P  P16  1  0.500000  0.845766  0.886256  1
  P  P17  1  0.500000  0.154234  0.886256  1
  P  P18  1  0.000000  0.654234  0.113744  1
  P  P19  1  0.000000  0.345766  0.113744  1
  Ir  Ir20  1  0.500000  0.500000  0.696922  1
  Ir  Ir21  1  0.000000  0.000000  0.303078  1
  Ir  Ir22  1  0.000000  0.500000  0.994099  1
  Ir  Ir23  1  0.500000  0.000000  0.005901  1
  Ir  Ir24  1  0.500000  0.331165  0.980053  1
  Ir  Ir25  1  0.500000  0.668835  0.980053  1
  Ir  Ir26  1  0.000000  0.168835  0.019947  1
  Ir  Ir27  1  0.000000  0.831165  0.019947  1
  Ir  Ir28  1  0.500000  0.297718  0.432149  1
  Ir  Ir29  1  0.500000  0.702282  0.432149  1
  Ir  Ir30  1  0.000000  0.202282  0.567851  1
  Ir  Ir31  1  0.000000  0.797718  0.567851  1
  Ir  Ir32  1  0.500000  0.872639  0.709976  1
  Ir  Ir33  1  0.500000  0.127361  0.709976  1
  Ir  Ir34  1  0.000000  0.627361  0.290024  1
  Ir  Ir35  1  0.000000  0.372639  0.290024  1
