# generated using pymatgen
data_CeSm3Dy(FeB3)2
_symmetry_space_group_name_H-M   'P 1'
_cell_length_a   5.45040641
_cell_length_b   5.45040711
_cell_length_c   8.13582889
_cell_angle_alpha   70.42970002
_cell_angle_beta   70.42970572
_cell_angle_gamma   59.99998366
_symmetry_Int_Tables_number   1
_chemical_formula_structural   CeSm3Dy(FeB3)2
_chemical_formula_sum   'Ce1 Sm3 Dy1 Fe2 B6'
_cell_volume   193.01973791
_cell_formula_units_Z   1
loop_
 _symmetry_equiv_pos_site_id
 _symmetry_equiv_pos_as_xyz
  1  'x, y, z'
loop_
 _atom_site_type_symbol
 _atom_site_label
 _atom_site_symmetry_multiplicity
 _atom_site_fract_x
 _atom_site_fract_y
 _atom_site_fract_z
 _atom_site_occupancy
  Ce  Ce0  1  0.998141  0.998141  0.005577  1
  Sm  Sm1  1  0.254287  0.254287  0.237138  1
  Sm  Sm2  1  0.745615  0.745615  0.763154  1
  Sm  Sm3  1  0.413648  0.413648  0.759057  1
  Dy  Dy4  1  0.584229  0.584229  0.247312  1
  Fe  Fe5  1  0.112589  0.112589  0.662233  1
  Fe  Fe6  1  0.889049  0.889049  0.332852  1
  B  B7  1  0.167079  0.834177  0.498780  1
  B  B8  1  0.834177  0.499965  0.498780  1
  B  B9  1  0.499965  0.167079  0.498780  1
  B  B10  1  0.167079  0.499965  0.498780  1
  B  B11  1  0.499965  0.834177  0.498780  1
  B  B12  1  0.834177  0.167079  0.498780  1
