# generated using pymatgen
data_DyHo3Al10(Ga4Ir3)2
_symmetry_space_group_name_H-M   'P 1'
_cell_length_a   7.53267027
_cell_length_b   7.53096976
_cell_length_c   9.54708501
_cell_angle_alpha   90.10891563
_cell_angle_beta   89.84721570
_cell_angle_gamma   119.68238405
_symmetry_Int_Tables_number   1
_chemical_formula_structural   DyHo3Al10(Ga4Ir3)2
_chemical_formula_sum   'Dy1 Ho3 Al10 Ga8 Ir6'
_cell_volume   470.52285850
_cell_formula_units_Z   1
loop_
 _symmetry_equiv_pos_site_id
 _symmetry_equiv_pos_as_xyz
  1  'x, y, z'
loop_
 _atom_site_type_symbol
 _atom_site_label
 _atom_site_symmetry_multiplicity
 _atom_site_fract_x
 _atom_site_fract_y
 _atom_site_fract_z
 _atom_site_occupancy
  Dy  Dy0  1  0.996446  0.666843  0.245710  1
  Ho  Ho1  1  0.003547  0.333154  0.754275  1
  Ho  Ho2  1  0.672406  0.998674  0.249135  1
  Ho  Ho3  1  0.327581  0.001327  0.750860  1
  Al  Al4  1  0.997641  0.665304  0.570907  1
  Al  Al5  1  0.334473  0.000707  0.427590  1
  Al  Al6  1  0.002356  0.334624  0.429194  1
  Al  Al7  1  0.665603  0.999366  0.572441  1
  Al  Al8  1  0.664142  0.997129  0.926669  1
  Al  Al9  1  0.335945  0.002955  0.073304  1
  Al  Al10  1  0.333530  0.333485  0.556461  1
  Al  Al11  1  0.666406  0.666520  0.443577  1
  Al  Al12  1  0.666772  0.666266  0.054805  1
  Al  Al13  1  0.333154  0.333738  0.945159  1
  Ga  Ga14  1  0.129822  0.126409  0.250610  1
  Ga  Ga15  1  0.870224  0.873683  0.749393  1
  Ga  Ga16  1  0.999688  0.333419  0.079802  1
  Ga  Ga17  1  0.000305  0.666479  0.920105  1
  Ga  Ga18  1  0.341008  0.548755  0.250860  1
  Ga  Ga19  1  0.659040  0.451209  0.749142  1
  Ga  Ga20  1  0.546330  0.339273  0.249999  1
  Ga  Ga21  1  0.453567  0.660661  0.750005  1
  Ir  Ir22  1  0.667315  0.325814  0.999143  1
  Ir  Ir23  1  0.332688  0.674147  0.000791  1
  Ir  Ir24  1  0.328008  0.671836  0.500876  1
  Ir  Ir25  1  0.671988  0.328126  0.499190  1
  Ir  Ir26  1  0.000008  0.000052  0.999965  1
  Ir  Ir27  1  0.000006  0.000042  0.500033  1
