# generated using pymatgen
data_PrY2Co8P6W
_symmetry_space_group_name_H-M   'P 1'
_cell_length_a   3.75246900
_cell_length_b   10.62794500
_cell_length_c   12.34781800
_cell_angle_alpha   90.00000000
_cell_angle_beta   90.00000000
_cell_angle_gamma   90.00000000
_symmetry_Int_Tables_number   1
_chemical_formula_structural   PrY2Co8P6W
_chemical_formula_sum   'Pr2 Y4 Co16 P12 W2'
_cell_volume   492.44375129
_cell_formula_units_Z   2
loop_
 _symmetry_equiv_pos_site_id
 _symmetry_equiv_pos_as_xyz
  1  'x, y, z'
loop_
 _atom_site_type_symbol
 _atom_site_label
 _atom_site_symmetry_multiplicity
 _atom_site_fract_x
 _atom_site_fract_y
 _atom_site_fract_z
 _atom_site_occupancy
  Pr  Pr0  1  0.000000  0.500000  0.524344  1
  Pr  Pr1  1  0.500000  0.000000  0.475656  1
  Y  Y2  1  0.500000  0.819006  0.203503  1
  Y  Y3  1  0.500000  0.180994  0.203503  1
  Y  Y4  1  0.000000  0.680994  0.796497  1
  Y  Y5  1  0.000000  0.319006  0.796497  1
  Co  Co6  1  0.500000  0.500000  0.704976  1
  Co  Co7  1  0.000000  0.000000  0.295024  1
  Co  Co8  1  0.000000  0.500000  0.986961  1
  Co  Co9  1  0.500000  0.000000  0.013039  1
  Co  Co10  1  0.500000  0.332624  0.990900  1
  Co  Co11  1  0.500000  0.667376  0.990900  1
  Co  Co12  1  0.000000  0.167376  0.009100  1
  Co  Co13  1  0.000000  0.832624  0.009100  1
  Co  Co14  1  0.500000  0.295202  0.429450  1
  Co  Co15  1  0.500000  0.704798  0.429450  1
  Co  Co16  1  0.000000  0.204798  0.570550  1
  Co  Co17  1  0.000000  0.795202  0.570550  1
  Co  Co18  1  0.500000  0.879025  0.711628  1
  Co  Co19  1  0.500000  0.120975  0.711628  1
  Co  Co20  1  0.000000  0.620975  0.288372  1
  Co  Co21  1  0.000000  0.379025  0.288372  1
  P  P22  1  0.500000  0.500000  0.882353  1
  P  P23  1  0.000000  0.000000  0.117647  1
  P  P24  1  0.500000  0.500000  0.344367  1
  P  P25  1  0.000000  0.000000  0.655633  1
  P  P26  1  0.500000  0.307279  0.617685  1
  P  P27  1  0.500000  0.692721  0.617685  1
  P  P28  1  0.000000  0.192721  0.382315  1
  P  P29  1  0.000000  0.807279  0.382315  1
  P  P30  1  0.500000  0.844455  0.894429  1
  P  P31  1  0.500000  0.155545  0.894429  1
  P  P32  1  0.000000  0.655545  0.105571  1
  P  P33  1  0.000000  0.344455  0.105571  1
  W  W34  1  0.500000  0.500000  0.153078  1
  W  W35  1  0.000000  0.000000  0.846922  1
