# generated using pymatgen
data_Lu4Sc(TaB4)5
_symmetry_space_group_name_H-M   'P 1'
_cell_length_a   6.24180737
_cell_length_b   7.14664627
_cell_length_c   7.62873500
_cell_angle_alpha   94.99847685
_cell_angle_beta   101.88202851
_cell_angle_gamma   115.74331852
_symmetry_Int_Tables_number   1
_chemical_formula_structural   Lu4Sc(TaB4)5
_chemical_formula_sum   'Lu4 Sc1 Ta5 B20'
_cell_volume   293.88025587
_cell_formula_units_Z   1
loop_
 _symmetry_equiv_pos_site_id
 _symmetry_equiv_pos_as_xyz
  1  'x, y, z'
loop_
 _atom_site_type_symbol
 _atom_site_label
 _atom_site_symmetry_multiplicity
 _atom_site_fract_x
 _atom_site_fract_y
 _atom_site_fract_z
 _atom_site_occupancy
  Lu  Lu0  1  0.501048  0.799505  0.399583  1
  Lu  Lu1  1  0.001794  0.403957  0.199442  1
  Lu  Lu2  1  0.498033  0.195580  0.600788  1
  Lu  Lu3  1  0.998414  0.799803  0.399836  1
  Sc  Sc4  1  0.001450  0.003345  0.000052  1
  Ta  Ta5  1  0.499670  0.002738  0.998659  1
  Ta  Ta6  1  0.499097  0.597471  0.800707  1
  Ta  Ta7  1  0.500472  0.401830  0.198461  1
  Ta  Ta8  1  0.000112  0.198771  0.603058  1
  Ta  Ta9  1  0.999421  0.597600  0.799967  1
  B  B10  1  0.332721  0.233615  0.869116  1
  B  B11  1  0.335029  0.636465  0.060574  1
  B  B12  1  0.167777  0.366753  0.932182  1
  B  B13  1  0.335989  0.038725  0.259904  1
  B  B14  1  0.167775  0.771069  0.123189  1
  B  B15  1  0.835689  0.232727  0.867367  1
  B  B16  1  0.166970  0.168653  0.329939  1
  B  B17  1  0.830943  0.636381  0.058297  1
  B  B18  1  0.332446  0.431036  0.470717  1
  B  B19  1  0.664895  0.368778  0.932060  1
  B  B20  1  0.833712  0.036112  0.261763  1
  B  B21  1  0.665496  0.769240  0.125481  1
  B  B22  1  0.333170  0.829013  0.674743  1
  B  B23  1  0.165497  0.562071  0.539505  1
  B  B24  1  0.665509  0.167536  0.330937  1
  B  B25  1  0.834354  0.431632  0.469854  1
  B  B26  1  0.165076  0.963185  0.740132  1
  B  B27  1  0.833101  0.828902  0.674358  1
  B  B28  1  0.667245  0.564853  0.539372  1
  B  B29  1  0.667096  0.962654  0.739960  1
