# generated using pymatgen
data_SrPrMgNbO6
_symmetry_space_group_name_H-M   'P 1'
_cell_length_a   5.76806200
_cell_length_b   5.65560412
_cell_length_c   9.80615400
_cell_angle_alpha   54.77039353
_cell_angle_beta   90.00000000
_cell_angle_gamma   90.00000000
_symmetry_Int_Tables_number   1
_chemical_formula_structural   SrPrMgNbO6
_chemical_formula_sum   'Sr2 Pr2 Mg2 Nb2 O12'
_cell_volume   261.30535625
_cell_formula_units_Z   2
loop_
 _symmetry_equiv_pos_site_id
 _symmetry_equiv_pos_as_xyz
  1  'x, y, z'
loop_
 _atom_site_type_symbol
 _atom_site_label
 _atom_site_symmetry_multiplicity
 _atom_site_fract_x
 _atom_site_fract_y
 _atom_site_fract_z
 _atom_site_occupancy
  Sr  Sr0  1  0.219213  0.243766  0.250423  1
  Sr  Sr1  1  0.780787  0.243766  0.750423  1
  Pr  Pr2  1  0.302739  0.761679  0.752232  1
  Pr  Pr3  1  0.697261  0.761679  0.252232  1
  Mg  Mg4  1  0.754692  0.500515  0.000953  1
  Mg  Mg5  1  0.245308  0.500515  0.500953  1
  Nb  Nb6  1  0.756084  0.000050  0.500215  1
  Nb  Nb7  1  0.243916  0.000050  0.000215  1
  O  O8  1  0.770692  0.340776  0.255662  1
  O  O9  1  0.229308  0.340776  0.755662  1
  O  O10  1  0.723295  0.686739  0.744404  1
  O  O11  1  0.276705  0.686739  0.244404  1
  O  O12  1  0.949063  0.756689  0.453092  1
  O  O13  1  0.050937  0.756689  0.953092  1
  O  O14  1  0.535730  0.236108  0.537961  1
  O  O15  1  0.464270  0.236108  0.037961  1
  O  O16  1  0.041649  0.145767  0.548281  1
  O  O17  1  0.958351  0.145767  0.048281  1
  O  O18  1  0.477780  0.827912  0.456775  1
  O  O19  1  0.522220  0.827912  0.956775  1
