# generated using pymatgen
data_Tb2Dy7Th3Ru4
_symmetry_space_group_name_H-M   'P 1'
_cell_length_a   6.35738700
_cell_length_b   7.22229849
_cell_length_c   9.52514444
_cell_angle_alpha   90.02748134
_cell_angle_beta   90.05634171
_cell_angle_gamma   90.76552136
_symmetry_Int_Tables_number   1
_chemical_formula_structural   Tb2Dy7Th3Ru4
_chemical_formula_sum   'Tb2 Dy7 Th3 Ru4'
_cell_volume   437.30719745
_cell_formula_units_Z   1
loop_
 _symmetry_equiv_pos_site_id
 _symmetry_equiv_pos_as_xyz
  1  'x, y, z'
loop_
 _atom_site_type_symbol
 _atom_site_label
 _atom_site_symmetry_multiplicity
 _atom_site_fract_x
 _atom_site_fract_y
 _atom_site_fract_z
 _atom_site_occupancy
  Tb  Tb0  1  0.333833  0.677185  0.064164  1
  Tb  Tb1  1  0.361102  0.963137  0.749821  1
  Dy  Dy2  1  0.164777  0.175862  0.434416  1
  Dy  Dy3  1  0.669222  0.323996  0.566941  1
  Dy  Dy4  1  0.830043  0.823392  0.931192  1
  Dy  Dy5  1  0.669410  0.323781  0.932930  1
  Dy  Dy6  1  0.830024  0.823180  0.568745  1
  Dy  Dy7  1  0.333893  0.676972  0.435794  1
  Dy  Dy8  1  0.164521  0.175867  0.065552  1
  Th  Th9  1  0.847866  0.548175  0.250237  1
  Th  Th10  1  0.649729  0.045936  0.250153  1
  Th  Th11  1  0.152373  0.451747  0.749802  1
  Ru  Ru12  1  0.031703  0.872058  0.250347  1
  Ru  Ru13  1  0.469316  0.369575  0.250321  1
  Ru  Ru14  1  0.961862  0.132815  0.750025  1
  Ru  Ru15  1  0.530324  0.616323  0.749560  1
