# generated using pymatgen
data_PaV(NF10)2
_symmetry_space_group_name_H-M   'P 1'
_cell_length_a   5.67542719
_cell_length_b   7.65694651
_cell_length_c   9.07699000
_cell_angle_alpha   88.78015846
_cell_angle_beta   109.33117945
_cell_angle_gamma   96.68679010
_symmetry_Int_Tables_number   1
_chemical_formula_structural   PaV(NF10)2
_chemical_formula_sum   'Pa1 V1 N2 F20'
_cell_volume   369.62011155
_cell_formula_units_Z   1
loop_
 _symmetry_equiv_pos_site_id
 _symmetry_equiv_pos_as_xyz
  1  'x, y, z'
loop_
 _atom_site_type_symbol
 _atom_site_label
 _atom_site_symmetry_multiplicity
 _atom_site_fract_x
 _atom_site_fract_y
 _atom_site_fract_z
 _atom_site_occupancy
  Pa  Pa0  1  0.010903  0.244469  0.701044  1
  V  V1  1  0.994691  0.753824  0.293740  1
  N  N2  1  0.296782  0.274141  0.215256  1
  N  N3  1  0.703649  0.726835  0.788286  1
  F  F4  1  0.062266  0.233194  0.213531  1
  F  F5  1  0.938076  0.766949  0.785579  1
  F  F6  1  0.373290  0.138650  0.157941  1
  F  F7  1  0.633402  0.861162  0.849872  1
  F  F8  1  0.928593  0.191409  0.910060  1
  F  F9  1  0.064391  0.801409  0.112325  1
  F  F10  1  0.078818  0.304942  0.492627  1
  F  F11  1  0.927042  0.701901  0.471065  1
  F  F12  1  0.758877  0.024755  0.595271  1
  F  F13  1  0.202113  0.947419  0.386499  1
  F  F14  1  0.309660  0.089511  0.791568  1
  F  F15  1  0.734169  0.883977  0.223919  1
  F  F16  1  0.227342  0.478636  0.816555  1
  F  F17  1  0.793193  0.556108  0.197734  1
  F  F18  1  0.698195  0.389257  0.632117  1
  F  F19  1  0.261211  0.626550  0.356144  1
  F  F20  1  0.699709  0.585785  0.877454  1
  F  F21  1  0.308088  0.415149  0.126586  1
  F  F22  1  0.544769  0.693917  0.643388  1
  F  F23  1  0.450770  0.310052  0.361440  1
