# generated using pymatgen
data_Li4Pr(ThSi2)2
_symmetry_space_group_name_H-M   'P 1'
_cell_length_a   4.41159650
_cell_length_b   6.79312544
_cell_length_c   8.30968387
_cell_angle_alpha   114.12618389
_cell_angle_beta   105.39363743
_cell_angle_gamma   90.00000817
_symmetry_Int_Tables_number   1
_chemical_formula_structural   Li4Pr(ThSi2)2
_chemical_formula_sum   'Li4 Pr1 Th2 Si4'
_cell_volume   217.44983110
_cell_formula_units_Z   1
loop_
 _symmetry_equiv_pos_site_id
 _symmetry_equiv_pos_as_xyz
  1  'x, y, z'
loop_
 _atom_site_type_symbol
 _atom_site_label
 _atom_site_symmetry_multiplicity
 _atom_site_fract_x
 _atom_site_fract_y
 _atom_site_fract_z
 _atom_site_occupancy
  Li  Li0  1  0.670754  0.985517  0.341508  1
  Li  Li1  1  0.330077  0.019414  0.660156  1
  Li  Li2  1  0.330077  0.640743  0.660156  1
  Li  Li3  1  0.670754  0.355991  0.341508  1
  Pr  Pr4  1  0.869856  0.369856  0.739712  1
  Th  Th5  1  0.999785  0.999785  0.999569  1
  Th  Th6  1  0.129380  0.629380  0.258759  1
  Si  Si7  1  0.502384  0.683981  0.004767  1
  Si  Si8  1  0.502384  0.320786  0.004767  1
  Si  Si9  1  0.784322  0.784322  0.568643  1
  Si  Si10  1  0.210226  0.210226  0.420454  1
