# generated using pymatgen
data_Er3Lu2Re2BC6
_symmetry_space_group_name_H-M   'P 1'
_cell_length_a   8.21392405
_cell_length_b   8.21902056
_cell_length_c   3.37068700
_cell_angle_alpha   90.00000000
_cell_angle_beta   90.00000000
_cell_angle_gamma   122.03686102
_symmetry_Int_Tables_number   1
_chemical_formula_structural   Er3Lu2Re2BC6
_chemical_formula_sum   'Er3 Lu2 Re2 B1 C6'
_cell_volume   192.90120685
_cell_formula_units_Z   1
loop_
 _symmetry_equiv_pos_site_id
 _symmetry_equiv_pos_as_xyz
  1  'x, y, z'
loop_
 _atom_site_type_symbol
 _atom_site_label
 _atom_site_symmetry_multiplicity
 _atom_site_fract_x
 _atom_site_fract_y
 _atom_site_fract_z
 _atom_site_occupancy
  Er  Er0  1  0.329563  0.078560  0.500000  1
  Er  Er1  1  0.670570  0.920974  0.500000  1
  Er  Er2  1  0.078299  0.330362  0.500000  1
  Lu  Lu3  1  0.919264  0.667625  0.500000  1
  Lu  Lu4  1  0.500337  0.500432  0.000000  1
  Re  Re5  1  0.285267  0.714602  0.000000  1
  Re  Re6  1  0.714166  0.286304  0.000000  1
  B  B7  1  0.000644  0.999266  0.000000  1
  C  C8  1  0.183931  0.184388  0.000000  1
  C  C9  1  0.817470  0.813661  0.000000  1
  C  C10  1  0.375154  0.624835  0.500000  1
  C  C11  1  0.625228  0.376364  0.500000  1
  C  C12  1  0.500454  0.000544  0.000000  1
  C  C13  1  0.999651  0.502085  0.000000  1
