# generated using pymatgen
data_Zr6Ta2Al14SiRh7
_symmetry_space_group_name_H-M   'P 1'
_cell_length_a   8.83921110
_cell_length_b   8.83920909
_cell_length_c   8.83920995
_cell_angle_alpha   119.97167875
_cell_angle_beta   119.84477122
_cell_angle_gamma   90.15906852
_symmetry_Int_Tables_number   1
_chemical_formula_structural   Zr6Ta2Al14SiRh7
_chemical_formula_sum   'Zr6 Ta2 Al14 Si1 Rh7'
_cell_volume   489.01807451
_cell_formula_units_Z   1
loop_
 _symmetry_equiv_pos_site_id
 _symmetry_equiv_pos_as_xyz
  1  'x, y, z'
loop_
 _atom_site_type_symbol
 _atom_site_label
 _atom_site_symmetry_multiplicity
 _atom_site_fract_x
 _atom_site_fract_y
 _atom_site_fract_z
 _atom_site_occupancy
  Zr  Zr0  1  0.798798  0.295743  0.087036  1
  Zr  Zr1  1  0.208707  0.295743  0.496945  1
  Zr  Zr2  1  0.203188  0.703188  0.500000  1
  Zr  Zr3  1  0.208707  0.711762  0.912964  1
  Zr  Zr4  1  0.798798  0.711762  0.503055  1
  Zr  Zr5  1  0.789528  0.289528  0.500000  1
  Ta  Ta6  1  0.379695  0.123929  0.744234  1
  Ta  Ta7  1  0.379695  0.635462  0.255766  1
  Al  Al8  1  0.163610  0.332136  0.168525  1
  Al  Al9  1  0.163610  0.995085  0.831475  1
  Al  Al10  1  0.156575  0.335802  0.820772  1
  Al  Al11  1  0.515028  0.335802  0.179228  1
  Al  Al12  1  0.835695  0.663052  0.827357  1
  Al  Al13  1  0.835695  0.008336  0.172643  1
  Al  Al14  1  0.834733  0.664404  0.170330  1
  Al  Al15  1  0.494074  0.664404  0.829670  1
  Al  Al16  1  0.380073  0.120265  0.259809  1
  Al  Al17  1  0.860457  0.120265  0.740191  1
  Al  Al18  1  0.620930  0.878643  0.257714  1
  Al  Al19  1  0.620930  0.363217  0.742286  1
  Al  Al20  1  0.621986  0.878890  0.743095  1
  Al  Al21  1  0.135794  0.878890  0.256905  1
  Si  Si22  1  0.996091  0.496091  0.500000  1
  Rh  Rh23  1  0.002942  0.999361  0.500840  1
  Rh  Rh24  1  0.498520  0.999361  0.996418  1
  Rh  Rh25  1  0.497646  0.497646  0.000000  1
  Rh  Rh26  1  0.498520  0.502102  0.499160  1
  Rh  Rh27  1  0.002942  0.502102  0.003582  1
  Rh  Rh28  1  0.000655  0.000655  0.000000  1
  Rh  Rh29  1  0.496373  0.996373  0.500000  1
