# generated using pymatgen
data_DyHo15(InPt)4
_symmetry_space_group_name_H-M   'P 1'
_cell_length_a   9.69366674
_cell_length_b   9.69366774
_cell_length_c   9.70556500
_cell_angle_alpha   59.95939557
_cell_angle_beta   59.95939217
_cell_angle_gamma   59.90570288
_symmetry_Int_Tables_number   1
_chemical_formula_structural   DyHo15(InPt)4
_chemical_formula_sum   'Dy1 Ho15 In4 Pt4'
_cell_volume   644.02857460
_cell_formula_units_Z   1
loop_
 _symmetry_equiv_pos_site_id
 _symmetry_equiv_pos_as_xyz
  1  'x, y, z'
loop_
 _atom_site_type_symbol
 _atom_site_label
 _atom_site_symmetry_multiplicity
 _atom_site_fract_x
 _atom_site_fract_y
 _atom_site_fract_z
 _atom_site_occupancy
  Dy  Dy0  1  0.436627  0.436627  0.063373  1
  Ho  Ho1  1  0.649699  0.649699  0.051920  1
  Ho  Ho2  1  0.189918  0.809093  0.191298  1
  Ho  Ho3  1  0.062768  0.437560  0.061939  1
  Ho  Ho4  1  0.189918  0.809093  0.809690  1
  Ho  Ho5  1  0.062768  0.437560  0.437734  1
  Ho  Ho6  1  0.809093  0.189918  0.191298  1
  Ho  Ho7  1  0.649699  0.649699  0.648682  1
  Ho  Ho8  1  0.809093  0.189918  0.809690  1
  Ho  Ho9  1  0.191078  0.191078  0.808922  1
  Ho  Ho10  1  0.053381  0.649518  0.648551  1
  Ho  Ho11  1  0.437560  0.062768  0.061939  1
  Ho  Ho12  1  0.061902  0.061902  0.438098  1
  Ho  Ho13  1  0.649518  0.053381  0.648551  1
  Ho  Ho14  1  0.809781  0.809781  0.190219  1
  Ho  Ho15  1  0.437560  0.062768  0.437734  1
  In  In16  1  0.416522  0.416522  0.416733  1
  In  In17  1  0.416522  0.416522  0.750223  1
  In  In18  1  0.417019  0.748742  0.417120  1
  In  In19  1  0.748742  0.417019  0.417120  1
  Pt  Pt20  1  0.427603  0.858396  0.857000  1
  Pt  Pt21  1  0.857415  0.857415  0.856378  1
  Pt  Pt22  1  0.858396  0.427603  0.857000  1
  Pt  Pt23  1  0.857415  0.857415  0.428792  1
