# generated using pymatgen
data_Hf4TiFeRe6
_symmetry_space_group_name_H-M   'P 1'
_cell_length_a   5.29995600
_cell_length_b   5.29995640
_cell_length_c   8.49267400
_cell_angle_alpha   90.00000000
_cell_angle_beta   90.00000000
_cell_angle_gamma   119.99999749
_symmetry_Int_Tables_number   1
_chemical_formula_structural   Hf4TiFeRe6
_chemical_formula_sum   'Hf4 Ti1 Fe1 Re6'
_cell_volume   206.59492911
_cell_formula_units_Z   1
loop_
 _symmetry_equiv_pos_site_id
 _symmetry_equiv_pos_as_xyz
  1  'x, y, z'
loop_
 _atom_site_type_symbol
 _atom_site_label
 _atom_site_symmetry_multiplicity
 _atom_site_fract_x
 _atom_site_fract_y
 _atom_site_fract_z
 _atom_site_occupancy
  Hf  Hf0  1  0.333333  0.666667  0.059536  1
  Hf  Hf1  1  0.666667  0.333333  0.566362  1
  Hf  Hf2  1  0.666667  0.333333  0.940464  1
  Hf  Hf3  1  0.333333  0.666667  0.433638  1
  Ti  Ti4  1  0.000000  0.000000  0.500000  1
  Fe  Fe5  1  0.000000  0.000000  0.000000  1
  Re  Re6  1  0.830392  0.660784  0.244758  1
  Re  Re7  1  0.169608  0.830392  0.755242  1
  Re  Re8  1  0.660784  0.830392  0.755242  1
  Re  Re9  1  0.339216  0.169608  0.244758  1
  Re  Re10  1  0.830392  0.169608  0.244758  1
  Re  Re11  1  0.169608  0.339216  0.755242  1
