# generated using pymatgen
data_Lu3In3CuPtRh
_symmetry_space_group_name_H-M   'P 1'
_cell_length_a   7.68901500
_cell_length_b   7.68901447
_cell_length_c   3.62214000
_cell_angle_alpha   90.00000000
_cell_angle_beta   90.00000000
_cell_angle_gamma   119.99999797
_symmetry_Int_Tables_number   1
_chemical_formula_structural   Lu3In3CuPtRh
_chemical_formula_sum   'Lu3 In3 Cu1 Pt1 Rh1'
_cell_volume   185.45445029
_cell_formula_units_Z   1
loop_
 _symmetry_equiv_pos_site_id
 _symmetry_equiv_pos_as_xyz
  1  'x, y, z'
loop_
 _atom_site_type_symbol
 _atom_site_label
 _atom_site_symmetry_multiplicity
 _atom_site_fract_x
 _atom_site_fract_y
 _atom_site_fract_z
 _atom_site_occupancy
  Lu  Lu0  1  0.995975  0.587123  0.500000  1
  Lu  Lu1  1  0.591149  0.004025  0.500000  1
  Lu  Lu2  1  0.412877  0.408851  0.500000  1
  In  In3  1  0.997117  0.256232  0.000000  1
  In  In4  1  0.259114  0.002883  0.000000  1
  In  In5  1  0.743768  0.740886  0.000000  1
  Cu  Cu6  1  0.000000  0.000000  0.500000  1
  Pt  Pt7  1  0.333333  0.666667  0.000000  1
  Rh  Rh8  1  0.666667  0.333333  0.000000  1
