# generated using pymatgen
data_YPa3(Ir2Pb)2
_symmetry_space_group_name_H-M   'P 1'
_cell_length_a   7.88027461
_cell_length_b   7.88027452
_cell_length_c   3.58006100
_cell_angle_alpha   90.00000000
_cell_angle_beta   90.00000000
_cell_angle_gamma   88.11913213
_symmetry_Int_Tables_number   1
_chemical_formula_structural   YPa3(Ir2Pb)2
_chemical_formula_sum   'Y1 Pa3 Ir4 Pb2'
_cell_volume   222.19745397
_cell_formula_units_Z   1
loop_
 _symmetry_equiv_pos_site_id
 _symmetry_equiv_pos_as_xyz
  1  'x, y, z'
loop_
 _atom_site_type_symbol
 _atom_site_label
 _atom_site_symmetry_multiplicity
 _atom_site_fract_x
 _atom_site_fract_y
 _atom_site_fract_z
 _atom_site_occupancy
  Y  Y0  1  0.332184  0.832184  0.500000  1
  Pa  Pa1  1  0.665304  0.165304  0.500000  1
  Pa  Pa2  1  0.169155  0.331692  0.500000  1
  Pa  Pa3  1  0.831692  0.669155  0.500000  1
  Ir  Ir4  1  0.860664  0.360664  0.000000  1
  Ir  Ir5  1  0.375759  0.146110  0.000000  1
  Ir  Ir6  1  0.646110  0.875759  0.000000  1
  Ir  Ir7  1  0.113267  0.613267  0.000000  1
  Pb  Pb8  1  0.009957  0.995906  0.000000  1
  Pb  Pb9  1  0.495906  0.509957  0.000000  1
