# generated using pymatgen
data_Dy2Zn11Cu6
_symmetry_space_group_name_H-M   'P 1'
_cell_length_a   6.65398294
_cell_length_b   6.65398287
_cell_length_c   6.65398279
_cell_angle_alpha   82.89463001
_cell_angle_beta   82.89463664
_cell_angle_gamma   82.89462041
_symmetry_Int_Tables_number   1
_chemical_formula_structural   Dy2Zn11Cu6
_chemical_formula_sum   'Dy2 Zn11 Cu6'
_cell_volume   288.33776472
_cell_formula_units_Z   1
loop_
 _symmetry_equiv_pos_site_id
 _symmetry_equiv_pos_as_xyz
  1  'x, y, z'
loop_
 _atom_site_type_symbol
 _atom_site_label
 _atom_site_symmetry_multiplicity
 _atom_site_fract_x
 _atom_site_fract_y
 _atom_site_fract_z
 _atom_site_occupancy
  Dy  Dy0  1  0.349284  0.349284  0.349284  1
  Dy  Dy1  1  0.658363  0.658363  0.658363  1
  Zn  Zn2  1  0.836446  0.348161  0.348160  1
  Zn  Zn3  1  0.348160  0.348160  0.836446  1
  Zn  Zn4  1  0.348161  0.836446  0.348160  1
  Zn  Zn5  1  0.301047  0.698992  0.997589  1
  Zn  Zn6  1  0.997589  0.301047  0.698992  1
  Zn  Zn7  1  0.698992  0.997589  0.301046  1
  Zn  Zn8  1  0.698992  0.301047  0.997589  1
  Zn  Zn9  1  0.997589  0.698992  0.301046  1
  Zn  Zn10  1  0.301047  0.997589  0.698992  1
  Zn  Zn11  1  0.106784  0.106784  0.106784  1
  Zn  Zn12  1  0.894811  0.894811  0.894811  1
  Cu  Cu13  1  0.652811  0.156090  0.652812  1
  Cu  Cu14  1  0.652811  0.652811  0.156091  1
  Cu  Cu15  1  0.156090  0.652811  0.652812  1
  Cu  Cu16  1  0.000128  0.000128  0.500770  1
  Cu  Cu17  1  0.500771  0.000127  0.000129  1
  Cu  Cu18  1  0.000127  0.500771  0.000129  1
