# generated using pymatgen
data_Nd2PaS5
_symmetry_space_group_name_H-M   'P 1'
_cell_length_a   7.49725600
_cell_length_b   8.08215800
_cell_length_c   11.98423300
_cell_angle_alpha   90.00000000
_cell_angle_beta   90.00000000
_cell_angle_gamma   90.00000000
_symmetry_Int_Tables_number   1
_chemical_formula_structural   Nd2PaS5
_chemical_formula_sum   'Nd8 Pa4 S20'
_cell_volume   726.17270498
_cell_formula_units_Z   4
loop_
 _symmetry_equiv_pos_site_id
 _symmetry_equiv_pos_as_xyz
  1  'x, y, z'
loop_
 _atom_site_type_symbol
 _atom_site_label
 _atom_site_symmetry_multiplicity
 _atom_site_fract_x
 _atom_site_fract_y
 _atom_site_fract_z
 _atom_site_occupancy
  Nd  Nd0  1  0.527136  0.500381  0.322206  1
  Nd  Nd1  1  0.972864  0.999619  0.822206  1
  Nd  Nd2  1  0.472864  0.000381  0.677794  1
  Nd  Nd3  1  0.027136  0.499619  0.177794  1
  Nd  Nd4  1  0.472864  0.499619  0.677794  1
  Nd  Nd5  1  0.027136  0.000381  0.177794  1
  Nd  Nd6  1  0.527136  0.999619  0.322206  1
  Nd  Nd7  1  0.972864  0.500381  0.822206  1
  Pa  Pa8  1  0.071428  0.750000  0.492908  1
  Pa  Pa9  1  0.428572  0.750000  0.992908  1
  Pa  Pa10  1  0.928572  0.250000  0.507092  1
  Pa  Pa11  1  0.571428  0.250000  0.007092  1
  S  S12  1  0.836147  0.958337  0.594701  1
  S  S13  1  0.663853  0.541663  0.094701  1
  S  S14  1  0.163853  0.458337  0.405299  1
  S  S15  1  0.336147  0.041663  0.905299  1
  S  S16  1  0.163853  0.041663  0.405299  1
  S  S17  1  0.336147  0.458337  0.905299  1
  S  S18  1  0.836147  0.541663  0.594701  1
  S  S19  1  0.663853  0.958337  0.094701  1
  S  S20  1  0.833639  0.750000  0.313829  1
  S  S21  1  0.666361  0.750000  0.813829  1
  S  S22  1  0.166361  0.250000  0.686171  1
  S  S23  1  0.333639  0.250000  0.186171  1
  S  S24  1  0.452725  0.750000  0.499266  1
  S  S25  1  0.047275  0.750000  0.999266  1
  S  S26  1  0.547275  0.250000  0.500734  1
  S  S27  1  0.952725  0.250000  0.000734  1
  S  S28  1  0.193181  0.750000  0.713894  1
  S  S29  1  0.306819  0.750000  0.213894  1
  S  S30  1  0.806819  0.250000  0.286106  1
  S  S31  1  0.693181  0.250000  0.786106  1
