# generated using pymatgen
data_Ho3Zn3Ag2Ru
_symmetry_space_group_name_H-M   'P 1'
_cell_length_a   7.49080600
_cell_length_b   7.49080525
_cell_length_c   3.82290200
_cell_angle_alpha   90.00000000
_cell_angle_beta   90.00000000
_cell_angle_gamma   119.99999449
_symmetry_Int_Tables_number   1
_chemical_formula_structural   Ho3Zn3Ag2Ru
_chemical_formula_sum   'Ho3 Zn3 Ag2 Ru1'
_cell_volume   185.77226518
_cell_formula_units_Z   1
loop_
 _symmetry_equiv_pos_site_id
 _symmetry_equiv_pos_as_xyz
  1  'x, y, z'
loop_
 _atom_site_type_symbol
 _atom_site_label
 _atom_site_symmetry_multiplicity
 _atom_site_fract_x
 _atom_site_fract_y
 _atom_site_fract_z
 _atom_site_occupancy
  Ho  Ho0  1  0.574889  0.970298  0.000000  1
  Ho  Ho1  1  0.029702  0.604592  0.000000  1
  Ho  Ho2  1  0.395408  0.425111  0.000000  1
  Zn  Zn3  1  0.261596  0.991642  0.500000  1
  Zn  Zn4  1  0.008358  0.269955  0.500000  1
  Zn  Zn5  1  0.730045  0.738404  0.500000  1
  Ag  Ag6  1  0.666667  0.333333  0.500000  1
  Ag  Ag7  1  0.000000  0.000000  0.000000  1
  Ru  Ru8  1  0.333333  0.666667  0.500000  1
