# generated using pymatgen
data_ErTm(Be12Ni)2
_symmetry_space_group_name_H-M   'P 1'
_cell_length_a   7.23661536
_cell_length_b   7.30058363
_cell_length_c   7.21033204
_cell_angle_alpha   59.82440656
_cell_angle_beta   59.57319751
_cell_angle_gamma   59.46840601
_symmetry_Int_Tables_number   1
_chemical_formula_structural   ErTm(Be12Ni)2
_chemical_formula_sum   'Er1 Tm1 Be24 Ni2'
_cell_volume   267.04075338
_cell_formula_units_Z   1
loop_
 _symmetry_equiv_pos_site_id
 _symmetry_equiv_pos_as_xyz
  1  'x, y, z'
loop_
 _atom_site_type_symbol
 _atom_site_label
 _atom_site_symmetry_multiplicity
 _atom_site_fract_x
 _atom_site_fract_y
 _atom_site_fract_z
 _atom_site_occupancy
  Er  Er0  1  0.248643  0.251357  0.248643  1
  Tm  Tm1  1  0.751591  0.748409  0.751591  1
  Be  Be2  1  0.499997  0.500003  0.499997  1
  Be  Be3  1  0.999977  0.000023  0.999977  1
  Be  Be4  1  0.568454  0.787585  0.431656  1
  Be  Be5  1  0.431656  0.212305  0.568454  1
  Be  Be6  1  0.294446  0.935321  0.705718  1
  Be  Be7  1  0.705718  0.064514  0.294446  1
  Be  Be8  1  0.932277  0.284881  0.067602  1
  Be  Be9  1  0.067602  0.715240  0.932277  1
  Be  Be10  1  0.205719  0.798052  0.560561  1
  Be  Be11  1  0.794175  0.201810  0.439567  1
  Be  Be12  1  0.439567  0.564449  0.794175  1
  Be  Be13  1  0.560561  0.435667  0.205719  1
  Be  Be14  1  0.711014  0.283968  0.935510  1
  Be  Be15  1  0.289115  0.716104  0.064376  1
  Be  Be16  1  0.064376  0.930403  0.289115  1
  Be  Be17  1  0.935510  0.069509  0.711014  1
  Be  Be18  1  0.561778  0.206862  0.795209  1
  Be  Be19  1  0.438349  0.793039  0.204633  1
  Be  Be20  1  0.795209  0.436150  0.561778  1
  Be  Be21  1  0.204633  0.563980  0.438349  1
  Be  Be22  1  0.936356  0.710752  0.289617  1
  Be  Be23  1  0.063509  0.289366  0.710533  1
  Be  Be24  1  0.289617  0.063274  0.936356  1
  Be  Be25  1  0.710533  0.936593  0.063509  1
  Ni  Ni26  1  0.800114  0.558393  0.199501  1
  Ni  Ni27  1  0.199501  0.441992  0.800114  1
