# generated using pymatgen
data_Ac4LaOs2
_symmetry_space_group_name_H-M   'P 1'
_cell_length_a   9.31559632
_cell_length_b   9.31559628
_cell_length_c   7.73584851
_cell_angle_alpha   83.30876438
_cell_angle_beta   83.30876486
_cell_angle_gamma   43.98506239
_symmetry_Int_Tables_number   1
_chemical_formula_structural   Ac4LaOs2
_chemical_formula_sum   'Ac8 La2 Os4'
_cell_volume   462.51614480
_cell_formula_units_Z   2
loop_
 _symmetry_equiv_pos_site_id
 _symmetry_equiv_pos_as_xyz
  1  'x, y, z'
loop_
 _atom_site_type_symbol
 _atom_site_label
 _atom_site_symmetry_multiplicity
 _atom_site_fract_x
 _atom_site_fract_y
 _atom_site_fract_z
 _atom_site_occupancy
  Ac  Ac0  1  0.013417  0.803725  0.914448  1
  Ac  Ac1  1  0.196275  0.986583  0.585552  1
  Ac  Ac2  1  0.986583  0.196275  0.085552  1
  Ac  Ac3  1  0.803725  0.013417  0.414448  1
  Ac  Ac4  1  0.360098  0.213363  0.814822  1
  Ac  Ac5  1  0.786637  0.639902  0.685178  1
  Ac  Ac6  1  0.639902  0.786637  0.185178  1
  Ac  Ac7  1  0.213363  0.360098  0.314822  1
  La  La8  1  0.564495  0.435505  0.750000  1
  La  La9  1  0.435505  0.564495  0.250000  1
  Os  Os10  1  0.188582  0.602327  0.572221  1
  Os  Os11  1  0.397673  0.811418  0.927779  1
  Os  Os12  1  0.811418  0.397673  0.427779  1
  Os  Os13  1  0.602327  0.188582  0.072221  1
