# generated using pymatgen
data_PrHo4Ta3(Co4P3)4
_symmetry_space_group_name_H-M   'P 1'
_cell_length_a   12.21616600
_cell_length_b   12.21616555
_cell_length_c   3.71241500
_cell_angle_alpha   90.00000000
_cell_angle_beta   90.00000000
_cell_angle_gamma   120.00000662
_symmetry_Int_Tables_number   1
_chemical_formula_structural   PrHo4Ta3(Co4P3)4
_chemical_formula_sum   'Pr1 Ho4 Ta3 Co16 P12'
_cell_volume   479.79636862
_cell_formula_units_Z   1
loop_
 _symmetry_equiv_pos_site_id
 _symmetry_equiv_pos_as_xyz
  1  'x, y, z'
loop_
 _atom_site_type_symbol
 _atom_site_label
 _atom_site_symmetry_multiplicity
 _atom_site_fract_x
 _atom_site_fract_y
 _atom_site_fract_z
 _atom_site_occupancy
  Pr  Pr0  1  0.666667  0.333333  0.000000  1
  Ho  Ho1  1  0.333333  0.666667  0.000000  1
  Ho  Ho2  1  0.816540  0.816195  0.500000  1
  Ho  Ho3  1  0.183805  0.000345  0.500000  1
  Ho  Ho4  1  0.999655  0.183460  0.500000  1
  Ta  Ta5  1  0.442482  0.444166  0.000000  1
  Ta  Ta6  1  0.555834  0.998315  0.000000  1
  Ta  Ta7  1  0.001685  0.557518  0.000000  1
  Co  Co8  1  0.877538  0.354507  0.500000  1
  Co  Co9  1  0.645493  0.523031  0.500000  1
  Co  Co10  1  0.476969  0.122462  0.500000  1
  Co  Co11  1  0.355197  0.872575  0.500000  1
  Co  Co12  1  0.517379  0.644803  0.500000  1
  Co  Co13  1  0.127425  0.482621  0.500000  1
  Co  Co14  1  0.803397  0.174715  0.000000  1
  Co  Co15  1  0.825285  0.628681  0.000000  1
  Co  Co16  1  0.371319  0.196603  0.000000  1
  Co  Co17  1  0.177371  0.803012  0.000000  1
  Co  Co18  1  0.625640  0.822629  0.000000  1
  Co  Co19  1  0.196988  0.374360  0.000000  1
  Co  Co20  1  0.277980  0.280021  0.500000  1
  Co  Co21  1  0.719979  0.997959  0.500000  1
  Co  Co22  1  0.002041  0.722020  0.500000  1
  Co  Co23  1  0.000000  0.000000  0.000000  1
  P  P24  1  0.689657  0.164049  0.500000  1
  P  P25  1  0.835951  0.525607  0.500000  1
  P  P26  1  0.474393  0.310343  0.500000  1
  P  P27  1  0.169084  0.689165  0.500000  1
  P  P28  1  0.520080  0.830916  0.500000  1
  P  P29  1  0.310835  0.479920  0.500000  1
  P  P30  1  0.176338  0.177475  0.000000  1
  P  P31  1  0.822525  0.998863  0.000000  1
  P  P32  1  0.001137  0.823662  0.000000  1
  P  P33  1  0.644488  0.644341  0.000000  1
  P  P34  1  0.355659  0.000147  0.000000  1
  P  P35  1  0.999853  0.355512  0.000000  1
