# generated using pymatgen
data_CoRu5O12
_symmetry_space_group_name_H-M   'P 1'
_cell_length_a   4.56238910
_cell_length_b   4.56238832
_cell_length_c   9.32932100
_cell_angle_alpha   90.00000000
_cell_angle_beta   90.00000000
_cell_angle_gamma   90.46283757
_symmetry_Int_Tables_number   1
_chemical_formula_structural   CoRu5O12
_chemical_formula_sum   'Co1 Ru5 O12'
_cell_volume   194.18712626
_cell_formula_units_Z   1
loop_
 _symmetry_equiv_pos_site_id
 _symmetry_equiv_pos_as_xyz
  1  'x, y, z'
loop_
 _atom_site_type_symbol
 _atom_site_label
 _atom_site_symmetry_multiplicity
 _atom_site_fract_x
 _atom_site_fract_y
 _atom_site_fract_z
 _atom_site_occupancy
  Co  Co0  1  0.000000  0.000000  0.000000  1
  Ru  Ru1  1  0.000000  0.000000  0.330592  1
  Ru  Ru2  1  0.000000  0.000000  0.669408  1
  Ru  Ru3  1  0.500000  0.500000  0.166129  1
  Ru  Ru4  1  0.500000  0.500000  0.500000  1
  Ru  Ru5  1  0.500000  0.500000  0.833871  1
  O  O6  1  0.192849  0.192849  0.500000  1
  O  O7  1  0.202504  0.202504  0.175015  1
  O  O8  1  0.202504  0.202504  0.824985  1
  O  O9  1  0.696202  0.303798  0.334782  1
  O  O10  1  0.696202  0.303798  0.665218  1
  O  O11  1  0.691726  0.308274  0.000000  1
  O  O12  1  0.308274  0.691726  0.000000  1
  O  O13  1  0.303798  0.696202  0.334782  1
  O  O14  1  0.303798  0.696202  0.665218  1
  O  O15  1  0.797496  0.797496  0.175015  1
  O  O16  1  0.797496  0.797496  0.824985  1
  O  O17  1  0.807151  0.807151  0.500000  1
