# generated using pymatgen
data_Tb7Y3Os4
_symmetry_space_group_name_H-M   'P 1'
_cell_length_a   6.41594839
_cell_length_b   7.37144765
_cell_length_c   8.49266425
_cell_angle_alpha   96.87458761
_cell_angle_beta   112.21140418
_cell_angle_gamma   89.88204908
_symmetry_Int_Tables_number   1
_chemical_formula_structural   Tb7Y3Os4
_chemical_formula_sum   'Tb7 Y3 Os4'
_cell_volume   368.77289154
_cell_formula_units_Z   1
loop_
 _symmetry_equiv_pos_site_id
 _symmetry_equiv_pos_as_xyz
  1  'x, y, z'
loop_
 _atom_site_type_symbol
 _atom_site_label
 _atom_site_symmetry_multiplicity
 _atom_site_fract_x
 _atom_site_fract_y
 _atom_site_fract_z
 _atom_site_occupancy
  Tb  Tb0  1  0.206480  0.415827  0.184404  1
  Tb  Tb1  1  0.639789  0.815585  0.435055  1
  Tb  Tb2  1  0.204807  0.684330  0.565221  1
  Tb  Tb3  1  0.360129  0.184325  0.564869  1
  Tb  Tb4  1  0.795456  0.315738  0.434949  1
  Tb  Tb5  1  0.422837  0.749854  0.000027  1
  Tb  Tb6  1  0.577181  0.250182  0.999999  1
  Y  Y7  1  0.977357  0.916114  0.183930  1
  Y  Y8  1  0.793492  0.583922  0.815716  1
  Y  Y9  1  0.022418  0.084019  0.815982  1
  Os  Os10  1  0.822944  0.576033  0.219728  1
  Os  Os11  1  0.602475  0.923988  0.780007  1
  Os  Os12  1  0.177515  0.423558  0.780157  1
  Os  Os13  1  0.397120  0.076526  0.219957  1
