# generated using pymatgen
data_Ho10In4Hg4PdPt3
_symmetry_space_group_name_H-M   'P 1'
_cell_length_a   3.60954900
_cell_length_b   8.01116999
_cell_length_c   18.28335727
_cell_angle_alpha   90.05706624
_cell_angle_beta   90.00000000
_cell_angle_gamma   90.00000000
_symmetry_Int_Tables_number   1
_chemical_formula_structural   Ho10In4Hg4PdPt3
_chemical_formula_sum   'Ho10 In4 Hg4 Pd1 Pt3'
_cell_volume   528.69428936
_cell_formula_units_Z   1
loop_
 _symmetry_equiv_pos_site_id
 _symmetry_equiv_pos_as_xyz
  1  'x, y, z'
loop_
 _atom_site_type_symbol
 _atom_site_label
 _atom_site_symmetry_multiplicity
 _atom_site_fract_x
 _atom_site_fract_y
 _atom_site_fract_z
 _atom_site_occupancy
  Ho  Ho0  1  0.000000  0.500451  0.500134  1
  Ho  Ho1  1  0.000000  0.000064  0.999853  1
  Ho  Ho2  1  0.000000  0.739983  0.282882  1
  Ho  Ho3  1  0.000000  0.256058  0.717147  1
  Ho  Ho4  1  0.000000  0.756077  0.782877  1
  Ho  Ho5  1  0.000000  0.246933  0.216260  1
  Ho  Ho6  1  0.000000  0.608027  0.084537  1
  Ho  Ho7  1  0.000000  0.392311  0.915044  1
  Ho  Ho8  1  0.000000  0.891966  0.585012  1
  Ho  Ho9  1  0.000000  0.107951  0.416426  1
  In  In10  1  0.500000  0.579002  0.648082  1
  In  In11  1  0.500000  0.419856  0.351986  1
  In  In12  1  0.500000  0.921261  0.148549  1
  In  In13  1  0.500000  0.078912  0.851953  1
  Hg  Hg14  1  0.500000  0.715809  0.934311  1
  Hg  Hg15  1  0.500000  0.284381  0.066129  1
  Hg  Hg16  1  0.500000  0.786355  0.432875  1
  Hg  Hg17  1  0.500000  0.215317  0.565697  1
  Pd  Pd18  1  0.500000  0.029641  0.302365  1
  Pt  Pt19  1  0.500000  0.529773  0.197817  1
  Pt  Pt20  1  0.500000  0.469903  0.802131  1
  Pt  Pt21  1  0.500000  0.969969  0.697932  1
