# generated using pymatgen
data_Ba7Sr3(Bi2As)2
_symmetry_space_group_name_H-M   'P 1'
_cell_length_a   9.15720890
_cell_length_b   10.44009112
_cell_length_c   13.96290934
_cell_angle_alpha   89.92938243
_cell_angle_beta   90.07079961
_cell_angle_gamma   89.97951803
_symmetry_Int_Tables_number   1
_chemical_formula_structural   Ba7Sr3(Bi2As)2
_chemical_formula_sum   'Ba14 Sr6 Bi8 As4'
_cell_volume   1334.88127156
_cell_formula_units_Z   2
loop_
 _symmetry_equiv_pos_site_id
 _symmetry_equiv_pos_as_xyz
  1  'x, y, z'
loop_
 _atom_site_type_symbol
 _atom_site_label
 _atom_site_symmetry_multiplicity
 _atom_site_fract_x
 _atom_site_fract_y
 _atom_site_fract_z
 _atom_site_occupancy
  Ba  Ba0  1  0.856705  0.749087  0.799842  1
  Ba  Ba1  1  0.143295  0.250913  0.200158  1
  Ba  Ba2  1  0.358788  0.252315  0.698138  1
  Ba  Ba3  1  0.641212  0.747685  0.301862  1
  Ba  Ba4  1  0.186390  0.465445  0.925295  1
  Ba  Ba5  1  0.312738  0.034517  0.425315  1
  Ba  Ba6  1  0.813610  0.534555  0.074705  1
  Ba  Ba7  1  0.687262  0.965483  0.574685  1
  Ba  Ba8  1  0.813359  0.965404  0.074793  1
  Ba  Ba9  1  0.186641  0.034596  0.925207  1
  Ba  Ba10  1  0.332222  0.747785  0.712490  1
  Ba  Ba11  1  0.667778  0.252215  0.287510  1
  Ba  Ba12  1  0.829062  0.251111  0.785266  1
  Ba  Ba13  1  0.170938  0.748889  0.214734  1
  Sr  Sr14  1  0.044524  0.745976  0.501011  1
  Sr  Sr15  1  0.955476  0.254024  0.498989  1
  Sr  Sr16  1  0.545642  0.249860  0.999362  1
  Sr  Sr17  1  0.454358  0.750140  0.000638  1
  Sr  Sr18  1  0.684097  0.532816  0.574098  1
  Sr  Sr19  1  0.315903  0.467184  0.425902  1
  Bi  Bi20  1  0.563564  0.508436  0.831139  1
  Bi  Bi21  1  0.436436  0.491564  0.168861  1
  Bi  Bi22  1  0.059747  0.491248  0.665043  1
  Bi  Bi23  1  0.437177  0.007999  0.166813  1
  Bi  Bi24  1  0.940253  0.508752  0.334957  1
  Bi  Bi25  1  0.562823  0.992001  0.833187  1
  Bi  Bi26  1  0.936696  0.991946  0.334252  1
  Bi  Bi27  1  0.063304  0.008054  0.665748  1
  As  As28  1  0.077418  0.749705  0.987622  1
  As  As29  1  0.922582  0.250295  0.012378  1
  As  As30  1  0.576081  0.258237  0.513806  1
  As  As31  1  0.423919  0.741763  0.486194  1
