# generated using pymatgen
data_Y2Er14TlIn5Co2
_symmetry_space_group_name_H-M   'P 1'
_cell_length_a   10.26308144
_cell_length_b   10.26308270
_cell_length_c   7.01928774
_cell_angle_alpha   90.00160581
_cell_angle_beta   89.99839283
_cell_angle_gamma   120.01206250
_symmetry_Int_Tables_number   1
_chemical_formula_structural   Y2Er14TlIn5Co2
_chemical_formula_sum   'Y2 Er14 Tl1 In5 Co2'
_cell_volume   640.21593534
_cell_formula_units_Z   1
loop_
 _symmetry_equiv_pos_site_id
 _symmetry_equiv_pos_as_xyz
  1  'x, y, z'
loop_
 _atom_site_type_symbol
 _atom_site_label
 _atom_site_symmetry_multiplicity
 _atom_site_fract_x
 _atom_site_fract_y
 _atom_site_fract_z
 _atom_site_occupancy
  Y  Y0  1  0.999573  0.000427  0.496286  1
  Y  Y1  1  0.999064  0.000936  0.995043  1
  Er  Er2  1  0.464023  0.535977  0.481781  1
  Er  Er3  1  0.072476  0.536641  0.482693  1
  Er  Er4  1  0.463359  0.927524  0.482693  1
  Er  Er5  1  0.536111  0.463889  0.982035  1
  Er  Er6  1  0.926783  0.462302  0.981003  1
  Er  Er7  1  0.537698  0.073217  0.981003  1
  Er  Er8  1  0.820631  0.179369  0.278367  1
  Er  Er9  1  0.358125  0.178713  0.277115  1
  Er  Er10  1  0.821287  0.641875  0.277115  1
  Er  Er11  1  0.179333  0.820667  0.780489  1
  Er  Er12  1  0.641431  0.820317  0.777466  1
  Er  Er13  1  0.179683  0.358569  0.777466  1
  Er  Er14  1  0.333673  0.666327  0.091662  1
  Er  Er15  1  0.666424  0.333576  0.591189  1
  Tl  Tl16  1  0.163201  0.836799  0.232022  1
  In  In17  1  0.673889  0.837051  0.233375  1
  In  In18  1  0.162949  0.326111  0.233375  1
  In  In19  1  0.837063  0.162937  0.732644  1
  In  In20  1  0.326139  0.162813  0.732840  1
  In  In21  1  0.837187  0.673861  0.732840  1
  Co  Co22  1  0.333295  0.666705  0.707192  1
  Co  Co23  1  0.666602  0.333398  0.206857  1
