# generated using pymatgen
data_SrCa3V2(BrO4)2
_symmetry_space_group_name_H-M   'P 1'
_cell_length_a   6.42510200
_cell_length_b   7.34428800
_cell_length_c   11.63476700
_cell_angle_alpha   90.00000000
_cell_angle_beta   90.00000000
_cell_angle_gamma   89.99696390
_symmetry_Int_Tables_number   1
_chemical_formula_structural   SrCa3V2(BrO4)2
_chemical_formula_sum   'Sr2 Ca6 V4 Br4 O16'
_cell_volume   549.01905225
_cell_formula_units_Z   2
loop_
 _symmetry_equiv_pos_site_id
 _symmetry_equiv_pos_as_xyz
  1  'x, y, z'
loop_
 _atom_site_type_symbol
 _atom_site_label
 _atom_site_symmetry_multiplicity
 _atom_site_fract_x
 _atom_site_fract_y
 _atom_site_fract_z
 _atom_site_occupancy
  Sr  Sr0  1  0.884311  0.976184  0.250000  1
  Sr  Sr1  1  0.115689  0.023816  0.750000  1
  Ca  Ca2  1  0.113357  0.476346  0.250000  1
  Ca  Ca3  1  0.886643  0.523654  0.750000  1
  Ca  Ca4  1  0.624893  0.251054  0.500105  1
  Ca  Ca5  1  0.624893  0.251054  0.999895  1
  Ca  Ca6  1  0.375107  0.748946  0.499895  1
  Ca  Ca7  1  0.375107  0.748946  0.000105  1
  V  V8  1  0.129001  0.255859  0.000155  1
  V  V9  1  0.870999  0.744141  0.500155  1
  V  V10  1  0.129001  0.255859  0.499845  1
  V  V11  1  0.870999  0.744141  0.999845  1
  Br  Br12  1  0.507983  0.692268  0.250000  1
  Br  Br13  1  0.469604  0.193391  0.250000  1
  Br  Br14  1  0.530396  0.806609  0.750000  1
  Br  Br15  1  0.492017  0.307732  0.750000  1
  O  O16  1  0.965868  0.278912  0.619766  1
  O  O17  1  0.282536  0.064251  0.523508  1
  O  O18  1  0.299030  0.434101  0.021633  1
  O  O19  1  0.299030  0.434101  0.478367  1
  O  O20  1  0.700970  0.565899  0.521633  1
  O  O21  1  0.034132  0.721088  0.380234  1
  O  O22  1  0.964016  0.248557  0.120478  1
  O  O23  1  0.035984  0.751443  0.620478  1
  O  O24  1  0.034132  0.721088  0.119766  1
  O  O25  1  0.035984  0.751443  0.879522  1
  O  O26  1  0.964016  0.248557  0.379522  1
  O  O27  1  0.282536  0.064251  0.976492  1
  O  O28  1  0.717464  0.935749  0.476492  1
  O  O29  1  0.700970  0.565899  0.978367  1
  O  O30  1  0.717464  0.935749  0.023508  1
  O  O31  1  0.965868  0.278912  0.880234  1
