# generated using pymatgen
data_Lu7PaGaPd24
_symmetry_space_group_name_H-M   'P 1'
_cell_length_a   8.29739534
_cell_length_b   8.29739571
_cell_length_c   8.29739600
_cell_angle_alpha   89.90954780
_cell_angle_beta   89.90954779
_cell_angle_gamma   90.09045431
_symmetry_Int_Tables_number   1
_chemical_formula_structural   Lu7PaGaPd24
_chemical_formula_sum   'Lu7 Pa1 Ga1 Pd24'
_cell_volume   571.24679705
_cell_formula_units_Z   1
loop_
 _symmetry_equiv_pos_site_id
 _symmetry_equiv_pos_as_xyz
  1  'x, y, z'
loop_
 _atom_site_type_symbol
 _atom_site_label
 _atom_site_symmetry_multiplicity
 _atom_site_fract_x
 _atom_site_fract_y
 _atom_site_fract_z
 _atom_site_occupancy
  Lu  Lu0  1  0.252358  0.746912  0.253088  1
  Lu  Lu1  1  0.746912  0.252358  0.253088  1
  Lu  Lu2  1  0.746912  0.746912  0.747642  1
  Lu  Lu3  1  0.746936  0.746936  0.253064  1
  Lu  Lu4  1  0.749020  0.253042  0.746958  1
  Lu  Lu5  1  0.253042  0.749020  0.746958  1
  Lu  Lu6  1  0.253042  0.253042  0.250980  1
  Pa  Pa7  1  0.254811  0.254811  0.745189  1
  Ga  Ga8  1  0.997977  0.997977  0.002023  1
  Pd  Pd9  1  0.498422  0.498422  0.746148  1
  Pd  Pd10  1  0.498422  0.253852  0.501578  1
  Pd  Pd11  1  0.253852  0.498422  0.501578  1
  Pd  Pd12  1  0.499316  0.499316  0.252710  1
  Pd  Pd13  1  0.499316  0.747290  0.500684  1
  Pd  Pd14  1  0.747290  0.499316  0.500684  1
  Pd  Pd15  1  0.000183  0.000183  0.711312  1
  Pd  Pd16  1  0.000183  0.288688  0.999817  1
  Pd  Pd17  1  0.288688  0.000183  0.999817  1
  Pd  Pd18  1  0.000293  0.000293  0.290953  1
  Pd  Pd19  1  0.000293  0.709047  0.999707  1
  Pd  Pd20  1  0.709047  0.000293  0.999707  1
  Pd  Pd21  1  0.003879  0.498724  0.740096  1
  Pd  Pd22  1  0.498724  0.259904  0.996121  1
  Pd  Pd23  1  0.259904  0.003879  0.501276  1
  Pd  Pd24  1  0.003879  0.259904  0.501276  1
  Pd  Pd25  1  0.498724  0.003879  0.740096  1
  Pd  Pd26  1  0.259904  0.498724  0.996121  1
  Pd  Pd27  1  0.000240  0.499102  0.260005  1
  Pd  Pd28  1  0.499102  0.739995  0.999760  1
  Pd  Pd29  1  0.000240  0.739995  0.500898  1
  Pd  Pd30  1  0.499102  0.000240  0.260005  1
  Pd  Pd31  1  0.739995  0.000240  0.500898  1
  Pd  Pd32  1  0.739995  0.499102  0.999760  1
