# generated using pymatgen
data_AlSbPtO6
_symmetry_space_group_name_H-M   'P 1'
_cell_length_a   4.59231200
_cell_length_b   9.18321101
_cell_length_c   9.25012900
_cell_angle_alpha   89.99961765
_cell_angle_beta   90.00006849
_cell_angle_gamma   90.00030596
_symmetry_Int_Tables_number   1
_chemical_formula_structural   AlSbPtO6
_chemical_formula_sum   'Al4 Sb4 Pt4 O24'
_cell_volume   390.09801375
_cell_formula_units_Z   4
loop_
 _symmetry_equiv_pos_site_id
 _symmetry_equiv_pos_as_xyz
  1  'x, y, z'
loop_
 _atom_site_type_symbol
 _atom_site_label
 _atom_site_symmetry_multiplicity
 _atom_site_fract_x
 _atom_site_fract_y
 _atom_site_fract_z
 _atom_site_occupancy
  Al  Al0  1  0.499999  0.750017  0.166967  1
  Al  Al1  1  0.000010  0.499984  0.666901  1
  Al  Al2  1  0.499999  0.250005  0.166949  1
  Al  Al3  1  0.000009  0.999989  0.666889  1
  Sb  Sb4  1  0.500001  0.249990  0.834356  1
  Sb  Sb5  1  0.499999  0.750004  0.834345  1
  Sb  Sb6  1  0.999994  0.000018  0.334338  1
  Sb  Sb7  1  0.999999  0.499991  0.334334  1
  Pt  Pt8  1  0.500000  0.249989  0.499861  1
  Pt  Pt9  1  0.500003  0.749998  0.499897  1
  Pt  Pt10  1  0.000005  0.000012  0.999850  1
  Pt  Pt11  1  0.999989  0.499999  0.999867  1
  O  O12  1  0.200022  0.400051  0.168513  1
  O  O13  1  0.200045  0.900067  0.168523  1
  O  O14  1  0.799963  0.099954  0.168511  1
  O  O15  1  0.799937  0.599946  0.168524  1
  O  O16  1  0.299954  0.150073  0.668542  1
  O  O17  1  0.299955  0.650070  0.668550  1
  O  O18  1  0.700025  0.349931  0.668543  1
  O  O19  1  0.700031  0.849924  0.668544  1
  O  O20  1  0.188411  0.405861  0.506000  1
  O  O21  1  0.188419  0.905867  0.505991  1
  O  O22  1  0.811594  0.094131  0.506003  1
  O  O23  1  0.811604  0.594126  0.506001  1
  O  O24  1  0.311597  0.155839  0.006027  1
  O  O25  1  0.311566  0.655859  0.006041  1
  O  O26  1  0.688433  0.344153  0.006023  1
  O  O27  1  0.688418  0.844160  0.006036  1
  O  O28  1  0.188941  0.405589  0.824896  1
  O  O29  1  0.188972  0.905602  0.824887  1
  O  O30  1  0.811062  0.094404  0.824879  1
  O  O31  1  0.811029  0.594397  0.824884  1
  O  O32  1  0.310917  0.155659  0.324879  1
  O  O33  1  0.310917  0.655654  0.324882  1
  O  O34  1  0.689106  0.344334  0.324881  1
  O  O35  1  0.689075  0.844356  0.324888  1
