# generated using pymatgen
data_Er8InAgIrPt
_symmetry_space_group_name_H-M   'P 1'
_cell_length_a   9.49871331
_cell_length_b   9.62475001
_cell_length_c   9.52351768
_cell_angle_alpha   60.23988732
_cell_angle_beta   59.96063580
_cell_angle_gamma   60.09475137
_symmetry_Int_Tables_number   1
_chemical_formula_structural   Er8InAgIrPt
_chemical_formula_sum   'Er16 In2 Ag2 Ir2 Pt2'
_cell_volume   617.01958461
_cell_formula_units_Z   2
loop_
 _symmetry_equiv_pos_site_id
 _symmetry_equiv_pos_as_xyz
  1  'x, y, z'
loop_
 _atom_site_type_symbol
 _atom_site_label
 _atom_site_symmetry_multiplicity
 _atom_site_fract_x
 _atom_site_fract_y
 _atom_site_fract_z
 _atom_site_occupancy
  Er  Er0  1  0.059128  0.065366  0.434996  1
  Er  Er1  1  0.646334  0.061961  0.642137  1
  Er  Er2  1  0.189371  0.807409  0.195260  1
  Er  Er3  1  0.437995  0.062072  0.434184  1
  Er  Er4  1  0.187096  0.192829  0.809696  1
  Er  Er5  1  0.652878  0.653004  0.649445  1
  Er  Er6  1  0.053543  0.646898  0.645687  1
  Er  Er7  1  0.435348  0.066323  0.060387  1
  Er  Er8  1  0.646539  0.642478  0.059627  1
  Er  Er9  1  0.193057  0.806970  0.810484  1
  Er  Er10  1  0.810526  0.192166  0.808322  1
  Er  Er11  1  0.811571  0.188654  0.189204  1
  Er  Er12  1  0.810550  0.807616  0.194726  1
  Er  Er13  1  0.060011  0.435012  0.434285  1
  Er  Er14  1  0.437166  0.433072  0.059836  1
  Er  Er15  1  0.061174  0.437511  0.060054  1
  In  In16  1  0.420779  0.745731  0.421480  1
  In  In17  1  0.419698  0.415957  0.420346  1
  Ag  Ag18  1  0.751681  0.415390  0.418461  1
  Ag  Ag19  1  0.419196  0.416102  0.749511  1
  Ir  Ir20  1  0.856541  0.861492  0.426975  1
  Ir  Ir21  1  0.857444  0.426701  0.860319  1
  Pt  Pt22  1  0.854198  0.858274  0.856682  1
  Pt  Pt23  1  0.428177  0.861014  0.857898  1
