# generated using pymatgen
data_CaLa2Si3As3Pd20
_symmetry_space_group_name_H-M   'P 1'
_cell_length_a   8.89484306
_cell_length_b   8.85686150
_cell_length_c   8.81703190
_cell_angle_alpha   60.43342700
_cell_angle_beta   60.00499019
_cell_angle_gamma   59.56158650
_symmetry_Int_Tables_number   1
_chemical_formula_structural   CaLa2Si3As3Pd20
_chemical_formula_sum   'Ca1 La2 Si3 As3 Pd20'
_cell_volume   491.10605506
_cell_formula_units_Z   1
loop_
 _symmetry_equiv_pos_site_id
 _symmetry_equiv_pos_as_xyz
  1  'x, y, z'
loop_
 _atom_site_type_symbol
 _atom_site_label
 _atom_site_symmetry_multiplicity
 _atom_site_fract_x
 _atom_site_fract_y
 _atom_site_fract_z
 _atom_site_occupancy
  Ca  Ca0  1  0.000420  0.999580  0.000420  1
  La  La1  1  0.750147  0.749853  0.750147  1
  La  La2  1  0.250147  0.249853  0.250147  1
  Si  Si3  1  0.265200  0.734800  0.265200  1
  Si  Si4  1  0.264294  0.735706  0.735869  1
  Si  Si5  1  0.735869  0.264131  0.264294  1
  As  As6  1  0.736911  0.736047  0.263953  1
  As  As7  1  0.263953  0.263089  0.736911  1
  As  As8  1  0.737190  0.262810  0.737190  1
  Pd  Pd9  1  0.608542  0.618770  0.617481  1
  Pd  Pd10  1  0.387098  0.388644  0.380251  1
  Pd  Pd11  1  0.155992  0.619749  0.611356  1
  Pd  Pd12  1  0.617481  0.155207  0.608542  1
  Pd  Pd13  1  0.844793  0.382519  0.381230  1
  Pd  Pd14  1  0.380251  0.844008  0.387098  1
  Pd  Pd15  1  0.611356  0.612902  0.155992  1
  Pd  Pd16  1  0.381230  0.391458  0.844793  1
  Pd  Pd17  1  0.006914  0.993086  0.650250  1
  Pd  Pd18  1  0.999542  0.000458  0.345672  1
  Pd  Pd19  1  0.345672  0.654328  0.999542  1
  Pd  Pd20  1  0.650250  0.349750  0.006914  1
  Pd  Pd21  1  0.008439  0.650987  0.993428  1
  Pd  Pd22  1  0.652854  0.006572  0.349013  1
  Pd  Pd23  1  0.993428  0.347146  0.008439  1
  Pd  Pd24  1  0.349013  0.991561  0.652854  1
  Pd  Pd25  1  0.649630  0.000536  0.999464  1
  Pd  Pd26  1  0.346394  0.992476  0.007524  1
  Pd  Pd27  1  0.007524  0.653606  0.346394  1
  Pd  Pd28  1  0.999464  0.350370  0.649630  1
