# generated using pymatgen
data_Ca12Si8Pd3Rh5
_symmetry_space_group_name_H-M   'P 1'
_cell_length_a   5.76384976
_cell_length_b   7.76515202
_cell_length_c   13.43246313
_cell_angle_alpha   90.04607837
_cell_angle_beta   89.98941444
_cell_angle_gamma   90.17180484
_symmetry_Int_Tables_number   1
_chemical_formula_structural   Ca12Si8Pd3Rh5
_chemical_formula_sum   'Ca12 Si8 Pd3 Rh5'
_cell_volume   601.19612346
_cell_formula_units_Z   1
loop_
 _symmetry_equiv_pos_site_id
 _symmetry_equiv_pos_as_xyz
  1  'x, y, z'
loop_
 _atom_site_type_symbol
 _atom_site_label
 _atom_site_symmetry_multiplicity
 _atom_site_fract_x
 _atom_site_fract_y
 _atom_site_fract_z
 _atom_site_occupancy
  Ca  Ca0  1  0.129730  0.611795  0.101660  1
  Ca  Ca1  1  0.128376  0.887183  0.897807  1
  Ca  Ca2  1  0.869248  0.112324  0.399063  1
  Ca  Ca3  1  0.868862  0.392379  0.601597  1
  Ca  Ca4  1  0.864753  0.391723  0.895441  1
  Ca  Ca5  1  0.864781  0.108575  0.103975  1
  Ca  Ca6  1  0.134857  0.887813  0.603509  1
  Ca  Ca7  1  0.136391  0.607983  0.398379  1
  Ca  Ca8  1  0.358889  0.263275  0.251118  1
  Ca  Ca9  1  0.361366  0.238119  0.747024  1
  Ca  Ca10  1  0.641932  0.760932  0.251255  1
  Ca  Ca11  1  0.642062  0.735639  0.749029  1
  Si  Si12  1  0.842387  0.408926  0.252798  1
  Si  Si13  1  0.841592  0.089321  0.745903  1
  Si  Si14  1  0.161568  0.910079  0.246407  1
  Si  Si15  1  0.164637  0.587207  0.752347  1
  Si  Si16  1  0.382356  0.249705  0.999673  1
  Si  Si17  1  0.604698  0.745236  0.502617  1
  Si  Si18  1  0.593235  0.750656  0.999683  1
  Si  Si19  1  0.408718  0.256577  0.503668  1
  Pd  Pd20  1  0.631662  0.469518  0.091532  1
  Pd  Pd21  1  0.630094  0.031015  0.907757  1
  Pd  Pd22  1  0.367109  0.974116  0.408896  1
  Rh  Rh23  1  0.367756  0.531276  0.591095  1
  Rh  Rh24  1  0.369616  0.526292  0.912975  1
  Rh  Rh25  1  0.370241  0.974018  0.087151  1
  Rh  Rh26  1  0.630738  0.024894  0.586863  1
  Rh  Rh27  1  0.632345  0.473424  0.410777  1
