# generated using pymatgen
data_Hf4CrCo2Si4Ir
_symmetry_space_group_name_H-M   'P 1'
_cell_length_a   3.88261600
_cell_length_b   6.40882802
_cell_length_c   7.29694071
_cell_angle_alpha   89.33847835
_cell_angle_beta   90.00000000
_cell_angle_gamma   90.00000000
_symmetry_Int_Tables_number   1
_chemical_formula_structural   Hf4CrCo2Si4Ir
_chemical_formula_sum   'Hf4 Cr1 Co2 Si4 Ir1'
_cell_volume   181.55780680
_cell_formula_units_Z   1
loop_
 _symmetry_equiv_pos_site_id
 _symmetry_equiv_pos_as_xyz
  1  'x, y, z'
loop_
 _atom_site_type_symbol
 _atom_site_label
 _atom_site_symmetry_multiplicity
 _atom_site_fract_x
 _atom_site_fract_y
 _atom_site_fract_z
 _atom_site_occupancy
  Hf  Hf0  1  0.250000  0.009507  0.319381  1
  Hf  Hf1  1  0.250000  0.521830  0.193806  1
  Hf  Hf2  1  0.750000  0.988854  0.679101  1
  Hf  Hf3  1  0.750000  0.490182  0.804512  1
  Cr  Cr4  1  0.750000  0.840405  0.065283  1
  Co  Co5  1  0.250000  0.648288  0.567555  1
  Co  Co6  1  0.750000  0.347968  0.437624  1
  Si  Si7  1  0.250000  0.285286  0.605009  1
  Si  Si8  1  0.250000  0.776924  0.874613  1
  Si  Si9  1  0.750000  0.713815  0.392645  1
  Si  Si10  1  0.750000  0.222874  0.125628  1
  Ir  Ir11  1  0.250000  0.154066  0.934843  1
