# generated using pymatgen
data_LaNd2Sm(Ni7P4)2
_symmetry_space_group_name_H-M   'P 1'
_cell_length_a   3.76552200
_cell_length_b   9.23594052
_cell_length_c   10.44939793
_cell_angle_alpha   90.11940850
_cell_angle_beta   90.00000000
_cell_angle_gamma   90.00000000
_symmetry_Int_Tables_number   1
_chemical_formula_structural   LaNd2Sm(Ni7P4)2
_chemical_formula_sum   'La1 Nd2 Sm1 Ni14 P8'
_cell_volume   363.40980570
_cell_formula_units_Z   1
loop_
 _symmetry_equiv_pos_site_id
 _symmetry_equiv_pos_as_xyz
  1  'x, y, z'
loop_
 _atom_site_type_symbol
 _atom_site_label
 _atom_site_symmetry_multiplicity
 _atom_site_fract_x
 _atom_site_fract_y
 _atom_site_fract_z
 _atom_site_occupancy
  La  La0  1  0.500000  0.438104  0.500185  1
  Nd  Nd1  1  0.500000  0.059612  0.282394  1
  Nd  Nd2  1  0.000000  0.565088  0.999908  1
  Sm  Sm3  1  0.000000  0.941443  0.783164  1
  Ni  Ni4  1  0.500000  0.304098  0.072706  1
  Ni  Ni5  1  0.500000  0.748079  0.403511  1
  Ni  Ni6  1  0.500000  0.417237  0.806107  1
  Ni  Ni7  1  0.500000  0.058975  0.977996  1
  Ni  Ni8  1  0.500000  0.685450  0.765688  1
  Ni  Ni9  1  0.000000  0.272057  0.671414  1
  Ni  Ni10  1  0.000000  0.254105  0.902072  1
  Ni  Ni11  1  0.000000  0.697367  0.579730  1
  Ni  Ni12  1  0.500000  0.093905  0.586652  1
  Ni  Ni13  1  0.000000  0.316979  0.258751  1
  Ni  Ni14  1  0.000000  0.583257  0.300107  1
  Ni  Ni15  1  0.000000  0.902938  0.084446  1
  Ni  Ni16  1  0.000000  0.938460  0.479775  1
  Ni  Ni17  1  0.500000  0.727057  0.171113  1
  P  P18  1  0.000000  0.816855  0.288106  1
  P  P19  1  0.000000  0.183651  0.470263  1
  P  P20  1  0.500000  0.182623  0.788159  1
  P  P21  1  0.000000  0.155946  0.088614  1
  P  P22  1  0.500000  0.476615  0.213802  1
  P  P23  1  0.500000  0.814449  0.968305  1
  P  P24  1  0.500000  0.842980  0.592277  1
  P  P25  1  0.000000  0.522670  0.720156  1
