# generated using pymatgen
data_Sm2FeTcCl2
_symmetry_space_group_name_H-M   'P 1'
_cell_length_a   3.94688500
_cell_length_b   3.94688416
_cell_length_c   11.21653800
_cell_angle_alpha   90.00000000
_cell_angle_beta   90.00000000
_cell_angle_gamma   119.99999862
_symmetry_Int_Tables_number   1
_chemical_formula_structural   Sm2FeTcCl2
_chemical_formula_sum   'Sm2 Fe1 Tc1 Cl2'
_cell_volume   151.32069351
_cell_formula_units_Z   1
loop_
 _symmetry_equiv_pos_site_id
 _symmetry_equiv_pos_as_xyz
  1  'x, y, z'
loop_
 _atom_site_type_symbol
 _atom_site_label
 _atom_site_symmetry_multiplicity
 _atom_site_fract_x
 _atom_site_fract_y
 _atom_site_fract_z
 _atom_site_occupancy
  Sm  Sm0  1  0.000000  0.000000  0.193659  1
  Sm  Sm1  1  0.000000  0.000000  0.804165  1
  Fe  Fe2  1  0.666667  0.333334  0.018541  1
  Tc  Tc3  1  0.333334  0.666667  0.985752  1
  Cl  Cl4  1  0.333334  0.666667  0.349697  1
  Cl  Cl5  1  0.666667  0.333334  0.648186  1
