# generated using pymatgen
data_PrTmZn4Ru
_symmetry_space_group_name_H-M   'P 1'
_cell_length_a   7.02294000
_cell_length_b   7.02294000
_cell_length_c   5.33869900
_cell_angle_alpha   90.00000000
_cell_angle_beta   90.00000000
_cell_angle_gamma   90.00000000
_symmetry_Int_Tables_number   1
_chemical_formula_structural   PrTmZn4Ru
_chemical_formula_sum   'Pr2 Tm2 Zn8 Ru2'
_cell_volume   263.31363703
_cell_formula_units_Z   2
loop_
 _symmetry_equiv_pos_site_id
 _symmetry_equiv_pos_as_xyz
  1  'x, y, z'
loop_
 _atom_site_type_symbol
 _atom_site_label
 _atom_site_symmetry_multiplicity
 _atom_site_fract_x
 _atom_site_fract_y
 _atom_site_fract_z
 _atom_site_occupancy
  Pr  Pr0  1  0.000000  0.500000  0.774309  1
  Pr  Pr1  1  0.500000  0.000000  0.225691  1
  Tm  Tm2  1  0.000000  0.000000  0.000000  1
  Tm  Tm3  1  0.500000  0.500000  0.000000  1
  Zn  Zn4  1  0.187578  0.687578  0.291765  1
  Zn  Zn5  1  0.812422  0.687578  0.291765  1
  Zn  Zn6  1  0.812422  0.312422  0.291765  1
  Zn  Zn7  1  0.312422  0.187578  0.708235  1
  Zn  Zn8  1  0.187578  0.312422  0.291765  1
  Zn  Zn9  1  0.687578  0.187578  0.708235  1
  Zn  Zn10  1  0.687578  0.812422  0.708235  1
  Zn  Zn11  1  0.312422  0.812422  0.708235  1
  Ru  Ru12  1  0.500000  0.500000  0.500000  1
  Ru  Ru13  1  0.000000  0.000000  0.500000  1
