# generated using pymatgen
data_Ho11Tm9(CoBi2)4
_symmetry_space_group_name_H-M   'P 1'
_cell_length_a   7.90901878
_cell_length_b   8.88126300
_cell_length_c   12.35536219
_cell_angle_alpha   90.00000000
_cell_angle_beta   90.05055968
_cell_angle_gamma   90.00000000
_symmetry_Int_Tables_number   1
_chemical_formula_structural   Ho11Tm9(CoBi2)4
_chemical_formula_sum   'Ho11 Tm9 Co4 Bi8'
_cell_volume   867.86595007
_cell_formula_units_Z   1
loop_
 _symmetry_equiv_pos_site_id
 _symmetry_equiv_pos_as_xyz
  1  'x, y, z'
loop_
 _atom_site_type_symbol
 _atom_site_label
 _atom_site_symmetry_multiplicity
 _atom_site_fract_x
 _atom_site_fract_y
 _atom_site_fract_z
 _atom_site_occupancy
  Ho  Ho0  1  0.652894  0.250000  0.300367  1
  Ho  Ho1  1  0.846948  0.250000  0.800269  1
  Ho  Ho2  1  0.152936  0.750000  0.199590  1
  Ho  Ho3  1  0.885935  0.750000  0.811939  1
  Ho  Ho4  1  0.114613  0.250000  0.188214  1
  Ho  Ho5  1  0.385450  0.250000  0.688225  1
  Ho  Ho6  1  0.614616  0.750000  0.311771  1
  Ho  Ho7  1  0.054412  0.750000  0.498232  1
  Ho  Ho8  1  0.946217  0.250000  0.502109  1
  Ho  Ho9  1  0.553677  0.250000  0.002005  1
  Ho  Ho10  1  0.446047  0.750000  0.997719  1
  Tm  Tm11  1  0.347328  0.750000  0.698984  1
  Tm  Tm12  1  0.672873  0.538850  0.562767  1
  Tm  Tm13  1  0.326675  0.461956  0.437590  1
  Tm  Tm14  1  0.173346  0.461836  0.937396  1
  Tm  Tm15  1  0.326675  0.038044  0.437590  1
  Tm  Tm16  1  0.826820  0.538386  0.062509  1
  Tm  Tm17  1  0.672873  0.961150  0.562767  1
  Tm  Tm18  1  0.826820  0.961614  0.062509  1
  Tm  Tm19  1  0.173346  0.038164  0.937396  1
  Co  Co20  1  0.065999  0.750000  0.992060  1
  Co  Co21  1  0.933771  0.250000  0.007933  1
  Co  Co22  1  0.566045  0.250000  0.507987  1
  Co  Co23  1  0.433683  0.750000  0.492458  1
  Bi  Bi24  1  0.570366  0.510374  0.826444  1
  Bi  Bi25  1  0.429089  0.490205  0.173218  1
  Bi  Bi26  1  0.071557  0.490623  0.673377  1
  Bi  Bi27  1  0.429089  0.009795  0.173218  1
  Bi  Bi28  1  0.928990  0.509847  0.326768  1
  Bi  Bi29  1  0.570366  0.989626  0.826444  1
  Bi  Bi30  1  0.928990  0.990153  0.326768  1
  Bi  Bi31  1  0.071557  0.009377  0.673377  1
