# generated using pymatgen
data_Pr5Lu(CI5)2
_symmetry_space_group_name_H-M   'P 1'
_cell_length_a   7.90717618
_cell_length_b   9.73993695
_cell_length_c   9.81352283
_cell_angle_alpha   107.08509416
_cell_angle_beta   96.13670523
_cell_angle_gamma   104.37398251
_symmetry_Int_Tables_number   1
_chemical_formula_structural   Pr5Lu(CI5)2
_chemical_formula_sum   'Pr5 Lu1 C2 I10'
_cell_volume   686.49795894
_cell_formula_units_Z   1
loop_
 _symmetry_equiv_pos_site_id
 _symmetry_equiv_pos_as_xyz
  1  'x, y, z'
loop_
 _atom_site_type_symbol
 _atom_site_label
 _atom_site_symmetry_multiplicity
 _atom_site_fract_x
 _atom_site_fract_y
 _atom_site_fract_z
 _atom_site_occupancy
  Pr  Pr0  1  0.106181  0.038911  0.774170  1
  Pr  Pr1  1  0.372285  0.132526  0.178084  1
  Pr  Pr2  1  0.889687  0.959154  0.224414  1
  Pr  Pr3  1  0.030501  0.733587  0.922103  1
  Pr  Pr4  1  0.967041  0.266465  0.077023  1
  Lu  Lu5  1  0.637264  0.870722  0.826637  1
  C  C6  1  0.906877  0.969107  0.957996  1
  C  C7  1  0.082003  0.028108  0.038457  1
  I  I8  1  0.215993  0.739387  0.651195  1
  I  I9  1  0.088485  0.370525  0.817469  1
  I  I10  1  0.460785  0.807122  0.080187  1
  I  I11  1  0.252677  0.083025  0.461633  1
  I  I12  1  0.546324  0.177500  0.899401  1
  I  I13  1  0.806418  0.267292  0.359349  1
  I  I14  1  0.345667  0.458207  0.272343  1
  I  I15  1  0.910911  0.629120  0.181636  1
  I  I16  1  0.647159  0.557539  0.728113  1
  I  I17  1  0.733742  0.911704  0.549793  1
