# generated using pymatgen
data_La8Eu12Si15P
_symmetry_space_group_name_H-M   'P 1'
_cell_length_a   7.77961600
_cell_length_b   8.08646768
_cell_length_c   15.32389700
_cell_angle_alpha   90.00000000
_cell_angle_beta   90.00000000
_cell_angle_gamma   90.49162584
_symmetry_Int_Tables_number   1
_chemical_formula_structural   La8Eu12Si15P
_chemical_formula_sum   'La8 Eu12 Si15 P1'
_cell_volume   963.98494760
_cell_formula_units_Z   1
loop_
 _symmetry_equiv_pos_site_id
 _symmetry_equiv_pos_as_xyz
  1  'x, y, z'
loop_
 _atom_site_type_symbol
 _atom_site_label
 _atom_site_symmetry_multiplicity
 _atom_site_fract_x
 _atom_site_fract_y
 _atom_site_fract_z
 _atom_site_occupancy
  La  La0  1  0.031955  0.187510  0.401230  1
  La  La1  1  0.531851  0.313840  0.401528  1
  La  La2  1  0.467033  0.687714  0.899313  1
  La  La3  1  0.467033  0.687714  0.600687  1
  La  La4  1  0.967595  0.812329  0.600717  1
  La  La5  1  0.967595  0.812329  0.899283  1
  La  La6  1  0.531851  0.313840  0.098472  1
  La  La7  1  0.031955  0.187510  0.098770  1
  Eu  Eu8  1  0.316118  0.180443  0.623135  1
  Eu  Eu9  1  0.683092  0.817763  0.378065  1
  Eu  Eu10  1  0.638481  0.003599  0.750000  1
  Eu  Eu11  1  0.183394  0.682880  0.377566  1
  Eu  Eu12  1  0.816916  0.317181  0.877317  1
  Eu  Eu13  1  0.816916  0.317181  0.622683  1
  Eu  Eu14  1  0.861296  0.506148  0.250000  1
  Eu  Eu15  1  0.362456  0.996618  0.250000  1
  Eu  Eu16  1  0.316118  0.180443  0.876865  1
  Eu  Eu17  1  0.183394  0.682880  0.122434  1
  Eu  Eu18  1  0.683092  0.817763  0.121935  1
  Eu  Eu19  1  0.140499  0.492309  0.750000  1
  Si  Si20  1  0.475095  0.585295  0.250000  1
  Si  Si21  1  0.024494  0.081853  0.750000  1
  Si  Si22  1  0.525299  0.415102  0.750000  1
  Si  Si23  1  0.138123  0.475444  0.539172  1
  Si  Si24  1  0.974897  0.916438  0.250000  1
  Si  Si25  1  0.751798  0.127798  0.250000  1
  Si  Si26  1  0.862700  0.526252  0.037224  1
  Si  Si27  1  0.362289  0.974257  0.037444  1
  Si  Si28  1  0.138123  0.475444  0.960828  1
  Si  Si29  1  0.637098  0.023789  0.539269  1
  Si  Si30  1  0.362289  0.974257  0.462556  1
  Si  Si31  1  0.862700  0.526252  0.462776  1
  Si  Si32  1  0.749919  0.627989  0.750000  1
  Si  Si33  1  0.250636  0.373464  0.250000  1
  Si  Si34  1  0.637098  0.023789  0.960731  1
  P  P35  1  0.248804  0.874586  0.750000  1
