# generated using pymatgen
data_Gd4Al5ZnOs2
_symmetry_space_group_name_H-M   'P 1'
_cell_length_a   5.51743900
_cell_length_b   5.47411637
_cell_length_c   8.95207900
_cell_angle_alpha   90.00000000
_cell_angle_beta   90.00000000
_cell_angle_gamma   119.74059843
_symmetry_Int_Tables_number   1
_chemical_formula_structural   Gd4Al5ZnOs2
_chemical_formula_sum   'Gd4 Al5 Zn1 Os2'
_cell_volume   234.76609853
_cell_formula_units_Z   1
loop_
 _symmetry_equiv_pos_site_id
 _symmetry_equiv_pos_as_xyz
  1  'x, y, z'
loop_
 _atom_site_type_symbol
 _atom_site_label
 _atom_site_symmetry_multiplicity
 _atom_site_fract_x
 _atom_site_fract_y
 _atom_site_fract_z
 _atom_site_occupancy
  Gd  Gd0  1  0.338205  0.669103  0.447941  1
  Gd  Gd1  1  0.667013  0.333505  0.553790  1
  Gd  Gd2  1  0.667013  0.333505  0.946210  1
  Gd  Gd3  1  0.338205  0.669103  0.052059  1
  Al  Al4  1  0.844260  0.165971  0.250000  1
  Al  Al5  1  0.844260  0.678289  0.250000  1
  Al  Al6  1  0.330934  0.165467  0.250000  1
  Al  Al7  1  0.142727  0.828988  0.750000  1
  Al  Al8  1  0.142727  0.313739  0.750000  1
  Zn  Zn9  1  0.662030  0.831016  0.750000  1
  Os  Os10  1  0.011314  0.005657  0.497204  1
  Os  Os11  1  0.011314  0.005657  0.002796  1
