# generated using pymatgen
data_Hf10ZnSn3GeSb3
_symmetry_space_group_name_H-M   'P 1'
_cell_length_a   8.62580108
_cell_length_b   8.62162445
_cell_length_c   5.80756206
_cell_angle_alpha   89.99207622
_cell_angle_beta   90.01583988
_cell_angle_gamma   120.01602251
_symmetry_Int_Tables_number   1
_chemical_formula_structural   Hf10ZnSn3GeSb3
_chemical_formula_sum   'Hf10 Zn1 Sn3 Ge1 Sb3'
_cell_volume   373.97526032
_cell_formula_units_Z   1
loop_
 _symmetry_equiv_pos_site_id
 _symmetry_equiv_pos_as_xyz
  1  'x, y, z'
loop_
 _atom_site_type_symbol
 _atom_site_label
 _atom_site_symmetry_multiplicity
 _atom_site_fract_x
 _atom_site_fract_y
 _atom_site_fract_z
 _atom_site_occupancy
  Hf  Hf0  1  0.732545  0.732863  0.250637  1
  Hf  Hf1  1  0.733852  0.000000  0.749411  1
  Hf  Hf2  1  0.999682  0.267137  0.250637  1
  Hf  Hf3  1  0.999321  0.733006  0.749868  1
  Hf  Hf4  1  0.266315  0.266994  0.749868  1
  Hf  Hf5  1  0.268039  0.000000  0.250044  1
  Hf  Hf6  1  0.334080  0.667013  0.499600  1
  Hf  Hf7  1  0.666922  0.333070  0.000552  1
  Hf  Hf8  1  0.667067  0.332987  0.499600  1
  Hf  Hf9  1  0.333851  0.666930  0.000552  1
  Zn  Zn10  1  0.001269  0.000000  0.498890  1
  Sn  Sn11  1  0.387676  0.000000  0.748545  1
  Sn  Sn12  1  0.388152  0.387479  0.251322  1
  Sn  Sn13  1  0.000673  0.612521  0.251322  1
  Ge  Ge14  1  0.000715  0.000000  0.001121  1
  Sb  Sb15  1  0.000551  0.391052  0.748086  1
  Sb  Sb16  1  0.609499  0.608948  0.748086  1
  Sb  Sb17  1  0.609793  0.000000  0.251861  1
