# generated using pymatgen
data_CaYb11Si9(Ag4Ge)3
_symmetry_space_group_name_H-M   'P 1'
_cell_length_a   4.53021000
_cell_length_b   7.73384001
_cell_length_c   21.33201484
_cell_angle_alpha   89.98176224
_cell_angle_beta   90.00000000
_cell_angle_gamma   90.00000000
_symmetry_Int_Tables_number   1
_chemical_formula_structural   CaYb11Si9(Ag4Ge)3
_chemical_formula_sum   'Ca1 Yb11 Si9 Ag12 Ge3'
_cell_volume   747.38671321
_cell_formula_units_Z   1
loop_
 _symmetry_equiv_pos_site_id
 _symmetry_equiv_pos_as_xyz
  1  'x, y, z'
loop_
 _atom_site_type_symbol
 _atom_site_label
 _atom_site_symmetry_multiplicity
 _atom_site_fract_x
 _atom_site_fract_y
 _atom_site_fract_z
 _atom_site_occupancy
  Ca  Ca0  1  0.750000  0.708102  0.832669  1
  Yb  Yb1  1  0.250000  0.221481  0.000406  1
  Yb  Yb2  1  0.250000  0.278243  0.500532  1
  Yb  Yb3  1  0.750000  0.780107  0.999947  1
  Yb  Yb4  1  0.750000  0.721736  0.499189  1
  Yb  Yb5  1  0.250000  0.206083  0.333234  1
  Yb  Yb6  1  0.250000  0.293515  0.833620  1
  Yb  Yb7  1  0.750000  0.794176  0.666383  1
  Yb  Yb8  1  0.750000  0.705884  0.166768  1
  Yb  Yb9  1  0.250000  0.209191  0.667011  1
  Yb  Yb10  1  0.250000  0.291031  0.167383  1
  Yb  Yb11  1  0.750000  0.790712  0.332573  1
  Si  Si12  1  0.250000  0.580988  0.724406  1
  Si  Si13  1  0.250000  0.918513  0.224733  1
  Si  Si14  1  0.750000  0.418540  0.275275  1
  Si  Si15  1  0.750000  0.081355  0.775520  1
  Si  Si16  1  0.250000  0.913338  0.106908  1
  Si  Si17  1  0.250000  0.586598  0.606611  1
  Si  Si18  1  0.750000  0.087104  0.893584  1
  Si  Si19  1  0.750000  0.413238  0.393139  1
  Si  Si20  1  0.250000  0.590867  0.928990  1
  Ag  Ag21  1  0.250000  0.914223  0.761125  1
  Ag  Ag22  1  0.250000  0.588033  0.261844  1
  Ag  Ag23  1  0.750000  0.088104  0.238129  1
  Ag  Ag24  1  0.750000  0.409755  0.737168  1
  Ag  Ag25  1  0.250000  0.920237  0.906846  1
  Ag  Ag26  1  0.250000  0.573521  0.405579  1
  Ag  Ag27  1  0.750000  0.073766  0.094584  1
  Ag  Ag28  1  0.750000  0.426479  0.594219  1
  Ag  Ag29  1  0.250000  0.909228  0.566219  1
  Ag  Ag30  1  0.250000  0.591065  0.064516  1
  Ag  Ag31  1  0.750000  0.090773  0.433579  1
  Ag  Ag32  1  0.750000  0.416025  0.934044  1
  Ge  Ge33  1  0.250000  0.907906  0.426690  1
  Ge  Ge34  1  0.750000  0.407882  0.073610  1
  Ge  Ge35  1  0.750000  0.092203  0.572968  1
