# generated using pymatgen
data_Tb5DyCo14(P3Rh)4
_symmetry_space_group_name_H-M   'P 1'
_cell_length_a   3.73305400
_cell_length_b   10.67165500
_cell_length_c   12.41170600
_cell_angle_alpha   89.99853819
_cell_angle_beta   90.00000000
_cell_angle_gamma   90.00000000
_symmetry_Int_Tables_number   1
_chemical_formula_structural   Tb5DyCo14(P3Rh)4
_chemical_formula_sum   'Tb5 Dy1 Co14 P12 Rh4'
_cell_volume   494.45586033
_cell_formula_units_Z   1
loop_
 _symmetry_equiv_pos_site_id
 _symmetry_equiv_pos_as_xyz
  1  'x, y, z'
loop_
 _atom_site_type_symbol
 _atom_site_label
 _atom_site_symmetry_multiplicity
 _atom_site_fract_x
 _atom_site_fract_y
 _atom_site_fract_z
 _atom_site_occupancy
  Tb  Tb0  1  0.000000  0.499963  0.520616  1
  Tb  Tb1  1  0.500000  0.000076  0.479482  1
  Tb  Tb2  1  0.500000  0.813908  0.205648  1
  Tb  Tb3  1  0.500000  0.186059  0.205715  1
  Tb  Tb4  1  0.000000  0.686022  0.794302  1
  Dy  Dy5  1  0.000000  0.313806  0.794266  1
  Co  Co6  1  0.000000  0.499888  0.987876  1
  Co  Co7  1  0.500000  0.000263  0.011779  1
  Co  Co8  1  0.500000  0.332246  0.993631  1
  Co  Co9  1  0.500000  0.667562  0.993761  1
  Co  Co10  1  0.000000  0.167855  0.005939  1
  Co  Co11  1  0.000000  0.832325  0.006136  1
  Co  Co12  1  0.500000  0.300066  0.429791  1
  Co  Co13  1  0.500000  0.699903  0.429610  1
  Co  Co14  1  0.000000  0.200019  0.570689  1
  Co  Co15  1  0.000000  0.800052  0.570437  1
  Co  Co16  1  0.500000  0.880640  0.709597  1
  Co  Co17  1  0.500000  0.119747  0.709896  1
  Co  Co18  1  0.000000  0.619432  0.290384  1
  Co  Co19  1  0.000000  0.380578  0.290416  1
  P  P20  1  0.500000  0.499805  0.889986  1
  P  P21  1  0.000000  0.000105  0.109810  1
  P  P22  1  0.500000  0.500004  0.349383  1
  P  P23  1  0.000000  0.999971  0.650659  1
  P  P24  1  0.500000  0.301755  0.613556  1
  P  P25  1  0.500000  0.698075  0.613312  1
  P  P26  1  0.000000  0.198259  0.386885  1
  P  P27  1  0.000000  0.801729  0.386762  1
  P  P28  1  0.500000  0.844739  0.894982  1
  P  P29  1  0.500000  0.155557  0.894718  1
  P  P30  1  0.000000  0.655200  0.104952  1
  P  P31  1  0.000000  0.344722  0.105023  1
  Rh  Rh32  1  0.500000  0.499920  0.159916  1
  Rh  Rh33  1  0.000000  0.000079  0.839979  1
  Rh  Rh34  1  0.500000  0.499614  0.703553  1
  Rh  Rh35  1  0.000000  0.000058  0.296554  1
