# generated using pymatgen
data_Ba6ScNi4O15
_symmetry_space_group_name_H-M   'P 1'
_cell_length_a   7.23007353
_cell_length_b   7.24805527
_cell_length_c   7.29070082
_cell_angle_alpha   88.23836926
_cell_angle_beta   88.77514909
_cell_angle_gamma   88.82668046
_symmetry_Int_Tables_number   1
_chemical_formula_structural   Ba6ScNi4O15
_chemical_formula_sum   'Ba6 Sc1 Ni4 O15'
_cell_volume   381.71875373
_cell_formula_units_Z   1
loop_
 _symmetry_equiv_pos_site_id
 _symmetry_equiv_pos_as_xyz
  1  'x, y, z'
loop_
 _atom_site_type_symbol
 _atom_site_label
 _atom_site_symmetry_multiplicity
 _atom_site_fract_x
 _atom_site_fract_y
 _atom_site_fract_z
 _atom_site_occupancy
  Ba  Ba0  1  0.337897  0.666756  0.998108  1
  Ba  Ba1  1  0.996390  0.337300  0.662325  1
  Ba  Ba2  1  0.668113  0.990615  0.331639  1
  Ba  Ba3  1  0.138298  0.854041  0.500700  1
  Ba  Ba4  1  0.499496  0.140598  0.856356  1
  Ba  Ba5  1  0.854306  0.498125  0.136047  1
  Sc  Sc6  1  0.507294  0.502581  0.497826  1
  Ni  Ni7  1  0.291370  0.291017  0.290877  1
  Ni  Ni8  1  0.708326  0.709587  0.710301  1
  Ni  Ni9  1  0.097011  0.096981  0.095642  1
  Ni  Ni10  1  0.902719  0.905826  0.909282  1
  O  O11  1  0.143109  0.002624  0.859117  1
  O  O12  1  0.859911  0.143766  0.000134  1
  O  O13  1  0.004475  0.859788  0.143252  1
  O  O14  1  0.040343  0.195176  0.328672  1
  O  O15  1  0.329207  0.042470  0.198044  1
  O  O16  1  0.197787  0.330667  0.041170  1
  O  O17  1  0.802641  0.963955  0.675905  1
  O  O18  1  0.668844  0.815972  0.985873  1
  O  O19  1  0.961701  0.672635  0.809213  1
  O  O20  1  0.372597  0.236350  0.529938  1
  O  O21  1  0.529943  0.369554  0.234032  1
  O  O22  1  0.239104  0.531629  0.370030  1
  O  O23  1  0.763758  0.617929  0.447051  1
  O  O24  1  0.460306  0.761263  0.625171  1
  O  O25  1  0.625052  0.462795  0.763295  1
