# generated using pymatgen
data_Dy8Lu11Si16W
_symmetry_space_group_name_H-M   'P 1'
_cell_length_a   7.25201275
_cell_length_b   7.50172885
_cell_length_c   14.26151940
_cell_angle_alpha   90.28478214
_cell_angle_beta   89.16226103
_cell_angle_gamma   89.74781001
_symmetry_Int_Tables_number   1
_chemical_formula_structural   Dy8Lu11Si16W
_chemical_formula_sum   'Dy8 Lu11 Si16 W1'
_cell_volume   775.76392851
_cell_formula_units_Z   1
loop_
 _symmetry_equiv_pos_site_id
 _symmetry_equiv_pos_as_xyz
  1  'x, y, z'
loop_
 _atom_site_type_symbol
 _atom_site_label
 _atom_site_symmetry_multiplicity
 _atom_site_fract_x
 _atom_site_fract_y
 _atom_site_fract_z
 _atom_site_occupancy
  Dy  Dy0  1  0.016586  0.176913  0.097404  1
  Dy  Dy1  1  0.986120  0.823790  0.897329  1
  Dy  Dy2  1  0.483770  0.680299  0.897052  1
  Dy  Dy3  1  0.991894  0.831000  0.596668  1
  Dy  Dy4  1  0.517347  0.321693  0.095957  1
  Dy  Dy5  1  0.012538  0.179120  0.403498  1
  Dy  Dy6  1  0.505691  0.320675  0.411858  1
  Dy  Dy7  1  0.486641  0.678317  0.597077  1
  Lu  Lu8  1  0.164605  0.500518  0.743963  1
  Lu  Lu9  1  0.837324  0.492318  0.253171  1
  Lu  Lu10  1  0.336520  0.009523  0.252600  1
  Lu  Lu11  1  0.659250  0.997279  0.746623  1
  Lu  Lu12  1  0.662667  0.826794  0.381079  1
  Lu  Lu13  1  0.168303  0.676600  0.383587  1
  Lu  Lu14  1  0.671421  0.822087  0.122945  1
  Lu  Lu15  1  0.836376  0.322950  0.620067  1
  Lu  Lu16  1  0.330593  0.178622  0.875929  1
  Lu  Lu17  1  0.825910  0.323325  0.872722  1
  Lu  Lu18  1  0.172295  0.678439  0.123867  1
  Si  Si19  1  0.045993  0.116776  0.742908  1
  Si  Si20  1  0.963638  0.890909  0.252219  1
  Si  Si21  1  0.464575  0.613614  0.250631  1
  Si  Si22  1  0.530834  0.374011  0.743201  1
  Si  Si23  1  0.283208  0.879337  0.744614  1
  Si  Si24  1  0.716276  0.127026  0.250688  1
  Si  Si25  1  0.220186  0.374295  0.250318  1
  Si  Si26  1  0.782085  0.626311  0.746146  1
  Si  Si27  1  0.193720  0.440780  0.540957  1
  Si  Si28  1  0.831448  0.531158  0.459317  1
  Si  Si29  1  0.326708  0.973734  0.477045  1
  Si  Si30  1  0.848128  0.530768  0.038933  1
  Si  Si31  1  0.638820  0.035180  0.546039  1
  Si  Si32  1  0.152446  0.470891  0.958251  1
  Si  Si33  1  0.660247  0.031567  0.958490  1
  Si  Si34  1  0.343797  0.966769  0.038151  1
  W  W35  1  0.332041  0.176611  0.628694  1
