# generated using pymatgen
data_Na3Al4GaBr16
_symmetry_space_group_name_H-M   'P 1'
_cell_length_a   7.68647800
_cell_length_b   8.10579514
_cell_length_c   14.41473200
_cell_angle_alpha   90.24670541
_cell_angle_beta   90.00000000
_cell_angle_gamma   90.00000000
_symmetry_Int_Tables_number   1
_chemical_formula_structural   Na3Al4GaBr16
_chemical_formula_sum   'Na3 Al4 Ga1 Br16'
_cell_volume   898.10178273
_cell_formula_units_Z   1
loop_
 _symmetry_equiv_pos_site_id
 _symmetry_equiv_pos_as_xyz
  1  'x, y, z'
loop_
 _atom_site_type_symbol
 _atom_site_label
 _atom_site_symmetry_multiplicity
 _atom_site_fract_x
 _atom_site_fract_y
 _atom_site_fract_z
 _atom_site_occupancy
  Na  Na0  1  0.250000  0.440205  0.146190  1
  Na  Na1  1  0.750000  0.944988  0.351562  1
  Na  Na2  1  0.750000  0.556350  0.848768  1
  Al  Al3  1  0.250000  0.301093  0.894822  1
  Al  Al4  1  0.750000  0.797445  0.605048  1
  Al  Al5  1  0.750000  0.699872  0.102898  1
  Al  Al6  1  0.250000  0.202881  0.397129  1
  Ga  Ga7  1  0.250000  0.054796  0.649802  1
  Br  Br8  1  0.250000  0.137298  0.025742  1
  Br  Br9  1  0.750000  0.640419  0.470589  1
  Br  Br10  1  0.750000  0.860002  0.970376  1
  Br  Br11  1  0.250000  0.363427  0.530737  1
  Br  Br12  1  0.250000  0.926308  0.441280  1
  Br  Br13  1  0.750000  0.424203  0.056269  1
  Br  Br14  1  0.750000  0.073562  0.560217  1
  Br  Br15  1  0.250000  0.575137  0.944123  1
  Br  Br16  1  0.992354  0.755187  0.196287  1
  Br  Br17  1  0.007399  0.259050  0.305078  1
  Br  Br18  1  0.494424  0.248692  0.802420  1
  Br  Br19  1  0.509713  0.738078  0.698442  1
  Br  Br20  1  0.005576  0.248692  0.802420  1
  Br  Br21  1  0.990287  0.738078  0.698442  1
  Br  Br22  1  0.507646  0.755187  0.196287  1
  Br  Br23  1  0.492601  0.259050  0.305078  1
