# generated using pymatgen
data_Sr4ZnCd7Au6
_symmetry_space_group_name_H-M   'P 1'
_cell_length_a   15.39258900
_cell_length_b   15.32378879
_cell_length_c   4.56079600
_cell_angle_alpha   90.00000000
_cell_angle_beta   90.00000000
_cell_angle_gamma   119.95952196
_symmetry_Int_Tables_number   1
_chemical_formula_structural   Sr4ZnCd7Au6
_chemical_formula_sum   'Sr8 Zn2 Cd14 Au12'
_cell_volume   932.02187742
_cell_formula_units_Z   2
loop_
 _symmetry_equiv_pos_site_id
 _symmetry_equiv_pos_as_xyz
  1  'x, y, z'
loop_
 _atom_site_type_symbol
 _atom_site_label
 _atom_site_symmetry_multiplicity
 _atom_site_fract_x
 _atom_site_fract_y
 _atom_site_fract_z
 _atom_site_occupancy
  Sr  Sr0  1  0.451822  0.999955  0.000000  1
  Sr  Sr1  1  0.997751  0.446348  0.000000  1
  Sr  Sr2  1  0.549881  0.550001  0.000000  1
  Sr  Sr3  1  0.333366  0.666584  0.000000  1
  Sr  Sr4  1  0.667965  0.331572  0.000000  1
  Sr  Sr5  1  0.826786  0.002619  0.500000  1
  Sr  Sr6  1  0.999820  0.827135  0.500000  1
  Sr  Sr7  1  0.171953  0.173313  0.500000  1
  Zn  Zn8  1  0.822706  0.196773  0.000000  1
  Zn  Zn9  1  0.999310  0.001294  0.000000  1
  Cd  Cd10  1  0.176284  0.373012  0.000000  1
  Cd  Cd11  1  0.627760  0.807481  0.000000  1
  Cd  Cd12  1  0.373160  0.176360  0.000000  1
  Cd  Cd13  1  0.196706  0.823460  0.000000  1
  Cd  Cd14  1  0.803646  0.626446  0.000000  1
  Cd  Cd15  1  0.277994  0.000170  0.500000  1
  Cd  Cd16  1  0.999232  0.277329  0.500000  1
  Cd  Cd17  1  0.721765  0.722585  0.500000  1
  Cd  Cd18  1  0.346333  0.471405  0.500000  1
  Cd  Cd19  1  0.530787  0.877280  0.500000  1
  Cd  Cd20  1  0.471198  0.346369  0.500000  1
  Cd  Cd21  1  0.124597  0.653054  0.500000  1
  Cd  Cd22  1  0.873692  0.524043  0.500000  1
  Cd  Cd23  1  0.654062  0.125311  0.500000  1
  Au  Au24  1  0.168048  0.491781  0.500000  1
  Au  Au25  1  0.508393  0.677413  0.500000  1
  Au  Au26  1  0.492499  0.168643  0.500000  1
  Au  Au27  1  0.324328  0.831213  0.500000  1
  Au  Au28  1  0.676982  0.506950  0.500000  1
  Au  Au29  1  0.832218  0.316324  0.500000  1
  Au  Au30  1  0.166622  0.000615  0.000000  1
  Au  Au31  1  0.992424  0.166701  0.000000  1
  Au  Au32  1  0.832521  0.832883  0.000000  1
  Au  Au33  1  0.665054  0.009519  0.000000  1
  Au  Au34  1  0.999596  0.654961  0.000000  1
  Au  Au35  1  0.342737  0.343096  0.000000  1
