# generated using pymatgen
data_TbDy4Y(AlC3)2
_symmetry_space_group_name_H-M   'P 1'
_cell_length_a   3.57740400
_cell_length_b   7.06363709
_cell_length_c   10.00108402
_cell_angle_alpha   89.96424954
_cell_angle_beta   90.00000000
_cell_angle_gamma   90.00000000
_symmetry_Int_Tables_number   1
_chemical_formula_structural   TbDy4Y(AlC3)2
_chemical_formula_sum   'Tb1 Dy4 Y1 Al2 C6'
_cell_volume   252.72217942
_cell_formula_units_Z   1
loop_
 _symmetry_equiv_pos_site_id
 _symmetry_equiv_pos_as_xyz
  1  'x, y, z'
loop_
 _atom_site_type_symbol
 _atom_site_label
 _atom_site_symmetry_multiplicity
 _atom_site_fract_x
 _atom_site_fract_y
 _atom_site_fract_z
 _atom_site_occupancy
  Tb  Tb0  1  0.000000  0.749870  0.458971  1
  Dy  Dy1  1  0.500000  0.510358  0.199882  1
  Dy  Dy2  1  0.500000  0.489245  0.800058  1
  Dy  Dy3  1  0.500000  0.989592  0.199651  1
  Dy  Dy4  1  0.000000  0.250082  0.542224  1
  Y  Y5  1  0.500000  0.009561  0.800449  1
  Al  Al6  1  0.000000  0.750041  0.005831  1
  Al  Al7  1  0.000000  0.250043  0.993901  1
  C  C8  1  0.500000  0.508053  0.565938  1
  C  C9  1  0.500000  0.489949  0.433948  1
  C  C10  1  0.500000  0.991829  0.565662  1
  C  C11  1  0.500000  0.009994  0.433840  1
  C  C12  1  0.000000  0.750096  0.208263  1
  C  C13  1  0.000000  0.251286  0.791384  1
