# generated using pymatgen
data_Y3PaAl14(Ga2Ir3)2
_symmetry_space_group_name_H-M   'P 1'
_cell_length_a   7.56048100
_cell_length_b   7.55596123
_cell_length_c   9.49961500
_cell_angle_alpha   90.00000000
_cell_angle_beta   90.00000000
_cell_angle_gamma   119.59924277
_symmetry_Int_Tables_number   1
_chemical_formula_structural   Y3PaAl14(Ga2Ir3)2
_chemical_formula_sum   'Y3 Pa1 Al14 Ga4 Ir6'
_cell_volume   471.86250183
_cell_formula_units_Z   1
loop_
 _symmetry_equiv_pos_site_id
 _symmetry_equiv_pos_as_xyz
  1  'x, y, z'
loop_
 _atom_site_type_symbol
 _atom_site_label
 _atom_site_symmetry_multiplicity
 _atom_site_fract_x
 _atom_site_fract_y
 _atom_site_fract_z
 _atom_site_occupancy
  Y  Y0  1  0.004981  0.329486  0.750000  1
  Y  Y1  1  0.674337  0.995134  0.250000  1
  Y  Y2  1  0.329673  0.004535  0.750000  1
  Pa  Pa3  1  0.996883  0.674204  0.250000  1
  Al  Al4  1  0.000579  0.332736  0.074419  1
  Al  Al5  1  0.997817  0.664411  0.923615  1
  Al  Al6  1  0.997817  0.664411  0.576385  1
  Al  Al7  1  0.339031  0.003641  0.425576  1
  Al  Al8  1  0.000579  0.332736  0.425581  1
  Al  Al9  1  0.664997  0.998719  0.573224  1
  Al  Al10  1  0.664997  0.998719  0.926776  1
  Al  Al11  1  0.339031  0.003641  0.074424  1
  Al  Al12  1  0.333196  0.333200  0.553797  1
  Al  Al13  1  0.662607  0.665207  0.442458  1
  Al  Al14  1  0.662607  0.665207  0.057542  1
  Al  Al15  1  0.333196  0.333200  0.946203  1
  Al  Al16  1  0.336659  0.546784  0.250000  1
  Al  Al17  1  0.547520  0.339453  0.250000  1
  Ga  Ga18  1  0.137635  0.136909  0.250000  1
  Ga  Ga19  1  0.871423  0.873291  0.750000  1
  Ga  Ga20  1  0.657702  0.449933  0.750000  1
  Ga  Ga21  1  0.450466  0.659878  0.750000  1
  Ir  Ir22  1  0.673060  0.330176  0.004128  1
  Ir  Ir23  1  0.325996  0.670976  0.004365  1
  Ir  Ir24  1  0.325996  0.670976  0.495635  1
  Ir  Ir25  1  0.673060  0.330176  0.495872  1
  Ir  Ir26  1  0.999077  0.996131  0.003390  1
  Ir  Ir27  1  0.999077  0.996131  0.496610  1
