# generated using pymatgen
data_La3Dy2NbTc2(P3Ir4)4
_symmetry_space_group_name_H-M   'P 1'
_cell_length_a   12.76185700
_cell_length_b   12.76185730
_cell_length_c   4.01102400
_cell_angle_alpha   90.00000000
_cell_angle_beta   90.00000000
_cell_angle_gamma   119.99999662
_symmetry_Int_Tables_number   1
_chemical_formula_structural   La3Dy2NbTc2(P3Ir4)4
_chemical_formula_sum   'La3 Dy2 Nb1 Tc2 P12 Ir16'
_cell_volume   565.73580429
_cell_formula_units_Z   1
loop_
 _symmetry_equiv_pos_site_id
 _symmetry_equiv_pos_as_xyz
  1  'x, y, z'
loop_
 _atom_site_type_symbol
 _atom_site_label
 _atom_site_symmetry_multiplicity
 _atom_site_fract_x
 _atom_site_fract_y
 _atom_site_fract_z
 _atom_site_occupancy
  La  La0  1  0.000000  0.813213  0.000000  1
  La  La1  1  0.187214  0.187101  0.000000  1
  La  La2  1  0.812786  0.999887  0.000000  1
  Dy  Dy3  1  0.331518  0.665460  0.500000  1
  Dy  Dy4  1  0.668482  0.333941  0.500000  1
  Nb  Nb5  1  0.000000  0.450790  0.500000  1
  Tc  Tc6  1  0.545831  0.545825  0.500000  1
  Tc  Tc7  1  0.454169  0.999994  0.500000  1
  P  P8  1  0.000000  0.636790  0.500000  1
  P  P9  1  0.366081  0.364651  0.500000  1
  P  P10  1  0.633919  0.998570  0.500000  1
  P  P11  1  0.513725  0.686982  0.000000  1
  P  P12  1  0.313469  0.829094  0.000000  1
  P  P13  1  0.169100  0.484081  0.000000  1
  P  P14  1  0.486275  0.173257  0.000000  1
  P  P15  1  0.686531  0.515625  0.000000  1
  P  P16  1  0.830900  0.314980  0.000000  1
  P  P17  1  0.000000  0.179226  0.500000  1
  P  P18  1  0.818393  0.818869  0.500000  1
  P  P19  1  0.181607  0.000476  0.500000  1
  Ir  Ir20  1  0.508565  0.869755  0.000000  1
  Ir  Ir21  1  0.133694  0.642108  0.000000  1
  Ir  Ir22  1  0.360534  0.493023  0.000000  1
  Ir  Ir23  1  0.491435  0.361190  0.000000  1
  Ir  Ir24  1  0.866306  0.508413  0.000000  1
  Ir  Ir25  1  0.639466  0.132488  0.000000  1
  Ir  Ir26  1  0.000000  0.286148  0.000000  1
  Ir  Ir27  1  0.706458  0.708232  0.000000  1
  Ir  Ir28  1  0.293542  0.001774  0.000000  1
  Ir  Ir29  1  0.617809  0.797801  0.500000  1
  Ir  Ir30  1  0.202039  0.823924  0.500000  1
  Ir  Ir31  1  0.181921  0.378975  0.500000  1
  Ir  Ir32  1  0.382191  0.179991  0.500000  1
  Ir  Ir33  1  0.797961  0.621884  0.500000  1
  Ir  Ir34  1  0.818079  0.197053  0.500000  1
  Ir  Ir35  1  0.000000  0.998430  0.500000  1
