# generated using pymatgen
data_NaZnInF6
_symmetry_space_group_name_H-M   'P 1'
_cell_length_a   5.00678700
_cell_length_b   5.00678700
_cell_length_c   9.94686500
_cell_angle_alpha   90.00000000
_cell_angle_beta   90.00000000
_cell_angle_gamma   90.00000000
_symmetry_Int_Tables_number   1
_chemical_formula_structural   NaZnInF6
_chemical_formula_sum   'Na2 Zn2 In2 F12'
_cell_volume   249.34717691
_cell_formula_units_Z   2
loop_
 _symmetry_equiv_pos_site_id
 _symmetry_equiv_pos_as_xyz
  1  'x, y, z'
loop_
 _atom_site_type_symbol
 _atom_site_label
 _atom_site_symmetry_multiplicity
 _atom_site_fract_x
 _atom_site_fract_y
 _atom_site_fract_z
 _atom_site_occupancy
  Na  Na0  1  0.500000  0.500000  0.499361  1
  Na  Na1  1  0.000000  0.000000  0.999361  1
  Zn  Zn2  1  0.500000  0.500000  0.167596  1
  Zn  Zn3  1  0.000000  0.000000  0.667596  1
  In  In4  1  0.500000  0.500000  0.832251  1
  In  In5  1  0.000000  0.000000  0.332251  1
  F  F6  1  0.181628  0.818372  0.501911  1
  F  F7  1  0.818372  0.181628  0.501911  1
  F  F8  1  0.318372  0.318372  0.001911  1
  F  F9  1  0.681628  0.681628  0.001911  1
  F  F10  1  0.207563  0.792437  0.179468  1
  F  F11  1  0.792437  0.207563  0.179468  1
  F  F12  1  0.292437  0.292437  0.679468  1
  F  F13  1  0.707563  0.707563  0.679468  1
  F  F14  1  0.797864  0.202136  0.819017  1
  F  F15  1  0.202136  0.797864  0.819017  1
  F  F16  1  0.702136  0.702136  0.319017  1
  F  F17  1  0.297864  0.297864  0.319017  1
