# generated using pymatgen
data_NaNi3H8
_symmetry_space_group_name_H-M   'P 1'
_cell_length_a   4.44657383
_cell_length_b   4.42920242
_cell_length_c   6.49391941
_cell_angle_alpha   114.76808550
_cell_angle_beta   84.10389699
_cell_angle_gamma   119.83846081
_symmetry_Int_Tables_number   1
_chemical_formula_structural   NaNi3H8
_chemical_formula_sum   'Na1 Ni3 H8'
_cell_volume   99.82426715
_cell_formula_units_Z   1
loop_
 _symmetry_equiv_pos_site_id
 _symmetry_equiv_pos_as_xyz
  1  'x, y, z'
loop_
 _atom_site_type_symbol
 _atom_site_label
 _atom_site_symmetry_multiplicity
 _atom_site_fract_x
 _atom_site_fract_y
 _atom_site_fract_z
 _atom_site_occupancy
  Na  Na0  1  0.101226  0.097401  0.391589  1
  Ni  Ni1  1  0.989956  0.840241  0.889886  1
  Ni  Ni2  1  0.661816  0.179287  0.899746  1
  Ni  Ni3  1  0.325665  0.510741  0.891919  1
  H  H4  1  0.628524  0.730782  0.744882  1
  H  H5  1  0.018986  0.277760  0.040809  1
  H  H6  1  0.690641  0.614912  0.034561  1
  H  H7  1  0.298302  0.078202  0.755827  1
  H  H8  1  0.964258  0.406026  0.749943  1
  H  H9  1  0.459139  0.835426  0.461607  1
  H  H10  1  0.429498  0.744587  0.329824  1
  H  H11  1  0.351818  0.951246  0.038277  1
