# generated using pymatgen
data_Tm2Lu2TcOs7
_symmetry_space_group_name_H-M   'P 1'
_cell_length_a   5.36140300
_cell_length_b   5.23251246
_cell_length_c   8.84529300
_cell_angle_alpha   90.00074484
_cell_angle_beta   90.00000000
_cell_angle_gamma   120.81822273
_symmetry_Int_Tables_number   1
_chemical_formula_structural   Tm2Lu2TcOs7
_chemical_formula_sum   'Tm2 Lu2 Tc1 Os7'
_cell_volume   213.10393348
_cell_formula_units_Z   1
loop_
 _symmetry_equiv_pos_site_id
 _symmetry_equiv_pos_as_xyz
  1  'x, y, z'
loop_
 _atom_site_type_symbol
 _atom_site_label
 _atom_site_symmetry_multiplicity
 _atom_site_fract_x
 _atom_site_fract_y
 _atom_site_fract_z
 _atom_site_occupancy
  Tm  Tm0  1  0.333296  0.666593  0.434669  1
  Tm  Tm1  1  0.668630  0.337258  0.565025  1
  Lu  Lu2  1  0.668711  0.337421  0.935185  1
  Lu  Lu3  1  0.333199  0.666398  0.064942  1
  Tc  Tc4  1  0.167976  0.335954  0.750768  1
  Os  Os5  1  0.172471  0.825962  0.750786  1
  Os  Os6  1  0.341366  0.168706  0.249273  1
  Os  Os7  1  0.826697  0.653395  0.249264  1
  Os  Os8  1  0.653491  0.825962  0.750786  1
  Os  Os9  1  0.003429  0.006858  0.000630  1
  Os  Os10  1  0.827342  0.168706  0.249273  1
  Os  Os11  1  0.003394  0.006788  0.499399  1
