# generated using pymatgen
data_Hf18CrFeRe7Ni
_symmetry_space_group_name_H-M   'P 1'
_cell_length_a   8.42260600
_cell_length_b   8.56172355
_cell_length_c   8.56179000
_cell_angle_alpha   119.99864950
_cell_angle_beta   90.00202769
_cell_angle_gamma   89.99965536
_symmetry_Int_Tables_number   1
_chemical_formula_structural   Hf18CrFeRe7Ni
_chemical_formula_sum   'Hf18 Cr1 Fe1 Re7 Ni1'
_cell_volume   534.69829502
_cell_formula_units_Z   1
loop_
 _symmetry_equiv_pos_site_id
 _symmetry_equiv_pos_as_xyz
  1  'x, y, z'
loop_
 _atom_site_type_symbol
 _atom_site_label
 _atom_site_symmetry_multiplicity
 _atom_site_fract_x
 _atom_site_fract_y
 _atom_site_fract_z
 _atom_site_occupancy
  Hf  Hf0  1  0.556315  0.803066  0.606157  1
  Hf  Hf1  1  0.556326  0.803068  0.196936  1
  Hf  Hf2  1  0.556317  0.393841  0.196924  1
  Hf  Hf3  1  0.442174  0.199317  0.398649  1
  Hf  Hf4  1  0.442167  0.199336  0.800661  1
  Hf  Hf5  1  0.442175  0.601346  0.800661  1
  Hf  Hf6  1  0.058740  0.200453  0.400911  1
  Hf  Hf7  1  0.058751  0.200482  0.799535  1
  Hf  Hf8  1  0.058747  0.599087  0.799539  1
  Hf  Hf9  1  0.942922  0.802370  0.604739  1
  Hf  Hf10  1  0.942911  0.802359  0.197653  1
  Hf  Hf11  1  0.942916  0.395279  0.197634  1
  Hf  Hf12  1  0.750011  0.458633  0.917299  1
  Hf  Hf13  1  0.750006  0.458653  0.541359  1
  Hf  Hf14  1  0.749995  0.082677  0.541348  1
  Hf  Hf15  1  0.250121  0.540715  0.081414  1
  Hf  Hf16  1  0.250118  0.540713  0.459293  1
  Hf  Hf17  1  0.250117  0.918579  0.459286  1
  Cr  Cr18  1  0.499559  0.000008  0.000005  1
  Fe  Fe19  1  0.250241  0.333365  0.666663  1
  Re  Re20  1  0.745616  0.109762  0.219566  1
  Re  Re21  1  0.745611  0.109784  0.890216  1
  Re  Re22  1  0.745621  0.780417  0.890218  1
  Re  Re23  1  0.254148  0.890502  0.780968  1
  Re  Re24  1  0.254148  0.890491  0.109512  1
  Re  Re25  1  0.254159  0.219043  0.109508  1
  Re  Re26  1  0.000135  0.000008  0.000003  1
  Ni  Ni27  1  0.749931  0.666644  0.333343  1
