# generated using pymatgen
data_Na2Ti2Cr3Se10
_symmetry_space_group_name_H-M   'P 1'
_cell_length_a   6.19412529
_cell_length_b   10.34968598
_cell_length_c   8.27732062
_cell_angle_alpha   59.69702173
_cell_angle_beta   67.77984457
_cell_angle_gamma   89.88382392
_symmetry_Int_Tables_number   1
_chemical_formula_structural   Na2Ti2Cr3Se10
_chemical_formula_sum   'Na2 Ti2 Cr3 Se10'
_cell_volume   412.11223575
_cell_formula_units_Z   1
loop_
 _symmetry_equiv_pos_site_id
 _symmetry_equiv_pos_as_xyz
  1  'x, y, z'
loop_
 _atom_site_type_symbol
 _atom_site_label
 _atom_site_symmetry_multiplicity
 _atom_site_fract_x
 _atom_site_fract_y
 _atom_site_fract_z
 _atom_site_occupancy
  Na  Na0  1  0.793320  0.083753  0.415615  1
  Na  Na1  1  0.018477  0.522073  0.977650  1
  Ti  Ti2  1  0.610261  0.205293  0.795769  1
  Ti  Ti3  1  0.995062  0.991573  0.010608  1
  Cr  Cr4  1  0.401223  0.807481  0.192975  1
  Cr  Cr5  1  0.800397  0.600194  0.399796  1
  Cr  Cr6  1  0.192966  0.392874  0.603844  1
  Se  Se7  1  0.984923  0.832606  0.369693  1
  Se  Se8  1  0.581264  0.040975  0.165192  1
  Se  Se9  1  0.185588  0.241518  0.962421  1
  Se  Se10  1  0.788072  0.443680  0.757898  1
  Se  Se11  1  0.385598  0.636532  0.548473  1
  Se  Se12  1  0.410972  0.958969  0.838653  1
  Se  Se13  1  0.017592  0.157035  0.636972  1
  Se  Se14  1  0.613485  0.363259  0.435306  1
  Se  Se15  1  0.214234  0.563722  0.246533  1
  Se  Se16  1  0.806566  0.758463  0.042602  1
