# generated using pymatgen
data_K2Ce(AgS2)2
_symmetry_space_group_name_H-M   'P 1'
_cell_length_a   4.14977900
_cell_length_b   7.79788413
_cell_length_c   7.87857800
_cell_angle_alpha   108.91090043
_cell_angle_beta   90.00000000
_cell_angle_gamma   105.43134980
_symmetry_Int_Tables_number   1
_chemical_formula_structural   K2Ce(AgS2)2
_chemical_formula_sum   'K2 Ce1 Ag2 S4'
_cell_volume   231.44907850
_cell_formula_units_Z   1
loop_
 _symmetry_equiv_pos_site_id
 _symmetry_equiv_pos_as_xyz
  1  'x, y, z'
loop_
 _atom_site_type_symbol
 _atom_site_label
 _atom_site_symmetry_multiplicity
 _atom_site_fract_x
 _atom_site_fract_y
 _atom_site_fract_z
 _atom_site_occupancy
  K  K0  1  0.863057  0.726112  0.434837  1
  K  K1  1  0.136944  0.273889  0.565163  1
  Ce  Ce2  1  0.000000  0.000000  0.000000  1
  Ag  Ag3  1  0.320544  0.641089  0.011288  1
  Ag  Ag4  1  0.679456  0.358911  0.988712  1
  S  S5  1  0.192769  0.385538  0.192389  1
  S  S6  1  0.488051  0.976103  0.231553  1
  S  S7  1  0.511949  0.023896  0.768447  1
  S  S8  1  0.807232  0.614461  0.807611  1
