# generated using pymatgen
data_Pr2FeB10
_symmetry_space_group_name_H-M   'P 1'
_cell_length_a   4.21562700
_cell_length_b   5.67527800
_cell_length_c   11.29414100
_cell_angle_alpha   90.00000000
_cell_angle_beta   90.00000000
_cell_angle_gamma   90.00000000
_symmetry_Int_Tables_number   1
_chemical_formula_structural   Pr2FeB10
_chemical_formula_sum   'Pr4 Fe2 B20'
_cell_volume   270.21068769
_cell_formula_units_Z   2
loop_
 _symmetry_equiv_pos_site_id
 _symmetry_equiv_pos_as_xyz
  1  'x, y, z'
loop_
 _atom_site_type_symbol
 _atom_site_label
 _atom_site_symmetry_multiplicity
 _atom_site_fract_x
 _atom_site_fract_y
 _atom_site_fract_z
 _atom_site_occupancy
  Pr  Pr0  1  0.500000  0.208300  0.367985  1
  Pr  Pr1  1  0.500000  0.791700  0.632015  1
  Pr  Pr2  1  0.500000  0.291700  0.867985  1
  Pr  Pr3  1  0.500000  0.708300  0.132015  1
  Fe  Fe4  1  0.000000  0.000000  0.000000  1
  Fe  Fe5  1  0.000000  0.500000  0.500000  1
  B  B6  1  0.000000  0.371446  0.040126  1
  B  B7  1  0.000000  0.628554  0.959874  1
  B  B8  1  0.000000  0.128554  0.540126  1
  B  B9  1  0.000000  0.871446  0.459874  1
  B  B10  1  0.000000  0.345368  0.197462  1
  B  B11  1  0.000000  0.654632  0.802538  1
  B  B12  1  0.000000  0.154632  0.697462  1
  B  B13  1  0.000000  0.845368  0.302538  1
  B  B14  1  0.000000  0.035595  0.186429  1
  B  B15  1  0.000000  0.964405  0.813571  1
  B  B16  1  0.000000  0.464405  0.686429  1
  B  B17  1  0.000000  0.535595  0.313571  1
  B  B18  1  0.297524  0.202974  0.112867  1
  B  B19  1  0.702476  0.797026  0.887133  1
  B  B20  1  0.297524  0.797026  0.887133  1
  B  B21  1  0.702476  0.297026  0.612867  1
  B  B22  1  0.702476  0.202974  0.112867  1
  B  B23  1  0.297524  0.702974  0.387133  1
  B  B24  1  0.702476  0.702974  0.387133  1
  B  B25  1  0.297524  0.297026  0.612867  1
