# generated using pymatgen
data_Y7Np(Si4W3)4
_symmetry_space_group_name_H-M   'P 1'
_cell_length_a   6.77261893
_cell_length_b   6.93665971
_cell_length_c   12.95808273
_cell_angle_alpha   89.98359249
_cell_angle_beta   90.00066569
_cell_angle_gamma   90.20666418
_symmetry_Int_Tables_number   1
_chemical_formula_structural   Y7Np(Si4W3)4
_chemical_formula_sum   'Y7 Np1 Si16 W12'
_cell_volume   608.75835629
_cell_formula_units_Z   1
loop_
 _symmetry_equiv_pos_site_id
 _symmetry_equiv_pos_as_xyz
  1  'x, y, z'
loop_
 _atom_site_type_symbol
 _atom_site_label
 _atom_site_symmetry_multiplicity
 _atom_site_fract_x
 _atom_site_fract_y
 _atom_site_fract_z
 _atom_site_occupancy
  Y  Y0  1  0.497794  0.668214  0.592635  1
  Y  Y1  1  0.995141  0.833670  0.906536  1
  Y  Y2  1  0.502778  0.333463  0.094008  1
  Y  Y3  1  0.004997  0.164984  0.407969  1
  Y  Y4  1  0.502138  0.331346  0.406375  1
  Y  Y5  1  0.002533  0.168202  0.093901  1
  Y  Y6  1  0.496018  0.667683  0.906387  1
  Np  Np7  1  0.992895  0.828180  0.598925  1
  Si  Si8  1  0.662155  0.957100  0.454759  1
  Si  Si9  1  0.160525  0.542674  0.045835  1
  Si  Si10  1  0.338768  0.042859  0.952939  1
  Si  Si11  1  0.840229  0.456252  0.546017  1
  Si  Si12  1  0.334019  0.040289  0.545038  1
  Si  Si13  1  0.839562  0.458178  0.953540  1
  Si  Si14  1  0.659518  0.958315  0.046050  1
  Si  Si15  1  0.162407  0.545417  0.456369  1
  Si  Si16  1  0.464589  0.369616  0.748017  1
  Si  Si17  1  0.963195  0.128256  0.748829  1
  Si  Si18  1  0.536997  0.629668  0.250086  1
  Si  Si19  1  0.037241  0.870684  0.249776  1
  Si  Si20  1  0.697041  0.868800  0.750372  1
  Si  Si21  1  0.198045  0.633134  0.749147  1
  Si  Si22  1  0.302675  0.132022  0.249952  1
  Si  Si23  1  0.803017  0.368119  0.251112  1
  W  W24  1  0.669914  0.158227  0.625205  1
  W  W25  1  0.165931  0.335116  0.873400  1
  W  W26  1  0.332427  0.835591  0.124778  1
  W  W27  1  0.835428  0.667672  0.377237  1
  W  W28  1  0.335065  0.835492  0.373789  1
  W  W29  1  0.833779  0.665829  0.125531  1
  W  W30  1  0.666228  0.165982  0.874230  1
  W  W31  1  0.169762  0.337665  0.625089  1
  W  W32  1  0.836472  0.501900  0.747195  1
  W  W33  1  0.330938  0.999244  0.747129  1
  W  W34  1  0.163975  0.502951  0.251362  1
  W  W35  1  0.665804  0.997202  0.250482  1
