# generated using pymatgen
data_Y15HoCd2(Co2Hg)2
_symmetry_space_group_name_H-M   'P 1'
_cell_length_a   9.52929847
_cell_length_b   9.52855253
_cell_length_c   9.51754966
_cell_angle_alpha   59.96175566
_cell_angle_beta   59.97905705
_cell_angle_gamma   60.00259533
_symmetry_Int_Tables_number   1
_chemical_formula_structural   Y15HoCd2(Co2Hg)2
_chemical_formula_sum   'Y15 Ho1 Cd2 Co4 Hg2'
_cell_volume   610.81838151
_cell_formula_units_Z   1
loop_
 _symmetry_equiv_pos_site_id
 _symmetry_equiv_pos_as_xyz
  1  'x, y, z'
loop_
 _atom_site_type_symbol
 _atom_site_label
 _atom_site_symmetry_multiplicity
 _atom_site_fract_x
 _atom_site_fract_y
 _atom_site_fract_z
 _atom_site_occupancy
  Y  Y0  1  0.940077  0.937488  0.561556  1
  Y  Y1  1  0.810714  0.189626  0.188341  1
  Y  Y2  1  0.940077  0.560877  0.561556  1
  Y  Y3  1  0.938976  0.560853  0.939317  1
  Y  Y4  1  0.810714  0.811320  0.188341  1
  Y  Y5  1  0.347394  0.346918  0.347218  1
  Y  Y6  1  0.562770  0.936567  0.939368  1
  Y  Y7  1  0.562645  0.937717  0.561922  1
  Y  Y8  1  0.188095  0.811722  0.810786  1
  Y  Y9  1  0.188095  0.189398  0.810786  1
  Y  Y10  1  0.347278  0.346349  0.960024  1
  Y  Y11  1  0.347394  0.958470  0.347218  1
  Y  Y12  1  0.811689  0.188467  0.811378  1
  Y  Y13  1  0.562770  0.561296  0.939368  1
  Y  Y14  1  0.189633  0.810369  0.189630  1
  Ho  Ho15  1  0.961436  0.345891  0.346783  1
  Cd  Cd16  1  0.579601  0.579848  0.579362  1
  Cd  Cd17  1  0.579601  0.261190  0.579362  1
  Co  Co18  1  0.577946  0.139954  0.142148  1
  Co  Co19  1  0.139992  0.141165  0.143201  1
  Co  Co20  1  0.139992  0.575643  0.143201  1
  Co  Co21  1  0.140645  0.141504  0.576348  1
  Hg  Hg22  1  0.585045  0.583625  0.247707  1
  Hg  Hg23  1  0.247424  0.583747  0.585082  1
