# generated using pymatgen
data_Dy12Co4HgIr
_symmetry_space_group_name_H-M   'P 1'
_cell_length_a   8.25771742
_cell_length_b   8.25718159
_cell_length_c   8.25771798
_cell_angle_alpha   111.26436913
_cell_angle_beta   109.87096199
_cell_angle_gamma   107.30558999
_symmetry_Int_Tables_number   1
_chemical_formula_structural   Dy12Co4HgIr
_chemical_formula_sum   'Dy12 Co4 Hg1 Ir1'
_cell_volume   432.89783892
_cell_formula_units_Z   1
loop_
 _symmetry_equiv_pos_site_id
 _symmetry_equiv_pos_as_xyz
  1  'x, y, z'
loop_
 _atom_site_type_symbol
 _atom_site_label
 _atom_site_symmetry_multiplicity
 _atom_site_fract_x
 _atom_site_fract_y
 _atom_site_fract_z
 _atom_site_occupancy
  Dy  Dy0  1  0.411742  0.217200  0.194520  1
  Dy  Dy1  1  0.588258  0.782800  0.805480  1
  Dy  Dy2  1  0.022679  0.217200  0.805457  1
  Dy  Dy3  1  0.977321  0.782800  0.194543  1
  Dy  Dy4  1  0.181474  0.285800  0.467264  1
  Dy  Dy5  1  0.818526  0.714200  0.532736  1
  Dy  Dy6  1  0.181464  0.714200  0.895674  1
  Dy  Dy7  1  0.818536  0.285800  0.104326  1
  Dy  Dy8  1  0.317437  0.621748  0.304312  1
  Dy  Dy9  1  0.682563  0.378252  0.695688  1
  Dy  Dy10  1  0.317459  0.013158  0.695700  1
  Dy  Dy11  1  0.682541  0.986842  0.304300  1
  Co  Co12  1  0.375948  0.000000  0.375948  1
  Co  Co13  1  0.624052  0.000000  0.624052  1
  Co  Co14  1  0.112971  0.613008  0.500037  1
  Co  Co15  1  0.887029  0.386992  0.499963  1
  Hg  Hg16  1  0.500000  0.500000  0.000000  1
  Ir  Ir17  1  0.000000  0.000000  0.000000  1
