# generated using pymatgen
data_Zr8Co(Si2Rh)7
_symmetry_space_group_name_H-M   'P 1'
_cell_length_a   5.35498082
_cell_length_b   9.70940734
_cell_length_c   9.71706817
_cell_angle_alpha   94.45929607
_cell_angle_beta   106.02467153
_cell_angle_gamma   73.91707479
_symmetry_Int_Tables_number   1
_chemical_formula_structural   Zr8Co(Si2Rh)7
_chemical_formula_sum   'Zr8 Co1 Si14 Rh7'
_cell_volume   466.58884664
_cell_formula_units_Z   1
loop_
 _symmetry_equiv_pos_site_id
 _symmetry_equiv_pos_as_xyz
  1  'x, y, z'
loop_
 _atom_site_type_symbol
 _atom_site_label
 _atom_site_symmetry_multiplicity
 _atom_site_fract_x
 _atom_site_fract_y
 _atom_site_fract_z
 _atom_site_occupancy
  Zr  Zr0  1  0.863433  0.270596  0.999247  1
  Zr  Zr1  1  0.135118  0.729789  0.998873  1
  Zr  Zr2  1  0.694634  0.805188  0.192349  1
  Zr  Zr3  1  0.498628  0.194459  0.192182  1
  Zr  Zr4  1  0.134026  0.000304  0.269194  1
  Zr  Zr5  1  0.865131  0.999912  0.729734  1
  Zr  Zr6  1  0.305972  0.194540  0.806665  1
  Zr  Zr7  1  0.500417  0.805159  0.806562  1
  Co  Co8  1  0.898742  0.499462  0.798256  1
  Si  Si9  1  0.252940  0.999904  0.999228  1
  Si  Si10  1  0.746244  0.000345  0.999396  1
  Si  Si11  1  0.273494  0.416179  0.995867  1
  Si  Si12  1  0.722132  0.583638  0.995497  1
  Si  Si13  1  0.996997  0.291657  0.291596  1
  Si  Si14  1  0.296414  0.708831  0.291510  1
  Si  Si15  1  0.518398  0.412503  0.411199  1
  Si  Si16  1  0.892871  0.587446  0.411707  1
  Si  Si17  1  0.706785  0.999944  0.412188  1
  Si  Si18  1  0.292873  0.999831  0.587920  1
  Si  Si19  1  0.058999  0.414304  0.594322  1
  Si  Si20  1  0.535202  0.585711  0.594215  1
  Si  Si21  1  0.715745  0.295988  0.709099  1
  Si  Si22  1  0.991834  0.703849  0.709082  1
  Rh  Rh23  1  0.107886  0.500399  0.214741  1
  Rh  Rh24  1  0.597998  0.499853  0.194641  1
  Rh  Rh25  1  0.393958  0.214296  0.502111  1
  Rh  Rh26  1  0.901188  0.198297  0.499281  1
  Rh  Rh27  1  0.108869  0.785244  0.502741  1
  Rh  Rh28  1  0.598162  0.802279  0.499317  1
  Rh  Rh29  1  0.394902  0.500095  0.791281  1
