# generated using pymatgen
data_KRb13(PaAs4)2
_symmetry_space_group_name_H-M   'P 1'
_cell_length_a   8.87047317
_cell_length_b   9.85991088
_cell_length_c   10.97384162
_cell_angle_alpha   89.90987656
_cell_angle_beta   90.32478990
_cell_angle_gamma   90.07032323
_symmetry_Int_Tables_number   1
_chemical_formula_structural   KRb13(PaAs4)2
_chemical_formula_sum   'K1 Rb13 Pa2 As8'
_cell_volume   959.77763716
_cell_formula_units_Z   1
loop_
 _symmetry_equiv_pos_site_id
 _symmetry_equiv_pos_as_xyz
  1  'x, y, z'
loop_
 _atom_site_type_symbol
 _atom_site_label
 _atom_site_symmetry_multiplicity
 _atom_site_fract_x
 _atom_site_fract_y
 _atom_site_fract_z
 _atom_site_occupancy
  K  K0  1  0.711527  0.829641  0.721880  1
  Rb  Rb1  1  0.876505  0.034221  0.997951  1
  Rb  Rb2  1  0.397168  0.905092  0.998348  1
  Rb  Rb3  1  0.379652  0.964816  0.500978  1
  Rb  Rb4  1  0.876780  0.459399  0.290330  1
  Rb  Rb5  1  0.897491  0.093328  0.501690  1
  Rb  Rb6  1  0.654155  0.335954  0.999204  1
  Rb  Rb7  1  0.153084  0.665039  0.500221  1
  Rb  Rb8  1  0.206367  0.165615  0.217719  1
  Rb  Rb9  1  0.375719  0.540643  0.210179  1
  Rb  Rb10  1  0.376133  0.542334  0.790052  1
  Rb  Rb11  1  0.875760  0.460536  0.709725  1
  Rb  Rb12  1  0.706841  0.833999  0.282622  1
  Rb  Rb13  1  0.206579  0.165913  0.782116  1
  Pa  Pa14  1  0.000867  0.671874  0.998628  1
  Pa  Pa15  1  0.504394  0.329402  0.501336  1
  As  As16  1  0.690629  0.680722  0.995851  1
  As  As17  1  0.194745  0.321750  0.500039  1
  As  As18  1  0.077101  0.400598  0.999822  1
  As  As19  1  0.579462  0.601868  0.504803  1
  As  As20  1  0.096564  0.811896  0.205515  1
  As  As21  1  0.596014  0.190010  0.294191  1
  As  As22  1  0.598082  0.182055  0.705384  1
  As  As23  1  0.090588  0.813295  0.791416  1
