# generated using pymatgen
data_Ac2Tb(InRh)3
_symmetry_space_group_name_H-M   'P 1'
_cell_length_a   7.67478900
_cell_length_b   7.79986210
_cell_length_c   4.17243400
_cell_angle_alpha   90.00000000
_cell_angle_beta   90.00000000
_cell_angle_gamma   119.47096352
_symmetry_Int_Tables_number   1
_chemical_formula_structural   Ac2Tb(InRh)3
_chemical_formula_sum   'Ac2 Tb1 In3 Rh3'
_cell_volume   217.45233188
_cell_formula_units_Z   1
loop_
 _symmetry_equiv_pos_site_id
 _symmetry_equiv_pos_as_xyz
  1  'x, y, z'
loop_
 _atom_site_type_symbol
 _atom_site_label
 _atom_site_symmetry_multiplicity
 _atom_site_fract_x
 _atom_site_fract_y
 _atom_site_fract_z
 _atom_site_occupancy
  Ac  Ac0  1  0.998113  0.584574  0.500000  1
  Ac  Ac1  1  0.413538  0.415426  0.500000  1
  Tb  Tb2  1  0.592912  0.000000  0.500000  1
  In  In3  1  0.752346  0.768470  0.000000  1
  In  In4  1  0.983875  0.231530  0.000000  1
  In  In5  1  0.258511  0.000000  0.000000  1
  Rh  Rh6  1  0.340008  0.678072  0.000000  1
  Rh  Rh7  1  0.998760  0.000000  0.500000  1
  Rh  Rh8  1  0.661937  0.321928  0.000000  1
