# generated using pymatgen
data_La11Pr(CoGe2)4
_symmetry_space_group_name_H-M   'P 1'
_cell_length_a   4.32755000
_cell_length_b   11.71769218
_cell_length_c   12.21138379
_cell_angle_alpha   90.09692639
_cell_angle_beta   90.00000000
_cell_angle_gamma   90.00000000
_symmetry_Int_Tables_number   1
_chemical_formula_structural   La11Pr(CoGe2)4
_chemical_formula_sum   'La11 Pr1 Co4 Ge8'
_cell_volume   619.22493892
_cell_formula_units_Z   1
loop_
 _symmetry_equiv_pos_site_id
 _symmetry_equiv_pos_as_xyz
  1  'x, y, z'
loop_
 _atom_site_type_symbol
 _atom_site_label
 _atom_site_symmetry_multiplicity
 _atom_site_fract_x
 _atom_site_fract_y
 _atom_site_fract_z
 _atom_site_occupancy
  La  La0  1  0.250000  0.370741  0.054835  1
  La  La1  1  0.750000  0.628382  0.944425  1
  La  La2  1  0.750000  0.872627  0.445007  1
  La  La3  1  0.250000  0.128622  0.556602  1
  La  La4  1  0.250000  0.700949  0.224320  1
  La  La5  1  0.750000  0.297999  0.774974  1
  La  La6  1  0.750000  0.200580  0.275256  1
  La  La7  1  0.250000  0.800137  0.724306  1
  La  La8  1  0.250000  0.445465  0.382614  1
  La  La9  1  0.750000  0.554382  0.618132  1
  La  La10  1  0.750000  0.945103  0.116874  1
  Pr  Pr11  1  0.250000  0.054186  0.883198  1
  Co  Co12  1  0.250000  0.135735  0.130737  1
  Co  Co13  1  0.750000  0.862549  0.869419  1
  Co  Co14  1  0.750000  0.636982  0.368997  1
  Co  Co15  1  0.250000  0.364144  0.630294  1
  Ge  Ge16  1  0.250000  0.686056  0.475873  1
  Ge  Ge17  1  0.750000  0.314544  0.523182  1
  Ge  Ge18  1  0.750000  0.184923  0.022847  1
  Ge  Ge19  1  0.250000  0.815797  0.975094  1
  Ge  Ge20  1  0.250000  0.004905  0.300636  1
  Ge  Ge21  1  0.750000  0.996879  0.701893  1
  Ge  Ge22  1  0.750000  0.504779  0.199493  1
  Ge  Ge23  1  0.250000  0.493533  0.800991  1
