# generated using pymatgen
data_Ce3PuB24
_symmetry_space_group_name_H-M   'P 1'
_cell_length_a   4.10501800
_cell_length_b   4.10501800
_cell_length_c   16.42200900
_cell_angle_alpha   90.00000000
_cell_angle_beta   90.00000000
_cell_angle_gamma   90.00000000
_symmetry_Int_Tables_number   1
_chemical_formula_structural   Ce3PuB24
_chemical_formula_sum   'Ce3 Pu1 B24'
_cell_volume   276.73011106
_cell_formula_units_Z   1
loop_
 _symmetry_equiv_pos_site_id
 _symmetry_equiv_pos_as_xyz
  1  'x, y, z'
loop_
 _atom_site_type_symbol
 _atom_site_label
 _atom_site_symmetry_multiplicity
 _atom_site_fract_x
 _atom_site_fract_y
 _atom_site_fract_z
 _atom_site_occupancy
  Ce  Ce0  1  0.000000  0.000000  0.251059  1
  Ce  Ce1  1  0.000000  0.000000  0.500000  1
  Ce  Ce2  1  0.000000  0.000000  0.748941  1
  Pu  Pu3  1  0.000000  0.000000  0.000000  1
  B  B4  1  0.500000  0.500000  0.200251  1
  B  B5  1  0.500000  0.500000  0.450441  1
  B  B6  1  0.500000  0.500000  0.700406  1
  B  B7  1  0.500000  0.500000  0.950534  1
  B  B8  1  0.500000  0.198405  0.124972  1
  B  B9  1  0.500000  0.198275  0.375036  1
  B  B10  1  0.500000  0.198275  0.624964  1
  B  B11  1  0.500000  0.198405  0.875028  1
  B  B12  1  0.198405  0.500000  0.124972  1
  B  B13  1  0.198275  0.500000  0.375036  1
  B  B14  1  0.198275  0.500000  0.624964  1
  B  B15  1  0.198405  0.500000  0.875028  1
  B  B16  1  0.500000  0.500000  0.049466  1
  B  B17  1  0.500000  0.500000  0.299594  1
  B  B18  1  0.500000  0.500000  0.549559  1
  B  B19  1  0.500000  0.500000  0.799749  1
  B  B20  1  0.500000  0.801595  0.124972  1
  B  B21  1  0.500000  0.801725  0.375036  1
  B  B22  1  0.500000  0.801725  0.624964  1
  B  B23  1  0.500000  0.801595  0.875028  1
  B  B24  1  0.801595  0.500000  0.124972  1
  B  B25  1  0.801725  0.500000  0.375036  1
  B  B26  1  0.801725  0.500000  0.624964  1
  B  B27  1  0.801595  0.500000  0.875028  1
