# generated using pymatgen
data_Li3Dy3GaSiAs
_symmetry_space_group_name_H-M   'P 1'
_cell_length_a   7.06761700
_cell_length_b   7.06761637
_cell_length_c   4.21170800
_cell_angle_alpha   90.00000000
_cell_angle_beta   90.00000000
_cell_angle_gamma   119.99998893
_symmetry_Int_Tables_number   1
_chemical_formula_structural   Li3Dy3GaSiAs
_chemical_formula_sum   'Li3 Dy3 Ga1 Si1 As1'
_cell_volume   182.19435137
_cell_formula_units_Z   1
loop_
 _symmetry_equiv_pos_site_id
 _symmetry_equiv_pos_as_xyz
  1  'x, y, z'
loop_
 _atom_site_type_symbol
 _atom_site_label
 _atom_site_symmetry_multiplicity
 _atom_site_fract_x
 _atom_site_fract_y
 _atom_site_fract_z
 _atom_site_occupancy
  Li  Li0  1  0.757656  0.756905  0.500000  1
  Li  Li1  1  0.243095  0.000751  0.500000  1
  Li  Li2  1  0.999249  0.242344  0.500000  1
  Dy  Dy3  1  0.422494  0.429101  0.000000  1
  Dy  Dy4  1  0.570899  0.993393  0.000000  1
  Dy  Dy5  1  0.006607  0.577506  0.000000  1
  Ga  Ga6  1  0.000000  0.000000  0.000000  1
  Si  Si7  1  0.333333  0.666667  0.500000  1
  As  As8  1  0.666667  0.333333  0.500000  1
