# generated using pymatgen
data_Ho3CdHg4
_symmetry_space_group_name_H-M   'P 1'
_cell_length_a   6.36693005
_cell_length_b   6.36692987
_cell_length_c   10.20648500
_cell_angle_alpha   90.00000000
_cell_angle_beta   90.00000000
_cell_angle_gamma   107.33650315
_symmetry_Int_Tables_number   1
_chemical_formula_structural   Ho3CdHg4
_chemical_formula_sum   'Ho6 Cd2 Hg8'
_cell_volume   394.95230233
_cell_formula_units_Z   2
loop_
 _symmetry_equiv_pos_site_id
 _symmetry_equiv_pos_as_xyz
  1  'x, y, z'
loop_
 _atom_site_type_symbol
 _atom_site_label
 _atom_site_symmetry_multiplicity
 _atom_site_fract_x
 _atom_site_fract_y
 _atom_site_fract_z
 _atom_site_occupancy
  Ho  Ho0  1  0.554972  0.554972  0.250000  1
  Ho  Ho1  1  0.445028  0.445028  0.750000  1
  Ho  Ho2  1  0.219166  0.780834  0.500000  1
  Ho  Ho3  1  0.219166  0.780834  0.000000  1
  Ho  Ho4  1  0.780834  0.219166  0.500000  1
  Ho  Ho5  1  0.780834  0.219166  0.000000  1
  Cd  Cd6  1  0.985272  0.985272  0.250000  1
  Cd  Cd7  1  0.014728  0.014728  0.750000  1
  Hg  Hg8  1  0.284049  0.284049  0.023733  1
  Hg  Hg9  1  0.715951  0.715951  0.976267  1
  Hg  Hg10  1  0.284049  0.284049  0.476267  1
  Hg  Hg11  1  0.715951  0.715951  0.523733  1
  Hg  Hg12  1  0.485064  0.031181  0.250000  1
  Hg  Hg13  1  0.968819  0.514936  0.750000  1
  Hg  Hg14  1  0.514936  0.968819  0.750000  1
  Hg  Hg15  1  0.031181  0.485064  0.250000  1
