# generated using pymatgen
data_Sc7(AlOs)4
_symmetry_space_group_name_H-M   'P 1'
_cell_length_a   9.16288682
_cell_length_b   9.16288693
_cell_length_c   9.16288700
_cell_angle_alpha   60.00000336
_cell_angle_beta   60.00000298
_cell_angle_gamma   60.00000028
_symmetry_Int_Tables_number   1
_chemical_formula_structural   Sc7(AlOs)4
_chemical_formula_sum   'Sc14 Al8 Os8'
_cell_volume   543.97883731
_cell_formula_units_Z   2
loop_
 _symmetry_equiv_pos_site_id
 _symmetry_equiv_pos_as_xyz
  1  'x, y, z'
loop_
 _atom_site_type_symbol
 _atom_site_label
 _atom_site_symmetry_multiplicity
 _atom_site_fract_x
 _atom_site_fract_y
 _atom_site_fract_z
 _atom_site_occupancy
  Sc  Sc0  1  0.197755  0.802245  0.197755  1
  Sc  Sc1  1  0.197755  0.802245  0.802245  1
  Sc  Sc2  1  0.802245  0.197755  0.197755  1
  Sc  Sc3  1  0.802245  0.802245  0.197755  1
  Sc  Sc4  1  0.197755  0.197755  0.802245  1
  Sc  Sc5  1  0.802245  0.197755  0.802245  1
  Sc  Sc6  1  0.375649  0.375649  0.375649  1
  Sc  Sc7  1  0.126949  0.624351  0.624351  1
  Sc  Sc8  1  0.624351  0.126949  0.624351  1
  Sc  Sc9  1  0.624351  0.624351  0.126949  1
  Sc  Sc10  1  0.375649  0.873051  0.375649  1
  Sc  Sc11  1  0.375649  0.375649  0.873051  1
  Sc  Sc12  1  0.873051  0.375649  0.375649  1
  Sc  Sc13  1  0.624351  0.624351  0.624351  1
  Al  Al14  1  0.836912  0.836912  0.836912  1
  Al  Al15  1  0.510734  0.163088  0.163088  1
  Al  Al16  1  0.163088  0.163088  0.510734  1
  Al  Al17  1  0.163088  0.510734  0.163088  1
  Al  Al18  1  0.836912  0.836912  0.489266  1
  Al  Al19  1  0.836912  0.489266  0.836912  1
  Al  Al20  1  0.489266  0.836912  0.836912  1
  Al  Al21  1  0.163088  0.163088  0.163088  1
  Os  Os22  1  0.500000  0.500000  0.000000  1
  Os  Os23  1  0.000000  0.000000  0.500000  1
  Os  Os24  1  0.500000  0.000000  0.500000  1
  Os  Os25  1  0.000000  0.500000  0.500000  1
  Os  Os26  1  0.500000  0.000000  0.000000  1
  Os  Os27  1  0.000000  0.500000  0.000000  1
  Os  Os28  1  0.500000  0.500000  0.500000  1
  Os  Os29  1  0.000000  0.000000  0.000000  1
