# generated using pymatgen
data_Zr4TcOs7
_symmetry_space_group_name_H-M   'P 1'
_cell_length_a   5.22771787
_cell_length_b   5.22771823
_cell_length_c   8.63290300
_cell_angle_alpha   90.00000000
_cell_angle_beta   90.00000000
_cell_angle_gamma   119.57551240
_symmetry_Int_Tables_number   1
_chemical_formula_structural   Zr4TcOs7
_chemical_formula_sum   'Zr4 Tc1 Os7'
_cell_volume   205.18878418
_cell_formula_units_Z   1
loop_
 _symmetry_equiv_pos_site_id
 _symmetry_equiv_pos_as_xyz
  1  'x, y, z'
loop_
 _atom_site_type_symbol
 _atom_site_label
 _atom_site_symmetry_multiplicity
 _atom_site_fract_x
 _atom_site_fract_y
 _atom_site_fract_z
 _atom_site_occupancy
  Zr  Zr0  1  0.333000  0.667000  0.435069  1
  Zr  Zr1  1  0.666978  0.333022  0.566672  1
  Zr  Zr2  1  0.666978  0.333022  0.933328  1
  Zr  Zr3  1  0.333000  0.667000  0.064931  1
  Tc  Tc4  1  0.827897  0.172103  0.250000  1
  Os  Os5  1  0.999590  0.000410  0.500877  1
  Os  Os6  1  0.999590  0.000410  0.999123  1
  Os  Os7  1  0.827837  0.655209  0.250000  1
  Os  Os8  1  0.344791  0.172163  0.250000  1
  Os  Os9  1  0.172238  0.827762  0.750000  1
  Os  Os10  1  0.172649  0.344549  0.750000  1
  Os  Os11  1  0.655451  0.827351  0.750000  1
