# generated using pymatgen
data_NaCe2MoF11
_symmetry_space_group_name_H-M   'P 1'
_cell_length_a   6.06874319
_cell_length_b   6.06874360
_cell_length_c   8.57595400
_cell_angle_alpha   68.82438039
_cell_angle_beta   68.82437892
_cell_angle_gamma   72.53782587
_symmetry_Int_Tables_number   1
_chemical_formula_structural   NaCe2MoF11
_chemical_formula_sum   'Na1 Ce2 Mo1 F11'
_cell_volume   269.36125271
_cell_formula_units_Z   1
loop_
 _symmetry_equiv_pos_site_id
 _symmetry_equiv_pos_as_xyz
  1  'x, y, z'
loop_
 _atom_site_type_symbol
 _atom_site_label
 _atom_site_symmetry_multiplicity
 _atom_site_fract_x
 _atom_site_fract_y
 _atom_site_fract_z
 _atom_site_occupancy
  Na  Na0  1  0.000000  0.000000  0.000000  1
  Ce  Ce1  1  0.500173  0.500173  0.768459  1
  Ce  Ce2  1  0.499827  0.499827  0.231541  1
  Mo  Mo3  1  0.000000  0.000000  0.500000  1
  F  F4  1  0.207832  0.825096  0.677477  1
  F  F5  1  0.174904  0.792168  0.322523  1
  F  F6  1  0.792168  0.174904  0.322523  1
  F  F7  1  0.825096  0.207832  0.677477  1
  F  F8  1  0.500000  0.500000  0.500000  1
  F  F9  1  0.678934  0.321066  0.000000  1
  F  F10  1  0.321066  0.678934  0.000000  1
  F  F11  1  0.238863  0.238863  0.355389  1
  F  F12  1  0.761137  0.761137  0.644611  1
  F  F13  1  0.258131  0.258131  0.892346  1
  F  F14  1  0.741869  0.741869  0.107654  1
