# generated using pymatgen
data_Tm8Re(B8Ir)3
_symmetry_space_group_name_H-M   'P 1'
_cell_length_a   3.62475900
_cell_length_b   9.10800767
_cell_length_c   11.43768956
_cell_angle_alpha   90.13945252
_cell_angle_beta   90.00000000
_cell_angle_gamma   90.00000000
_symmetry_Int_Tables_number   1
_chemical_formula_structural   Tm8Re(B8Ir)3
_chemical_formula_sum   'Tm8 Re1 B24 Ir3'
_cell_volume   377.60657096
_cell_formula_units_Z   1
loop_
 _symmetry_equiv_pos_site_id
 _symmetry_equiv_pos_as_xyz
  1  'x, y, z'
loop_
 _atom_site_type_symbol
 _atom_site_label
 _atom_site_symmetry_multiplicity
 _atom_site_fract_x
 _atom_site_fract_y
 _atom_site_fract_z
 _atom_site_occupancy
  Tm  Tm0  1  0.000000  0.319960  0.413993  1
  Tm  Tm1  1  0.000000  0.684022  0.590478  1
  Tm  Tm2  1  0.000000  0.819922  0.082326  1
  Tm  Tm3  1  0.000000  0.176266  0.912312  1
  Tm  Tm4  1  0.000000  0.943771  0.373311  1
  Tm  Tm5  1  0.000000  0.053648  0.626321  1
  Tm  Tm6  1  0.000000  0.443577  0.126074  1
  Tm  Tm7  1  0.000000  0.557272  0.874844  1
  Re  Re8  1  0.000000  0.862446  0.821347  1
  B  B9  1  0.500000  0.553477  0.434668  1
  B  B10  1  0.500000  0.447716  0.566194  1
  B  B11  1  0.500000  0.053543  0.065992  1
  B  B12  1  0.500000  0.946962  0.933761  1
  B  B13  1  0.500000  0.750648  0.420678  1
  B  B14  1  0.500000  0.250016  0.578945  1
  B  B15  1  0.500000  0.249505  0.078766  1
  B  B16  1  0.500000  0.751394  0.920106  1
  B  B17  1  0.500000  0.792759  0.264417  1
  B  B18  1  0.500000  0.207317  0.733944  1
  B  B19  1  0.500000  0.293444  0.235604  1
  B  B20  1  0.500000  0.707522  0.765644  1
  B  B21  1  0.500000  0.631164  0.183977  1
  B  B22  1  0.500000  0.368229  0.816190  1
  B  B23  1  0.500000  0.132088  0.316101  1
  B  B24  1  0.500000  0.868973  0.684913  1
  B  B25  1  0.500000  0.981222  0.212810  1
  B  B26  1  0.500000  0.017980  0.786663  1
  B  B27  1  0.500000  0.480710  0.287499  1
  B  B28  1  0.500000  0.518557  0.713989  1
  B  B29  1  0.500000  0.607255  0.030682  1
  B  B30  1  0.500000  0.390225  0.970497  1
  B  B31  1  0.500000  0.108687  0.469650  1
  B  B32  1  0.500000  0.892132  0.528474  1
  Ir  Ir33  1  0.000000  0.637313  0.322411  1
  Ir  Ir34  1  0.000000  0.362599  0.677920  1
  Ir  Ir35  1  0.000000  0.137680  0.178495  1
