# generated using pymatgen
data_CeTh3(Al3Ir)6
_symmetry_space_group_name_H-M   'P 1'
_cell_length_a   7.65804358
_cell_length_b   7.66203395
_cell_length_c   9.49812300
_cell_angle_alpha   90.00000000
_cell_angle_beta   90.00000000
_cell_angle_gamma   119.59761699
_symmetry_Int_Tables_number   1
_chemical_formula_structural   CeTh3(Al3Ir)6
_chemical_formula_sum   'Ce1 Th3 Al18 Ir6'
_cell_volume   484.59285782
_cell_formula_units_Z   1
loop_
 _symmetry_equiv_pos_site_id
 _symmetry_equiv_pos_as_xyz
  1  'x, y, z'
loop_
 _atom_site_type_symbol
 _atom_site_label
 _atom_site_symmetry_multiplicity
 _atom_site_fract_x
 _atom_site_fract_y
 _atom_site_fract_z
 _atom_site_occupancy
  Ce  Ce0  1  0.329823  0.004018  0.750000  1
  Th  Th1  1  0.995373  0.670474  0.250000  1
  Th  Th2  1  0.004563  0.330112  0.750000  1
  Th  Th3  1  0.669702  0.994946  0.250000  1
  Al  Al4  1  0.132959  0.132012  0.250000  1
  Al  Al5  1  0.869954  0.868872  0.750000  1
  Al  Al6  1  0.005232  0.335167  0.074327  1
  Al  Al7  1  0.997753  0.667586  0.924401  1
  Al  Al8  1  0.997753  0.667586  0.575599  1
  Al  Al9  1  0.334886  0.004754  0.429418  1
  Al  Al10  1  0.005232  0.335167  0.425673  1
  Al  Al11  1  0.662415  0.995414  0.575662  1
  Al  Al12  1  0.662415  0.995414  0.924338  1
  Al  Al13  1  0.334886  0.004754  0.070582  1
  Al  Al14  1  0.336456  0.334483  0.551234  1
  Al  Al15  1  0.663194  0.663268  0.451547  1
  Al  Al16  1  0.663194  0.663268  0.048453  1
  Al  Al17  1  0.336456  0.334483  0.948766  1
  Al  Al18  1  0.340841  0.544547  0.250000  1
  Al  Al19  1  0.657647  0.452132  0.750000  1
  Al  Al20  1  0.544649  0.339966  0.250000  1
  Al  Al21  1  0.454756  0.660825  0.750000  1
  Ir  Ir22  1  0.673893  0.328526  0.000429  1
  Ir  Ir23  1  0.327324  0.671766  0.000282  1
  Ir  Ir24  1  0.327324  0.671766  0.499718  1
  Ir  Ir25  1  0.673893  0.328526  0.499571  1
  Ir  Ir26  1  0.998713  0.000083  0.000522  1
  Ir  Ir27  1  0.998713  0.000083  0.499478  1
