# generated using pymatgen
data_Lu5Mo2C7
_symmetry_space_group_name_H-M   'P 1'
_cell_length_a   8.23859445
_cell_length_b   8.23859432
_cell_length_c   3.36381100
_cell_angle_alpha   90.00000000
_cell_angle_beta   90.00000000
_cell_angle_gamma   121.61415464
_symmetry_Int_Tables_number   1
_chemical_formula_structural   Lu5Mo2C7
_chemical_formula_sum   'Lu5 Mo2 C7'
_cell_volume   194.43398933
_cell_formula_units_Z   1
loop_
 _symmetry_equiv_pos_site_id
 _symmetry_equiv_pos_as_xyz
  1  'x, y, z'
loop_
 _atom_site_type_symbol
 _atom_site_label
 _atom_site_symmetry_multiplicity
 _atom_site_fract_x
 _atom_site_fract_y
 _atom_site_fract_z
 _atom_site_occupancy
  Lu  Lu0  1  0.335981  0.077803  0.500000  1
  Lu  Lu1  1  0.664019  0.922197  0.500000  1
  Lu  Lu2  1  0.077803  0.335981  0.500000  1
  Lu  Lu3  1  0.922197  0.664019  0.500000  1
  Lu  Lu4  1  0.500000  0.500000  0.000000  1
  Mo  Mo5  1  0.287183  0.712817  0.000000  1
  Mo  Mo6  1  0.712817  0.287183  0.000000  1
  C  C7  1  0.168579  0.168579  0.000000  1
  C  C8  1  0.831421  0.831421  0.000000  1
  C  C9  1  0.000000  0.000000  0.000000  1
  C  C10  1  0.378725  0.621275  0.500000  1
  C  C11  1  0.621275  0.378725  0.500000  1
  C  C12  1  0.500000  0.000000  0.000000  1
  C  C13  1  0.000000  0.500000  0.000000  1
