# generated using pymatgen
data_La4Cu3As8Au
_symmetry_space_group_name_H-M   'P 1'
_cell_length_a   4.06028400
_cell_length_b   4.11229101
_cell_length_c   20.77414837
_cell_angle_alpha   89.98614164
_cell_angle_beta   89.99660268
_cell_angle_gamma   90.00238438
_symmetry_Int_Tables_number   1
_chemical_formula_structural   La4Cu3As8Au
_chemical_formula_sum   'La4 Cu3 As8 Au1'
_cell_volume   346.86738583
_cell_formula_units_Z   1
loop_
 _symmetry_equiv_pos_site_id
 _symmetry_equiv_pos_as_xyz
  1  'x, y, z'
loop_
 _atom_site_type_symbol
 _atom_site_label
 _atom_site_symmetry_multiplicity
 _atom_site_fract_x
 _atom_site_fract_y
 _atom_site_fract_z
 _atom_site_occupancy
  La  La0  1  0.250009  0.775861  0.624635  1
  La  La1  1  0.749770  0.223257  0.381752  1
  La  La2  1  0.750263  0.275037  0.874863  1
  La  La3  1  0.250139  0.724579  0.118759  1
  Cu  Cu4  1  0.750732  0.722158  0.250906  1
  Cu  Cu5  1  0.748826  0.778460  0.750167  1
  Cu  Cu6  1  0.250957  0.275710  0.749427  1
  As  As7  1  0.249684  0.775543  0.822022  1
  As  As8  1  0.749360  0.224581  0.168178  1
  As  As9  1  0.750356  0.278675  0.677845  1
  As  As10  1  0.250147  0.722042  0.331515  1
  As  As11  1  0.249973  0.305453  0.506096  1
  As  As12  1  0.250161  0.196377  0.999796  1
  As  As13  1  0.750104  0.804134  0.994032  1
  As  As14  1  0.750135  0.695981  0.500068  1
  Au  Au15  1  0.249380  0.222154  0.249938  1
