# generated using pymatgen
data_Gd3Er(BeSi3)2
_symmetry_space_group_name_H-M   'P 1'
_cell_length_a   7.86919300
_cell_length_b   7.86919544
_cell_length_c   8.16366000
_cell_angle_alpha   90.00000000
_cell_angle_beta   90.00000000
_cell_angle_gamma   120.00000234
_symmetry_Int_Tables_number   1
_chemical_formula_structural   Gd3Er(BeSi3)2
_chemical_formula_sum   'Gd6 Er2 Be4 Si12'
_cell_volume   437.80030431
_cell_formula_units_Z   2
loop_
 _symmetry_equiv_pos_site_id
 _symmetry_equiv_pos_as_xyz
  1  'x, y, z'
loop_
 _atom_site_type_symbol
 _atom_site_label
 _atom_site_symmetry_multiplicity
 _atom_site_fract_x
 _atom_site_fract_y
 _atom_site_fract_z
 _atom_site_occupancy
  Gd  Gd0  1  0.999817  0.499910  0.250000  1
  Gd  Gd1  1  0.500090  0.499910  0.250000  1
  Gd  Gd2  1  0.499910  0.999817  0.750000  1
  Gd  Gd3  1  0.000183  0.500090  0.750000  1
  Gd  Gd4  1  0.499910  0.500090  0.750000  1
  Gd  Gd5  1  0.500090  0.000183  0.250000  1
  Er  Er6  1  0.000000  0.000000  0.750000  1
  Er  Er7  1  0.000000  0.000000  0.250000  1
  Be  Be8  1  0.333333  0.666667  0.003459  1
  Be  Be9  1  0.666667  0.333333  0.996541  1
  Be  Be10  1  0.666667  0.333333  0.503459  1
  Be  Be11  1  0.333333  0.666667  0.496541  1
  Si  Si12  1  0.172095  0.827905  0.499711  1
  Si  Si13  1  0.172095  0.344189  0.499711  1
  Si  Si14  1  0.655811  0.827905  0.499711  1
  Si  Si15  1  0.344189  0.172095  0.999711  1
  Si  Si16  1  0.827905  0.655811  0.500289  1
  Si  Si17  1  0.827905  0.172095  0.999711  1
  Si  Si18  1  0.827905  0.655811  0.999711  1
  Si  Si19  1  0.172095  0.344189  0.000289  1
  Si  Si20  1  0.655811  0.827905  0.000289  1
  Si  Si21  1  0.344189  0.172095  0.500289  1
  Si  Si22  1  0.827905  0.172095  0.500289  1
  Si  Si23  1  0.172095  0.827905  0.000289  1
