# generated using pymatgen
data_Er12CuNi4Sn
_symmetry_space_group_name_H-M   'P 1'
_cell_length_a   8.25164536
_cell_length_b   8.25164477
_cell_length_c   8.25164596
_cell_angle_alpha   112.01920877
_cell_angle_beta   109.62815539
_cell_angle_gamma   106.80815555
_symmetry_Int_Tables_number   1
_chemical_formula_structural   Er12CuNi4Sn
_chemical_formula_sum   'Er12 Cu1 Ni4 Sn1'
_cell_volume   431.61928383
_cell_formula_units_Z   1
loop_
 _symmetry_equiv_pos_site_id
 _symmetry_equiv_pos_as_xyz
  1  'x, y, z'
loop_
 _atom_site_type_symbol
 _atom_site_label
 _atom_site_symmetry_multiplicity
 _atom_site_fract_x
 _atom_site_fract_y
 _atom_site_fract_z
 _atom_site_occupancy
  Er  Er0  1  0.324011  0.131877  0.807866  1
  Er  Er1  1  0.675989  0.483856  0.807866  1
  Er  Er2  1  0.417689  0.723806  0.693883  1
  Er  Er3  1  0.582311  0.276194  0.306117  1
  Er  Er4  1  0.970077  0.276194  0.693883  1
  Er  Er5  1  0.029923  0.723806  0.306117  1
  Er  Er6  1  0.324011  0.516144  0.192134  1
  Er  Er7  1  0.675989  0.868123  0.192134  1
  Er  Er8  1  0.179273  0.788068  0.967342  1
  Er  Er9  1  0.820727  0.788068  0.608795  1
  Er  Er10  1  0.179273  0.211932  0.391205  1
  Er  Er11  1  0.820727  0.211932  0.032658  1
  Cu  Cu12  1  0.000000  0.500000  0.500000  1
  Ni  Ni13  1  0.875444  0.875444  0.000000  1
  Ni  Ni14  1  0.124556  0.124556  0.000000  1
  Ni  Ni15  1  0.646596  0.500000  0.146596  1
  Ni  Ni16  1  0.353404  0.500000  0.853404  1
  Sn  Sn17  1  0.500000  0.000000  0.500000  1
