# generated using pymatgen
data_TcCl5
_symmetry_space_group_name_H-M   'P 1'
_cell_length_a   12.92796342
_cell_length_b   12.92796375
_cell_length_c   6.50443018
_cell_angle_alpha   85.58557176
_cell_angle_beta   85.58556844
_cell_angle_gamma   88.63773693
_symmetry_Int_Tables_number   1
_chemical_formula_structural   TcCl5
_chemical_formula_sum   'Tc6 Cl30'
_cell_volume   1080.48536588
_cell_formula_units_Z   6
loop_
 _symmetry_equiv_pos_site_id
 _symmetry_equiv_pos_as_xyz
  1  'x, y, z'
loop_
 _atom_site_type_symbol
 _atom_site_label
 _atom_site_symmetry_multiplicity
 _atom_site_fract_x
 _atom_site_fract_y
 _atom_site_fract_z
 _atom_site_occupancy
  Tc  Tc0  1  0.771454  0.562509  0.433636  1
  Tc  Tc1  1  0.437491  0.228546  0.566364  1
  Tc  Tc2  1  0.228546  0.437491  0.566364  1
  Tc  Tc3  1  0.562509  0.771454  0.433636  1
  Tc  Tc4  1  0.104536  0.895464  0.000000  1
  Tc  Tc5  1  0.895464  0.104536  0.000000  1
  Cl  Cl6  1  0.682836  0.496976  0.184337  1
  Cl  Cl7  1  0.503024  0.317164  0.815663  1
  Cl  Cl8  1  0.317164  0.503024  0.815663  1
  Cl  Cl9  1  0.496976  0.682836  0.184337  1
  Cl  Cl10  1  0.781635  0.408372  0.618974  1
  Cl  Cl11  1  0.591628  0.218365  0.381026  1
  Cl  Cl12  1  0.927431  0.927431  0.871727  1
  Cl  Cl13  1  0.072569  0.072569  0.128273  1
  Cl  Cl14  1  0.738978  0.113103  0.867720  1
  Cl  Cl15  1  0.886897  0.261022  0.132280  1
  Cl  Cl16  1  0.261022  0.886897  0.132280  1
  Cl  Cl17  1  0.113103  0.738978  0.867720  1
  Cl  Cl18  1  0.835218  0.019498  0.302870  1
  Cl  Cl19  1  0.980502  0.164782  0.697130  1
  Cl  Cl20  1  0.164782  0.980502  0.697130  1
  Cl  Cl21  1  0.019498  0.835218  0.302870  1
  Cl  Cl22  1  0.735934  0.735934  0.252772  1
  Cl  Cl23  1  0.264066  0.264066  0.747228  1
  Cl  Cl24  1  0.552464  0.926042  0.248167  1
  Cl  Cl25  1  0.073958  0.447536  0.751833  1
  Cl  Cl26  1  0.447536  0.073958  0.751833  1
  Cl  Cl27  1  0.926042  0.552464  0.248167  1
  Cl  Cl28  1  0.652484  0.837720  0.680076  1
  Cl  Cl29  1  0.162280  0.347516  0.319924  1
  Cl  Cl30  1  0.347516  0.162280  0.319924  1
  Cl  Cl31  1  0.837720  0.652484  0.680076  1
  Cl  Cl32  1  0.597610  0.597610  0.612704  1
  Cl  Cl33  1  0.402390  0.402390  0.387296  1
  Cl  Cl34  1  0.408372  0.781635  0.618974  1
  Cl  Cl35  1  0.218365  0.591628  0.381026  1
