# generated using pymatgen
data_Tb3Er2In4PdAu
_symmetry_space_group_name_H-M   'P 1'
_cell_length_a   3.65862000
_cell_length_b   8.17782069
_cell_length_c   18.31214898
_cell_angle_alpha   89.86116162
_cell_angle_beta   90.00000000
_cell_angle_gamma   90.00000000
_symmetry_Int_Tables_number   1
_chemical_formula_structural   Tb3Er2In4PdAu
_chemical_formula_sum   'Tb6 Er4 In8 Pd2 Au2'
_cell_volume   547.88943494
_cell_formula_units_Z   2
loop_
 _symmetry_equiv_pos_site_id
 _symmetry_equiv_pos_as_xyz
  1  'x, y, z'
loop_
 _atom_site_type_symbol
 _atom_site_label
 _atom_site_symmetry_multiplicity
 _atom_site_fract_x
 _atom_site_fract_y
 _atom_site_fract_z
 _atom_site_occupancy
  Tb  Tb0  1  0.000000  0.500000  0.500000  1
  Tb  Tb1  1  0.000000  0.000000  0.000000  1
  Tb  Tb2  1  0.000000  0.745650  0.285481  1
  Tb  Tb3  1  0.000000  0.254350  0.714519  1
  Tb  Tb4  1  0.000000  0.767186  0.780820  1
  Tb  Tb5  1  0.000000  0.232814  0.219180  1
  Er  Er6  1  0.000000  0.620553  0.080977  1
  Er  Er7  1  0.000000  0.379447  0.919023  1
  Er  Er8  1  0.000000  0.884116  0.583310  1
  Er  Er9  1  0.000000  0.115884  0.416690  1
  In  In10  1  0.500000  0.706919  0.933582  1
  In  In11  1  0.500000  0.293081  0.066418  1
  In  In12  1  0.500000  0.795047  0.435307  1
  In  In13  1  0.500000  0.204953  0.564693  1
  In  In14  1  0.500000  0.584011  0.647917  1
  In  In15  1  0.500000  0.415989  0.352083  1
  In  In16  1  0.500000  0.919542  0.149691  1
  In  In17  1  0.500000  0.080458  0.850309  1
  Pd  Pd18  1  0.500000  0.972743  0.695085  1
  Pd  Pd19  1  0.500000  0.027257  0.304915  1
  Au  Au20  1  0.500000  0.529567  0.196934  1
  Au  Au21  1  0.500000  0.470433  0.803066  1
