# generated using pymatgen
data_CaYbAl20NiOs3
_symmetry_space_group_name_H-M   'P 1'
_cell_length_a   6.87801313
_cell_length_b   6.86287096
_cell_length_c   9.11219634
_cell_angle_alpha   90.62223509
_cell_angle_beta   90.10492658
_cell_angle_gamma   96.73981820
_symmetry_Int_Tables_number   1
_chemical_formula_structural   CaYbAl20NiOs3
_chemical_formula_sum   'Ca1 Yb1 Al20 Ni1 Os3'
_cell_volume   427.12253256
_cell_formula_units_Z   1
loop_
 _symmetry_equiv_pos_site_id
 _symmetry_equiv_pos_as_xyz
  1  'x, y, z'
loop_
 _atom_site_type_symbol
 _atom_site_label
 _atom_site_symmetry_multiplicity
 _atom_site_fract_x
 _atom_site_fract_y
 _atom_site_fract_z
 _atom_site_occupancy
  Ca  Ca0  1  0.628324  0.376322  0.750401  1
  Yb  Yb1  1  0.371376  0.623781  0.249662  1
  Al  Al2  1  0.278894  0.020425  0.748846  1
  Al  Al3  1  0.020850  0.280761  0.247586  1
  Al  Al4  1  0.720774  0.979413  0.251098  1
  Al  Al5  1  0.979350  0.719511  0.752402  1
  Al  Al6  1  0.877691  0.122626  0.952438  1
  Al  Al7  1  0.122519  0.877279  0.048202  1
  Al  Al8  1  0.876523  0.123194  0.544923  1
  Al  Al9  1  0.123576  0.876717  0.454544  1
  Al  Al10  1  0.642660  0.916802  0.752667  1
  Al  Al11  1  0.913076  0.643380  0.250636  1
  Al  Al12  1  0.357106  0.082992  0.247244  1
  Al  Al13  1  0.087134  0.356880  0.749316  1
  Al  Al14  1  0.343477  0.659458  0.898309  1
  Al  Al15  1  0.656394  0.340750  0.102078  1
  Al  Al16  1  0.344881  0.656966  0.598691  1
  Al  Al17  1  0.654949  0.343213  0.400971  1
  Al  Al18  1  0.722900  0.726405  0.000513  1
  Al  Al19  1  0.722370  0.722297  0.502564  1
  Al  Al20  1  0.276965  0.273712  0.000024  1
  Al  Al21  1  0.277588  0.277714  0.496942  1
  Ni  Ni22  1  0.499808  0.999402  0.000251  1
  Os  Os23  1  0.000501  0.500211  0.000187  1
  Os  Os24  1  0.499821  0.999589  0.499771  1
  Os  Os25  1  0.000493  0.500200  0.499734  1
