# generated using pymatgen
data_Tb11Cd(SiAu)12
_symmetry_space_group_name_H-M   'P 1'
_cell_length_a   4.35509300
_cell_length_b   7.52489690
_cell_length_c   22.60499400
_cell_angle_alpha   89.97204841
_cell_angle_beta   90.00000000
_cell_angle_gamma   90.00000000
_symmetry_Int_Tables_number   1
_chemical_formula_structural   Tb11Cd(SiAu)12
_chemical_formula_sum   'Tb11 Cd1 Si12 Au12'
_cell_volume   740.80231631
_cell_formula_units_Z   1
loop_
 _symmetry_equiv_pos_site_id
 _symmetry_equiv_pos_as_xyz
  1  'x, y, z'
loop_
 _atom_site_type_symbol
 _atom_site_label
 _atom_site_symmetry_multiplicity
 _atom_site_fract_x
 _atom_site_fract_y
 _atom_site_fract_z
 _atom_site_occupancy
  Tb  Tb0  1  0.750000  0.255039  0.665240  1
  Tb  Tb1  1  0.750000  0.212240  0.171806  1
  Tb  Tb2  1  0.250000  0.756104  0.834661  1
  Tb  Tb3  1  0.250000  0.785872  0.169972  1
  Tb  Tb4  1  0.750000  0.247501  0.833280  1
  Tb  Tb5  1  0.750000  0.292688  0.331468  1
  Tb  Tb6  1  0.250000  0.745756  0.663741  1
  Tb  Tb7  1  0.250000  0.732879  0.002680  1
  Tb  Tb8  1  0.750000  0.269132  0.003874  1
  Tb  Tb9  1  0.750000  0.221010  0.494805  1
  Tb  Tb10  1  0.250000  0.776558  0.493803  1
  Cd  Cd11  1  0.250000  0.703482  0.332039  1
  Si  Si12  1  0.250000  0.089757  0.090143  1
  Si  Si13  1  0.750000  0.919185  0.932366  1
  Si  Si14  1  0.750000  0.580163  0.438047  1
  Si  Si15  1  0.250000  0.415701  0.584835  1
  Si  Si16  1  0.250000  0.084233  0.272315  1
  Si  Si17  1  0.750000  0.917181  0.752944  1
  Si  Si18  1  0.750000  0.584711  0.223673  1
  Si  Si19  1  0.250000  0.421087  0.743399  1
  Si  Si20  1  0.250000  0.081676  0.389956  1
  Si  Si21  1  0.750000  0.912274  0.584558  1
  Si  Si22  1  0.750000  0.590210  0.100382  1
  Si  Si23  1  0.250000  0.415302  0.920537  1
  Au  Au24  1  0.250000  0.420427  0.242049  1
  Au  Au25  1  0.750000  0.583756  0.754848  1
  Au  Au26  1  0.750000  0.907543  0.261058  1
  Au  Au27  1  0.250000  0.084647  0.749968  1
  Au  Au28  1  0.250000  0.414162  0.420296  1
  Au  Au29  1  0.750000  0.576568  0.567836  1
  Au  Au30  1  0.750000  0.919446  0.071040  1
  Au  Au31  1  0.250000  0.083111  0.916372  1
  Au  Au32  1  0.250000  0.422124  0.092147  1
  Au  Au33  1  0.750000  0.585725  0.912073  1
  Au  Au34  1  0.750000  0.907886  0.401445  1
  Au  Au35  1  0.250000  0.084861  0.580339  1
