# generated using pymatgen
data_Tm2Nb3Si7Pt9
_symmetry_space_group_name_H-M   'P 1'
_cell_length_a   9.88601700
_cell_length_b   9.88601687
_cell_length_c   4.00873600
_cell_angle_alpha   90.00000000
_cell_angle_beta   90.00000000
_cell_angle_gamma   119.99999710
_symmetry_Int_Tables_number   1
_chemical_formula_structural   Tm2Nb3Si7Pt9
_chemical_formula_sum   'Tm2 Nb3 Si7 Pt9'
_cell_volume   339.29761014
_cell_formula_units_Z   1
loop_
 _symmetry_equiv_pos_site_id
 _symmetry_equiv_pos_as_xyz
  1  'x, y, z'
loop_
 _atom_site_type_symbol
 _atom_site_label
 _atom_site_symmetry_multiplicity
 _atom_site_fract_x
 _atom_site_fract_y
 _atom_site_fract_z
 _atom_site_occupancy
  Tm  Tm0  1  0.000000  0.000000  0.000000  1
  Tm  Tm1  1  0.333333  0.666667  0.500000  1
  Nb  Nb2  1  0.883253  0.455883  0.500000  1
  Nb  Nb3  1  0.572631  0.116747  0.500000  1
  Nb  Nb4  1  0.544117  0.427369  0.500000  1
  Si  Si5  1  0.256530  0.210209  0.500000  1
  Si  Si6  1  0.789791  0.046323  0.500000  1
  Si  Si7  1  0.953677  0.743470  0.500000  1
  Si  Si8  1  0.553581  0.636243  0.000000  1
  Si  Si9  1  0.363757  0.917337  0.000000  1
  Si  Si10  1  0.082663  0.446419  0.000000  1
  Si  Si11  1  0.666667  0.333333  0.000000  1
  Pt  Pt12  1  0.221927  0.941778  0.500000  1
  Pt  Pt13  1  0.058222  0.280150  0.500000  1
  Pt  Pt14  1  0.719850  0.778073  0.500000  1
  Pt  Pt15  1  0.305752  0.410110  0.000000  1
  Pt  Pt16  1  0.589890  0.895641  0.000000  1
  Pt  Pt17  1  0.104359  0.694248  0.000000  1
  Pt  Pt18  1  0.385471  0.173369  0.000000  1
  Pt  Pt19  1  0.826631  0.212101  0.000000  1
  Pt  Pt20  1  0.787899  0.614529  0.000000  1
