# generated using pymatgen
data_Ac3Tl2InRhAu2
_symmetry_space_group_name_H-M   'P 1'
_cell_length_a   8.05501961
_cell_length_b   8.03906880
_cell_length_c   4.42476400
_cell_angle_alpha   90.00000000
_cell_angle_beta   90.00000000
_cell_angle_gamma   119.93452394
_symmetry_Int_Tables_number   1
_chemical_formula_structural   Ac3Tl2InRhAu2
_chemical_formula_sum   'Ac3 Tl2 In1 Rh1 Au2'
_cell_volume   248.30144817
_cell_formula_units_Z   1
loop_
 _symmetry_equiv_pos_site_id
 _symmetry_equiv_pos_as_xyz
  1  'x, y, z'
loop_
 _atom_site_type_symbol
 _atom_site_label
 _atom_site_symmetry_multiplicity
 _atom_site_fract_x
 _atom_site_fract_y
 _atom_site_fract_z
 _atom_site_occupancy
  Ac  Ac0  1  0.596577  0.997580  0.500000  1
  Ac  Ac1  1  0.403423  0.401003  0.500000  1
  Ac  Ac2  1  0.000000  0.597081  0.500000  1
  Tl  Tl3  1  0.238724  0.000350  0.000000  1
  Tl  Tl4  1  0.761276  0.761625  0.000000  1
  In  In5  1  0.000000  0.235962  0.000000  1
  Rh  Rh6  1  0.000000  0.017828  0.500000  1
  Au  Au7  1  0.325939  0.657256  0.000000  1
  Au  Au8  1  0.674061  0.331316  0.000000  1
