# generated using pymatgen
data_TbEr3Fe13Co
_symmetry_space_group_name_H-M   'P 1'
_cell_length_a   12.32882433
_cell_length_b   12.32882425
_cell_length_c   12.32882478
_cell_angle_alpha   23.73609943
_cell_angle_beta   23.73609967
_cell_angle_gamma   23.73610227
_symmetry_Int_Tables_number   1
_chemical_formula_structural   TbEr3Fe13Co
_chemical_formula_sum   'Tb1 Er3 Fe13 Co1'
_cell_volume   266.71311062
_cell_formula_units_Z   1
loop_
 _symmetry_equiv_pos_site_id
 _symmetry_equiv_pos_as_xyz
  1  'x, y, z'
loop_
 _atom_site_type_symbol
 _atom_site_label
 _atom_site_symmetry_multiplicity
 _atom_site_fract_x
 _atom_site_fract_y
 _atom_site_fract_z
 _atom_site_occupancy
  Tb  Tb0  1  0.947664  0.947664  0.947664  1
  Er  Er1  1  0.149629  0.149629  0.149629  1
  Er  Er2  1  0.052373  0.052373  0.052373  1
  Er  Er3  1  0.850302  0.850302  0.850302  1
  Fe  Fe4  1  0.612337  0.612337  0.612337  1
  Fe  Fe5  1  0.387611  0.387611  0.387611  1
  Fe  Fe6  1  0.107558  0.610076  0.610076  1
  Fe  Fe7  1  0.389788  0.389788  0.892101  1
  Fe  Fe8  1  0.610076  0.610076  0.107558  1
  Fe  Fe9  1  0.610076  0.107558  0.610076  1
  Fe  Fe10  1  0.389788  0.892101  0.389788  1
  Fe  Fe11  1  0.500260  0.000190  0.500260  1
  Fe  Fe12  1  0.720984  0.720984  0.720984  1
  Fe  Fe13  1  0.892101  0.389788  0.389788  1
  Fe  Fe14  1  0.000190  0.500260  0.500260  1
  Fe  Fe15  1  0.278960  0.278960  0.278960  1
  Fe  Fe16  1  0.500260  0.500260  0.000190  1
  Co  Co17  1  0.500040  0.500040  0.500040  1
