# generated using pymatgen
data_HoTm9Os4
_symmetry_space_group_name_H-M   'P 1'
_cell_length_a   6.27127258
_cell_length_b   7.30984086
_cell_length_c   8.30304989
_cell_angle_alpha   96.97558877
_cell_angle_beta   112.21113855
_cell_angle_gamma   90.06499514
_symmetry_Int_Tables_number   1
_chemical_formula_structural   HoTm9Os4
_chemical_formula_sum   'Ho1 Tm9 Os4'
_cell_volume   349.31772694
_cell_formula_units_Z   1
loop_
 _symmetry_equiv_pos_site_id
 _symmetry_equiv_pos_as_xyz
  1  'x, y, z'
loop_
 _atom_site_type_symbol
 _atom_site_label
 _atom_site_symmetry_multiplicity
 _atom_site_fract_x
 _atom_site_fract_y
 _atom_site_fract_z
 _atom_site_occupancy
  Ho  Ho0  1  0.792250  0.083518  0.816904  1
  Tm  Tm1  1  0.975698  0.416308  0.182923  1
  Tm  Tm2  1  0.207527  0.916112  0.183026  1
  Tm  Tm3  1  0.024655  0.583777  0.817367  1
  Tm  Tm4  1  0.203159  0.182654  0.563968  1
  Tm  Tm5  1  0.639674  0.317455  0.435863  1
  Tm  Tm6  1  0.796393  0.817137  0.435612  1
  Tm  Tm7  1  0.360176  0.682671  0.563962  1
  Tm  Tm8  1  0.420268  0.250024  0.000132  1
  Tm  Tm9  1  0.579680  0.749944  0.000155  1
  Os  Os10  1  0.602474  0.422564  0.780312  1
  Os  Os11  1  0.822486  0.078299  0.219798  1
  Os  Os12  1  0.397038  0.578051  0.219553  1
  Os  Os13  1  0.178521  0.921486  0.780422  1
