# generated using pymatgen
data_SrTb4Er2PtI12
_symmetry_space_group_name_H-M   'P 1'
_cell_length_a   9.83701484
_cell_length_b   9.84938080
_cell_length_c   9.83758885
_cell_angle_alpha   106.34568460
_cell_angle_beta   106.23133392
_cell_angle_gamma   106.23757844
_symmetry_Int_Tables_number   1
_chemical_formula_structural   SrTb4Er2PtI12
_chemical_formula_sum   'Sr1 Tb4 Er2 Pt1 I12'
_cell_volume   809.04705789
_cell_formula_units_Z   1
loop_
 _symmetry_equiv_pos_site_id
 _symmetry_equiv_pos_as_xyz
  1  'x, y, z'
loop_
 _atom_site_type_symbol
 _atom_site_label
 _atom_site_symmetry_multiplicity
 _atom_site_fract_x
 _atom_site_fract_y
 _atom_site_fract_z
 _atom_site_occupancy
  Sr  Sr0  1  0.500187  0.499956  0.500088  1
  Tb  Tb1  1  0.020945  0.298471  0.095751  1
  Tb  Tb2  1  0.906110  0.978913  0.701294  1
  Tb  Tb3  1  0.701310  0.905212  0.979205  1
  Tb  Tb4  1  0.979438  0.702072  0.905925  1
  Er  Er5  1  0.094774  0.021729  0.294448  1
  Er  Er6  1  0.294220  0.093765  0.021172  1
  Pt  Pt7  1  0.999627  0.000173  0.999842  1
  I  I8  1  0.075147  0.678578  0.225747  1
  I  I9  1  0.224457  0.074013  0.676008  1
  I  I10  1  0.672462  0.222099  0.073404  1
  I  I11  1  0.926125  0.324802  0.777428  1
  I  I12  1  0.781555  0.927418  0.325648  1
  I  I13  1  0.325548  0.780824  0.927143  1
  I  I14  1  0.446474  0.135220  0.367262  1
  I  I15  1  0.370118  0.446215  0.135427  1
  I  I16  1  0.136845  0.366825  0.450165  1
  I  I17  1  0.550769  0.863175  0.630234  1
  I  I18  1  0.630359  0.550449  0.863404  1
  I  I19  1  0.863528  0.630093  0.550405  1
