# generated using pymatgen
data_YMo2(PO4)3
_symmetry_space_group_name_H-M   'P 1'
_cell_length_a   4.90705296
_cell_length_b   4.90705336
_cell_length_c   21.12600796
_cell_angle_alpha   90.17981806
_cell_angle_beta   90.17981841
_cell_angle_gamma   66.05127129
_symmetry_Int_Tables_number   1
_chemical_formula_structural   YMo2(PO4)3
_chemical_formula_sum   'Y2 Mo4 P6 O24'
_cell_volume   464.89931444
_cell_formula_units_Z   2
loop_
 _symmetry_equiv_pos_site_id
 _symmetry_equiv_pos_as_xyz
  1  'x, y, z'
loop_
 _atom_site_type_symbol
 _atom_site_label
 _atom_site_symmetry_multiplicity
 _atom_site_fract_x
 _atom_site_fract_y
 _atom_site_fract_z
 _atom_site_occupancy
  Y  Y0  1  0.002969  0.002969  0.669181  1
  Y  Y1  1  0.997031  0.997031  0.330819  1
  Mo  Mo2  1  0.000000  0.000000  0.000000  1
  Mo  Mo3  1  0.997632  0.997632  0.161683  1
  Mo  Mo4  1  0.000000  0.000000  0.500000  1
  Mo  Mo5  1  0.002368  0.002368  0.838317  1
  P  P6  1  0.357097  0.357097  0.580314  1
  P  P7  1  0.352382  0.352382  0.241895  1
  P  P8  1  0.648168  0.648168  0.081039  1
  P  P9  1  0.642903  0.642903  0.419686  1
  P  P10  1  0.647619  0.647619  0.758105  1
  P  P11  1  0.351832  0.351832  0.918961  1
  O  O12  1  0.771478  0.290760  0.420091  1
  O  O13  1  0.776778  0.295413  0.758358  1
  O  O14  1  0.751517  0.751517  0.817551  1
  O  O15  1  0.295413  0.776778  0.758358  1
  O  O16  1  0.739053  0.739053  0.695050  1
  O  O17  1  0.706522  0.224903  0.919293  1
  O  O18  1  0.228522  0.709240  0.579909  1
  O  O19  1  0.251754  0.251754  0.521197  1
  O  O20  1  0.266897  0.266897  0.643638  1
  O  O21  1  0.255783  0.255783  0.857345  1
  O  O22  1  0.704587  0.223222  0.241642  1
  O  O23  1  0.747036  0.747036  0.020427  1
  O  O24  1  0.260947  0.260947  0.304950  1
  O  O25  1  0.733103  0.733103  0.356362  1
  O  O26  1  0.744217  0.744217  0.142655  1
  O  O27  1  0.252964  0.252964  0.979573  1
  O  O28  1  0.293478  0.775097  0.080707  1
  O  O29  1  0.248483  0.248483  0.182449  1
  O  O30  1  0.223222  0.704587  0.241642  1
  O  O31  1  0.224903  0.706522  0.919293  1
  O  O32  1  0.775097  0.293478  0.080707  1
  O  O33  1  0.748246  0.748246  0.478803  1
  O  O34  1  0.709240  0.228522  0.579909  1
  O  O35  1  0.290760  0.771478  0.420091  1
