# generated using pymatgen
data_Ta7Nb5Al8CrRh3C4
_symmetry_space_group_name_H-M   'P 1'
_cell_length_a   8.32113635
_cell_length_b   8.32104725
_cell_length_c   8.32101400
_cell_angle_alpha   59.71843822
_cell_angle_beta   59.71898780
_cell_angle_gamma   59.71904337
_symmetry_Int_Tables_number   1
_chemical_formula_structural   Ta7Nb5Al8CrRh3C4
_chemical_formula_sum   'Ta7 Nb5 Al8 Cr1 Rh3 C4'
_cell_volume   404.79907592
_cell_formula_units_Z   1
loop_
 _symmetry_equiv_pos_site_id
 _symmetry_equiv_pos_as_xyz
  1  'x, y, z'
loop_
 _atom_site_type_symbol
 _atom_site_label
 _atom_site_symmetry_multiplicity
 _atom_site_fract_x
 _atom_site_fract_y
 _atom_site_fract_z
 _atom_site_occupancy
  Ta  Ta0  1  0.306106  0.305588  0.702763  1
  Ta  Ta1  1  0.563336  0.563052  0.937738  1
  Ta  Ta2  1  0.937817  0.562932  0.562968  1
  Ta  Ta3  1  0.548655  0.943416  0.943991  1
  Ta  Ta4  1  0.942615  0.942129  0.550495  1
  Ta  Ta5  1  0.687293  0.312137  0.687096  1
  Ta  Ta6  1  0.943062  0.549093  0.943067  1
  Nb  Nb7  1  0.563639  0.936977  0.563480  1
  Nb  Nb8  1  0.313094  0.686560  0.686442  1
  Nb  Nb9  1  0.702192  0.306024  0.306545  1
  Nb  Nb10  1  0.305654  0.702635  0.305781  1
  Nb  Nb11  1  0.686910  0.686767  0.312650  1
  Al  Al12  1  0.915588  0.913257  0.915055  1
  Al  Al13  1  0.002320  0.333423  0.331791  1
  Al  Al14  1  0.333194  0.002241  0.334057  1
  Al  Al15  1  0.331857  0.334472  0.002186  1
  Al  Al16  1  0.916969  0.247629  0.917800  1
  Al  Al17  1  0.915537  0.917974  0.247703  1
  Al  Al18  1  0.248001  0.917047  0.915447  1
  Al  Al19  1  0.336717  0.334477  0.335525  1
  Cr  Cr20  1  0.126214  0.125807  0.122857  1
  Rh  Rh21  1  0.624974  0.127440  0.119968  1
  Rh  Rh22  1  0.125537  0.624541  0.125647  1
  Rh  Rh23  1  0.121046  0.128423  0.625185  1
  C  C24  1  0.627149  0.622120  0.627177  1
  C  C25  1  0.123595  0.623483  0.626507  1
  C  C26  1  0.624912  0.124853  0.627402  1
  C  C27  1  0.626018  0.625501  0.122676  1
