# generated using pymatgen
data_Tb2Mo3P7Ir9
_symmetry_space_group_name_H-M   'P 1'
_cell_length_a   4.00788969
_cell_length_b   9.53380070
_cell_length_c   9.53422717
_cell_angle_alpha   120.00443103
_cell_angle_beta   89.99124617
_cell_angle_gamma   90.01202357
_symmetry_Int_Tables_number   1
_chemical_formula_structural   Tb2Mo3P7Ir9
_chemical_formula_sum   'Tb2 Mo3 P7 Ir9'
_cell_volume   315.48488187
_cell_formula_units_Z   1
loop_
 _symmetry_equiv_pos_site_id
 _symmetry_equiv_pos_as_xyz
  1  'x, y, z'
loop_
 _atom_site_type_symbol
 _atom_site_label
 _atom_site_symmetry_multiplicity
 _atom_site_fract_x
 _atom_site_fract_y
 _atom_site_fract_z
 _atom_site_occupancy
  Tb  Tb0  1  0.261694  0.666650  0.333305  1
  Tb  Tb1  1  0.761989  0.333344  0.666679  1
  Mo  Mo2  1  0.761959  0.088629  0.866748  1
  Mo  Mo3  1  0.761968  0.133284  0.221945  1
  Mo  Mo4  1  0.761956  0.778082  0.911316  1
  P  P5  1  0.262208  0.000028  0.999985  1
  P  P6  1  0.761711  0.879200  0.592565  1
  P  P7  1  0.761719  0.407429  0.286642  1
  P  P8  1  0.761684  0.713344  0.120788  1
  P  P9  1  0.261975  0.119726  0.416145  1
  P  P10  1  0.261973  0.583845  0.703582  1
  P  P11  1  0.261968  0.296441  0.880287  1
  Ir  Ir12  1  0.261899  0.890328  0.161941  1
  Ir  Ir13  1  0.261893  0.838090  0.728358  1
  Ir  Ir14  1  0.261896  0.271614  0.109704  1
  Ir  Ir15  1  0.761917  0.612451  0.555357  1
  Ir  Ir16  1  0.761901  0.444597  0.057036  1
  Ir  Ir17  1  0.761912  0.942895  0.387519  1
  Ir  Ir18  1  0.261938  0.368885  0.439420  1
  Ir  Ir19  1  0.261910  0.560634  0.929531  1
  Ir  Ir20  1  0.261929  0.070502  0.631147  1
