# generated using pymatgen
data_Tb5Nd3Cd2CoNi
_symmetry_space_group_name_H-M   'P 1'
_cell_length_a   9.70896805
_cell_length_b   9.70896767
_cell_length_c   9.71354900
_cell_angle_alpha   59.98439980
_cell_angle_beta   59.98440111
_cell_angle_gamma   59.98237503
_symmetry_Int_Tables_number   1
_chemical_formula_structural   Tb5Nd3Cd2CoNi
_chemical_formula_sum   'Tb10 Nd6 Cd4 Co2 Ni2'
_cell_volume   647.21529027
_cell_formula_units_Z   2
loop_
 _symmetry_equiv_pos_site_id
 _symmetry_equiv_pos_as_xyz
  1  'x, y, z'
loop_
 _atom_site_type_symbol
 _atom_site_label
 _atom_site_symmetry_multiplicity
 _atom_site_fract_x
 _atom_site_fract_y
 _atom_site_fract_z
 _atom_site_occupancy
  Tb  Tb0  1  0.595612  0.595612  0.599442  1
  Tb  Tb1  1  0.595612  0.595612  0.209335  1
  Tb  Tb2  1  0.594165  0.211377  0.597230  1
  Tb  Tb3  1  0.211377  0.594165  0.597230  1
  Tb  Tb4  1  0.066863  0.436035  0.437789  1
  Tb  Tb5  1  0.436035  0.066863  0.059313  1
  Tb  Tb6  1  0.436035  0.066863  0.437789  1
  Tb  Tb7  1  0.066863  0.436035  0.059313  1
  Tb  Tb8  1  0.436754  0.436754  0.063246  1
  Tb  Tb9  1  0.062531  0.062531  0.437469  1
  Nd  Nd10  1  0.189553  0.809029  0.811696  1
  Nd  Nd11  1  0.809029  0.189553  0.189722  1
  Nd  Nd12  1  0.809029  0.189553  0.811696  1
  Nd  Nd13  1  0.189553  0.809029  0.189722  1
  Nd  Nd14  1  0.810561  0.810561  0.189439  1
  Nd  Nd15  1  0.190181  0.190181  0.809819  1
  Cd  Cd16  1  0.829139  0.829139  0.829526  1
  Cd  Cd17  1  0.829139  0.829139  0.512198  1
  Cd  Cd18  1  0.829730  0.510783  0.829744  1
  Cd  Cd19  1  0.510783  0.829730  0.829744  1
  Co  Co20  1  0.392150  0.392150  0.391044  1
  Co  Co21  1  0.392150  0.392150  0.824655  1
  Ni  Ni22  1  0.392036  0.825122  0.391421  1
  Ni  Ni23  1  0.825122  0.392036  0.391421  1
