# generated using pymatgen
data_Dy3Y13(NiAg)4
_symmetry_space_group_name_H-M   'P 1'
_cell_length_a   9.46913467
_cell_length_b   9.47446428
_cell_length_c   9.47375817
_cell_angle_alpha   60.29275560
_cell_angle_beta   60.24264380
_cell_angle_gamma   60.24748787
_symmetry_Int_Tables_number   1
_chemical_formula_structural   Dy3Y13(NiAg)4
_chemical_formula_sum   'Dy3 Y13 Ni4 Ag4'
_cell_volume   604.54665387
_cell_formula_units_Z   1
loop_
 _symmetry_equiv_pos_site_id
 _symmetry_equiv_pos_as_xyz
  1  'x, y, z'
loop_
 _atom_site_type_symbol
 _atom_site_label
 _atom_site_symmetry_multiplicity
 _atom_site_fract_x
 _atom_site_fract_y
 _atom_site_fract_z
 _atom_site_occupancy
  Dy  Dy0  1  0.598173  0.598193  0.598199  1
  Dy  Dy1  1  0.602193  0.601968  0.197933  1
  Dy  Dy2  1  0.602173  0.197991  0.601950  1
  Y  Y3  1  0.196108  0.602586  0.602572  1
  Y  Y4  1  0.061009  0.439011  0.439040  1
  Y  Y5  1  0.437816  0.060982  0.060987  1
  Y  Y6  1  0.439155  0.060911  0.439209  1
  Y  Y7  1  0.061086  0.437584  0.061392  1
  Y  Y8  1  0.439146  0.439165  0.060937  1
  Y  Y9  1  0.061078  0.061391  0.437599  1
  Y  Y10  1  0.184450  0.814678  0.814704  1
  Y  Y11  1  0.814265  0.186247  0.186244  1
  Y  Y12  1  0.814052  0.184878  0.814474  1
  Y  Y13  1  0.186069  0.815115  0.185572  1
  Y  Y14  1  0.814068  0.814460  0.184883  1
  Y  Y15  1  0.186055  0.185585  0.815135  1
  Ni  Ni16  1  0.395862  0.393997  0.393944  1
  Ni  Ni17  1  0.393937  0.392111  0.819925  1
  Ni  Ni18  1  0.394009  0.819868  0.392095  1
  Ni  Ni19  1  0.819170  0.392850  0.392809  1
  Ag  Ag20  1  0.831686  0.831956  0.831947  1
  Ag  Ag21  1  0.830607  0.830958  0.506824  1
  Ag  Ag22  1  0.830607  0.506836  0.830958  1
  Ag  Ag23  1  0.507228  0.830681  0.830667  1
