# generated using pymatgen
data_CsAl4Cd4GaSe12
_symmetry_space_group_name_H-M   'P 1'
_cell_length_a   9.05130121
_cell_length_b   9.11556956
_cell_length_c   9.33964877
_cell_angle_alpha   108.50626363
_cell_angle_beta   106.56181402
_cell_angle_gamma   108.10890710
_symmetry_Int_Tables_number   1
_chemical_formula_structural   CsAl4Cd4GaSe12
_chemical_formula_sum   'Cs1 Al4 Cd4 Ga1 Se12'
_cell_volume   628.46713430
_cell_formula_units_Z   1
loop_
 _symmetry_equiv_pos_site_id
 _symmetry_equiv_pos_as_xyz
  1  'x, y, z'
loop_
 _atom_site_type_symbol
 _atom_site_label
 _atom_site_symmetry_multiplicity
 _atom_site_fract_x
 _atom_site_fract_y
 _atom_site_fract_z
 _atom_site_occupancy
  Cs  Cs0  1  0.997633  0.001005  0.000082  1
  Al  Al1  1  0.022776  0.185506  0.553541  1
  Al  Al2  1  0.562991  0.023745  0.193805  1
  Al  Al3  1  0.935622  0.470840  0.333480  1
  Al  Al4  1  0.320345  0.929634  0.469416  1
  Cd  Cd5  1  0.487578  0.337590  0.933972  1
  Cd  Cd6  1  0.626299  0.709160  0.402698  1
  Cd  Cd7  1  0.407236  0.642957  0.717665  1
  Cd  Cd8  1  0.715407  0.402497  0.634281  1
  Ga  Ga9  1  0.189442  0.554906  0.026922  1
  Se  Se10  1  0.875110  0.633158  0.544108  1
  Se  Se11  1  0.544299  0.886945  0.631217  1
  Se  Se12  1  0.656725  0.582414  0.873418  1
  Se  Se13  1  0.356148  0.431636  0.149504  1
  Se  Se14  1  0.143757  0.371871  0.441159  1
  Se  Se15  1  0.432966  0.135429  0.367137  1
  Se  Se16  1  0.068246  0.674106  0.226838  1
  Se  Se17  1  0.210911  0.064905  0.658119  1
  Se  Se18  1  0.698016  0.217512  0.088625  1
  Se  Se19  1  0.781457  0.940530  0.304659  1
  Se  Se20  1  0.304592  0.786874  0.952186  1
  Se  Se21  1  0.943645  0.297981  0.778371  1
