# generated using pymatgen
data_Sm2RhPbAu
_symmetry_space_group_name_H-M   'P 1'
_cell_length_a   8.04150800
_cell_length_b   8.14851700
_cell_length_c   3.72721600
_cell_angle_alpha   90.00000000
_cell_angle_beta   90.00000000
_cell_angle_gamma   90.00000000
_symmetry_Int_Tables_number   1
_chemical_formula_structural   Sm2RhPbAu
_chemical_formula_sum   'Sm4 Rh2 Pb2 Au2'
_cell_volume   244.23091472
_cell_formula_units_Z   2
loop_
 _symmetry_equiv_pos_site_id
 _symmetry_equiv_pos_as_xyz
  1  'x, y, z'
loop_
 _atom_site_type_symbol
 _atom_site_label
 _atom_site_symmetry_multiplicity
 _atom_site_fract_x
 _atom_site_fract_y
 _atom_site_fract_z
 _atom_site_occupancy
  Sm  Sm0  1  0.329989  0.186087  0.500000  1
  Sm  Sm1  1  0.829989  0.313913  0.500000  1
  Sm  Sm2  1  0.175093  0.645621  0.500000  1
  Sm  Sm3  1  0.675092  0.854378  0.500000  1
  Rh  Rh4  1  0.626865  0.126199  0.000000  1
  Rh  Rh5  1  0.126866  0.373801  0.000000  1
  Pb  Pb6  1  0.997879  0.008944  0.000000  1
  Pb  Pb7  1  0.497879  0.491056  0.000000  1
  Au  Au8  1  0.870173  0.621049  0.000000  1
  Au  Au9  1  0.370172  0.878951  0.000000  1
