# generated using pymatgen
data_AsIr2BrF24
_symmetry_space_group_name_H-M   'P 1'
_cell_length_a   5.08365962
_cell_length_b   8.77535000
_cell_length_c   9.62588956
_cell_angle_alpha   90.00000000
_cell_angle_beta   90.16613024
_cell_angle_gamma   90.00000000
_symmetry_Int_Tables_number   1
_chemical_formula_structural   AsIr2BrF24
_chemical_formula_sum   'As1 Ir2 Br1 F24'
_cell_volume   429.41771911
_cell_formula_units_Z   1
loop_
 _symmetry_equiv_pos_site_id
 _symmetry_equiv_pos_as_xyz
  1  'x, y, z'
loop_
 _atom_site_type_symbol
 _atom_site_label
 _atom_site_symmetry_multiplicity
 _atom_site_fract_x
 _atom_site_fract_y
 _atom_site_fract_z
 _atom_site_occupancy
  As  As0  1  0.405944  0.750000  0.126848  1
  Ir  Ir1  1  0.904561  0.250000  0.371758  1
  Ir  Ir2  1  0.094894  0.750000  0.627191  1
  Br  Br3  1  0.594079  0.250000  0.874218  1
  F  F4  1  0.250529  0.597820  0.518616  1
  F  F5  1  0.256243  0.892868  0.022969  1
  F  F6  1  0.939373  0.901197  0.736654  1
  F  F7  1  0.198822  0.250000  0.489971  1
  F  F8  1  0.748359  0.105039  0.978487  1
  F  F9  1  0.554574  0.893151  0.230736  1
  F  F10  1  0.312058  0.250000  0.987411  1
  F  F11  1  0.250529  0.902180  0.518616  1
  F  F12  1  0.749038  0.400859  0.482324  1
  F  F13  1  0.441679  0.395477  0.767514  1
  F  F14  1  0.748359  0.394961  0.978487  1
  F  F15  1  0.800474  0.750000  0.510393  1
  F  F16  1  0.683154  0.750000  0.015075  1
  F  F17  1  0.256243  0.607132  0.022969  1
  F  F18  1  0.441679  0.104523  0.767514  1
  F  F19  1  0.061001  0.400154  0.262340  1
  F  F20  1  0.607491  0.250000  0.256664  1
  F  F21  1  0.554574  0.606849  0.230736  1
  F  F22  1  0.877195  0.250000  0.759816  1
  F  F23  1  0.128517  0.750000  0.238755  1
  F  F24  1  0.061001  0.099846  0.262340  1
  F  F25  1  0.939373  0.598803  0.736654  1
  F  F26  1  0.391215  0.750000  0.742618  1
  F  F27  1  0.749038  0.099141  0.482324  1
