# generated using pymatgen
data_Yb3HoPt3RhO14
_symmetry_space_group_name_H-M   'P 1'
_cell_length_a   7.25060128
_cell_length_b   7.25060112
_cell_length_c   7.23557908
_cell_angle_alpha   59.93131268
_cell_angle_beta   59.93130389
_cell_angle_gamma   60.00000260
_symmetry_Int_Tables_number   1
_chemical_formula_structural   Yb3HoPt3RhO14
_chemical_formula_sum   'Yb3 Ho1 Pt3 Rh1 O14'
_cell_volume   268.69194284
_cell_formula_units_Z   1
loop_
 _symmetry_equiv_pos_site_id
 _symmetry_equiv_pos_as_xyz
  1  'x, y, z'
loop_
 _atom_site_type_symbol
 _atom_site_label
 _atom_site_symmetry_multiplicity
 _atom_site_fract_x
 _atom_site_fract_y
 _atom_site_fract_z
 _atom_site_occupancy
  Yb  Yb0  1  0.625000  0.625000  0.625000  1
  Yb  Yb1  1  0.625000  0.125000  0.625000  1
  Yb  Yb2  1  0.125000  0.625000  0.625000  1
  Ho  Ho3  1  0.625000  0.625000  0.125000  1
  Pt  Pt4  1  0.125000  0.125000  0.125000  1
  Pt  Pt5  1  0.625000  0.125000  0.125000  1
  Pt  Pt6  1  0.125000  0.625000  0.125000  1
  Rh  Rh7  1  0.125000  0.125000  0.625000  1
  O  O8  1  0.045150  0.454472  0.455229  1
  O  O9  1  0.789625  0.789625  0.204198  1
  O  O10  1  0.789625  0.216553  0.204198  1
  O  O11  1  0.454472  0.045150  0.455229  1
  O  O12  1  0.747712  0.747712  0.756864  1
  O  O13  1  0.045150  0.045150  0.455229  1
  O  O14  1  0.033447  0.460375  0.045802  1
  O  O15  1  0.795528  0.204850  0.794771  1
  O  O16  1  0.216553  0.789625  0.204198  1
  O  O17  1  0.204850  0.204850  0.794771  1
  O  O18  1  0.502288  0.502288  0.493136  1
  O  O19  1  0.460375  0.033447  0.045802  1
  O  O20  1  0.460375  0.460375  0.045802  1
  O  O21  1  0.204850  0.795528  0.794771  1
