# generated using pymatgen
data_Pa2TcB8Os
_symmetry_space_group_name_H-M   'P 1'
_cell_length_a   3.63081100
_cell_length_b   5.97968949
_cell_length_c   11.61570095
_cell_angle_alpha   89.95369248
_cell_angle_beta   90.00000000
_cell_angle_gamma   90.00000000
_symmetry_Int_Tables_number   1
_chemical_formula_structural   Pa2TcB8Os
_chemical_formula_sum   'Pa4 Tc2 B16 Os2'
_cell_volume   252.18982234
_cell_formula_units_Z   2
loop_
 _symmetry_equiv_pos_site_id
 _symmetry_equiv_pos_as_xyz
  1  'x, y, z'
loop_
 _atom_site_type_symbol
 _atom_site_label
 _atom_site_symmetry_multiplicity
 _atom_site_fract_x
 _atom_site_fract_y
 _atom_site_fract_z
 _atom_site_occupancy
  Pa  Pa0  1  0.000000  0.627658  0.351383  1
  Pa  Pa1  1  0.000000  0.372342  0.648617  1
  Pa  Pa2  1  0.000000  0.128071  0.150846  1
  Pa  Pa3  1  0.000000  0.871929  0.849154  1
  Tc  Tc4  1  0.000000  0.139292  0.405296  1
  Tc  Tc5  1  0.000000  0.860708  0.594704  1
  B  B6  1  0.500000  0.788560  0.188094  1
  B  B7  1  0.500000  0.211440  0.811906  1
  B  B8  1  0.500000  0.288569  0.311984  1
  B  B9  1  0.500000  0.711431  0.688016  1
  B  B10  1  0.500000  0.864907  0.031899  1
  B  B11  1  0.500000  0.135093  0.968101  1
  B  B12  1  0.500000  0.364990  0.467773  1
  B  B13  1  0.500000  0.635010  0.532227  1
  B  B14  1  0.500000  0.887120  0.454563  1
  B  B15  1  0.500000  0.112880  0.545437  1
  B  B16  1  0.500000  0.387025  0.046057  1
  B  B17  1  0.500000  0.612975  0.953943  1
  B  B18  1  0.500000  0.971787  0.308694  1
  B  B19  1  0.500000  0.028213  0.691306  1
  B  B20  1  0.500000  0.472549  0.191423  1
  B  B21  1  0.500000  0.527451  0.808577  1
  Os  Os22  1  0.000000  0.642221  0.095922  1
  Os  Os23  1  0.000000  0.357779  0.904078  1
