# generated using pymatgen
data_La2Pr7NdAl(ZnRu2)3
_symmetry_space_group_name_H-M   'P 1'
_cell_length_a   8.48301756
_cell_length_b   8.72751299
_cell_length_c   8.57273992
_cell_angle_alpha   109.72544323
_cell_angle_beta   109.04242336
_cell_angle_gamma   109.83943987
_symmetry_Int_Tables_number   1
_chemical_formula_structural   La2Pr7NdAl(ZnRu2)3
_chemical_formula_sum   'La2 Pr7 Nd1 Al1 Zn3 Ru6'
_cell_volume   487.39154715
_cell_formula_units_Z   1
loop_
 _symmetry_equiv_pos_site_id
 _symmetry_equiv_pos_as_xyz
  1  'x, y, z'
loop_
 _atom_site_type_symbol
 _atom_site_label
 _atom_site_symmetry_multiplicity
 _atom_site_fract_x
 _atom_site_fract_y
 _atom_site_fract_z
 _atom_site_occupancy
  La  La0  1  0.749827  0.810013  0.057475  1
  La  La1  1  0.443075  0.250833  0.691090  1
  Pr  Pr2  1  0.688556  0.433863  0.251849  1
  Pr  Pr3  1  0.061806  0.746749  0.810636  1
  Pr  Pr4  1  0.814468  0.065374  0.750873  1
  Pr  Pr5  1  0.221974  0.221886  0.219309  1
  Pr  Pr6  1  0.496675  0.996959  0.276730  1
  Pr  Pr7  1  0.281045  0.502413  0.001615  1
  Pr  Pr8  1  0.001747  0.280184  0.502521  1
  Nd  Nd9  1  0.250529  0.683012  0.436969  1
  Al  Al10  1  0.997831  0.907028  0.497473  1
  Zn  Zn11  1  0.587019  0.588309  0.586178  1
  Zn  Zn12  1  0.500686  0.001760  0.912370  1
  Zn  Zn13  1  0.915720  0.500202  0.003264  1
  Ru  Ru14  1  0.246499  0.125255  0.859640  1
  Ru  Ru15  1  0.737556  0.367450  0.621305  1
  Ru  Ru16  1  0.884274  0.257591  0.131968  1
  Ru  Ru17  1  0.109824  0.873444  0.245927  1
  Ru  Ru18  1  0.629288  0.752562  0.378540  1
  Ru  Ru19  1  0.381598  0.635112  0.764266  1
