# generated using pymatgen
data_Rb3Rh2Br9
_symmetry_space_group_name_H-M   'P 1'
_cell_length_a   7.49608600
_cell_length_b   7.49606104
_cell_length_c   19.20728300
_cell_angle_alpha   90.00000000
_cell_angle_beta   90.00000000
_cell_angle_gamma   120.00036365
_symmetry_Int_Tables_number   1
_chemical_formula_structural   Rb3Rh2Br9
_chemical_formula_sum   'Rb6 Rh4 Br18'
_cell_volume   934.67935522
_cell_formula_units_Z   2
loop_
 _symmetry_equiv_pos_site_id
 _symmetry_equiv_pos_as_xyz
  1  'x, y, z'
loop_
 _atom_site_type_symbol
 _atom_site_label
 _atom_site_symmetry_multiplicity
 _atom_site_fract_x
 _atom_site_fract_y
 _atom_site_fract_z
 _atom_site_occupancy
  Rb  Rb0  1  0.666667  0.333334  0.564799  1
  Rb  Rb1  1  0.333333  0.666666  0.064799  1
  Rb  Rb2  1  0.333333  0.666666  0.435201  1
  Rb  Rb3  1  0.666667  0.333334  0.935201  1
  Rb  Rb4  1  0.999998  0.000001  0.250000  1
  Rb  Rb5  1  0.000002  0.999999  0.750000  1
  Rh  Rh6  1  0.333329  0.666670  0.665342  1
  Rh  Rh7  1  0.666671  0.333330  0.334658  1
  Rh  Rh8  1  0.333329  0.666670  0.834658  1
  Rh  Rh9  1  0.666671  0.333330  0.165342  1
  Br  Br10  1  0.824011  0.648017  0.408096  1
  Br  Br11  1  0.175989  0.824011  0.591903  1
  Br  Br12  1  0.648017  0.824011  0.591905  1
  Br  Br13  1  0.824011  0.175989  0.408097  1
  Br  Br14  1  0.351983  0.175989  0.408095  1
  Br  Br15  1  0.175989  0.351983  0.908096  1
  Br  Br16  1  0.028626  0.514317  0.750000  1
  Br  Br17  1  0.648017  0.824011  0.908095  1
  Br  Br18  1  0.824011  0.648017  0.091904  1
  Br  Br19  1  0.175989  0.351983  0.591904  1
  Br  Br20  1  0.485682  0.971375  0.750000  1
  Br  Br21  1  0.514319  0.485683  0.250000  1
  Br  Br22  1  0.485681  0.514317  0.750000  1
  Br  Br23  1  0.175989  0.824011  0.908097  1
  Br  Br24  1  0.351983  0.175989  0.091905  1
  Br  Br25  1  0.971374  0.485683  0.250000  1
  Br  Br26  1  0.514318  0.028625  0.250000  1
  Br  Br27  1  0.824011  0.175989  0.091903  1
