# generated using pymatgen
data_CaNd(CoO2)6
_symmetry_space_group_name_H-M   'P 1'
_cell_length_a   4.93398094
_cell_length_b   5.71860928
_cell_length_c   8.52701500
_cell_angle_alpha   89.99993988
_cell_angle_beta   89.99996516
_cell_angle_gamma   73.41862252
_symmetry_Int_Tables_number   1
_chemical_formula_structural   CaNd(CoO2)6
_chemical_formula_sum   'Ca1 Nd1 Co6 O12'
_cell_volume   230.58905718
_cell_formula_units_Z   1
loop_
 _symmetry_equiv_pos_site_id
 _symmetry_equiv_pos_as_xyz
  1  'x, y, z'
loop_
 _atom_site_type_symbol
 _atom_site_label
 _atom_site_symmetry_multiplicity
 _atom_site_fract_x
 _atom_site_fract_y
 _atom_site_fract_z
 _atom_site_occupancy
  Ca  Ca0  1  0.000001  0.500000  0.166600  1
  Nd  Nd1  1  0.500000  0.500000  0.666570  1
  Co  Co2  1  0.500000  0.000000  0.166674  1
  Co  Co3  1  0.500000  0.000000  0.835597  1
  Co  Co4  1  0.500000  0.000000  0.497755  1
  Co  Co5  1  0.000000  0.000000  0.666693  1
  Co  Co6  1  0.000000  0.000000  0.333280  1
  Co  Co7  1  0.000000  0.000000  0.000063  1
  O  O8  1  0.773162  0.180358  0.166686  1
  O  O9  1  0.273120  0.183809  0.666677  1
  O  O10  1  0.226838  0.819642  0.166687  1
  O  O11  1  0.726880  0.816191  0.666678  1
  O  O12  1  0.273253  0.181867  0.003955  1
  O  O13  1  0.771338  0.185145  0.499936  1
  O  O14  1  0.273240  0.181896  0.329397  1
  O  O15  1  0.771320  0.185181  0.833400  1
  O  O16  1  0.726760  0.818104  0.329397  1
  O  O17  1  0.228680  0.814819  0.833400  1
  O  O18  1  0.726747  0.818133  0.003955  1
  O  O19  1  0.228662  0.814855  0.499937  1
