# generated using pymatgen
data_Tb2Pa(InPd)3
_symmetry_space_group_name_H-M   'P 1'
_cell_length_a   7.71459600
_cell_length_b   7.69191077
_cell_length_c   3.90671700
_cell_angle_alpha   90.00000000
_cell_angle_beta   90.00000000
_cell_angle_gamma   120.09761647
_symmetry_Int_Tables_number   1
_chemical_formula_structural   Tb2Pa(InPd)3
_chemical_formula_sum   'Tb2 Pa1 In3 Pd3'
_cell_volume   200.56815307
_cell_formula_units_Z   1
loop_
 _symmetry_equiv_pos_site_id
 _symmetry_equiv_pos_as_xyz
  1  'x, y, z'
loop_
 _atom_site_type_symbol
 _atom_site_label
 _atom_site_symmetry_multiplicity
 _atom_site_fract_x
 _atom_site_fract_y
 _atom_site_fract_z
 _atom_site_occupancy
  Tb  Tb0  1  0.408490  0.406887  0.500000  1
  Tb  Tb1  1  0.001603  0.593113  0.500000  1
  Pa  Pa2  1  0.588384  0.000000  0.500000  1
  In  In3  1  0.742320  0.734758  0.000000  1
  In  In4  1  0.249330  0.000000  0.000000  1
  In  In5  1  0.007562  0.265242  0.000000  1
  Pd  Pd6  1  0.990108  0.000000  0.500000  1
  Pd  Pd7  1  0.664288  0.316372  0.000000  1
  Pd  Pd8  1  0.347915  0.683628  0.000000  1
