# generated using pymatgen
data_Li3YHo2Si2Ge
_symmetry_space_group_name_H-M   'P 1'
_cell_length_a   7.00871744
_cell_length_b   7.00871889
_cell_length_c   4.23150400
_cell_angle_alpha   90.00000000
_cell_angle_beta   90.00000000
_cell_angle_gamma   120.07353122
_symmetry_Int_Tables_number   1
_chemical_formula_structural   Li3YHo2Si2Ge
_chemical_formula_sum   'Li3 Y1 Ho2 Si2 Ge1'
_cell_volume   179.87893744
_cell_formula_units_Z   1
loop_
 _symmetry_equiv_pos_site_id
 _symmetry_equiv_pos_as_xyz
  1  'x, y, z'
loop_
 _atom_site_type_symbol
 _atom_site_label
 _atom_site_symmetry_multiplicity
 _atom_site_fract_x
 _atom_site_fract_y
 _atom_site_fract_z
 _atom_site_occupancy
  Li  Li0  1  0.233933  0.999900  0.500000  1
  Li  Li1  1  0.766114  0.766114  0.500000  1
  Li  Li2  1  0.999900  0.233933  0.500000  1
  Y  Y3  1  0.425494  0.425494  0.000000  1
  Ho  Ho4  1  0.000057  0.574964  0.000000  1
  Ho  Ho5  1  0.574964  0.000057  0.000000  1
  Si  Si6  1  0.333048  0.667231  0.500000  1
  Si  Si7  1  0.667231  0.333048  0.500000  1
  Ge  Ge8  1  0.999259  0.999259  0.000000  1
