# generated using pymatgen
data_Hf4TaSiSn3
_symmetry_space_group_name_H-M   'P 1'
_cell_length_a   8.55018200
_cell_length_b   8.55018129
_cell_length_c   5.75700900
_cell_angle_alpha   90.00000000
_cell_angle_beta   90.00000000
_cell_angle_gamma   120.00000274
_symmetry_Int_Tables_number   1
_chemical_formula_structural   Hf4TaSiSn3
_chemical_formula_sum   'Hf8 Ta2 Si2 Sn6'
_cell_volume   364.48378349
_cell_formula_units_Z   2
loop_
 _symmetry_equiv_pos_site_id
 _symmetry_equiv_pos_as_xyz
  1  'x, y, z'
loop_
 _atom_site_type_symbol
 _atom_site_label
 _atom_site_symmetry_multiplicity
 _atom_site_fract_x
 _atom_site_fract_y
 _atom_site_fract_z
 _atom_site_occupancy
  Hf  Hf0  1  0.739294  0.739294  0.748899  1
  Hf  Hf1  1  0.260706  0.000000  0.748899  1
  Hf  Hf2  1  0.000000  0.260706  0.748899  1
  Hf  Hf3  1  0.260706  0.260706  0.251101  1
  Hf  Hf4  1  0.739294  0.000000  0.251101  1
  Hf  Hf5  1  0.000000  0.739294  0.251101  1
  Hf  Hf6  1  0.333333  0.666667  0.500000  1
  Hf  Hf7  1  0.666667  0.333333  0.500000  1
  Ta  Ta8  1  0.666667  0.333333  0.000000  1
  Ta  Ta9  1  0.333333  0.666667  0.000000  1
  Si  Si10  1  0.000000  0.000000  0.000000  1
  Si  Si11  1  0.000000  0.000000  0.500000  1
  Sn  Sn12  1  0.394793  0.394793  0.754770  1
  Sn  Sn13  1  0.605207  0.000000  0.754770  1
  Sn  Sn14  1  0.000000  0.605207  0.754770  1
  Sn  Sn15  1  0.605207  0.605207  0.245230  1
  Sn  Sn16  1  0.394793  0.000000  0.245230  1
  Sn  Sn17  1  0.000000  0.394793  0.245230  1
