# generated using pymatgen
data_Tm12Zn3Ag9C4
_symmetry_space_group_name_H-M   'P 1'
_cell_length_a   9.21837635
_cell_length_b   9.21837646
_cell_length_c   9.21837753
_cell_angle_alpha   59.62357882
_cell_angle_beta   59.62357842
_cell_angle_gamma   59.62357903
_symmetry_Int_Tables_number   1
_chemical_formula_structural   Tm12Zn3Ag9C4
_chemical_formula_sum   'Tm12 Zn3 Ag9 C4'
_cell_volume   549.18322708
_cell_formula_units_Z   1
loop_
 _symmetry_equiv_pos_site_id
 _symmetry_equiv_pos_as_xyz
  1  'x, y, z'
loop_
 _atom_site_type_symbol
 _atom_site_label
 _atom_site_symmetry_multiplicity
 _atom_site_fract_x
 _atom_site_fract_y
 _atom_site_fract_z
 _atom_site_occupancy
  Tm  Tm0  1  0.442205  0.442205  0.057469  1
  Tm  Tm1  1  0.057891  0.442430  0.057891  1
  Tm  Tm2  1  0.442430  0.057891  0.057891  1
  Tm  Tm3  1  0.057891  0.057891  0.442430  1
  Tm  Tm4  1  0.442205  0.057469  0.442205  1
  Tm  Tm5  1  0.057469  0.442205  0.442205  1
  Tm  Tm6  1  0.807795  0.807795  0.192531  1
  Tm  Tm7  1  0.192109  0.807570  0.192109  1
  Tm  Tm8  1  0.807570  0.192109  0.192109  1
  Tm  Tm9  1  0.192109  0.192109  0.807570  1
  Tm  Tm10  1  0.807795  0.192531  0.807795  1
  Tm  Tm11  1  0.192531  0.807795  0.807795  1
  Zn  Zn12  1  0.625000  0.625000  0.125000  1
  Zn  Zn13  1  0.625000  0.125000  0.625000  1
  Zn  Zn14  1  0.125000  0.625000  0.625000  1
  Ag  Ag15  1  0.835077  0.835077  0.503582  1
  Ag  Ag16  1  0.835077  0.503582  0.835077  1
  Ag  Ag17  1  0.503582  0.835077  0.835077  1
  Ag  Ag18  1  0.832033  0.832033  0.832033  1
  Ag  Ag19  1  0.414923  0.414923  0.746418  1
  Ag  Ag20  1  0.414923  0.746418  0.414923  1
  Ag  Ag21  1  0.746418  0.414923  0.414923  1
  Ag  Ag22  1  0.417967  0.417967  0.417967  1
  Ag  Ag23  1  0.625000  0.625000  0.625000  1
  C  C24  1  0.125000  0.125000  0.625000  1
  C  C25  1  0.125000  0.625000  0.125000  1
  C  C26  1  0.625000  0.125000  0.125000  1
  C  C27  1  0.125000  0.125000  0.125000  1
