# generated using pymatgen
data_TbSmAl20(RuRh)2
_symmetry_space_group_name_H-M   'P 1'
_cell_length_a   6.85910211
_cell_length_b   6.85529227
_cell_length_c   9.17226500
_cell_angle_alpha   90.00000000
_cell_angle_beta   90.00000000
_cell_angle_gamma   97.16024559
_symmetry_Int_Tables_number   1
_chemical_formula_structural   TbSmAl20(RuRh)2
_chemical_formula_sum   'Tb1 Sm1 Al20 Ru2 Rh2'
_cell_volume   427.92699442
_cell_formula_units_Z   1
loop_
 _symmetry_equiv_pos_site_id
 _symmetry_equiv_pos_as_xyz
  1  'x, y, z'
loop_
 _atom_site_type_symbol
 _atom_site_label
 _atom_site_symmetry_multiplicity
 _atom_site_fract_x
 _atom_site_fract_y
 _atom_site_fract_z
 _atom_site_occupancy
  Tb  Tb0  1  0.130403  0.874604  0.250000  1
  Sm  Sm1  1  0.870306  0.125078  0.750000  1
  Al  Al2  1  0.620895  0.375772  0.549509  1
  Al  Al3  1  0.378802  0.624493  0.450238  1
  Al  Al4  1  0.378802  0.624493  0.049762  1
  Al  Al5  1  0.620895  0.375772  0.950491  1
  Al  Al6  1  0.225467  0.223498  0.498791  1
  Al  Al7  1  0.774661  0.776347  0.500693  1
  Al  Al8  1  0.774661  0.776347  0.999307  1
  Al  Al9  1  0.225467  0.223498  0.001209  1
  Al  Al10  1  0.843888  0.154927  0.101954  1
  Al  Al11  1  0.156448  0.844713  0.898466  1
  Al  Al12  1  0.156448  0.844713  0.601534  1
  Al  Al13  1  0.843888  0.154927  0.398046  1
  Al  Al14  1  0.857172  0.589564  0.750000  1
  Al  Al15  1  0.142961  0.411079  0.250000  1
  Al  Al16  1  0.411327  0.140957  0.750000  1
  Al  Al17  1  0.588027  0.858956  0.250000  1
  Al  Al18  1  0.224618  0.481272  0.750000  1
  Al  Al19  1  0.775782  0.519197  0.250000  1
  Al  Al20  1  0.517998  0.777552  0.750000  1
  Al  Al21  1  0.481486  0.222065  0.250000  1
  Ru  Ru22  1  0.499797  0.999940  0.000363  1
  Ru  Ru23  1  0.499797  0.999940  0.499637  1
  Rh  Rh24  1  0.000003  0.500149  0.499735  1
  Rh  Rh25  1  0.000003  0.500149  0.000265  1
