# generated using pymatgen
data_NdEr7(Si3Pt)4
_symmetry_space_group_name_H-M   'P 1'
_cell_length_a   8.14000100
_cell_length_b   8.14001730
_cell_length_c   8.13215600
_cell_angle_alpha   90.00000000
_cell_angle_beta   90.00000000
_cell_angle_gamma   119.99970111
_symmetry_Int_Tables_number   1
_chemical_formula_structural   NdEr7(Si3Pt)4
_chemical_formula_sum   'Nd1 Er7 Si12 Pt4'
_cell_volume   466.64587049
_cell_formula_units_Z   1
loop_
 _symmetry_equiv_pos_site_id
 _symmetry_equiv_pos_as_xyz
  1  'x, y, z'
loop_
 _atom_site_type_symbol
 _atom_site_label
 _atom_site_symmetry_multiplicity
 _atom_site_fract_x
 _atom_site_fract_y
 _atom_site_fract_z
 _atom_site_occupancy
  Nd  Nd0  1  0.999995  0.999992  0.250000  1
  Er  Er1  1  0.498218  0.501741  0.750000  1
  Er  Er2  1  0.501841  0.498118  0.250000  1
  Er  Er3  1  0.003592  0.501798  0.750000  1
  Er  Er4  1  0.996141  0.498130  0.250000  1
  Er  Er5  1  0.498274  0.996469  0.750000  1
  Er  Er6  1  0.501822  0.003716  0.250000  1
  Er  Er7  1  0.000033  0.000035  0.750000  1
  Si  Si8  1  0.834126  0.165877  0.996309  1
  Si  Si9  1  0.165879  0.834126  0.997426  1
  Si  Si10  1  0.331762  0.165878  0.996315  1
  Si  Si11  1  0.165879  0.834126  0.502574  1
  Si  Si12  1  0.668259  0.834129  0.997427  1
  Si  Si13  1  0.834126  0.165877  0.503691  1
  Si  Si14  1  0.834127  0.668243  0.996312  1
  Si  Si15  1  0.668259  0.834129  0.502573  1
  Si  Si16  1  0.165875  0.331748  0.997427  1
  Si  Si17  1  0.331762  0.165878  0.503685  1
  Si  Si18  1  0.165875  0.331748  0.502573  1
  Si  Si19  1  0.834127  0.668243  0.503688  1
  Pt  Pt20  1  0.666671  0.333329  0.995907  1
  Pt  Pt21  1  0.333344  0.666671  0.004428  1
  Pt  Pt22  1  0.333344  0.666671  0.495572  1
  Pt  Pt23  1  0.666671  0.333329  0.504093  1
