# generated using pymatgen
data_Sc3PaNi14
_symmetry_space_group_name_H-M   'P 1'
_cell_length_a   4.74749466
_cell_length_b   4.74749558
_cell_length_c   12.17558022
_cell_angle_alpha   86.96389110
_cell_angle_beta   86.96388898
_cell_angle_gamma   120.45964865
_symmetry_Int_Tables_number   1
_chemical_formula_structural   Sc3PaNi14
_chemical_formula_sum   'Sc3 Pa1 Ni14'
_cell_volume   235.19822178
_cell_formula_units_Z   1
loop_
 _symmetry_equiv_pos_site_id
 _symmetry_equiv_pos_as_xyz
  1  'x, y, z'
loop_
 _atom_site_type_symbol
 _atom_site_label
 _atom_site_symmetry_multiplicity
 _atom_site_fract_x
 _atom_site_fract_y
 _atom_site_fract_z
 _atom_site_occupancy
  Sc  Sc0  1  0.732251  0.732251  0.879040  1
  Sc  Sc1  1  0.788193  0.788193  0.613891  1
  Sc  Sc2  1  0.208994  0.208994  0.391341  1
  Pa  Pa3  1  0.274550  0.274550  0.111787  1
  Ni  Ni4  1  0.375086  0.042301  0.920868  1
  Ni  Ni5  1  0.042301  0.375086  0.920868  1
  Ni  Ni6  1  0.261641  0.759527  0.749086  1
  Ni  Ni7  1  0.759527  0.261641  0.749086  1
  Ni  Ni8  1  0.258917  0.258917  0.748679  1
  Ni  Ni9  1  0.136883  0.475963  0.578874  1
  Ni  Ni10  1  0.475963  0.136883  0.578874  1
  Ni  Ni11  1  0.861848  0.523148  0.422533  1
  Ni  Ni12  1  0.523148  0.861848  0.422533  1
  Ni  Ni13  1  0.739536  0.739536  0.253204  1
  Ni  Ni14  1  0.739464  0.240211  0.252282  1
  Ni  Ni15  1  0.240211  0.739464  0.252282  1
  Ni  Ni16  1  0.626992  0.954496  0.077386  1
  Ni  Ni17  1  0.954496  0.626992  0.077386  1
