# generated using pymatgen
data_Yb3ScGa2Pt3
_symmetry_space_group_name_H-M   'P 1'
_cell_length_a   7.07988100
_cell_length_b   7.13803546
_cell_length_c   4.21480700
_cell_angle_alpha   90.00000000
_cell_angle_beta   90.00000000
_cell_angle_gamma   119.73087313
_symmetry_Int_Tables_number   1
_chemical_formula_structural   Yb3ScGa2Pt3
_chemical_formula_sum   'Yb3 Sc1 Ga2 Pt3'
_cell_volume   184.96279130
_cell_formula_units_Z   1
loop_
 _symmetry_equiv_pos_site_id
 _symmetry_equiv_pos_as_xyz
  1  'x, y, z'
loop_
 _atom_site_type_symbol
 _atom_site_label
 _atom_site_symmetry_multiplicity
 _atom_site_fract_x
 _atom_site_fract_y
 _atom_site_fract_z
 _atom_site_occupancy
  Yb  Yb0  1  0.397766  0.000000  0.000000  1
  Yb  Yb1  1  0.012192  0.430274  0.000000  1
  Yb  Yb2  1  0.581918  0.569726  0.000000  1
  Sc  Sc3  1  0.763736  0.000000  0.500000  1
  Ga  Ga4  1  0.001870  0.751685  0.500000  1
  Ga  Ga5  1  0.250185  0.248315  0.500000  1
  Pt  Pt6  1  0.332010  0.669090  0.500000  1
  Pt  Pt7  1  0.662919  0.330910  0.500000  1
  Pt  Pt8  1  0.997404  0.000000  0.000000  1
