# generated using pymatgen
data_Pr8ZnGe5Rh8
_symmetry_space_group_name_H-M   'P 1'
_cell_length_a   11.14257567
_cell_length_b   11.14257498
_cell_length_c   8.08173173
_cell_angle_alpha   70.85322137
_cell_angle_beta   70.85322423
_cell_angle_gamma   29.85301261
_symmetry_Int_Tables_number   1
_chemical_formula_structural   Pr8ZnGe5Rh8
_chemical_formula_sum   'Pr8 Zn1 Ge5 Rh8'
_cell_volume   469.81551723
_cell_formula_units_Z   1
loop_
 _symmetry_equiv_pos_site_id
 _symmetry_equiv_pos_as_xyz
  1  'x, y, z'
loop_
 _atom_site_type_symbol
 _atom_site_label
 _atom_site_symmetry_multiplicity
 _atom_site_fract_x
 _atom_site_fract_y
 _atom_site_fract_z
 _atom_site_occupancy
  Pr  Pr0  1  0.213863  0.444395  0.392729  1
  Pr  Pr1  1  0.555605  0.786137  0.107271  1
  Pr  Pr2  1  0.442825  0.214619  0.894920  1
  Pr  Pr3  1  0.923462  0.209689  0.333772  1
  Pr  Pr4  1  0.790311  0.076538  0.166228  1
  Pr  Pr5  1  0.085007  0.779616  0.660967  1
  Pr  Pr6  1  0.220384  0.914993  0.839033  1
  Pr  Pr7  1  0.785381  0.557175  0.605080  1
  Zn  Zn8  1  0.636975  0.363025  0.750000  1
  Ge  Ge9  1  0.355565  0.644435  0.250000  1
  Ge  Ge10  1  0.290113  0.055636  0.442771  1
  Ge  Ge11  1  0.944364  0.709887  0.057229  1
  Ge  Ge12  1  0.707798  0.947552  0.558258  1
  Ge  Ge13  1  0.052448  0.292202  0.941742  1
  Rh  Rh14  1  0.295278  0.575906  0.026818  1
  Rh  Rh15  1  0.572539  0.300803  0.522653  1
  Rh  Rh16  1  0.699197  0.427461  0.977347  1
  Rh  Rh17  1  0.076000  0.366107  0.182688  1
  Rh  Rh18  1  0.633893  0.924000  0.317312  1
  Rh  Rh19  1  0.424094  0.704722  0.473182  1
  Rh  Rh20  1  0.926356  0.631458  0.815699  1
  Rh  Rh21  1  0.368542  0.073644  0.684301  1
