# generated using pymatgen
data_U4GaCo6Si
_symmetry_space_group_name_H-M   'P 1'
_cell_length_a   5.13176700
_cell_length_b   5.13176724
_cell_length_c   7.61308200
_cell_angle_alpha   90.00000000
_cell_angle_beta   90.00000000
_cell_angle_gamma   120.00001779
_symmetry_Int_Tables_number   1
_chemical_formula_structural   U4GaCo6Si
_chemical_formula_sum   'U4 Ga1 Co6 Si1'
_cell_volume   173.63007032
_cell_formula_units_Z   1
loop_
 _symmetry_equiv_pos_site_id
 _symmetry_equiv_pos_as_xyz
  1  'x, y, z'
loop_
 _atom_site_type_symbol
 _atom_site_label
 _atom_site_symmetry_multiplicity
 _atom_site_fract_x
 _atom_site_fract_y
 _atom_site_fract_z
 _atom_site_occupancy
  U  U0  1  0.333333  0.666667  0.428047  1
  U  U1  1  0.666667  0.333333  0.928222  1
  U  U2  1  0.666667  0.333333  0.571953  1
  U  U3  1  0.333333  0.666667  0.071778  1
  Ga  Ga4  1  0.000000  0.000000  0.500000  1
  Co  Co5  1  0.662682  0.831341  0.755723  1
  Co  Co6  1  0.337318  0.168659  0.244277  1
  Co  Co7  1  0.168659  0.337318  0.755723  1
  Co  Co8  1  0.831341  0.168659  0.244277  1
  Co  Co9  1  0.831341  0.662682  0.244277  1
  Co  Co10  1  0.168659  0.831341  0.755723  1
  Si  Si11  1  0.000000  0.000000  0.000000  1
