# generated using pymatgen
data_ScPaNi2Sn
_symmetry_space_group_name_H-M   'P 1'
_cell_length_a   7.33636000
_cell_length_b   7.27396200
_cell_length_c   3.46247500
_cell_angle_alpha   90.00000000
_cell_angle_beta   90.00000000
_cell_angle_gamma   90.00000000
_symmetry_Int_Tables_number   1
_chemical_formula_structural   ScPaNi2Sn
_chemical_formula_sum   'Sc2 Pa2 Ni4 Sn2'
_cell_volume   184.77291425
_cell_formula_units_Z   2
loop_
 _symmetry_equiv_pos_site_id
 _symmetry_equiv_pos_as_xyz
  1  'x, y, z'
loop_
 _atom_site_type_symbol
 _atom_site_label
 _atom_site_symmetry_multiplicity
 _atom_site_fract_x
 _atom_site_fract_y
 _atom_site_fract_z
 _atom_site_occupancy
  Sc  Sc0  1  0.826669  0.672762  0.500000  1
  Sc  Sc1  1  0.326669  0.827238  0.500000  1
  Pa  Pa2  1  0.670722  0.169748  0.500000  1
  Pa  Pa3  1  0.170722  0.330252  0.500000  1
  Ni  Ni4  1  0.871585  0.369299  0.000000  1
  Ni  Ni5  1  0.371585  0.130701  0.000000  1
  Ni  Ni6  1  0.626607  0.887476  0.000000  1
  Ni  Ni7  1  0.126607  0.612524  0.000000  1
  Sn  Sn8  1  0.004417  0.976622  0.000000  1
  Sn  Sn9  1  0.504417  0.523378  0.000000  1
