# generated using pymatgen
data_NaAu(BrO3)4
_symmetry_space_group_name_H-M   'P 1'
_cell_length_a   10.51048612
_cell_length_b   5.31863400
_cell_length_c   11.67450983
_cell_angle_alpha   90.00000000
_cell_angle_beta   116.24287283
_cell_angle_gamma   90.00000000
_symmetry_Int_Tables_number   1
_chemical_formula_structural   NaAu(BrO3)4
_chemical_formula_sum   'Na2 Au2 Br8 O24'
_cell_volume   585.35458654
_cell_formula_units_Z   2
loop_
 _symmetry_equiv_pos_site_id
 _symmetry_equiv_pos_as_xyz
  1  'x, y, z'
loop_
 _atom_site_type_symbol
 _atom_site_label
 _atom_site_symmetry_multiplicity
 _atom_site_fract_x
 _atom_site_fract_y
 _atom_site_fract_z
 _atom_site_occupancy
  Na  Na0  1  0.500000  0.000000  0.500000  1
  Na  Na1  1  0.500000  0.500000  0.000000  1
  Au  Au2  1  0.000000  0.000000  0.000000  1
  Au  Au3  1  0.000000  0.500000  0.500000  1
  Br  Br4  1  0.342272  0.596364  0.677069  1
  Br  Br5  1  0.657728  0.096364  0.822931  1
  Br  Br6  1  0.657728  0.403636  0.322931  1
  Br  Br7  1  0.342272  0.903636  0.177069  1
  Br  Br8  1  0.186574  0.066910  0.846886  1
  Br  Br9  1  0.813426  0.566910  0.653114  1
  Br  Br10  1  0.813426  0.933090  0.153114  1
  Br  Br11  1  0.186574  0.433090  0.346886  1
  O  O12  1  0.176473  0.715540  0.551043  1
  O  O13  1  0.823527  0.215540  0.948957  1
  O  O14  1  0.823527  0.284460  0.448957  1
  O  O15  1  0.176473  0.784460  0.051043  1
  O  O16  1  0.344535  0.706737  0.810915  1
  O  O17  1  0.655465  0.206737  0.689085  1
  O  O18  1  0.655465  0.293263  0.189085  1
  O  O19  1  0.344535  0.793263  0.310915  1
  O  O20  1  0.450149  0.784550  0.648601  1
  O  O21  1  0.549851  0.284550  0.851399  1
  O  O22  1  0.549851  0.215450  0.351399  1
  O  O23  1  0.450149  0.715450  0.148601  1
  O  O24  1  0.165378  0.229913  0.719638  1
  O  O25  1  0.834622  0.729913  0.780362  1
  O  O26  1  0.834622  0.770087  0.280362  1
  O  O27  1  0.165378  0.270087  0.219638  1
  O  O28  1  0.329532  0.177246  0.970904  1
  O  O29  1  0.670468  0.677246  0.529096  1
  O  O30  1  0.670468  0.822754  0.029096  1
  O  O31  1  0.329532  0.322754  0.470904  1
  O  O32  1  0.042479  0.201340  0.873049  1
  O  O33  1  0.957521  0.701340  0.626951  1
  O  O34  1  0.957521  0.798660  0.126951  1
  O  O35  1  0.042479  0.298660  0.373049  1
