# generated using pymatgen
data_Lu11Zr(Si3Ir)4
_symmetry_space_group_name_H-M   'P 1'
_cell_length_a   4.15198600
_cell_length_b   10.45802309
_cell_length_c   12.02488010
_cell_angle_alpha   89.98522272
_cell_angle_beta   90.00000000
_cell_angle_gamma   90.00000000
_symmetry_Int_Tables_number   1
_chemical_formula_structural   Lu11Zr(Si3Ir)4
_chemical_formula_sum   'Lu11 Zr1 Si12 Ir4'
_cell_volume   522.13910086
_cell_formula_units_Z   1
loop_
 _symmetry_equiv_pos_site_id
 _symmetry_equiv_pos_as_xyz
  1  'x, y, z'
loop_
 _atom_site_type_symbol
 _atom_site_label
 _atom_site_symmetry_multiplicity
 _atom_site_fract_x
 _atom_site_fract_y
 _atom_site_fract_z
 _atom_site_occupancy
  Lu  Lu0  1  0.250000  0.621533  0.519727  1
  Lu  Lu1  1  0.750000  0.120671  0.980546  1
  Lu  Lu2  1  0.750000  0.379056  0.480057  1
  Lu  Lu3  1  0.250000  0.919678  0.603029  1
  Lu  Lu4  1  0.250000  0.580811  0.101603  1
  Lu  Lu5  1  0.750000  0.079811  0.396966  1
  Lu  Lu6  1  0.750000  0.420584  0.897724  1
  Lu  Lu7  1  0.250000  0.659092  0.800931  1
  Lu  Lu8  1  0.250000  0.840849  0.299926  1
  Lu  Lu9  1  0.750000  0.340475  0.199267  1
  Lu  Lu10  1  0.750000  0.158650  0.699929  1
  Zr  Zr11  1  0.250000  0.876137  0.019811  1
  Si  Si12  1  0.250000  0.010728  0.825628  1
  Si  Si13  1  0.250000  0.487611  0.321653  1
  Si  Si14  1  0.750000  0.985325  0.175901  1
  Si  Si15  1  0.750000  0.512796  0.678640  1
  Si  Si16  1  0.250000  0.247966  0.841098  1
  Si  Si17  1  0.250000  0.252265  0.340615  1
  Si  Si18  1  0.750000  0.754393  0.158028  1
  Si  Si19  1  0.750000  0.747851  0.658845  1
  Si  Si20  1  0.250000  0.196601  0.543808  1
  Si  Si21  1  0.250000  0.304181  0.044004  1
  Si  Si22  1  0.750000  0.803666  0.455948  1
  Si  Si23  1  0.750000  0.701331  0.957035  1
  Ir  Ir24  1  0.250000  0.389525  0.678362  1
  Ir  Ir25  1  0.250000  0.108326  0.179620  1
  Ir  Ir26  1  0.750000  0.610931  0.319740  1
  Ir  Ir27  1  0.750000  0.889155  0.821560  1
