# generated using pymatgen
data_Ta4CoOsC
_symmetry_space_group_name_H-M   'P 1'
_cell_length_a   8.35643302
_cell_length_b   8.35643315
_cell_length_c   8.35643300
_cell_angle_alpha   59.99999664
_cell_angle_beta   59.99999613
_cell_angle_gamma   60.00000021
_symmetry_Int_Tables_number   1
_chemical_formula_structural   Ta4CoOsC
_chemical_formula_sum   'Ta16 Co4 Os4 C4'
_cell_volume   412.61764351
_cell_formula_units_Z   4
loop_
 _symmetry_equiv_pos_site_id
 _symmetry_equiv_pos_as_xyz
  1  'x, y, z'
loop_
 _atom_site_type_symbol
 _atom_site_label
 _atom_site_symmetry_multiplicity
 _atom_site_fract_x
 _atom_site_fract_y
 _atom_site_fract_z
 _atom_site_occupancy
  Ta  Ta0  1  0.087755  0.637415  0.637415  1
  Ta  Ta1  1  0.637415  0.087755  0.637415  1
  Ta  Ta2  1  0.637415  0.637415  0.087755  1
  Ta  Ta3  1  0.637415  0.637415  0.637415  1
  Ta  Ta4  1  0.811198  0.811198  0.188802  1
  Ta  Ta5  1  0.188802  0.188802  0.811198  1
  Ta  Ta6  1  0.811198  0.188802  0.811198  1
  Ta  Ta7  1  0.188802  0.811198  0.188802  1
  Ta  Ta8  1  0.188802  0.811198  0.811198  1
  Ta  Ta9  1  0.811198  0.188802  0.188802  1
  Ta  Ta10  1  0.435057  0.435057  0.064943  1
  Ta  Ta11  1  0.064943  0.064943  0.435057  1
  Ta  Ta12  1  0.435057  0.064943  0.435057  1
  Ta  Ta13  1  0.064943  0.435057  0.064943  1
  Ta  Ta14  1  0.064943  0.435057  0.435057  1
  Ta  Ta15  1  0.435057  0.064943  0.064943  1
  Co  Co16  1  0.453804  0.848732  0.848732  1
  Co  Co17  1  0.848732  0.453804  0.848732  1
  Co  Co18  1  0.848732  0.848732  0.453804  1
  Co  Co19  1  0.848732  0.848732  0.848732  1
  Os  Os20  1  0.749793  0.416736  0.416736  1
  Os  Os21  1  0.416736  0.749793  0.416736  1
  Os  Os22  1  0.416736  0.416736  0.749793  1
  Os  Os23  1  0.416736  0.416736  0.416736  1
  C  C24  1  0.626855  0.124382  0.124382  1
  C  C25  1  0.124382  0.626855  0.124382  1
  C  C26  1  0.124382  0.124382  0.626855  1
  C  C27  1  0.124382  0.124382  0.124382  1
