# generated using pymatgen
data_Mn2V8CrFe4
_symmetry_space_group_name_H-M   'P 1'
_cell_length_a   7.72018906
_cell_length_b   14.93574140
_cell_length_c   18.84906265
_cell_angle_alpha   71.72874138
_cell_angle_beta   71.66385134
_cell_angle_gamma   55.06517132
_symmetry_Int_Tables_number   1
_chemical_formula_structural   Mn2V8CrFe4
_chemical_formula_sum   'Mn2 V8 Cr1 Fe4'
_cell_volume   1666.29154229
_cell_formula_units_Z   1
loop_
 _symmetry_equiv_pos_site_id
 _symmetry_equiv_pos_as_xyz
  1  'x, y, z'
loop_
 _atom_site_type_symbol
 _atom_site_label
 _atom_site_symmetry_multiplicity
 _atom_site_fract_x
 _atom_site_fract_y
 _atom_site_fract_z
 _atom_site_occupancy
  Mn  Mn0  1  0.412454  0.701489  0.142055  1
  Mn  Mn1  1  0.111496  0.379789  0.299891  1
  V  V2  1  0.213342  0.755624  0.929148  1
  V  V3  1  0.248375  0.118011  0.468542  1
  V  V4  1  0.784254  0.077376  0.644863  1
  V  V5  1  0.614395  0.469249  0.101903  1
  V  V6  1  0.049993  0.292025  0.104067  1
  V  V7  1  0.520730  0.153316  0.343458  1
  V  V8  1  0.899789  0.341783  0.431104  1
  V  V9  1  0.525905  0.188504  0.185526  1
  Cr  Cr10  1  0.019896  0.004886  0.500028  1
  Fe  Fe11  1  0.732233  0.774293  0.341635  1
  Fe  Fe12  1  0.588536  0.304444  0.211129  1
  Fe  Fe13  1  0.131958  0.019595  0.171304  1
  Fe  Fe14  1  0.428073  0.897941  0.101123  1
