# generated using pymatgen
data_CsSiSbS4
_symmetry_space_group_name_H-M   'P 1'
_cell_length_a   7.11572300
_cell_length_b   6.53125950
_cell_length_c   19.08504278
_cell_angle_alpha   70.78125488
_cell_angle_beta   90.00000000
_cell_angle_gamma   90.00000000
_symmetry_Int_Tables_number   1
_chemical_formula_structural   CsSiSbS4
_chemical_formula_sum   'Cs4 Si4 Sb4 S16'
_cell_volume   837.53837984
_cell_formula_units_Z   4
loop_
 _symmetry_equiv_pos_site_id
 _symmetry_equiv_pos_as_xyz
  1  'x, y, z'
loop_
 _atom_site_type_symbol
 _atom_site_label
 _atom_site_symmetry_multiplicity
 _atom_site_fract_x
 _atom_site_fract_y
 _atom_site_fract_z
 _atom_site_occupancy
  Cs  Cs0  1  0.745005  0.706020  0.034915  1
  Cs  Cs1  1  0.254995  0.293980  0.965085  1
  Cs  Cs2  1  0.754995  0.706020  0.534915  1
  Cs  Cs3  1  0.245005  0.293980  0.465085  1
  Si  Si4  1  0.712226  0.196413  0.836267  1
  Si  Si5  1  0.787774  0.196413  0.336267  1
  Si  Si6  1  0.212226  0.803587  0.663733  1
  Si  Si7  1  0.287774  0.803587  0.163733  1
  Sb  Sb8  1  0.166937  0.237160  0.223765  1
  Sb  Sb9  1  0.666937  0.762840  0.276235  1
  Sb  Sb10  1  0.833063  0.762840  0.776235  1
  Sb  Sb11  1  0.333063  0.237160  0.723765  1
  S  S12  1  0.523740  0.010792  0.138599  1
  S  S13  1  0.741673  0.402067  0.400871  1
  S  S14  1  0.961676  0.000015  0.848167  1
  S  S15  1  0.840020  0.395395  0.221877  1
  S  S16  1  0.976260  0.010792  0.638599  1
  S  S17  1  0.241673  0.597933  0.099129  1
  S  S18  1  0.758327  0.402067  0.900871  1
  S  S19  1  0.340020  0.604605  0.278123  1
  S  S20  1  0.258327  0.597933  0.599129  1
  S  S21  1  0.476260  0.989208  0.861401  1
  S  S22  1  0.659980  0.395395  0.721877  1
  S  S23  1  0.159980  0.604605  0.778123  1
  S  S24  1  0.023740  0.989208  0.361401  1
  S  S25  1  0.038324  0.999985  0.151833  1
  S  S26  1  0.538324  0.000015  0.348167  1
  S  S27  1  0.461676  0.999985  0.651833  1
