# generated using pymatgen
data_Yb3Gd4Dy(B6Os)4
_symmetry_space_group_name_H-M   'P 1'
_cell_length_a   3.67413200
_cell_length_b   9.12806856
_cell_length_c   11.51680871
_cell_angle_alpha   89.95968162
_cell_angle_beta   90.00000000
_cell_angle_gamma   90.00000000
_symmetry_Int_Tables_number   1
_chemical_formula_structural   Yb3Gd4Dy(B6Os)4
_chemical_formula_sum   'Yb3 Gd4 Dy1 B24 Os4'
_cell_volume   386.24751177
_cell_formula_units_Z   1
loop_
 _symmetry_equiv_pos_site_id
 _symmetry_equiv_pos_as_xyz
  1  'x, y, z'
loop_
 _atom_site_type_symbol
 _atom_site_label
 _atom_site_symmetry_multiplicity
 _atom_site_fract_x
 _atom_site_fract_y
 _atom_site_fract_z
 _atom_site_occupancy
  Yb  Yb0  1  0.000000  0.941570  0.368937  1
  Yb  Yb1  1  0.000000  0.058429  0.630477  1
  Yb  Yb2  1  0.000000  0.441654  0.131206  1
  Gd  Gd3  1  0.000000  0.321417  0.412140  1
  Gd  Gd4  1  0.000000  0.679849  0.584067  1
  Gd  Gd5  1  0.000000  0.822687  0.088215  1
  Gd  Gd6  1  0.000000  0.177430  0.915167  1
  Dy  Dy7  1  0.000000  0.557546  0.870435  1
  B  B8  1  0.500000  0.554287  0.431750  1
  B  B9  1  0.500000  0.445856  0.567363  1
  B  B10  1  0.500000  0.054234  0.068404  1
  B  B11  1  0.500000  0.946245  0.932319  1
  B  B12  1  0.500000  0.749937  0.417407  1
  B  B13  1  0.500000  0.249940  0.582265  1
  B  B14  1  0.500000  0.249174  0.082743  1
  B  B15  1  0.500000  0.751806  0.918397  1
  B  B16  1  0.500000  0.789836  0.266139  1
  B  B17  1  0.500000  0.209244  0.733943  1
  B  B18  1  0.500000  0.289619  0.234089  1
  B  B19  1  0.500000  0.711005  0.765349  1
  B  B20  1  0.500000  0.628892  0.186317  1
  B  B21  1  0.500000  0.369535  0.814012  1
  B  B22  1  0.500000  0.128522  0.314090  1
  B  B23  1  0.500000  0.871859  0.685299  1
  B  B24  1  0.500000  0.982456  0.212808  1
  B  B25  1  0.500000  0.017494  0.787268  1
  B  B26  1  0.500000  0.482659  0.287375  1
  B  B27  1  0.500000  0.517058  0.711675  1
  B  B28  1  0.500000  0.599089  0.028517  1
  B  B29  1  0.500000  0.400133  0.972901  1
  B  B30  1  0.500000  0.095859  0.472855  1
  B  B31  1  0.500000  0.904465  0.526794  1
  Os  Os32  1  0.000000  0.637551  0.321058  1
  Os  Os33  1  0.000000  0.362486  0.678526  1
  Os  Os34  1  0.000000  0.137743  0.179409  1
  Os  Os35  1  0.000000  0.862432  0.820283  1
