# generated using pymatgen
data_Rb3Dy(AsSe2)6
_symmetry_space_group_name_H-M   'P 1'
_cell_length_a   9.90137800
_cell_length_b   9.90137760
_cell_length_c   8.44355400
_cell_angle_alpha   90.00000000
_cell_angle_beta   90.00000000
_cell_angle_gamma   119.99999464
_symmetry_Int_Tables_number   1
_chemical_formula_structural   Rb3Dy(AsSe2)6
_chemical_formula_sum   'Rb3 Dy1 As6 Se12'
_cell_volume   716.88122150
_cell_formula_units_Z   1
loop_
 _symmetry_equiv_pos_site_id
 _symmetry_equiv_pos_as_xyz
  1  'x, y, z'
loop_
 _atom_site_type_symbol
 _atom_site_label
 _atom_site_symmetry_multiplicity
 _atom_site_fract_x
 _atom_site_fract_y
 _atom_site_fract_z
 _atom_site_occupancy
  Rb  Rb0  1  0.000000  0.000000  0.000000  1
  Rb  Rb1  1  0.333333  0.666667  0.838626  1
  Rb  Rb2  1  0.666667  0.333333  0.161374  1
  Dy  Dy3  1  0.000000  0.000000  0.500000  1
  As  As4  1  0.293353  0.839281  0.371326  1
  As  As5  1  0.160719  0.454072  0.371326  1
  As  As6  1  0.545928  0.706647  0.371326  1
  As  As7  1  0.706647  0.160719  0.628674  1
  As  As8  1  0.839281  0.545928  0.628674  1
  As  As9  1  0.454072  0.293353  0.628674  1
  Se  Se10  1  0.265421  0.058140  0.303629  1
  Se  Se11  1  0.941860  0.207282  0.303629  1
  Se  Se12  1  0.792718  0.734579  0.303629  1
  Se  Se13  1  0.734579  0.941860  0.696371  1
  Se  Se14  1  0.058140  0.792718  0.696371  1
  Se  Se15  1  0.207282  0.265421  0.696371  1
  Se  Se16  1  0.529854  0.906089  0.210804  1
  Se  Se17  1  0.093911  0.623765  0.210804  1
  Se  Se18  1  0.376235  0.470146  0.210804  1
  Se  Se19  1  0.470146  0.093911  0.789196  1
  Se  Se20  1  0.906089  0.376235  0.789196  1
  Se  Se21  1  0.623765  0.529854  0.789196  1
