# generated using pymatgen
data_Rb2NaYSb2
_symmetry_space_group_name_H-M   'P 1'
_cell_length_a   11.35907091
_cell_length_b   11.35907108
_cell_length_c   7.47396400
_cell_angle_alpha   90.00000000
_cell_angle_beta   90.00000000
_cell_angle_gamma   98.20792354
_symmetry_Int_Tables_number   1
_chemical_formula_structural   Rb2NaYSb2
_chemical_formula_sum   'Rb8 Na4 Y4 Sb8'
_cell_volume   954.47595177
_cell_formula_units_Z   4
loop_
 _symmetry_equiv_pos_site_id
 _symmetry_equiv_pos_as_xyz
  1  'x, y, z'
loop_
 _atom_site_type_symbol
 _atom_site_label
 _atom_site_symmetry_multiplicity
 _atom_site_fract_x
 _atom_site_fract_y
 _atom_site_fract_z
 _atom_site_occupancy
  Rb  Rb0  1  0.070310  0.429690  0.250000  1
  Rb  Rb1  1  0.429690  0.070310  0.750000  1
  Rb  Rb2  1  0.929690  0.570310  0.750000  1
  Rb  Rb3  1  0.570310  0.929690  0.250000  1
  Rb  Rb4  1  0.676760  0.323240  0.215129  1
  Rb  Rb5  1  0.823240  0.176760  0.715129  1
  Rb  Rb6  1  0.323240  0.676760  0.784871  1
  Rb  Rb7  1  0.176760  0.823240  0.284871  1
  Na  Na8  1  0.382007  0.382007  0.000000  1
  Na  Na9  1  0.117993  0.117993  0.500000  1
  Na  Na10  1  0.617993  0.617993  0.000000  1
  Na  Na11  1  0.882007  0.882007  0.500000  1
  Y  Y12  1  0.131077  0.131077  0.000000  1
  Y  Y13  1  0.368923  0.368923  0.500000  1
  Y  Y14  1  0.868923  0.868923  0.000000  1
  Y  Y15  1  0.631077  0.631077  0.500000  1
  Sb  Sb16  1  0.846836  0.653163  0.250000  1
  Sb  Sb17  1  0.653163  0.846836  0.750000  1
  Sb  Sb18  1  0.153163  0.346836  0.750000  1
  Sb  Sb19  1  0.346836  0.153163  0.250000  1
  Sb  Sb20  1  0.899848  0.100152  0.211749  1
  Sb  Sb21  1  0.600152  0.399848  0.711749  1
  Sb  Sb22  1  0.100152  0.899848  0.788251  1
  Sb  Sb23  1  0.399848  0.600152  0.288251  1
