# generated using pymatgen
data_Np2Hg(OF5)2
_symmetry_space_group_name_H-M   'P 1'
_cell_length_a   11.08948314
_cell_length_b   11.08948309
_cell_length_c   6.10566171
_cell_angle_alpha   85.09734197
_cell_angle_beta   85.09734424
_cell_angle_gamma   50.24128433
_symmetry_Int_Tables_number   1
_chemical_formula_structural   Np2Hg(OF5)2
_chemical_formula_sum   'Np4 Hg2 O4 F20'
_cell_volume   574.63757281
_cell_formula_units_Z   2
loop_
 _symmetry_equiv_pos_site_id
 _symmetry_equiv_pos_as_xyz
  1  'x, y, z'
loop_
 _atom_site_type_symbol
 _atom_site_label
 _atom_site_symmetry_multiplicity
 _atom_site_fract_x
 _atom_site_fract_y
 _atom_site_fract_z
 _atom_site_occupancy
  Np  Np0  1  0.374529  0.882401  0.830272  1
  Np  Np1  1  0.117599  0.625471  0.669728  1
  Np  Np2  1  0.625471  0.117599  0.169728  1
  Np  Np3  1  0.882401  0.374529  0.330272  1
  Hg  Hg4  1  0.381716  0.618284  0.250000  1
  Hg  Hg5  1  0.618284  0.381716  0.750000  1
  O  O6  1  0.449837  0.673711  0.962397  1
  O  O7  1  0.326289  0.550163  0.537603  1
  O  O8  1  0.550163  0.326289  0.037603  1
  O  O9  1  0.673711  0.449837  0.462397  1
  F  F10  1  0.328684  0.829857  0.547872  1
  F  F11  1  0.170143  0.671316  0.952128  1
  F  F12  1  0.671316  0.170143  0.452128  1
  F  F13  1  0.829857  0.328684  0.047872  1
  F  F14  1  0.298164  0.089326  0.692639  1
  F  F15  1  0.910674  0.701836  0.807361  1
  F  F16  1  0.701836  0.910674  0.307361  1
  F  F17  1  0.089326  0.298164  0.192639  1
  F  F18  1  0.592693  0.780387  0.703967  1
  F  F19  1  0.219613  0.407307  0.796033  1
  F  F20  1  0.407307  0.219613  0.296033  1
  F  F21  1  0.780387  0.592693  0.203967  1
  F  F22  1  0.420363  0.929418  0.110535  1
  F  F23  1  0.070582  0.579637  0.389465  1
  F  F24  1  0.579637  0.070582  0.889465  1
  F  F25  1  0.929418  0.420363  0.610535  1
  F  F26  1  0.156027  0.981969  0.957486  1
  F  F27  1  0.018031  0.843973  0.542514  1
  F  F28  1  0.843973  0.018031  0.042514  1
  F  F29  1  0.981969  0.156027  0.457486  1
