# generated using pymatgen
data_YHo7Zn(Si4Pd)3
_symmetry_space_group_name_H-M   'P 1'
_cell_length_a   8.12453000
_cell_length_b   8.12845401
_cell_length_c   8.07026208
_cell_angle_alpha   90.01390602
_cell_angle_beta   90.00000000
_cell_angle_gamma   119.98403204
_symmetry_Int_Tables_number   1
_chemical_formula_structural   YHo7Zn(Si4Pd)3
_chemical_formula_sum   'Y1 Ho7 Zn1 Si12 Pd3'
_cell_volume   461.63030337
_cell_formula_units_Z   1
loop_
 _symmetry_equiv_pos_site_id
 _symmetry_equiv_pos_as_xyz
  1  'x, y, z'
loop_
 _atom_site_type_symbol
 _atom_site_label
 _atom_site_symmetry_multiplicity
 _atom_site_fract_x
 _atom_site_fract_y
 _atom_site_fract_z
 _atom_site_occupancy
  Y  Y0  1  0.501679  0.003356  0.250915  1
  Ho  Ho1  1  0.498179  0.996360  0.749064  1
  Ho  Ho2  1  0.996445  0.498229  0.251138  1
  Ho  Ho3  1  0.003658  0.501841  0.749043  1
  Ho  Ho4  1  0.501785  0.498229  0.251138  1
  Ho  Ho5  1  0.498181  0.501841  0.749043  1
  Ho  Ho6  1  0.999995  0.999991  0.250103  1
  Ho  Ho7  1  0.000000  0.000000  0.748495  1
  Zn  Zn8  1  0.333109  0.666220  0.010294  1
  Si  Si9  1  0.165411  0.330821  0.997713  1
  Si  Si10  1  0.833119  0.666238  0.001024  1
  Si  Si11  1  0.669323  0.834617  0.997371  1
  Si  Si12  1  0.834257  0.668515  0.501449  1
  Si  Si13  1  0.333705  0.166947  0.000557  1
  Si  Si14  1  0.165780  0.331559  0.498156  1
  Si  Si15  1  0.165295  0.834617  0.997371  1
  Si  Si16  1  0.331429  0.165745  0.501876  1
  Si  Si17  1  0.833240  0.166947  0.000557  1
  Si  Si18  1  0.668484  0.834208  0.498580  1
  Si  Si19  1  0.834317  0.165745  0.501876  1
  Si  Si20  1  0.165725  0.834208  0.498580  1
  Pd  Pd21  1  0.666894  0.333786  0.994304  1
  Pd  Pd22  1  0.666926  0.333850  0.504717  1
  Pd  Pd23  1  0.333065  0.666131  0.496637  1
