# generated using pymatgen
data_Tb4Ir3RhF28
_symmetry_space_group_name_H-M   'P 1'
_cell_length_a   5.58896616
_cell_length_b   8.94938534
_cell_length_c   11.99466896
_cell_angle_alpha   62.51431653
_cell_angle_beta   89.82647897
_cell_angle_gamma   90.10176624
_symmetry_Int_Tables_number   1
_chemical_formula_structural   Tb4Ir3RhF28
_chemical_formula_sum   'Tb4 Ir3 Rh1 F28'
_cell_volume   532.22292890
_cell_formula_units_Z   1
loop_
 _symmetry_equiv_pos_site_id
 _symmetry_equiv_pos_as_xyz
  1  'x, y, z'
loop_
 _atom_site_type_symbol
 _atom_site_label
 _atom_site_symmetry_multiplicity
 _atom_site_fract_x
 _atom_site_fract_y
 _atom_site_fract_z
 _atom_site_occupancy
  Tb  Tb0  1  0.257946  0.810612  0.272183  1
  Tb  Tb1  1  0.738597  0.191650  0.731938  1
  Tb  Tb2  1  0.760284  0.180408  0.238901  1
  Tb  Tb3  1  0.239071  0.813713  0.761518  1
  Ir  Ir4  1  0.756190  0.725410  0.044577  1
  Ir  Ir5  1  0.242390  0.271945  0.957950  1
  Ir  Ir6  1  0.256688  0.274386  0.454700  1
  Rh  Rh7  1  0.743461  0.726433  0.543995  1
  F  F8  1  0.945632  0.706862  0.415841  1
  F  F9  1  0.060114  0.296349  0.581884  1
  F  F10  1  0.441924  0.293168  0.083481  1
  F  F11  1  0.554370  0.704908  0.919614  1
  F  F12  1  0.470250  0.730299  0.138172  1
  F  F13  1  0.531257  0.266675  0.865774  1
  F  F14  1  0.967419  0.273612  0.362263  1
  F  F15  1  0.029347  0.730989  0.638623  1
  F  F16  1  0.955780  0.744505  0.171771  1
  F  F17  1  0.047428  0.252349  0.829349  1
  F  F18  1  0.449529  0.256459  0.324329  1
  F  F19  1  0.546329  0.747839  0.673293  1
  F  F20  1  0.764221  0.481138  0.141285  1
  F  F21  1  0.235019  0.515410  0.861573  1
  F  F22  1  0.268677  0.517343  0.357423  1
  F  F23  1  0.732359  0.479399  0.642411  1
  F  F24  1  0.947311  0.281280  0.045867  1
  F  F25  1  0.047855  0.716532  0.954946  1
  F  F26  1  0.449432  0.716947  0.455676  1
  F  F27  1  0.553159  0.281132  0.541421  1
  F  F28  1  0.741466  0.973753  0.446677  1
  F  F29  1  0.255620  0.031175  0.547030  1
  F  F30  1  0.239734  0.028694  0.051121  1
  F  F31  1  0.757637  0.969363  0.950561  1
  F  F32  1  0.582949  0.970666  0.228721  1
  F  F33  1  0.419156  0.029685  0.766101  1
  F  F34  1  0.089990  0.033059  0.267742  1
  F  F35  1  0.921411  0.975857  0.731286  1
