# generated using pymatgen
data_Hf5Zr3(NbGa3)4
_symmetry_space_group_name_H-M   'P 1'
_cell_length_a   5.52747300
_cell_length_b   8.52574941
_cell_length_c   9.20297845
_cell_angle_alpha   90.03554641
_cell_angle_beta   90.00000000
_cell_angle_gamma   90.00000000
_symmetry_Int_Tables_number   1
_chemical_formula_structural   Hf5Zr3(NbGa3)4
_chemical_formula_sum   'Hf5 Zr3 Nb4 Ga12'
_cell_volume   433.69809514
_cell_formula_units_Z   1
loop_
 _symmetry_equiv_pos_site_id
 _symmetry_equiv_pos_as_xyz
  1  'x, y, z'
loop_
 _atom_site_type_symbol
 _atom_site_label
 _atom_site_symmetry_multiplicity
 _atom_site_fract_x
 _atom_site_fract_y
 _atom_site_fract_z
 _atom_site_occupancy
  Hf  Hf0  1  0.250000  0.032384  0.621980  1
  Hf  Hf1  1  0.750000  0.365829  0.181590  1
  Hf  Hf2  1  0.250000  0.633121  0.818335  1
  Hf  Hf3  1  0.750000  0.866578  0.818059  1
  Hf  Hf4  1  0.250000  0.133706  0.181018  1
  Zr  Zr5  1  0.750000  0.468883  0.620850  1
  Zr  Zr6  1  0.250000  0.531922  0.379176  1
  Zr  Zr7  1  0.750000  0.968029  0.379357  1
  Nb  Nb8  1  0.000061  0.750320  0.110323  1
  Nb  Nb9  1  0.499863  0.249501  0.889177  1
  Nb  Nb10  1  0.000137  0.249501  0.889177  1
  Nb  Nb11  1  0.499939  0.750320  0.110323  1
  Ga  Ga12  1  0.000954  0.750755  0.573330  1
  Ga  Ga13  1  0.499171  0.249518  0.427301  1
  Ga  Ga14  1  0.000829  0.249518  0.427301  1
  Ga  Ga15  1  0.499046  0.750755  0.573330  1
  Ga  Ga16  1  0.750000  0.044624  0.080041  1
  Ga  Ga17  1  0.250000  0.955330  0.919515  1
  Ga  Ga18  1  0.750000  0.544420  0.920124  1
  Ga  Ga19  1  0.250000  0.455376  0.079780  1
  Ga  Ga20  1  0.750000  0.131253  0.653379  1
  Ga  Ga21  1  0.250000  0.869476  0.347004  1
  Ga  Ga22  1  0.750000  0.630852  0.346297  1
  Ga  Ga23  1  0.250000  0.368030  0.653232  1
