# generated using pymatgen
data_Pr3Be2Pt7
_symmetry_space_group_name_H-M   'P 1'
_cell_length_a   8.69613587
_cell_length_b   8.69613642
_cell_length_c   8.69613686
_cell_angle_alpha   37.13225167
_cell_angle_beta   37.13224761
_cell_angle_gamma   37.13224912
_symmetry_Int_Tables_number   1
_chemical_formula_structural   Pr3Be2Pt7
_chemical_formula_sum   'Pr3 Be2 Pt7'
_cell_volume   214.77217703
_cell_formula_units_Z   1
loop_
 _symmetry_equiv_pos_site_id
 _symmetry_equiv_pos_as_xyz
  1  'x, y, z'
loop_
 _atom_site_type_symbol
 _atom_site_label
 _atom_site_symmetry_multiplicity
 _atom_site_fract_x
 _atom_site_fract_y
 _atom_site_fract_z
 _atom_site_occupancy
  Pr  Pr0  1  0.358238  0.358238  0.358238  1
  Pr  Pr1  1  0.500000  0.500000  0.500000  1
  Pr  Pr2  1  0.641761  0.641761  0.641761  1
  Be  Be3  1  0.167097  0.167097  0.167097  1
  Be  Be4  1  0.832903  0.832903  0.832903  1
  Pt  Pt5  1  0.000000  0.000000  0.000000  1
  Pt  Pt6  1  0.571953  0.071527  0.071528  1
  Pt  Pt7  1  0.071527  0.571953  0.071528  1
  Pt  Pt8  1  0.928473  0.928473  0.428046  1
  Pt  Pt9  1  0.071527  0.071527  0.571954  1
  Pt  Pt10  1  0.928473  0.428047  0.928472  1
  Pt  Pt11  1  0.428047  0.928473  0.928472  1
