# generated using pymatgen
data_Yb3YMn3FeB16
_symmetry_space_group_name_H-M   'P 1'
_cell_length_a   3.36078600
_cell_length_b   5.90272500
_cell_length_c   11.42245539
_cell_angle_alpha   90.07549902
_cell_angle_beta   90.00000000
_cell_angle_gamma   90.00000000
_symmetry_Int_Tables_number   1
_chemical_formula_structural   Yb3YMn3FeB16
_chemical_formula_sum   'Yb3 Y1 Mn3 Fe1 B16'
_cell_volume   226.59613805
_cell_formula_units_Z   1
loop_
 _symmetry_equiv_pos_site_id
 _symmetry_equiv_pos_as_xyz
  1  'x, y, z'
loop_
 _atom_site_type_symbol
 _atom_site_label
 _atom_site_symmetry_multiplicity
 _atom_site_fract_x
 _atom_site_fract_y
 _atom_site_fract_z
 _atom_site_occupancy
  Yb  Yb0  1  0.500000  0.375024  0.150102  1
  Yb  Yb1  1  0.500000  0.626126  0.849361  1
  Yb  Yb2  1  0.500000  0.125491  0.651782  1
  Y  Y3  1  0.500000  0.874432  0.348203  1
  Mn  Mn4  1  0.500000  0.377812  0.419254  1
  Mn  Mn5  1  0.500000  0.622677  0.579551  1
  Mn  Mn6  1  0.500000  0.127952  0.917288  1
  Fe  Fe7  1  0.500000  0.873663  0.083463  1
  B  B8  1  0.000000  0.111604  0.047571  1
  B  B9  1  0.000000  0.885666  0.954601  1
  B  B10  1  0.000000  0.386329  0.546926  1
  B  B11  1  0.000000  0.611648  0.453220  1
  B  B12  1  0.000000  0.138639  0.467764  1
  B  B13  1  0.000000  0.861325  0.533025  1
  B  B14  1  0.000000  0.362527  0.968106  1
  B  B15  1  0.000000  0.638270  0.032503  1
  B  B16  1  0.000000  0.024851  0.190124  1
  B  B17  1  0.000000  0.974473  0.809355  1
  B  B18  1  0.000000  0.476659  0.690654  1
  B  B19  1  0.000000  0.523771  0.308821  1
  B  B20  1  0.000000  0.220904  0.316846  1
  B  B21  1  0.000000  0.779099  0.683210  1
  B  B22  1  0.000000  0.280824  0.816470  1
  B  B23  1  0.000000  0.720235  0.181798  1
