# generated using pymatgen
data_Eu3(H6Rh)2
_symmetry_space_group_name_H-M   'P 1'
_cell_length_a   5.07580600
_cell_length_b   5.07580642
_cell_length_c   8.40998400
_cell_angle_alpha   90.00000000
_cell_angle_beta   90.00000000
_cell_angle_gamma   119.99998425
_symmetry_Int_Tables_number   1
_chemical_formula_structural   Eu3(H6Rh)2
_chemical_formula_sum   'Eu3 H12 Rh2'
_cell_volume   187.64454148
_cell_formula_units_Z   1
loop_
 _symmetry_equiv_pos_site_id
 _symmetry_equiv_pos_as_xyz
  1  'x, y, z'
loop_
 _atom_site_type_symbol
 _atom_site_label
 _atom_site_symmetry_multiplicity
 _atom_site_fract_x
 _atom_site_fract_y
 _atom_site_fract_z
 _atom_site_occupancy
  Eu  Eu0  1  0.000000  0.000000  0.000000  1
  Eu  Eu1  1  0.666667  0.333333  0.362252  1
  Eu  Eu2  1  0.333333  0.666667  0.637748  1
  H  H3  1  0.175797  0.824203  0.361026  1
  H  H4  1  0.648405  0.824203  0.361026  1
  H  H5  1  0.175797  0.351595  0.361026  1
  H  H6  1  0.824203  0.175797  0.638974  1
  H  H7  1  0.351595  0.175797  0.638974  1
  H  H8  1  0.824203  0.648405  0.638974  1
  H  H9  1  0.513925  0.027849  0.872277  1
  H  H10  1  0.513925  0.486075  0.872277  1
  H  H11  1  0.972151  0.486075  0.872277  1
  H  H12  1  0.486075  0.972151  0.127723  1
  H  H13  1  0.486075  0.513925  0.127723  1
  H  H14  1  0.027849  0.513925  0.127723  1
  Rh  Rh15  1  0.666667  0.333333  0.753965  1
  Rh  Rh16  1  0.333333  0.666667  0.246035  1
