# generated using pymatgen
data_YNp3Ga12Tc
_symmetry_space_group_name_H-M   'P 1'
_cell_length_a   7.47254999
_cell_length_b   7.47254979
_cell_length_c   7.47156500
_cell_angle_alpha   109.46854560
_cell_angle_beta   109.46854506
_cell_angle_gamma   109.47389661
_symmetry_Int_Tables_number   1
_chemical_formula_structural   YNp3Ga12Tc
_chemical_formula_sum   'Y1 Np3 Ga12 Tc1'
_cell_volume   321.17495226
_cell_formula_units_Z   1
loop_
 _symmetry_equiv_pos_site_id
 _symmetry_equiv_pos_as_xyz
  1  'x, y, z'
loop_
 _atom_site_type_symbol
 _atom_site_label
 _atom_site_symmetry_multiplicity
 _atom_site_fract_x
 _atom_site_fract_y
 _atom_site_fract_z
 _atom_site_occupancy
  Y  Y0  1  0.000000  0.000000  0.500000  1
  Np  Np1  1  0.000000  0.500000  0.000000  1
  Np  Np2  1  0.500000  0.000000  0.000000  1
  Np  Np3  1  0.500000  0.500000  0.500000  1
  Ga  Ga4  1  0.749189  0.250811  0.500000  1
  Ga  Ga5  1  0.749189  0.498379  0.249189  1
  Ga  Ga6  1  0.501621  0.250811  0.750811  1
  Ga  Ga7  1  0.250811  0.501621  0.750811  1
  Ga  Ga8  1  0.250811  0.749189  0.500000  1
  Ga  Ga9  1  0.498379  0.749189  0.249189  1
  Ga  Ga10  1  0.708728  0.708728  0.997465  1
  Ga  Ga11  1  0.291272  0.000000  0.288737  1
  Ga  Ga12  1  0.000000  0.291272  0.288737  1
  Ga  Ga13  1  0.291272  0.291272  0.002535  1
  Ga  Ga14  1  0.708728  0.000000  0.711263  1
  Ga  Ga15  1  0.000000  0.708728  0.711263  1
  Tc  Tc16  1  0.000000  0.000000  0.000000  1
