# generated using pymatgen
data_Lu5Al2CdC4
_symmetry_space_group_name_H-M   'P 1'
_cell_length_a   10.76890400
_cell_length_b   10.76890400
_cell_length_c   3.43554000
_cell_angle_alpha   90.00000000
_cell_angle_beta   90.00000000
_cell_angle_gamma   90.00000000
_symmetry_Int_Tables_number   1
_chemical_formula_structural   Lu5Al2CdC4
_chemical_formula_sum   'Lu10 Al4 Cd2 C8'
_cell_volume   398.41714611
_cell_formula_units_Z   2
loop_
 _symmetry_equiv_pos_site_id
 _symmetry_equiv_pos_as_xyz
  1  'x, y, z'
loop_
 _atom_site_type_symbol
 _atom_site_label
 _atom_site_symmetry_multiplicity
 _atom_site_fract_x
 _atom_site_fract_y
 _atom_site_fract_z
 _atom_site_occupancy
  Lu  Lu0  1  0.548694  0.735536  0.500000  1
  Lu  Lu1  1  0.451306  0.264464  0.500000  1
  Lu  Lu2  1  0.048694  0.764464  0.500000  1
  Lu  Lu3  1  0.951306  0.235536  0.500000  1
  Lu  Lu4  1  0.264464  0.548694  0.500000  1
  Lu  Lu5  1  0.735536  0.451306  0.500000  1
  Lu  Lu6  1  0.235536  0.048694  0.500000  1
  Lu  Lu7  1  0.764464  0.951306  0.500000  1
  Lu  Lu8  1  0.500000  0.000000  0.000000  1
  Lu  Lu9  1  0.000000  0.500000  0.000000  1
  Al  Al10  1  0.703547  0.203547  0.000000  1
  Al  Al11  1  0.296453  0.796453  0.000000  1
  Al  Al12  1  0.203547  0.296453  0.000000  1
  Al  Al13  1  0.796453  0.703547  0.000000  1
  Cd  Cd14  1  0.500000  0.500000  0.000000  1
  Cd  Cd15  1  0.000000  0.000000  0.000000  1
  C  C16  1  0.628214  0.128214  0.500000  1
  C  C17  1  0.371786  0.871786  0.500000  1
  C  C18  1  0.128214  0.371786  0.500000  1
  C  C19  1  0.871786  0.628214  0.500000  1
  C  C20  1  0.159944  0.659944  0.000000  1
  C  C21  1  0.840056  0.340056  0.000000  1
  C  C22  1  0.659944  0.840056  0.000000  1
  C  C23  1  0.340056  0.159944  0.000000  1
