# generated using pymatgen
data_Nd4Ga10Ir5Pt
_symmetry_space_group_name_H-M   'P 1'
_cell_length_a   8.68495101
_cell_length_b   8.68495108
_cell_length_c   8.68495075
_cell_angle_alpha   140.94233717
_cell_angle_beta   108.07093052
_cell_angle_gamma   85.02583888
_symmetry_Int_Tables_number   1
_chemical_formula_structural   Nd4Ga10Ir5Pt
_chemical_formula_sum   'Nd4 Ga10 Ir5 Pt1'
_cell_volume   379.19584521
_cell_formula_units_Z   1
loop_
 _symmetry_equiv_pos_site_id
 _symmetry_equiv_pos_as_xyz
  1  'x, y, z'
loop_
 _atom_site_type_symbol
 _atom_site_label
 _atom_site_symmetry_multiplicity
 _atom_site_fract_x
 _atom_site_fract_y
 _atom_site_fract_z
 _atom_site_occupancy
  Nd  Nd0  1  0.865699  0.637635  0.229248  1
  Nd  Nd1  1  0.134301  0.363549  0.771937  1
  Nd  Nd2  1  0.408386  0.136451  0.270752  1
  Nd  Nd3  1  0.591614  0.862365  0.728063  1
  Ga  Ga4  1  0.500000  0.750000  0.250000  1
  Ga  Ga5  1  0.500000  0.250000  0.750000  1
  Ga  Ga6  1  0.209394  0.959394  0.750000  1
  Ga  Ga7  1  0.790606  0.540606  0.750000  1
  Ga  Ga8  1  0.792884  0.042884  0.250000  1
  Ga  Ga9  1  0.207116  0.457116  0.250000  1
  Ga  Ga10  1  0.080872  0.913416  0.177389  1
  Ga  Ga11  1  0.919128  0.096515  0.832543  1
  Ga  Ga12  1  0.736027  0.403485  0.322611  1
  Ga  Ga13  1  0.263973  0.586584  0.667457  1
  Ir  Ir14  1  0.000000  0.250000  0.250000  1
  Ir  Ir15  1  0.256232  0.849880  0.402079  1
  Ir  Ir16  1  0.743768  0.145846  0.593647  1
  Ir  Ir17  1  0.447800  0.354154  0.097921  1
  Ir  Ir18  1  0.552200  0.650120  0.906353  1
  Pt  Pt19  1  0.000000  0.750000  0.750000  1
