# generated using pymatgen
data_Nd7Ho(GePt)8
_symmetry_space_group_name_H-M   'P 1'
_cell_length_a   4.48613200
_cell_length_b   7.68219212
_cell_length_c   14.57635409
_cell_angle_alpha   90.01623769
_cell_angle_beta   90.00000000
_cell_angle_gamma   90.00000000
_symmetry_Int_Tables_number   1
_chemical_formula_structural   Nd7Ho(GePt)8
_chemical_formula_sum   'Nd7 Ho1 Ge8 Pt8'
_cell_volume   502.34965007
_cell_formula_units_Z   1
loop_
 _symmetry_equiv_pos_site_id
 _symmetry_equiv_pos_as_xyz
  1  'x, y, z'
loop_
 _atom_site_type_symbol
 _atom_site_label
 _atom_site_symmetry_multiplicity
 _atom_site_fract_x
 _atom_site_fract_y
 _atom_site_fract_z
 _atom_site_occupancy
  Nd  Nd0  1  0.000000  0.211459  0.751506  1
  Nd  Nd1  1  0.000000  0.208742  0.248858  1
  Nd  Nd2  1  0.500000  0.788392  0.748450  1
  Nd  Nd3  1  0.000000  0.288142  0.499007  1
  Nd  Nd4  1  0.500000  0.712868  0.001575  1
  Nd  Nd5  1  0.000000  0.295436  0.001547  1
  Nd  Nd6  1  0.500000  0.705662  0.498402  1
  Ho  Ho7  1  0.500000  0.784289  0.251496  1
  Ge  Ge8  1  0.000000  0.589047  0.853709  1
  Ge  Ge9  1  0.000000  0.591672  0.149343  1
  Ge  Ge10  1  0.500000  0.411420  0.645853  1
  Ge  Ge11  1  0.500000  0.412334  0.353370  1
  Ge  Ge12  1  0.000000  0.909238  0.400553  1
  Ge  Ge13  1  0.000000  0.910272  0.595200  1
  Ge  Ge14  1  0.500000  0.088701  0.098905  1
  Ge  Ge15  1  0.500000  0.089329  0.904758  1
  Pt  Pt16  1  0.000000  0.923660  0.891664  1
  Pt  Pt17  1  0.000000  0.921622  0.112612  1
  Pt  Pt18  1  0.500000  0.076746  0.608193  1
  Pt  Pt19  1  0.500000  0.071816  0.386929  1
  Pt  Pt20  1  0.000000  0.585033  0.343948  1
  Pt  Pt21  1  0.000000  0.579483  0.650930  1
  Pt  Pt22  1  0.500000  0.424278  0.153798  1
  Pt  Pt23  1  0.500000  0.420358  0.849396  1
