# generated using pymatgen
data_Hf20Co(NiP4)3
_symmetry_space_group_name_H-M   'P 1'
_cell_length_a   3.59370000
_cell_length_b   10.19266001
_cell_length_c   17.04618621
_cell_angle_alpha   89.94867506
_cell_angle_beta   90.00000000
_cell_angle_gamma   90.00000000
_symmetry_Int_Tables_number   1
_chemical_formula_structural   Hf20Co(NiP4)3
_chemical_formula_sum   'Hf20 Co1 Ni3 P12'
_cell_volume   624.39067968
_cell_formula_units_Z   1
loop_
 _symmetry_equiv_pos_site_id
 _symmetry_equiv_pos_as_xyz
  1  'x, y, z'
loop_
 _atom_site_type_symbol
 _atom_site_label
 _atom_site_symmetry_multiplicity
 _atom_site_fract_x
 _atom_site_fract_y
 _atom_site_fract_z
 _atom_site_occupancy
  Hf  Hf0  1  0.250000  0.121619  0.476520  1
  Hf  Hf1  1  0.750000  0.879906  0.523112  1
  Hf  Hf2  1  0.750000  0.620118  0.023270  1
  Hf  Hf3  1  0.250000  0.379428  0.976505  1
  Hf  Hf4  1  0.250000  0.064198  0.076734  1
  Hf  Hf5  1  0.750000  0.936047  0.923186  1
  Hf  Hf6  1  0.750000  0.561371  0.423635  1
  Hf  Hf7  1  0.250000  0.436191  0.576146  1
  Hf  Hf8  1  0.250000  0.488568  0.272931  1
  Hf  Hf9  1  0.750000  0.510086  0.728159  1
  Hf  Hf10  1  0.750000  0.989766  0.227886  1
  Hf  Hf11  1  0.250000  0.010811  0.771969  1
  Hf  Hf12  1  0.250000  0.815058  0.368683  1
  Hf  Hf13  1  0.750000  0.185183  0.631132  1
  Hf  Hf14  1  0.750000  0.315145  0.131670  1
  Hf  Hf15  1  0.250000  0.684969  0.868463  1
  Hf  Hf16  1  0.250000  0.752144  0.169568  1
  Hf  Hf17  1  0.750000  0.248184  0.830200  1
  Hf  Hf18  1  0.750000  0.253736  0.331755  1
  Hf  Hf19  1  0.250000  0.748407  0.670054  1
  Co  Co20  1  0.250000  0.367565  0.412012  1
  Ni  Ni21  1  0.750000  0.632258  0.586319  1
  Ni  Ni22  1  0.750000  0.868113  0.086076  1
  Ni  Ni23  1  0.250000  0.131638  0.914007  1
  P  P24  1  0.250000  0.810411  0.009708  1
  P  P25  1  0.750000  0.189308  0.989990  1
  P  P26  1  0.750000  0.310790  0.490139  1
  P  P27  1  0.250000  0.689720  0.510104  1
  P  P28  1  0.250000  0.506884  0.116350  1
  P  P29  1  0.750000  0.493305  0.883556  1
  P  P30  1  0.750000  0.005888  0.383453  1
  P  P31  1  0.250000  0.993021  0.616612  1
  P  P32  1  0.250000  0.186145  0.217952  1
  P  P33  1  0.750000  0.813680  0.781964  1
  P  P34  1  0.750000  0.686828  0.282107  1
  P  P35  1  0.250000  0.313511  0.718069  1
