# generated using pymatgen
data_Sm4Co7As12Ru13
_symmetry_space_group_name_H-M   'P 1'
_cell_length_a   3.93710900
_cell_length_b   11.06294960
_cell_length_c   12.63375008
_cell_angle_alpha   90.20696422
_cell_angle_beta   90.00000000
_cell_angle_gamma   90.00000000
_symmetry_Int_Tables_number   1
_chemical_formula_structural   Sm4Co7As12Ru13
_chemical_formula_sum   'Sm4 Co7 As12 Ru13'
_cell_volume   550.27251403
_cell_formula_units_Z   1
loop_
 _symmetry_equiv_pos_site_id
 _symmetry_equiv_pos_as_xyz
  1  'x, y, z'
loop_
 _atom_site_type_symbol
 _atom_site_label
 _atom_site_symmetry_multiplicity
 _atom_site_fract_x
 _atom_site_fract_y
 _atom_site_fract_z
 _atom_site_occupancy
  Sm  Sm0  1  0.250000  0.584425  0.705722  1
  Sm  Sm1  1  0.250000  0.914680  0.204340  1
  Sm  Sm2  1  0.750000  0.415123  0.295516  1
  Sm  Sm3  1  0.750000  0.083734  0.795375  1
  Co  Co4  1  0.250000  0.612822  0.195908  1
  Co  Co5  1  0.750000  0.114567  0.303505  1
  Co  Co6  1  0.750000  0.385121  0.804505  1
  Co  Co7  1  0.250000  0.464707  0.935023  1
  Co  Co8  1  0.250000  0.035436  0.431213  1
  Co  Co9  1  0.750000  0.533243  0.066666  1
  Co  Co10  1  0.750000  0.967081  0.560647  1
  As  As11  1  0.250000  0.423337  0.112767  1
  As  As12  1  0.250000  0.080737  0.608074  1
  As  As13  1  0.750000  0.574038  0.888894  1
  As  As14  1  0.750000  0.923781  0.385119  1
  As  As15  1  0.250000  0.271749  0.872908  1
  As  As16  1  0.250000  0.228245  0.372020  1
  As  As17  1  0.750000  0.726398  0.127880  1
  As  As18  1  0.750000  0.772795  0.627462  1
  As  As19  1  0.250000  0.600809  0.386772  1
  As  As20  1  0.250000  0.898539  0.892169  1
  As  As21  1  0.750000  0.399727  0.612527  1
  As  As22  1  0.750000  0.101279  0.113353  1
  Ru  Ru23  1  0.250000  0.702639  0.989767  1
  Ru  Ru24  1  0.250000  0.797315  0.481783  1
  Ru  Ru25  1  0.750000  0.295873  0.014343  1
  Ru  Ru26  1  0.750000  0.205411  0.512612  1
  Ru  Ru27  1  0.250000  0.406314  0.487449  1
  Ru  Ru28  1  0.250000  0.095194  0.989363  1
  Ru  Ru29  1  0.750000  0.595001  0.512023  1
  Ru  Ru30  1  0.750000  0.904735  0.013726  1
  Ru  Ru31  1  0.250000  0.221797  0.180183  1
  Ru  Ru32  1  0.250000  0.280889  0.680174  1
  Ru  Ru33  1  0.750000  0.775341  0.824245  1
  Ru  Ru34  1  0.750000  0.720155  0.319646  1
  Ru  Ru35  1  0.250000  0.886964  0.696327  1
