# generated using pymatgen
data_Tb2Ho8FeCoSb4
_symmetry_space_group_name_H-M   'P 1'
_cell_length_a   7.86035100
_cell_length_b   8.79002600
_cell_length_c   12.14211700
_cell_angle_alpha   90.00000000
_cell_angle_beta   90.00000000
_cell_angle_gamma   90.00000000
_symmetry_Int_Tables_number   1
_chemical_formula_structural   Tb2Ho8FeCoSb4
_chemical_formula_sum   'Tb4 Ho16 Fe2 Co2 Sb8'
_cell_volume   838.93152169
_cell_formula_units_Z   2
loop_
 _symmetry_equiv_pos_site_id
 _symmetry_equiv_pos_as_xyz
  1  'x, y, z'
loop_
 _atom_site_type_symbol
 _atom_site_label
 _atom_site_symmetry_multiplicity
 _atom_site_fract_x
 _atom_site_fract_y
 _atom_site_fract_z
 _atom_site_occupancy
  Tb  Tb0  1  0.622056  0.750000  0.305875  1
  Tb  Tb1  1  0.122056  0.250000  0.194125  1
  Tb  Tb2  1  0.377769  0.250000  0.693922  1
  Tb  Tb3  1  0.877769  0.750000  0.806078  1
  Ho  Ho4  1  0.155454  0.750000  0.204853  1
  Ho  Ho5  1  0.655454  0.250000  0.295147  1
  Ho  Ho6  1  0.846450  0.250000  0.797570  1
  Ho  Ho7  1  0.346450  0.750000  0.702430  1
  Ho  Ho8  1  0.450526  0.750000  0.996543  1
  Ho  Ho9  1  0.950526  0.250000  0.503457  1
  Ho  Ho10  1  0.547885  0.250000  0.003168  1
  Ho  Ho11  1  0.047885  0.750000  0.496832  1
  Ho  Ho12  1  0.823236  0.966535  0.064031  1
  Ho  Ho13  1  0.323236  0.033465  0.435969  1
  Ho  Ho14  1  0.178712  0.461465  0.935317  1
  Ho  Ho15  1  0.678712  0.538535  0.564683  1
  Ho  Ho16  1  0.178712  0.038535  0.935317  1
  Ho  Ho17  1  0.678712  0.961465  0.564683  1
  Ho  Ho18  1  0.823236  0.533465  0.064031  1
  Ho  Ho19  1  0.323236  0.466535  0.435969  1
  Fe  Fe20  1  0.428465  0.750000  0.488168  1
  Fe  Fe21  1  0.928465  0.250000  0.011832  1
  Co  Co22  1  0.568547  0.250000  0.509232  1
  Co  Co23  1  0.068547  0.750000  0.990768  1
  Sb  Sb24  1  0.928368  0.992134  0.328138  1
  Sb  Sb25  1  0.428368  0.007866  0.171862  1
  Sb  Sb26  1  0.071108  0.491928  0.672128  1
  Sb  Sb27  1  0.571108  0.508072  0.827872  1
  Sb  Sb28  1  0.071108  0.008072  0.672128  1
  Sb  Sb29  1  0.571108  0.991928  0.827872  1
  Sb  Sb30  1  0.928368  0.507866  0.328138  1
  Sb  Sb31  1  0.428368  0.492134  0.171862  1
