# generated using pymatgen
data_Ti8Al15Os4Pt3
_symmetry_space_group_name_H-M   'P 1'
_cell_length_a   8.68755016
_cell_length_b   8.68183102
_cell_length_c   8.68727321
_cell_angle_alpha   119.99613495
_cell_angle_beta   119.80692688
_cell_angle_gamma   90.02236716
_symmetry_Int_Tables_number   1
_chemical_formula_structural   Ti8Al15Os4Pt3
_chemical_formula_sum   'Ti8 Al15 Os4 Pt3'
_cell_volume   464.60059848
_cell_formula_units_Z   1
loop_
 _symmetry_equiv_pos_site_id
 _symmetry_equiv_pos_as_xyz
  1  'x, y, z'
loop_
 _atom_site_type_symbol
 _atom_site_label
 _atom_site_symmetry_multiplicity
 _atom_site_fract_x
 _atom_site_fract_y
 _atom_site_fract_z
 _atom_site_occupancy
  Ti  Ti0  1  0.782932  0.288181  0.074017  1
  Ti  Ti1  1  0.221154  0.296474  0.507096  1
  Ti  Ti2  1  0.213126  0.712088  0.508843  1
  Ti  Ti3  1  0.223795  0.718726  0.926331  1
  Ti  Ti4  1  0.790035  0.716349  0.495569  1
  Ti  Ti5  1  0.776565  0.276916  0.487959  1
  Ti  Ti6  1  0.375817  0.124124  0.747949  1
  Ti  Ti7  1  0.385530  0.630752  0.258458  1
  Al  Al8  1  0.996434  0.496440  0.499784  1
  Al  Al9  1  0.152606  0.347115  0.194708  1
  Al  Al10  1  0.155081  0.964799  0.809895  1
  Al  Al11  1  0.149877  0.346488  0.802183  1
  Al  Al12  1  0.538162  0.345776  0.193314  1
  Al  Al13  1  0.845622  0.648584  0.799027  1
  Al  Al14  1  0.847340  0.039422  0.195061  1
  Al  Al15  1  0.842678  0.654189  0.188579  1
  Al  Al16  1  0.472256  0.657023  0.815207  1
  Al  Al17  1  0.380757  0.124815  0.257423  1
  Al  Al18  1  0.864712  0.121299  0.739283  1
  Al  Al19  1  0.621772  0.873301  0.251504  1
  Al  Al20  1  0.619055  0.368125  0.745040  1
  Al  Al21  1  0.615877  0.874399  0.741682  1
  Al  Al22  1  0.134932  0.879868  0.262639  1
  Os  Os23  1  0.000328  0.998870  0.501661  1
  Os  Os24  1  0.499030  0.000608  0.000300  1
  Os  Os25  1  0.496899  0.496364  0.998881  1
  Os  Os26  1  0.497491  0.499211  0.497750  1
  Pt  Pt27  1  0.001128  0.500897  0.001369  1
  Pt  Pt28  1  0.998234  0.998562  0.998373  1
  Pt  Pt29  1  0.500772  0.000228  0.500110  1
