# generated using pymatgen
data_Eu5InAg2
_symmetry_space_group_name_H-M   'P 1'
_cell_length_a   9.57208586
_cell_length_b   9.57208587
_cell_length_c   9.57208700
_cell_angle_alpha   128.00924103
_cell_angle_beta   128.00924108
_cell_angle_gamma   76.61005653
_symmetry_Int_Tables_number   1
_chemical_formula_structural   Eu5InAg2
_chemical_formula_sum   'Eu10 In2 Ag4'
_cell_volume   528.85413913
_cell_formula_units_Z   2
loop_
 _symmetry_equiv_pos_site_id
 _symmetry_equiv_pos_as_xyz
  1  'x, y, z'
loop_
 _atom_site_type_symbol
 _atom_site_label
 _atom_site_symmetry_multiplicity
 _atom_site_fract_x
 _atom_site_fract_y
 _atom_site_fract_z
 _atom_site_occupancy
  Eu  Eu0  1  0.500000  0.500000  0.000000  1
  Eu  Eu1  1  0.000000  0.000000  0.000000  1
  Eu  Eu2  1  0.521996  0.021996  0.834243  1
  Eu  Eu3  1  0.187752  0.687752  0.165751  1
  Eu  Eu4  1  0.021999  0.187750  0.500000  1
  Eu  Eu5  1  0.687750  0.521999  0.500000  1
  Eu  Eu6  1  0.478004  0.978004  0.165757  1
  Eu  Eu7  1  0.812248  0.312248  0.834249  1
  Eu  Eu8  1  0.978001  0.812250  0.500000  1
  Eu  Eu9  1  0.312250  0.478001  0.500000  1
  In  In10  1  0.249988  0.250012  0.000000  1
  In  In11  1  0.750012  0.749988  0.000000  1
  Ag  Ag12  1  0.124516  0.624516  0.749040  1
  Ag  Ag13  1  0.875484  0.375484  0.250960  1
  Ag  Ag14  1  0.624499  0.875501  0.500000  1
  Ag  Ag15  1  0.375501  0.124499  0.500000  1
