# generated using pymatgen
data_LaTbHo4(SbO7)2
_symmetry_space_group_name_H-M   'P 1'
_cell_length_a   6.49724957
_cell_length_b   6.49724968
_cell_length_c   7.58347310
_cell_angle_alpha   89.95723921
_cell_angle_beta   90.04276403
_cell_angle_gamma   109.06618629
_symmetry_Int_Tables_number   1
_chemical_formula_structural   LaTbHo4(SbO7)2
_chemical_formula_sum   'La1 Tb1 Ho4 Sb2 O14'
_cell_volume   302.56875045
_cell_formula_units_Z   1
loop_
 _symmetry_equiv_pos_site_id
 _symmetry_equiv_pos_as_xyz
  1  'x, y, z'
loop_
 _atom_site_type_symbol
 _atom_site_label
 _atom_site_symmetry_multiplicity
 _atom_site_fract_x
 _atom_site_fract_y
 _atom_site_fract_z
 _atom_site_occupancy
  La  La0  1  0.500000  0.500000  0.500000  1
  Tb  Tb1  1  0.500000  0.500000  0.000000  1
  Ho  Ho2  1  0.531285  0.000940  0.753119  1
  Ho  Ho3  1  0.000940  0.531285  0.246881  1
  Ho  Ho4  1  0.468715  0.999060  0.246881  1
  Ho  Ho5  1  0.999060  0.468715  0.753119  1
  Sb  Sb6  1  0.000000  0.000000  0.500000  1
  Sb  Sb7  1  0.000000  0.000000  0.000000  1
  O  O8  1  0.678914  0.934447  0.469605  1
  O  O9  1  0.934447  0.678914  0.530395  1
  O  O10  1  0.678632  0.928822  0.029796  1
  O  O11  1  0.928822  0.678632  0.970204  1
  O  O12  1  0.321086  0.065553  0.530395  1
  O  O13  1  0.065553  0.321086  0.469605  1
  O  O14  1  0.321368  0.071178  0.970204  1
  O  O15  1  0.071178  0.321368  0.029796  1
  O  O16  1  0.930332  0.069668  0.749952  1
  O  O17  1  0.069668  0.930332  0.250048  1
  O  O18  1  0.364928  0.635072  0.760136  1
  O  O19  1  0.635072  0.364928  0.239864  1
  O  O20  1  0.641205  0.358795  0.758718  1
  O  O21  1  0.358795  0.641205  0.241282  1
