# generated using pymatgen
data_SmB3W
_symmetry_space_group_name_H-M   'P 1'
_cell_length_a   3.18820400
_cell_length_b   5.55659107
_cell_length_c   6.91842832
_cell_angle_alpha   76.71786538
_cell_angle_beta   90.00000000
_cell_angle_gamma   90.00000000
_symmetry_Int_Tables_number   1
_chemical_formula_structural   SmB3W
_chemical_formula_sum   'Sm2 B6 W2'
_cell_volume   119.28522275
_cell_formula_units_Z   2
loop_
 _symmetry_equiv_pos_site_id
 _symmetry_equiv_pos_as_xyz
  1  'x, y, z'
loop_
 _atom_site_type_symbol
 _atom_site_label
 _atom_site_symmetry_multiplicity
 _atom_site_fract_x
 _atom_site_fract_y
 _atom_site_fract_z
 _atom_site_occupancy
  Sm  Sm0  1  0.250000  0.329627  0.705409  1
  Sm  Sm1  1  0.750000  0.670373  0.294591  1
  B  B2  1  0.250000  0.921016  0.526994  1
  B  B3  1  0.750000  0.078984  0.473006  1
  B  B4  1  0.250000  0.913419  0.004434  1
  B  B5  1  0.750000  0.086581  0.995566  1
  B  B6  1  0.250000  0.582242  0.005774  1
  B  B7  1  0.750000  0.417758  0.994226  1
  W  W8  1  0.250000  0.185039  0.216544  1
  W  W9  1  0.750000  0.814961  0.783456  1
