# generated using pymatgen
data_Eu4Ge3AsO14
_symmetry_space_group_name_H-M   'P 1'
_cell_length_a   7.19130186
_cell_length_b   7.19130169
_cell_length_c   7.21371225
_cell_angle_alpha   60.10272242
_cell_angle_beta   60.10271146
_cell_angle_gamma   60.00000474
_symmetry_Int_Tables_number   1
_chemical_formula_structural   Eu4Ge3AsO14
_chemical_formula_sum   'Eu4 Ge3 As1 O14'
_cell_volume   264.19913345
_cell_formula_units_Z   1
loop_
 _symmetry_equiv_pos_site_id
 _symmetry_equiv_pos_as_xyz
  1  'x, y, z'
loop_
 _atom_site_type_symbol
 _atom_site_label
 _atom_site_symmetry_multiplicity
 _atom_site_fract_x
 _atom_site_fract_y
 _atom_site_fract_z
 _atom_site_occupancy
  Eu  Eu0  1  0.125000  0.625000  0.125000  1
  Eu  Eu1  1  0.125000  0.125000  0.625000  1
  Eu  Eu2  1  0.625000  0.125000  0.125000  1
  Eu  Eu3  1  0.125000  0.125000  0.125000  1
  Ge  Ge4  1  0.625000  0.125000  0.625000  1
  Ge  Ge5  1  0.125000  0.625000  0.625000  1
  Ge  Ge6  1  0.625000  0.625000  0.625000  1
  As  As7  1  0.625000  0.625000  0.125000  1
  O  O8  1  0.696796  0.696796  0.297081  1
  O  O9  1  0.949383  0.552967  0.548268  1
  O  O10  1  0.553204  0.940674  0.952919  1
  O  O11  1  0.949383  0.949383  0.548268  1
  O  O12  1  0.940674  0.553204  0.952919  1
  O  O13  1  0.552967  0.949383  0.548268  1
  O  O14  1  0.309326  0.696796  0.297081  1
  O  O15  1  0.300617  0.697033  0.701732  1
  O  O16  1  0.696796  0.309326  0.297081  1
  O  O17  1  0.697033  0.300617  0.701732  1
  O  O18  1  0.553204  0.553204  0.952919  1
  O  O19  1  0.300617  0.300617  0.701732  1
  O  O20  1  0.249881  0.249881  0.250357  1
  O  O21  1  0.000119  0.000119  0.999643  1
