# generated using pymatgen
data_Lu6Th2Cd2IrRu
_symmetry_space_group_name_H-M   'P 1'
_cell_length_a   9.58958158
_cell_length_b   9.58958128
_cell_length_c   9.62263400
_cell_angle_alpha   59.88591737
_cell_angle_beta   59.88591839
_cell_angle_gamma   59.84580286
_symmetry_Int_Tables_number   1
_chemical_formula_structural   Lu6Th2Cd2IrRu
_chemical_formula_sum   'Lu12 Th4 Cd4 Ir2 Ru2'
_cell_volume   623.90767545
_cell_formula_units_Z   2
loop_
 _symmetry_equiv_pos_site_id
 _symmetry_equiv_pos_as_xyz
  1  'x, y, z'
loop_
 _atom_site_type_symbol
 _atom_site_label
 _atom_site_symmetry_multiplicity
 _atom_site_fract_x
 _atom_site_fract_y
 _atom_site_fract_z
 _atom_site_occupancy
  Lu  Lu0  1  0.814295  0.186550  0.188083  1
  Lu  Lu1  1  0.186550  0.814295  0.811072  1
  Lu  Lu2  1  0.186550  0.814295  0.188083  1
  Lu  Lu3  1  0.814295  0.186550  0.811072  1
  Lu  Lu4  1  0.186563  0.186563  0.813437  1
  Lu  Lu5  1  0.812942  0.812942  0.187058  1
  Lu  Lu6  1  0.933760  0.564310  0.567697  1
  Lu  Lu7  1  0.564310  0.933760  0.934234  1
  Lu  Lu8  1  0.564310  0.933760  0.567697  1
  Lu  Lu9  1  0.933760  0.564310  0.934234  1
  Lu  Lu10  1  0.564400  0.564400  0.935600  1
  Lu  Lu11  1  0.933195  0.933195  0.566805  1
  Th  Th12  1  0.349055  0.349055  0.352858  1
  Th  Th13  1  0.349055  0.349055  0.949032  1
  Th  Th14  1  0.347819  0.951926  0.350127  1
  Th  Th15  1  0.951926  0.347819  0.350127  1
  Cd  Cd16  1  0.582228  0.582228  0.583511  1
  Cd  Cd17  1  0.582228  0.582228  0.252032  1
  Cd  Cd18  1  0.582860  0.248205  0.584467  1
  Cd  Cd19  1  0.248205  0.582860  0.584467  1
  Ir  Ir20  1  0.143982  0.577289  0.139364  1
  Ir  Ir21  1  0.577289  0.143982  0.139364  1
  Ru  Ru22  1  0.145211  0.145211  0.140122  1
  Ru  Ru23  1  0.145211  0.145211  0.569453  1
