# generated using pymatgen
data_TmPa3(GeRu)4
_symmetry_space_group_name_H-M   'P 1'
_cell_length_a   4.40798800
_cell_length_b   7.12734254
_cell_length_c   7.18229389
_cell_angle_alpha   89.53798181
_cell_angle_beta   90.00000000
_cell_angle_gamma   90.00000000
_symmetry_Int_Tables_number   1
_chemical_formula_structural   TmPa3(GeRu)4
_chemical_formula_sum   'Tm1 Pa3 Ge4 Ru4'
_cell_volume   225.64051770
_cell_formula_units_Z   1
loop_
 _symmetry_equiv_pos_site_id
 _symmetry_equiv_pos_as_xyz
  1  'x, y, z'
loop_
 _atom_site_type_symbol
 _atom_site_label
 _atom_site_symmetry_multiplicity
 _atom_site_fract_x
 _atom_site_fract_y
 _atom_site_fract_z
 _atom_site_occupancy
  Tm  Tm0  1  0.750000  0.510772  0.309981  1
  Pa  Pa1  1  0.250000  0.991525  0.817000  1
  Pa  Pa2  1  0.750000  0.011419  0.185882  1
  Pa  Pa3  1  0.250000  0.486172  0.695205  1
  Ge  Ge4  1  0.250000  0.297368  0.119525  1
  Ge  Ge5  1  0.750000  0.712554  0.889845  1
  Ge  Ge6  1  0.250000  0.780431  0.391111  1
  Ge  Ge7  1  0.750000  0.214768  0.604168  1
  Ru  Ru8  1  0.750000  0.858904  0.557731  1
  Ru  Ru9  1  0.250000  0.138988  0.443081  1
  Ru  Ru10  1  0.750000  0.345552  0.935722  1
  Ru  Ru11  1  0.250000  0.651547  0.050749  1
