# generated using pymatgen
data_Al8OsRu4Pt3
_symmetry_space_group_name_H-M   'P 1'
_cell_length_a   6.05209200
_cell_length_b   4.25819300
_cell_length_c   8.55089600
_cell_angle_alpha   90.00000000
_cell_angle_beta   89.99970111
_cell_angle_gamma   90.00000000
_symmetry_Int_Tables_number   1
_chemical_formula_structural   Al8OsRu4Pt3
_chemical_formula_sum   'Al8 Os1 Ru4 Pt3'
_cell_volume   220.36493380
_cell_formula_units_Z   1
loop_
 _symmetry_equiv_pos_site_id
 _symmetry_equiv_pos_as_xyz
  1  'x, y, z'
loop_
 _atom_site_type_symbol
 _atom_site_label
 _atom_site_symmetry_multiplicity
 _atom_site_fract_x
 _atom_site_fract_y
 _atom_site_fract_z
 _atom_site_occupancy
  Al  Al0  1  0.489895  0.750000  0.125004  1
  Al  Al1  1  0.010093  0.750000  0.125011  1
  Al  Al2  1  0.494638  0.249999  0.368376  1
  Al  Al3  1  0.005347  0.249999  0.368383  1
  Al  Al4  1  0.000466  0.750000  0.625005  1
  Al  Al5  1  0.499547  0.750000  0.625008  1
  Al  Al6  1  0.005358  0.249999  0.881604  1
  Al  Al7  1  0.494652  0.249999  0.881608  1
  Os  Os8  1  0.249990  0.249999  0.124996  1
  Ru  Ru9  1  0.749994  0.249999  0.124995  1
  Ru  Ru10  1  0.249995  0.750000  0.381737  1
  Ru  Ru11  1  0.750011  0.249999  0.624995  1
  Ru  Ru12  1  0.250008  0.750000  0.868274  1
  Pt  Pt13  1  0.749992  0.750000  0.376675  1
  Pt  Pt14  1  0.250007  0.249999  0.624998  1
  Pt  Pt15  1  0.750009  0.750000  0.873332  1
