# generated using pymatgen
data_Rb4PbI6
_symmetry_space_group_name_H-M   'P 1'
_cell_length_a   10.30007420
_cell_length_b   10.30007414
_cell_length_c   10.30007424
_cell_angle_alpha   89.74499096
_cell_angle_beta   89.74499445
_cell_angle_gamma   89.74499194
_symmetry_Int_Tables_number   1
_chemical_formula_structural   Rb4PbI6
_chemical_formula_sum   'Rb8 Pb2 I12'
_cell_volume   1092.71823977
_cell_formula_units_Z   2
loop_
 _symmetry_equiv_pos_site_id
 _symmetry_equiv_pos_as_xyz
  1  'x, y, z'
loop_
 _atom_site_type_symbol
 _atom_site_label
 _atom_site_symmetry_multiplicity
 _atom_site_fract_x
 _atom_site_fract_y
 _atom_site_fract_z
 _atom_site_occupancy
  Rb  Rb0  1  0.250000  0.250000  0.250000  1
  Rb  Rb1  1  0.750000  0.750000  0.750000  1
  Rb  Rb2  1  0.750000  0.129414  0.370586  1
  Rb  Rb3  1  0.370586  0.750000  0.129414  1
  Rb  Rb4  1  0.129414  0.370586  0.750000  1
  Rb  Rb5  1  0.250000  0.870586  0.629414  1
  Rb  Rb6  1  0.629414  0.250000  0.870586  1
  Rb  Rb7  1  0.870586  0.629414  0.250000  1
  Pb  Pb8  1  0.000000  0.000000  0.000000  1
  Pb  Pb9  1  0.500000  0.500000  0.500000  1
  I  I10  1  0.441358  0.573267  0.803037  1
  I  I11  1  0.803037  0.441358  0.573267  1
  I  I12  1  0.573267  0.803037  0.441358  1
  I  I13  1  0.058642  0.696963  0.926733  1
  I  I14  1  0.926733  0.058642  0.696963  1
  I  I15  1  0.696963  0.926733  0.058642  1
  I  I16  1  0.558642  0.426733  0.196963  1
  I  I17  1  0.196963  0.558642  0.426733  1
  I  I18  1  0.426733  0.196963  0.558642  1
  I  I19  1  0.941358  0.303037  0.073267  1
  I  I20  1  0.303037  0.073267  0.941358  1
  I  I21  1  0.073267  0.941358  0.303037  1
