# generated using pymatgen
data_Ho3Lu7Si5P
_symmetry_space_group_name_H-M   'P 1'
_cell_length_a   8.25432300
_cell_length_b   8.26182554
_cell_length_c   6.15470900
_cell_angle_alpha   90.00000000
_cell_angle_beta   90.00000000
_cell_angle_gamma   119.96996892
_symmetry_Int_Tables_number   1
_chemical_formula_structural   Ho3Lu7Si5P
_chemical_formula_sum   'Ho3 Lu7 Si5 P1'
_cell_volume   363.60259884
_cell_formula_units_Z   1
loop_
 _symmetry_equiv_pos_site_id
 _symmetry_equiv_pos_as_xyz
  1  'x, y, z'
loop_
 _atom_site_type_symbol
 _atom_site_label
 _atom_site_symmetry_multiplicity
 _atom_site_fract_x
 _atom_site_fract_y
 _atom_site_fract_z
 _atom_site_occupancy
  Ho  Ho0  1  0.755932  0.000000  0.750000  1
  Ho  Ho1  1  0.000986  0.757454  0.750000  1
  Ho  Ho2  1  0.243531  0.242546  0.750000  1
  Lu  Lu3  1  0.666217  0.332639  0.000052  1
  Lu  Lu4  1  0.333577  0.667361  0.499948  1
  Lu  Lu5  1  0.333577  0.667361  0.000052  1
  Lu  Lu6  1  0.666217  0.332639  0.499948  1
  Lu  Lu7  1  0.757523  0.756807  0.250000  1
  Lu  Lu8  1  0.000716  0.243193  0.250000  1
  Lu  Lu9  1  0.242866  0.000000  0.250000  1
  Si  Si10  1  0.394892  0.394304  0.250000  1
  Si  Si11  1  0.000588  0.605696  0.250000  1
  Si  Si12  1  0.999958  0.395247  0.750000  1
  Si  Si13  1  0.604711  0.604753  0.750000  1
  Si  Si14  1  0.606082  0.000000  0.250000  1
  P  P15  1  0.392628  0.000000  0.750000  1
