# generated using pymatgen
data_Ti5Al16PRh7
_symmetry_space_group_name_H-M   'P 1'
_cell_length_a   8.59613651
_cell_length_b   8.59613644
_cell_length_c   8.49440700
_cell_angle_alpha   60.39070626
_cell_angle_beta   60.39070654
_cell_angle_gamma   59.21858393
_symmetry_Int_Tables_number   1
_chemical_formula_structural   Ti5Al16PRh7
_chemical_formula_sum   'Ti5 Al16 P1 Rh7'
_cell_volume   443.71531404
_cell_formula_units_Z   1
loop_
 _symmetry_equiv_pos_site_id
 _symmetry_equiv_pos_as_xyz
  1  'x, y, z'
loop_
 _atom_site_type_symbol
 _atom_site_label
 _atom_site_symmetry_multiplicity
 _atom_site_fract_x
 _atom_site_fract_y
 _atom_site_fract_z
 _atom_site_occupancy
  Ti  Ti0  1  0.296247  0.700859  0.299141  1
  Ti  Ti1  1  0.700859  0.296247  0.299141  1
  Ti  Ti2  1  0.318825  0.318825  0.681175  1
  Ti  Ti3  1  0.700859  0.296247  0.703753  1
  Ti  Ti4  1  0.296247  0.700859  0.703753  1
  Al  Al5  1  0.885294  0.885295  0.349995  1
  Al  Al6  1  0.881931  0.375023  0.871524  1
  Al  Al7  1  0.375022  0.881931  0.871524  1
  Al  Al8  1  0.885294  0.885294  0.879416  1
  Al  Al9  1  0.128475  0.128476  0.624977  1
  Al  Al10  1  0.120584  0.650005  0.114706  1
  Al  Al11  1  0.650005  0.120584  0.114706  1
  Al  Al12  1  0.128476  0.128476  0.118069  1
  Al  Al13  1  0.661305  0.661305  0.061339  1
  Al  Al14  1  0.671839  0.026591  0.650784  1
  Al  Al15  1  0.026591  0.671839  0.650784  1
  Al  Al16  1  0.661305  0.661305  0.616050  1
  Al  Al17  1  0.349216  0.349216  0.973409  1
  Al  Al18  1  0.383950  0.938661  0.338695  1
  Al  Al19  1  0.938661  0.383950  0.338695  1
  Al  Al20  1  0.349216  0.349216  0.328161  1
  P  P21  1  0.524421  0.524421  0.475579  1
  Rh  Rh22  1  0.012668  0.012668  0.987332  1
  Rh  Rh23  1  0.011551  0.011551  0.488449  1
  Rh  Rh24  1  0.503809  0.010994  0.496191  1
  Rh  Rh25  1  0.010994  0.503809  0.496191  1
  Rh  Rh26  1  0.511551  0.511551  0.988449  1
  Rh  Rh27  1  0.010994  0.503809  0.989006  1
  Rh  Rh28  1  0.503809  0.010994  0.989006  1
