# generated using pymatgen
data_Li2HoTmSi4
_symmetry_space_group_name_H-M   'P 1'
_cell_length_a   3.76788700
_cell_length_b   7.54465758
_cell_length_c   10.08895689
_cell_angle_alpha   90.04665299
_cell_angle_beta   90.00000000
_cell_angle_gamma   90.00000000
_symmetry_Int_Tables_number   1
_chemical_formula_structural   Li2HoTmSi4
_chemical_formula_sum   'Li4 Ho2 Tm2 Si8'
_cell_volume   286.80289194
_cell_formula_units_Z   2
loop_
 _symmetry_equiv_pos_site_id
 _symmetry_equiv_pos_as_xyz
  1  'x, y, z'
loop_
 _atom_site_type_symbol
 _atom_site_label
 _atom_site_symmetry_multiplicity
 _atom_site_fract_x
 _atom_site_fract_y
 _atom_site_fract_z
 _atom_site_occupancy
  Li  Li0  1  0.250000  0.990595  0.391489  1
  Li  Li1  1  0.750000  0.009405  0.608511  1
  Li  Li2  1  0.250000  0.489557  0.108177  1
  Li  Li3  1  0.750000  0.510443  0.891823  1
  Ho  Ho4  1  0.250000  0.139669  0.863644  1
  Ho  Ho5  1  0.750000  0.860331  0.136356  1
  Tm  Tm6  1  0.250000  0.638946  0.636205  1
  Tm  Tm7  1  0.750000  0.361054  0.363795  1
  Si  Si8  1  0.750000  0.268229  0.067482  1
  Si  Si9  1  0.250000  0.731771  0.932518  1
  Si  Si10  1  0.750000  0.767461  0.433390  1
  Si  Si11  1  0.250000  0.232539  0.566610  1
  Si  Si12  1  0.750000  0.843692  0.819591  1
  Si  Si13  1  0.250000  0.156308  0.180409  1
  Si  Si14  1  0.750000  0.345606  0.679486  1
  Si  Si15  1  0.250000  0.654394  0.320514  1
