# generated using pymatgen
data_Tb3Er5Tc3B24Rh
_symmetry_space_group_name_H-M   'P 1'
_cell_length_a   3.67044800
_cell_length_b   9.13713490
_cell_length_c   11.52747702
_cell_angle_alpha   90.13197309
_cell_angle_beta   90.00000000
_cell_angle_gamma   90.00000000
_symmetry_Int_Tables_number   1
_chemical_formula_structural   Tb3Er5Tc3B24Rh
_chemical_formula_sum   'Tb3 Er5 Tc3 B24 Rh1'
_cell_volume   386.60033488
_cell_formula_units_Z   1
loop_
 _symmetry_equiv_pos_site_id
 _symmetry_equiv_pos_as_xyz
  1  'x, y, z'
loop_
 _atom_site_type_symbol
 _atom_site_label
 _atom_site_symmetry_multiplicity
 _atom_site_fract_x
 _atom_site_fract_y
 _atom_site_fract_z
 _atom_site_occupancy
  Tb  Tb0  1  0.500000  0.318971  0.415733  1
  Tb  Tb1  1  0.500000  0.677843  0.590787  1
  Tb  Tb2  1  0.500000  0.177124  0.912936  1
  Er  Er3  1  0.500000  0.827345  0.081035  1
  Er  Er4  1  0.500000  0.440704  0.128921  1
  Er  Er5  1  0.500000  0.557161  0.871310  1
  Er  Er6  1  0.500000  0.056058  0.629863  1
  Er  Er7  1  0.500000  0.943854  0.369403  1
  Tc  Tc8  1  0.500000  0.138267  0.180329  1
  Tc  Tc9  1  0.500000  0.861171  0.820830  1
  Tc  Tc10  1  0.500000  0.362099  0.678453  1
  B  B11  1  0.000000  0.100341  0.471618  1
  B  B12  1  0.000000  0.896597  0.527706  1
  B  B13  1  0.000000  0.398202  0.972365  1
  B  B14  1  0.000000  0.603922  0.029308  1
  B  B15  1  0.000000  0.130199  0.314827  1
  B  B16  1  0.000000  0.868760  0.685546  1
  B  B17  1  0.000000  0.369723  0.814354  1
  B  B18  1  0.000000  0.631838  0.183463  1
  B  B19  1  0.000000  0.053216  0.066939  1
  B  B20  1  0.000000  0.946577  0.932820  1
  B  B21  1  0.000000  0.446076  0.567080  1
  B  B22  1  0.000000  0.554442  0.433206  1
  B  B23  1  0.000000  0.483555  0.287332  1
  B  B24  1  0.000000  0.517836  0.712847  1
  B  B25  1  0.000000  0.017033  0.787035  1
  B  B26  1  0.000000  0.982334  0.211801  1
  B  B27  1  0.000000  0.249385  0.081730  1
  B  B28  1  0.000000  0.751399  0.919377  1
  B  B29  1  0.000000  0.249854  0.581374  1
  B  B30  1  0.000000  0.749660  0.419481  1
  B  B31  1  0.000000  0.291672  0.235023  1
  B  B32  1  0.000000  0.708145  0.766320  1
  B  B33  1  0.000000  0.208340  0.734133  1
  B  B34  1  0.000000  0.791657  0.264479  1
  Rh  Rh35  1  0.500000  0.638642  0.320236  1
