# generated using pymatgen
data_TbDyNi3Ir
_symmetry_space_group_name_H-M   'P 1'
_cell_length_a   5.22753668
_cell_length_b   5.22753611
_cell_length_c   5.22753600
_cell_angle_alpha   58.06271111
_cell_angle_beta   58.06272232
_cell_angle_gamma   58.06272250
_symmetry_Int_Tables_number   1
_chemical_formula_structural   TbDyNi3Ir
_chemical_formula_sum   'Tb1 Dy1 Ni3 Ir1'
_cell_volume   96.52535675
_cell_formula_units_Z   1
loop_
 _symmetry_equiv_pos_site_id
 _symmetry_equiv_pos_as_xyz
  1  'x, y, z'
loop_
 _atom_site_type_symbol
 _atom_site_label
 _atom_site_symmetry_multiplicity
 _atom_site_fract_x
 _atom_site_fract_y
 _atom_site_fract_z
 _atom_site_occupancy
  Tb  Tb0  1  0.248493  0.248493  0.248493  1
  Dy  Dy1  1  0.001503  0.001503  0.001503  1
  Ni  Ni2  1  0.625015  0.625015  0.124933  1
  Ni  Ni3  1  0.625015  0.124933  0.625015  1
  Ni  Ni4  1  0.124933  0.625015  0.625015  1
  Ir  Ir5  1  0.625041  0.625041  0.625041  1
