# generated using pymatgen
data_Y4Sc6AlGa7
_symmetry_space_group_name_H-M   'P 1'
_cell_length_a   7.26497600
_cell_length_b   7.49150832
_cell_length_c   14.49030200
_cell_angle_alpha   90.00000000
_cell_angle_beta   90.00000000
_cell_angle_gamma   90.25692337
_symmetry_Int_Tables_number   1
_chemical_formula_structural   Y4Sc6AlGa7
_chemical_formula_sum   'Y8 Sc12 Al2 Ga14'
_cell_volume   788.63585935
_cell_formula_units_Z   2
loop_
 _symmetry_equiv_pos_site_id
 _symmetry_equiv_pos_as_xyz
  1  'x, y, z'
loop_
 _atom_site_type_symbol
 _atom_site_label
 _atom_site_symmetry_multiplicity
 _atom_site_fract_x
 _atom_site_fract_y
 _atom_site_fract_z
 _atom_site_occupancy
  Y  Y0  1  0.009262  0.176198  0.094510  1
  Y  Y1  1  0.990738  0.823802  0.905490  1
  Y  Y2  1  0.488154  0.678303  0.905507  1
  Y  Y3  1  0.990738  0.823802  0.594510  1
  Y  Y4  1  0.511846  0.321697  0.094493  1
  Y  Y5  1  0.009262  0.176198  0.405490  1
  Y  Y6  1  0.511846  0.321697  0.405507  1
  Y  Y7  1  0.488154  0.678303  0.594493  1
  Sc  Sc8  1  0.165448  0.500662  0.750000  1
  Sc  Sc9  1  0.834552  0.499338  0.250000  1
  Sc  Sc10  1  0.339049  0.998021  0.250000  1
  Sc  Sc11  1  0.660951  0.001979  0.750000  1
  Sc  Sc12  1  0.330920  0.173602  0.624179  1
  Sc  Sc13  1  0.669080  0.826398  0.375821  1
  Sc  Sc14  1  0.169734  0.674511  0.376368  1
  Sc  Sc15  1  0.669080  0.826398  0.124179  1
  Sc  Sc16  1  0.830266  0.325489  0.623632  1
  Sc  Sc17  1  0.330920  0.173602  0.875821  1
  Sc  Sc18  1  0.830266  0.325489  0.876368  1
  Sc  Sc19  1  0.169734  0.674511  0.123632  1
  Al  Al20  1  0.218072  0.372292  0.250000  1
  Al  Al21  1  0.781928  0.627708  0.750000  1
  Ga  Ga22  1  0.031924  0.118923  0.750000  1
  Ga  Ga23  1  0.968076  0.881077  0.250000  1
  Ga  Ga24  1  0.467664  0.618210  0.250000  1
  Ga  Ga25  1  0.532336  0.381790  0.750000  1
  Ga  Ga26  1  0.283783  0.871323  0.750000  1
  Ga  Ga27  1  0.716217  0.128677  0.250000  1
  Ga  Ga28  1  0.160021  0.464768  0.540435  1
  Ga  Ga29  1  0.839979  0.535232  0.459565  1
  Ga  Ga30  1  0.339386  0.964613  0.459578  1
  Ga  Ga31  1  0.839979  0.535232  0.040435  1
  Ga  Ga32  1  0.660614  0.035387  0.540422  1
  Ga  Ga33  1  0.160021  0.464768  0.959565  1
  Ga  Ga34  1  0.660614  0.035387  0.959578  1
  Ga  Ga35  1  0.339386  0.964613  0.040422  1
