# generated using pymatgen
data_Al3Ge(PPd6)2
_symmetry_space_group_name_H-M   'P 1'
_cell_length_a   3.40803000
_cell_length_b   6.74197449
_cell_length_c   11.63869376
_cell_angle_alpha   90.05966268
_cell_angle_beta   90.00000000
_cell_angle_gamma   90.00000000
_symmetry_Int_Tables_number   1
_chemical_formula_structural   Al3Ge(PPd6)2
_chemical_formula_sum   'Al3 Ge1 P2 Pd12'
_cell_volume   267.42039096
_cell_formula_units_Z   1
loop_
 _symmetry_equiv_pos_site_id
 _symmetry_equiv_pos_as_xyz
  1  'x, y, z'
loop_
 _atom_site_type_symbol
 _atom_site_label
 _atom_site_symmetry_multiplicity
 _atom_site_fract_x
 _atom_site_fract_y
 _atom_site_fract_z
 _atom_site_occupancy
  Al  Al0  1  0.000000  0.500713  0.166432  1
  Al  Al1  1  0.000000  0.499653  0.835280  1
  Al  Al2  1  0.000000  0.000204  0.331763  1
  Ge  Ge3  1  0.000000  0.999491  0.666415  1
  P  P4  1  0.500000  0.000757  0.001298  1
  P  P5  1  0.500000  0.499496  0.499029  1
  Pd  Pd6  1  0.000000  0.745431  0.000590  1
  Pd  Pd7  1  0.000000  0.242765  0.499649  1
  Pd  Pd8  1  0.000000  0.627472  0.628344  1
  Pd  Pd9  1  0.000000  0.128866  0.127671  1
  Pd  Pd10  1  0.000000  0.126176  0.871388  1
  Pd  Pd11  1  0.000000  0.628037  0.372142  1
  Pd  Pd12  1  0.500000  0.896017  0.498190  1
  Pd  Pd13  1  0.500000  0.399304  0.999266  1
  Pd  Pd14  1  0.500000  0.796803  0.802006  1
  Pd  Pd15  1  0.500000  0.302373  0.300038  1
  Pd  Pd16  1  0.500000  0.305550  0.700727  1
  Pd  Pd17  1  0.500000  0.801091  0.199773  1
