# generated using pymatgen
data_Sc4CdGa2Tc
_symmetry_space_group_name_H-M   'P 1'
_cell_length_a   6.79211704
_cell_length_b   6.73386100
_cell_length_c   6.79135104
_cell_angle_alpha   90.00000000
_cell_angle_beta   90.01171775
_cell_angle_gamma   90.00000000
_symmetry_Int_Tables_number   1
_chemical_formula_structural   Sc4CdGa2Tc
_chemical_formula_sum   'Sc8 Cd2 Ga4 Tc2'
_cell_volume   310.61718401
_cell_formula_units_Z   2
loop_
 _symmetry_equiv_pos_site_id
 _symmetry_equiv_pos_as_xyz
  1  'x, y, z'
loop_
 _atom_site_type_symbol
 _atom_site_label
 _atom_site_symmetry_multiplicity
 _atom_site_fract_x
 _atom_site_fract_y
 _atom_site_fract_z
 _atom_site_occupancy
  Sc  Sc0  1  0.767494  0.501315  0.267498  1
  Sc  Sc1  1  0.767494  0.998685  0.267498  1
  Sc  Sc2  1  0.232567  0.001312  0.267440  1
  Sc  Sc3  1  0.232567  0.498688  0.267440  1
  Sc  Sc4  1  0.767433  0.501312  0.732560  1
  Sc  Sc5  1  0.767433  0.998688  0.732560  1
  Sc  Sc6  1  0.232506  0.001315  0.732502  1
  Sc  Sc7  1  0.232506  0.498685  0.732502  1
  Cd  Cd8  1  0.501843  0.250000  0.000004  1
  Cd  Cd9  1  0.498158  0.750000  0.999996  1
  Ga  Ga10  1  0.997916  0.250000  0.000000  1
  Ga  Ga11  1  0.002084  0.750000  0.000000  1
  Ga  Ga12  1  0.502413  0.250000  0.499994  1
  Ga  Ga13  1  0.497587  0.750000  0.500006  1
  Tc  Tc14  1  0.001566  0.750000  0.500009  1
  Tc  Tc15  1  0.998434  0.250000  0.499991  1
