# generated using pymatgen
data_Ce(SmRu)2
_symmetry_space_group_name_H-M   'P 1'
_cell_length_a   5.98908157
_cell_length_b   5.98908183
_cell_length_c   5.98908199
_cell_angle_alpha   139.08529507
_cell_angle_beta   119.76074690
_cell_angle_gamma   75.40027267
_symmetry_Int_Tables_number   1
_chemical_formula_structural   Ce(SmRu)2
_chemical_formula_sum   'Ce1 Sm2 Ru2'
_cell_volume   119.24374318
_cell_formula_units_Z   1
loop_
 _symmetry_equiv_pos_site_id
 _symmetry_equiv_pos_as_xyz
  1  'x, y, z'
loop_
 _atom_site_type_symbol
 _atom_site_label
 _atom_site_symmetry_multiplicity
 _atom_site_fract_x
 _atom_site_fract_y
 _atom_site_fract_z
 _atom_site_occupancy
  Ce  Ce0  1  0.000000  0.000000  0.000000  1
  Sm  Sm1  1  0.689308  0.189308  0.500000  1
  Sm  Sm2  1  0.310692  0.810691  0.500000  1
  Ru  Ru3  1  0.749561  0.500000  0.249561  1
  Ru  Ru4  1  0.250439  0.500000  0.750438  1
