# generated using pymatgen
data_La6In9Pb
_symmetry_space_group_name_H-M   'P 1'
_cell_length_a   6.75973313
_cell_length_b   6.79109384
_cell_length_c   10.69577600
_cell_angle_alpha   90.00000000
_cell_angle_beta   90.00000000
_cell_angle_gamma   102.45620127
_symmetry_Int_Tables_number   1
_chemical_formula_structural   La6In9Pb
_chemical_formula_sum   'La6 In9 Pb1'
_cell_volume   479.44253572
_cell_formula_units_Z   1
loop_
 _symmetry_equiv_pos_site_id
 _symmetry_equiv_pos_as_xyz
  1  'x, y, z'
loop_
 _atom_site_type_symbol
 _atom_site_label
 _atom_site_symmetry_multiplicity
 _atom_site_fract_x
 _atom_site_fract_y
 _atom_site_fract_z
 _atom_site_occupancy
  La  La0  1  0.634257  0.637055  0.250000  1
  La  La1  1  0.363445  0.368188  0.750000  1
  La  La2  1  0.204229  0.794784  0.500449  1
  La  La3  1  0.204229  0.794784  0.999551  1
  La  La4  1  0.797372  0.203279  0.498448  1
  La  La5  1  0.797372  0.203279  0.001552  1
  In  In6  1  0.017663  0.021270  0.250000  1
  In  In7  1  0.982071  0.981801  0.750000  1
  In  In8  1  0.310054  0.301534  0.050303  1
  In  In9  1  0.691729  0.694045  0.947101  1
  In  In10  1  0.310054  0.301534  0.449697  1
  In  In11  1  0.691729  0.694045  0.552899  1
  In  In12  1  0.495874  0.072502  0.250000  1
  In  In13  1  0.921664  0.501939  0.750000  1
  In  In14  1  0.502391  0.927584  0.750000  1
  Pb  Pb15  1  0.075867  0.502377  0.250000  1
