# generated using pymatgen
data_Er5Si9P3Rh19
_symmetry_space_group_name_H-M   'P 1'
_cell_length_a   12.78266300
_cell_length_b   12.78266335
_cell_length_c   3.91249900
_cell_angle_alpha   90.00000000
_cell_angle_beta   90.00000000
_cell_angle_gamma   120.00000169
_symmetry_Int_Tables_number   1
_chemical_formula_structural   Er5Si9P3Rh19
_chemical_formula_sum   'Er5 Si9 P3 Rh19'
_cell_volume   553.64012054
_cell_formula_units_Z   1
loop_
 _symmetry_equiv_pos_site_id
 _symmetry_equiv_pos_as_xyz
  1  'x, y, z'
loop_
 _atom_site_type_symbol
 _atom_site_label
 _atom_site_symmetry_multiplicity
 _atom_site_fract_x
 _atom_site_fract_y
 _atom_site_fract_z
 _atom_site_occupancy
  Er  Er0  1  0.666667  0.333333  0.000000  1
  Er  Er1  1  0.333333  0.666667  0.000000  1
  Er  Er2  1  0.813779  0.813779  0.500000  1
  Er  Er3  1  0.186221  0.000000  0.500000  1
  Er  Er4  1  0.000000  0.186221  0.500000  1
  Si  Si5  1  0.684964  0.164422  0.500000  1
  Si  Si6  1  0.835578  0.520542  0.500000  1
  Si  Si7  1  0.479458  0.315036  0.500000  1
  Si  Si8  1  0.164422  0.684964  0.500000  1
  Si  Si9  1  0.520542  0.835578  0.500000  1
  Si  Si10  1  0.315036  0.479458  0.500000  1
  Si  Si11  1  0.630736  0.630736  0.000000  1
  Si  Si12  1  0.369264  0.000000  0.000000  1
  Si  Si13  1  0.000000  0.369264  0.000000  1
  P  P14  1  0.179256  0.179256  0.000000  1
  P  P15  1  0.820744  0.000000  0.000000  1
  P  P16  1  0.000000  0.820744  0.000000  1
  Rh  Rh17  1  0.807478  0.179266  0.000000  1
  Rh  Rh18  1  0.820734  0.628212  0.000000  1
  Rh  Rh19  1  0.371788  0.192522  0.000000  1
  Rh  Rh20  1  0.179266  0.807478  0.000000  1
  Rh  Rh21  1  0.628212  0.820734  0.000000  1
  Rh  Rh22  1  0.192522  0.371788  0.000000  1
  Rh  Rh23  1  0.445953  0.445953  0.000000  1
  Rh  Rh24  1  0.554047  0.000000  0.000000  1
  Rh  Rh25  1  0.000000  0.554047  0.000000  1
  Rh  Rh26  1  0.275620  0.275620  0.500000  1
  Rh  Rh27  1  0.724380  0.000000  0.500000  1
  Rh  Rh28  1  0.000000  0.724380  0.500000  1
  Rh  Rh29  1  0.872659  0.358495  0.500000  1
  Rh  Rh30  1  0.641505  0.514165  0.500000  1
  Rh  Rh31  1  0.485835  0.127341  0.500000  1
  Rh  Rh32  1  0.358495  0.872659  0.500000  1
  Rh  Rh33  1  0.514165  0.641505  0.500000  1
  Rh  Rh34  1  0.127341  0.485835  0.500000  1
  Rh  Rh35  1  0.000000  0.000000  0.000000  1
