# generated using pymatgen
data_CaMn3HgO8
_symmetry_space_group_name_H-M   'P 1'
_cell_length_a   6.33351727
_cell_length_b   6.33351720
_cell_length_c   5.05073756
_cell_angle_alpha   73.19649477
_cell_angle_beta   73.19649701
_cell_angle_gamma   56.03568677
_symmetry_Int_Tables_number   1
_chemical_formula_structural   CaMn3HgO8
_chemical_formula_sum   'Ca1 Mn3 Hg1 O8'
_cell_volume   158.77040826
_cell_formula_units_Z   1
loop_
 _symmetry_equiv_pos_site_id
 _symmetry_equiv_pos_as_xyz
  1  'x, y, z'
loop_
 _atom_site_type_symbol
 _atom_site_label
 _atom_site_symmetry_multiplicity
 _atom_site_fract_x
 _atom_site_fract_y
 _atom_site_fract_z
 _atom_site_occupancy
  Ca  Ca0  1  0.276578  0.276578  0.664258  1
  Mn  Mn1  1  0.000174  0.000174  0.497789  1
  Mn  Mn2  1  0.741831  0.257372  0.001059  1
  Mn  Mn3  1  0.257372  0.741831  0.001059  1
  Hg  Hg4  1  0.719781  0.719781  0.339002  1
  O  O5  1  0.398305  0.398305  0.954995  1
  O  O6  1  0.603246  0.603246  0.040982  1
  O  O7  1  0.905648  0.905648  0.899420  1
  O  O8  1  0.096047  0.096047  0.097357  1
  O  O9  1  0.319967  0.881267  0.612808  1
  O  O10  1  0.881267  0.319967  0.612808  1
  O  O11  1  0.123489  0.676294  0.389231  1
  O  O12  1  0.676294  0.123489  0.389231  1
