# generated using pymatgen
data_Hf6Mn5Si12Ni
_symmetry_space_group_name_H-M   'P 1'
_cell_length_a   9.78029113
_cell_length_b   9.78045571
_cell_length_c   9.78042153
_cell_angle_alpha   149.62314602
_cell_angle_beta   132.85016479
_cell_angle_gamma   57.12606909
_symmetry_Int_Tables_number   1
_chemical_formula_structural   Hf6Mn5Si12Ni
_chemical_formula_sum   'Hf6 Mn5 Si12 Ni1'
_cell_volume   344.39933084
_cell_formula_units_Z   1
loop_
 _symmetry_equiv_pos_site_id
 _symmetry_equiv_pos_as_xyz
  1  'x, y, z'
loop_
 _atom_site_type_symbol
 _atom_site_label
 _atom_site_symmetry_multiplicity
 _atom_site_fract_x
 _atom_site_fract_y
 _atom_site_fract_z
 _atom_site_occupancy
  Hf  Hf0  1  0.854789  0.594243  0.260511  1
  Hf  Hf1  1  0.145905  0.405672  0.740246  1
  Hf  Hf2  1  0.666261  0.405736  0.260522  1
  Hf  Hf3  1  0.334567  0.594334  0.740223  1
  Hf  Hf4  1  0.140692  0.141501  0.999202  1
  Hf  Hf5  1  0.857672  0.858497  0.999162  1
  Mn  Mn6  1  0.746631  0.999998  0.746629  1
  Mn  Mn7  1  0.998614  0.000369  0.501081  1
  Mn  Mn8  1  0.500717  0.502429  0.501040  1
  Mn  Mn9  1  0.500723  0.999680  0.998288  1
  Mn  Mn10  1  0.998609  0.497566  0.998288  1
  Si  Si11  1  0.488363  0.139206  0.349126  1
  Si  Si12  1  0.513253  0.864151  0.649111  1
  Si  Si13  1  0.209973  0.860849  0.349210  1
  Si  Si14  1  0.784908  0.135780  0.649041  1
  Si  Si15  1  0.702235  0.701785  0.000661  1
  Si  Si16  1  0.298979  0.298227  0.000568  1
  Si  Si17  1  0.500669  0.738375  0.239046  1
  Si  Si18  1  0.500670  0.261610  0.762280  1
  Si  Si19  1  0.000980  0.257075  0.258050  1
  Si  Si20  1  0.211501  0.712070  0.499620  1
  Si  Si21  1  0.000969  0.742911  0.743885  1
  Si  Si22  1  0.787457  0.287953  0.499362  1
  Ni  Ni23  1  0.254862  0.999983  0.254848  1
