# generated using pymatgen
data_Nb3Si3Mo2Rh
_symmetry_space_group_name_H-M   'P 1'
_cell_length_a   6.85427516
_cell_length_b   6.77563481
_cell_length_c   3.44473000
_cell_angle_alpha   90.00000000
_cell_angle_beta   90.00000000
_cell_angle_gamma   119.62121317
_symmetry_Int_Tables_number   1
_chemical_formula_structural   Nb3Si3Mo2Rh
_chemical_formula_sum   'Nb3 Si3 Mo2 Rh1'
_cell_volume   139.07285940
_cell_formula_units_Z   1
loop_
 _symmetry_equiv_pos_site_id
 _symmetry_equiv_pos_as_xyz
  1  'x, y, z'
loop_
 _atom_site_type_symbol
 _atom_site_label
 _atom_site_symmetry_multiplicity
 _atom_site_fract_x
 _atom_site_fract_y
 _atom_site_fract_z
 _atom_site_occupancy
  Nb  Nb0  1  0.424334  0.405485  0.500000  1
  Nb  Nb1  1  0.575666  0.981152  0.500000  1
  Nb  Nb2  1  0.000000  0.614209  0.500000  1
  Si  Si3  1  0.678277  0.327600  0.000000  1
  Si  Si4  1  0.321723  0.649323  0.000000  1
  Si  Si5  1  0.000000  0.022922  0.500000  1
  Mo  Mo6  1  0.746428  0.745010  0.000000  1
  Mo  Mo7  1  0.253572  0.998582  0.000000  1
  Rh  Rh8  1  0.000000  0.255717  0.000000  1
