# generated using pymatgen
data_TcOsCl10
_symmetry_space_group_name_H-M   'P 1'
_cell_length_a   12.96725600
_cell_length_b   12.95815149
_cell_length_c   6.53304245
_cell_angle_alpha   85.66187974
_cell_angle_beta   85.73464980
_cell_angle_gamma   88.10800962
_symmetry_Int_Tables_number   1
_chemical_formula_structural   TcOsCl10
_chemical_formula_sum   'Tc3 Os3 Cl30'
_cell_volume   1091.16704639
_cell_formula_units_Z   3
loop_
 _symmetry_equiv_pos_site_id
 _symmetry_equiv_pos_as_xyz
  1  'x, y, z'
loop_
 _atom_site_type_symbol
 _atom_site_label
 _atom_site_symmetry_multiplicity
 _atom_site_fract_x
 _atom_site_fract_y
 _atom_site_fract_z
 _atom_site_occupancy
  Tc  Tc0  1  0.106656  0.893533  0.000344  1
  Tc  Tc1  1  0.439785  0.226391  0.565687  1
  Tc  Tc2  1  0.559951  0.773738  0.433904  1
  Os  Os3  1  0.897868  0.101834  0.999929  1
  Os  Os4  1  0.768639  0.564960  0.433610  1
  Os  Os5  1  0.231633  0.435314  0.566131  1
  Cl  Cl6  1  0.500990  0.317297  0.814289  1
  Cl  Cl7  1  0.263392  0.266501  0.742843  1
  Cl  Cl8  1  0.162995  0.980470  0.699808  1
  Cl  Cl9  1  0.599981  0.597150  0.610022  1
  Cl  Cl10  1  0.220065  0.589322  0.382755  1
  Cl  Cl11  1  0.736304  0.733696  0.256749  1
  Cl  Cl12  1  0.159347  0.352200  0.317218  1
  Cl  Cl13  1  0.069456  0.072824  0.126111  1
  Cl  Cl14  1  0.652089  0.835216  0.679899  1
  Cl  Cl15  1  0.592788  0.213360  0.384098  1
  Cl  Cl16  1  0.115853  0.737174  0.871372  1
  Cl  Cl17  1  0.020072  0.837308  0.301215  1
  Cl  Cl18  1  0.922512  0.553248  0.250020  1
  Cl  Cl19  1  0.831049  0.023178  0.303158  1
  Cl  Cl20  1  0.406761  0.786567  0.615439  1
  Cl  Cl21  1  0.780817  0.411090  0.617009  1
  Cl  Cl22  1  0.548343  0.927260  0.250882  1
  Cl  Cl23  1  0.976146  0.168992  0.696813  1
  Cl  Cl24  1  0.841062  0.648435  0.681901  1
  Cl  Cl25  1  0.888213  0.258487  0.130320  1
  Cl  Cl26  1  0.498676  0.682347  0.186398  1
  Cl  Cl27  1  0.347106  0.164246  0.320937  1
  Cl  Cl28  1  0.077805  0.447614  0.749137  1
  Cl  Cl29  1  0.741190  0.110698  0.869089  1
  Cl  Cl30  1  0.451249  0.072617  0.748999  1
  Cl  Cl31  1  0.400322  0.402716  0.389781  1
  Cl  Cl32  1  0.314902  0.506805  0.815803  1
  Cl  Cl33  1  0.263030  0.884352  0.129793  1
  Cl  Cl34  1  0.927356  0.930172  0.874205  1
  Cl  Cl35  1  0.685595  0.492889  0.184331  1
