# generated using pymatgen
data_Nd2Sc2Al17SiIr6
_symmetry_space_group_name_H-M   'P 1'
_cell_length_a   7.54066244
_cell_length_b   7.54063528
_cell_length_c   9.40812700
_cell_angle_alpha   90.00000000
_cell_angle_beta   90.00000000
_cell_angle_gamma   119.52353847
_symmetry_Int_Tables_number   1
_chemical_formula_structural   Nd2Sc2Al17SiIr6
_chemical_formula_sum   'Nd2 Sc2 Al17 Si1 Ir6'
_cell_volume   465.49646796
_cell_formula_units_Z   1
loop_
 _symmetry_equiv_pos_site_id
 _symmetry_equiv_pos_as_xyz
  1  'x, y, z'
loop_
 _atom_site_type_symbol
 _atom_site_label
 _atom_site_symmetry_multiplicity
 _atom_site_fract_x
 _atom_site_fract_y
 _atom_site_fract_z
 _atom_site_occupancy
  Nd  Nd0  1  0.004156  0.330264  0.750000  1
  Nd  Nd1  1  0.330267  0.004155  0.750000  1
  Sc  Sc2  1  0.994690  0.678610  0.250000  1
  Sc  Sc3  1  0.678622  0.994709  0.250000  1
  Al  Al4  1  0.870162  0.870161  0.750000  1
  Al  Al5  1  0.997106  0.337437  0.085756  1
  Al  Al6  1  0.995952  0.665447  0.934394  1
  Al  Al7  1  0.995952  0.665447  0.565606  1
  Al  Al8  1  0.337433  0.997102  0.414243  1
  Al  Al9  1  0.997106  0.337437  0.414244  1
  Al  Al10  1  0.665449  0.995953  0.565606  1
  Al  Al11  1  0.665449  0.995953  0.934394  1
  Al  Al12  1  0.337433  0.997102  0.085757  1
  Al  Al13  1  0.333928  0.333924  0.546564  1
  Al  Al14  1  0.665983  0.665985  0.437090  1
  Al  Al15  1  0.665983  0.665985  0.062910  1
  Al  Al16  1  0.333928  0.333924  0.953436  1
  Al  Al17  1  0.338348  0.556232  0.250000  1
  Al  Al18  1  0.662306  0.456009  0.750000  1
  Al  Al19  1  0.556222  0.338346  0.250000  1
  Al  Al20  1  0.456011  0.662303  0.750000  1
  Si  Si21  1  0.127472  0.127472  0.250000  1
  Ir  Ir22  1  0.669983  0.326623  0.002921  1
  Ir  Ir23  1  0.326625  0.669983  0.002918  1
  Ir  Ir24  1  0.326625  0.669983  0.497082  1
  Ir  Ir25  1  0.669983  0.326623  0.497079  1
  Ir  Ir26  1  0.998415  0.998415  0.011738  1
  Ir  Ir27  1  0.998415  0.998415  0.488262  1
