# generated using pymatgen
data_CaAl8GeAu4
_symmetry_space_group_name_H-M   'P 1'
_cell_length_a   6.11276024
_cell_length_b   6.11276081
_cell_length_c   14.97578900
_cell_angle_alpha   101.77612500
_cell_angle_beta   101.77612611
_cell_angle_gamma   90.00000331
_symmetry_Int_Tables_number   1
_chemical_formula_structural   CaAl8GeAu4
_chemical_formula_sum   'Ca2 Al16 Ge2 Au8'
_cell_volume   535.76847542
_cell_formula_units_Z   2
loop_
 _symmetry_equiv_pos_site_id
 _symmetry_equiv_pos_as_xyz
  1  'x, y, z'
loop_
 _atom_site_type_symbol
 _atom_site_label
 _atom_site_symmetry_multiplicity
 _atom_site_fract_x
 _atom_site_fract_y
 _atom_site_fract_z
 _atom_site_occupancy
  Ca  Ca0  1  0.750001  0.250000  0.500000  1
  Ca  Ca1  1  0.250000  0.750001  0.500000  1
  Al  Al2  1  0.301351  0.301351  0.104415  1
  Al  Al3  1  0.803064  0.301351  0.104415  1
  Al  Al4  1  0.301351  0.803064  0.104415  1
  Al  Al5  1  0.803064  0.803064  0.104415  1
  Al  Al6  1  0.406489  0.406489  0.310353  1
  Al  Al7  1  0.903863  0.406489  0.310353  1
  Al  Al8  1  0.406489  0.903863  0.310353  1
  Al  Al9  1  0.903863  0.903863  0.310353  1
  Al  Al10  1  0.096136  0.096136  0.689647  1
  Al  Al11  1  0.593511  0.096136  0.689647  1
  Al  Al12  1  0.096136  0.593511  0.689647  1
  Al  Al13  1  0.593511  0.593511  0.689647  1
  Al  Al14  1  0.196937  0.196937  0.895585  1
  Al  Al15  1  0.698648  0.196937  0.895585  1
  Al  Al16  1  0.196937  0.698648  0.895585  1
  Al  Al17  1  0.698648  0.698648  0.895585  1
  Ge  Ge18  1  0.206513  0.206513  0.413027  1
  Ge  Ge19  1  0.793487  0.793487  0.586974  1
  Au  Au20  1  0.000000  0.000000  0.000000  1
  Au  Au21  1  0.500001  0.500001  0.000000  1
  Au  Au22  1  0.603829  0.103829  0.207658  1
  Au  Au23  1  0.103829  0.603829  0.207658  1
  Au  Au24  1  0.704723  0.704723  0.409443  1
  Au  Au25  1  0.295278  0.295278  0.590557  1
  Au  Au26  1  0.896172  0.396171  0.792341  1
  Au  Au27  1  0.396171  0.896172  0.792341  1
