# generated using pymatgen
data_TbHo3Al4Ir3Pd
_symmetry_space_group_name_H-M   'P 1'
_cell_length_a   4.27054100
_cell_length_b   6.87300722
_cell_length_c   7.92653912
_cell_angle_alpha   89.93266413
_cell_angle_beta   90.00000000
_cell_angle_gamma   90.00000000
_symmetry_Int_Tables_number   1
_chemical_formula_structural   TbHo3Al4Ir3Pd
_chemical_formula_sum   'Tb1 Ho3 Al4 Ir3 Pd1'
_cell_volume   232.65532837
_cell_formula_units_Z   1
loop_
 _symmetry_equiv_pos_site_id
 _symmetry_equiv_pos_as_xyz
  1  'x, y, z'
loop_
 _atom_site_type_symbol
 _atom_site_label
 _atom_site_symmetry_multiplicity
 _atom_site_fract_x
 _atom_site_fract_y
 _atom_site_fract_z
 _atom_site_occupancy
  Tb  Tb0  1  0.250000  0.028121  0.676334  1
  Ho  Ho1  1  0.250000  0.539816  0.818731  1
  Ho  Ho2  1  0.750000  0.968387  0.320249  1
  Ho  Ho3  1  0.750000  0.471444  0.183788  1
  Al  Al4  1  0.250000  0.137023  0.065460  1
  Al  Al5  1  0.250000  0.638270  0.437688  1
  Al  Al6  1  0.750000  0.855692  0.939447  1
  Al  Al7  1  0.750000  0.363601  0.556955  1
  Ir  Ir8  1  0.250000  0.266882  0.378600  1
  Ir  Ir9  1  0.250000  0.766173  0.119535  1
  Ir  Ir10  1  0.750000  0.732212  0.621851  1
  Pd  Pd11  1  0.750000  0.232379  0.881363  1
