# generated using pymatgen
data_Pr5Y11Cd4Ir3Pd
_symmetry_space_group_name_H-M   'P 1'
_cell_length_a   9.80308606
_cell_length_b   9.78904243
_cell_length_c   9.78904344
_cell_angle_alpha   60.13080336
_cell_angle_beta   60.16009015
_cell_angle_gamma   60.16008761
_symmetry_Int_Tables_number   1
_chemical_formula_structural   Pr5Y11Cd4Ir3Pd
_chemical_formula_sum   'Pr5 Y11 Cd4 Ir3 Pd1'
_cell_volume   666.50665351
_cell_formula_units_Z   1
loop_
 _symmetry_equiv_pos_site_id
 _symmetry_equiv_pos_as_xyz
  1  'x, y, z'
loop_
 _atom_site_type_symbol
 _atom_site_label
 _atom_site_symmetry_multiplicity
 _atom_site_fract_x
 _atom_site_fract_y
 _atom_site_fract_z
 _atom_site_occupancy
  Pr  Pr0  1  0.558575  0.941880  0.941880  1
  Pr  Pr1  1  0.564980  0.937129  0.562318  1
  Pr  Pr2  1  0.940737  0.562877  0.934536  1
  Pr  Pr3  1  0.564980  0.562318  0.937129  1
  Pr  Pr4  1  0.940737  0.934536  0.562877  1
  Y  Y5  1  0.348137  0.346052  0.346052  1
  Y  Y6  1  0.352116  0.356339  0.951317  1
  Y  Y7  1  0.352116  0.951317  0.356339  1
  Y  Y8  1  0.947774  0.353116  0.353116  1
  Y  Y9  1  0.806503  0.187799  0.187799  1
  Y  Y10  1  0.185423  0.813653  0.813653  1
  Y  Y11  1  0.187597  0.805752  0.190683  1
  Y  Y12  1  0.812141  0.186548  0.810977  1
  Y  Y13  1  0.187597  0.190683  0.805752  1
  Y  Y14  1  0.812141  0.810977  0.186548  1
  Y  Y15  1  0.945007  0.555174  0.555174  1
  Cd  Cd16  1  0.583299  0.578616  0.578616  1
  Cd  Cd17  1  0.577655  0.578891  0.262183  1
  Cd  Cd18  1  0.577655  0.262183  0.578891  1
  Cd  Cd19  1  0.260281  0.578111  0.578111  1
  Ir  Ir20  1  0.137570  0.146641  0.575674  1
  Ir  Ir21  1  0.137570  0.575674  0.146641  1
  Ir  Ir22  1  0.575774  0.140529  0.140529  1
  Pd  Pd23  1  0.143631  0.143201  0.143201  1
