# generated using pymatgen
data_Yb3Ho(Si5Pt3)2
_symmetry_space_group_name_H-M   'P 1'
_cell_length_a   8.23326014
_cell_length_b   8.23413503
_cell_length_c   8.23413527
_cell_angle_alpha   138.04160845
_cell_angle_beta   104.09920562
_cell_angle_gamma   90.73312373
_symmetry_Int_Tables_number   1
_chemical_formula_structural   Yb3Ho(Si5Pt3)2
_chemical_formula_sum   'Yb3 Ho1 Si10 Pt6'
_cell_volume   345.41000759
_cell_formula_units_Z   1
loop_
 _symmetry_equiv_pos_site_id
 _symmetry_equiv_pos_as_xyz
  1  'x, y, z'
loop_
 _atom_site_type_symbol
 _atom_site_label
 _atom_site_symmetry_multiplicity
 _atom_site_fract_x
 _atom_site_fract_y
 _atom_site_fract_z
 _atom_site_occupancy
  Yb  Yb0  1  0.636548  0.370310  0.266238  1
  Yb  Yb1  1  0.362919  0.628905  0.734014  1
  Yb  Yb2  1  0.105777  0.871835  0.233941  1
  Ho  Ho3  1  0.897390  0.129061  0.768330  1
  Si  Si4  1  0.460810  0.112391  0.348419  1
  Si  Si5  1  0.539826  0.888389  0.651436  1
  Si  Si6  1  0.761740  0.612012  0.149728  1
  Si  Si7  1  0.236800  0.387296  0.849503  1
  Si  Si8  1  0.270626  0.521126  0.251370  1
  Si  Si9  1  0.727904  0.478747  0.748286  1
  Si  Si10  1  0.727904  0.979619  0.249156  1
  Si  Si11  1  0.270626  0.019256  0.749502  1
  Si  Si12  1  0.001190  0.252074  0.252239  1
  Si  Si13  1  0.001190  0.748951  0.749116  1
  Pt  Pt14  1  0.500375  0.249367  0.749821  1
  Pt  Pt15  1  0.500375  0.750555  0.251009  1
  Pt  Pt16  1  0.251098  0.135890  0.115208  1
  Pt  Pt17  1  0.749185  0.864854  0.884330  1
  Pt  Pt18  1  0.018694  0.636461  0.382232  1
  Pt  Pt19  1  0.979023  0.362902  0.616122  1
