# generated using pymatgen
data_DyTmZn5Si
_symmetry_space_group_name_H-M   'P 1'
_cell_length_a   8.12015000
_cell_length_b   8.12015121
_cell_length_c   8.64109800
_cell_angle_alpha   90.00000000
_cell_angle_beta   90.00000000
_cell_angle_gamma   149.57046045
_symmetry_Int_Tables_number   1
_chemical_formula_structural   DyTmZn5Si
_chemical_formula_sum   'Dy2 Tm2 Zn10 Si2'
_cell_volume   288.57453677
_cell_formula_units_Z   2
loop_
 _symmetry_equiv_pos_site_id
 _symmetry_equiv_pos_as_xyz
  1  'x, y, z'
loop_
 _atom_site_type_symbol
 _atom_site_label
 _atom_site_symmetry_multiplicity
 _atom_site_fract_x
 _atom_site_fract_y
 _atom_site_fract_z
 _atom_site_occupancy
  Dy  Dy0  1  0.000000  0.000000  0.500000  1
  Dy  Dy1  1  0.000000  0.000000  0.000000  1
  Tm  Tm2  1  0.199073  0.800927  0.250000  1
  Tm  Tm3  1  0.800927  0.199073  0.750000  1
  Zn  Zn4  1  0.812355  0.187645  0.393755  1
  Zn  Zn5  1  0.187645  0.812355  0.606245  1
  Zn  Zn6  1  0.812355  0.187645  0.106245  1
  Zn  Zn7  1  0.187645  0.812355  0.893755  1
  Zn  Zn8  1  0.649239  0.350761  0.473295  1
  Zn  Zn9  1  0.350761  0.649239  0.526705  1
  Zn  Zn10  1  0.649239  0.350761  0.026705  1
  Zn  Zn11  1  0.350761  0.649239  0.973295  1
  Zn  Zn12  1  0.401805  0.598195  0.250000  1
  Zn  Zn13  1  0.598195  0.401805  0.750000  1
  Si  Si14  1  0.554997  0.445003  0.250000  1
  Si  Si15  1  0.445003  0.554997  0.750000  1
