# generated using pymatgen
data_Er4Tm6Os3Ru
_symmetry_space_group_name_H-M   'P 1'
_cell_length_a   6.27635640
_cell_length_b   7.31491646
_cell_length_c   8.32256040
_cell_angle_alpha   96.97143849
_cell_angle_beta   112.21328118
_cell_angle_gamma   90.07084358
_symmetry_Int_Tables_number   1
_chemical_formula_structural   Er4Tm6Os3Ru
_chemical_formula_sum   'Er4 Tm6 Os3 Ru1'
_cell_volume   350.66190667
_cell_formula_units_Z   1
loop_
 _symmetry_equiv_pos_site_id
 _symmetry_equiv_pos_as_xyz
  1  'x, y, z'
loop_
 _atom_site_type_symbol
 _atom_site_label
 _atom_site_symmetry_multiplicity
 _atom_site_fract_x
 _atom_site_fract_y
 _atom_site_fract_z
 _atom_site_occupancy
  Er  Er0  1  0.793388  0.083810  0.816551  1
  Er  Er1  1  0.975106  0.416338  0.183318  1
  Er  Er2  1  0.208475  0.916437  0.185519  1
  Er  Er3  1  0.024833  0.584784  0.816808  1
  Tm  Tm4  1  0.203591  0.183276  0.564492  1
  Tm  Tm5  1  0.640458  0.316910  0.436107  1
  Tm  Tm6  1  0.794616  0.815954  0.434595  1
  Tm  Tm7  1  0.360281  0.682489  0.563414  1
  Tm  Tm8  1  0.420487  0.249884  0.000073  1
  Tm  Tm9  1  0.580494  0.749979  0.000618  1
  Os  Os10  1  0.602114  0.422472  0.780238  1
  Os  Os11  1  0.821810  0.077280  0.219908  1
  Os  Os12  1  0.397658  0.577655  0.219153  1
  Ru  Ru13  1  0.176689  0.922733  0.779209  1
