# generated using pymatgen
data_Dy5Tm3AsP11Ir16
_symmetry_space_group_name_H-M   'P 1'
_cell_length_a   13.00771017
_cell_length_b   12.99196771
_cell_length_c   4.00002300
_cell_angle_alpha   90.00000000
_cell_angle_beta   90.00000000
_cell_angle_gamma   119.95997472
_symmetry_Int_Tables_number   1
_chemical_formula_structural   Dy5Tm3AsP11Ir16
_chemical_formula_sum   'Dy5 Tm3 As1 P11 Ir16'
_cell_volume   585.65778890
_cell_formula_units_Z   1
loop_
 _symmetry_equiv_pos_site_id
 _symmetry_equiv_pos_as_xyz
  1  'x, y, z'
loop_
 _atom_site_type_symbol
 _atom_site_label
 _atom_site_symmetry_multiplicity
 _atom_site_fract_x
 _atom_site_fract_y
 _atom_site_fract_z
 _atom_site_occupancy
  Dy  Dy0  1  0.334068  0.666777  0.500000  1
  Dy  Dy1  1  0.665932  0.332708  0.500000  1
  Dy  Dy2  1  0.000000  0.817439  0.000000  1
  Dy  Dy3  1  0.186820  0.186800  0.000000  1
  Dy  Dy4  1  0.813180  0.999981  0.000000  1
  Tm  Tm5  1  0.000000  0.442439  0.500000  1
  Tm  Tm6  1  0.552422  0.554350  0.500000  1
  Tm  Tm7  1  0.447578  0.001928  0.500000  1
  As  As8  1  0.000000  0.650958  0.500000  1
  P  P9  1  0.348272  0.347960  0.500000  1
  P  P10  1  0.651728  0.999688  0.500000  1
  P  P11  1  0.516907  0.689143  0.000000  1
  P  P12  1  0.312912  0.829249  0.000000  1
  P  P13  1  0.172554  0.482331  0.000000  1
  P  P14  1  0.483093  0.172236  0.000000  1
  P  P15  1  0.687088  0.516337  0.000000  1
  P  P16  1  0.827446  0.309778  0.000000  1
  P  P17  1  0.000000  0.175601  0.500000  1
  P  P18  1  0.822832  0.823721  0.500000  1
  P  P19  1  0.177168  0.000889  0.500000  1
  Ir  Ir20  1  0.509327  0.866503  0.000000  1
  Ir  Ir21  1  0.138668  0.643108  0.000000  1
  Ir  Ir22  1  0.357073  0.491085  0.000000  1
  Ir  Ir23  1  0.490673  0.357177  0.000000  1
  Ir  Ir24  1  0.861332  0.504440  0.000000  1
  Ir  Ir25  1  0.642927  0.134012  0.000000  1
  Ir  Ir26  1  0.000000  0.273523  0.000000  1
  Ir  Ir27  1  0.724632  0.727200  0.000000  1
  Ir  Ir28  1  0.275368  0.002568  0.000000  1
  Ir  Ir29  1  0.629883  0.809551  0.500000  1
  Ir  Ir30  1  0.199817  0.826391  0.500000  1
  Ir  Ir31  1  0.178809  0.368707  0.500000  1
  Ir  Ir32  1  0.370117  0.179668  0.500000  1
  Ir  Ir33  1  0.800183  0.626573  0.500000  1
  Ir  Ir34  1  0.821191  0.189898  0.500000  1
  Ir  Ir35  1  0.000000  0.999285  0.500000  1
