# generated using pymatgen
data_Dy2Mn5P7Ir3Rh4
_symmetry_space_group_name_H-M   'P 1'
_cell_length_a   9.41071302
_cell_length_b   9.40257614
_cell_length_c   3.81594800
_cell_angle_alpha   90.00000000
_cell_angle_beta   90.00000000
_cell_angle_gamma   119.81134266
_symmetry_Int_Tables_number   1
_chemical_formula_structural   Dy2Mn5P7Ir3Rh4
_chemical_formula_sum   'Dy2 Mn5 P7 Ir3 Rh4'
_cell_volume   292.97120888
_cell_formula_units_Z   1
loop_
 _symmetry_equiv_pos_site_id
 _symmetry_equiv_pos_as_xyz
  1  'x, y, z'
loop_
 _atom_site_type_symbol
 _atom_site_label
 _atom_site_symmetry_multiplicity
 _atom_site_fract_x
 _atom_site_fract_y
 _atom_site_fract_z
 _atom_site_occupancy
  Dy  Dy0  1  0.666502  0.333176  0.000000  1
  Dy  Dy1  1  0.333344  0.666100  0.500000  1
  Mn  Mn2  1  0.888155  0.730478  0.000000  1
  Mn  Mn3  1  0.269762  0.158270  0.000000  1
  Mn  Mn4  1  0.840396  0.109072  0.000000  1
  Mn  Mn5  1  0.101980  0.223280  0.500000  1
  Mn  Mn6  1  0.775330  0.878608  0.500000  1
  P  P7  1  0.108303  0.698616  0.000000  1
  P  P8  1  0.298344  0.407294  0.000000  1
  P  P9  1  0.589967  0.889142  0.000000  1
  P  P10  1  0.723075  0.603395  0.500000  1
  P  P11  1  0.397924  0.122248  0.500000  1
  P  P12  1  0.882105  0.275629  0.500000  1
  P  P13  1  0.001964  0.002198  0.000000  1
  Ir  Ir14  1  0.945254  0.556440  0.500000  1
  Ir  Ir15  1  0.442053  0.388370  0.500000  1
  Ir  Ir16  1  0.610869  0.054278  0.500000  1
  Rh  Rh17  1  0.361542  0.934225  0.000000  1
  Rh  Rh18  1  0.064916  0.425952  0.000000  1
  Rh  Rh19  1  0.572239  0.637458  0.000000  1
  Rh  Rh20  1  0.125976  0.905775  0.500000  1
