# generated using pymatgen
data_Tb4ReTc3B8
_symmetry_space_group_name_H-M   'P 1'
_cell_length_a   5.31560500
_cell_length_b   5.97429136
_cell_length_c   6.47602640
_cell_angle_alpha   90.16831171
_cell_angle_beta   90.00000000
_cell_angle_gamma   90.00000000
_symmetry_Int_Tables_number   1
_chemical_formula_structural   Tb4ReTc3B8
_chemical_formula_sum   'Tb4 Re1 Tc3 B8'
_cell_volume   205.65810823
_cell_formula_units_Z   1
loop_
 _symmetry_equiv_pos_site_id
 _symmetry_equiv_pos_as_xyz
  1  'x, y, z'
loop_
 _atom_site_type_symbol
 _atom_site_label
 _atom_site_symmetry_multiplicity
 _atom_site_fract_x
 _atom_site_fract_y
 _atom_site_fract_z
 _atom_site_occupancy
  Tb  Tb0  1  0.250000  0.012504  0.339987  1
  Tb  Tb1  1  0.250000  0.513392  0.159496  1
  Tb  Tb2  1  0.750000  0.986182  0.661042  1
  Tb  Tb3  1  0.750000  0.486957  0.839584  1
  Re  Re4  1  0.750000  0.318444  0.314391  1
  Tc  Tc5  1  0.250000  0.181045  0.815133  1
  Tc  Tc6  1  0.250000  0.680662  0.684788  1
  Tc  Tc7  1  0.750000  0.818751  0.184896  1
  B  B8  1  0.077691  0.370468  0.535930  1
  B  B9  1  0.421325  0.872414  0.963353  1
  B  B10  1  0.578157  0.628256  0.463177  1
  B  B11  1  0.922572  0.129894  0.037881  1
  B  B12  1  0.921843  0.628256  0.463177  1
  B  B13  1  0.577428  0.129894  0.037881  1
  B  B14  1  0.422309  0.370468  0.535930  1
  B  B15  1  0.078675  0.872414  0.963353  1
