# generated using pymatgen
data_Dy8Hf11Si16Tc
_symmetry_space_group_name_H-M   'P 1'
_cell_length_a   7.24665877
_cell_length_b   7.24665900
_cell_length_c   13.27607902
_cell_angle_alpha   89.94928147
_cell_angle_beta   90.05071756
_cell_angle_gamma   90.04962236
_symmetry_Int_Tables_number   1
_chemical_formula_structural   Dy8Hf11Si16Tc
_chemical_formula_sum   'Dy8 Hf11 Si16 Tc1'
_cell_volume   697.18007023
_cell_formula_units_Z   1
loop_
 _symmetry_equiv_pos_site_id
 _symmetry_equiv_pos_as_xyz
  1  'x, y, z'
loop_
 _atom_site_type_symbol
 _atom_site_label
 _atom_site_symmetry_multiplicity
 _atom_site_fract_x
 _atom_site_fract_y
 _atom_site_fract_z
 _atom_site_occupancy
  Dy  Dy0  1  0.999019  0.342764  0.212149  1
  Dy  Dy1  1  0.004368  0.655969  0.716974  1
  Dy  Dy2  1  0.156428  0.495343  0.465442  1
  Dy  Dy3  1  0.501113  0.845688  0.033668  1
  Dy  Dy4  1  0.845688  0.501113  0.966332  1
  Dy  Dy5  1  0.495343  0.156428  0.534558  1
  Dy  Dy6  1  0.342764  0.999019  0.787851  1
  Dy  Dy7  1  0.655969  0.004368  0.283026  1
  Hf  Hf8  1  0.825226  0.825226  0.500000  1
  Hf  Hf9  1  0.324336  0.674619  0.248592  1
  Hf  Hf10  1  0.674619  0.324336  0.751408  1
  Hf  Hf11  1  0.148360  0.997348  0.373102  1
  Hf  Hf12  1  0.853287  0.004746  0.877589  1
  Hf  Hf13  1  0.503384  0.648039  0.625079  1
  Hf  Hf14  1  0.350032  0.494186  0.877158  1
  Hf  Hf15  1  0.494186  0.350032  0.122842  1
  Hf  Hf16  1  0.648039  0.503384  0.374921  1
  Hf  Hf17  1  0.997348  0.148360  0.626898  1
  Hf  Hf18  1  0.004746  0.853287  0.122411  1
  Si  Si19  1  0.361828  0.295002  0.316131  1
  Si  Si20  1  0.637291  0.705128  0.818192  1
  Si  Si21  1  0.205312  0.862248  0.567423  1
  Si  Si22  1  0.136920  0.795388  0.932358  1
  Si  Si23  1  0.795388  0.136920  0.067642  1
  Si  Si24  1  0.862248  0.205312  0.432577  1
  Si  Si25  1  0.295002  0.361828  0.683869  1
  Si  Si26  1  0.705128  0.637291  0.181808  1
  Si  Si27  1  0.293927  0.052514  0.181871  1
  Si  Si28  1  0.703929  0.951601  0.685851  1
  Si  Si29  1  0.450249  0.796235  0.434993  1
  Si  Si30  1  0.204931  0.547923  0.064466  1
  Si  Si31  1  0.547923  0.204931  0.935534  1
  Si  Si32  1  0.796235  0.450249  0.565007  1
  Si  Si33  1  0.052514  0.293927  0.818129  1
  Si  Si34  1  0.951601  0.703929  0.314149  1
  Tc  Tc35  1  0.175319  0.175319  0.000000  1
