# generated using pymatgen
data_Ba2AgBi4Au3
_symmetry_space_group_name_H-M   'P 1'
_cell_length_a   4.88394600
_cell_length_b   5.10615013
_cell_length_c   12.04436232
_cell_angle_alpha   88.19610929
_cell_angle_beta   90.00000000
_cell_angle_gamma   90.00000000
_symmetry_Int_Tables_number   1
_chemical_formula_structural   Ba2AgBi4Au3
_chemical_formula_sum   'Ba2 Ag1 Bi4 Au3'
_cell_volume   300.21539989
_cell_formula_units_Z   1
loop_
 _symmetry_equiv_pos_site_id
 _symmetry_equiv_pos_as_xyz
  1  'x, y, z'
loop_
 _atom_site_type_symbol
 _atom_site_label
 _atom_site_symmetry_multiplicity
 _atom_site_fract_x
 _atom_site_fract_y
 _atom_site_fract_z
 _atom_site_occupancy
  Ba  Ba0  1  0.250000  0.718842  0.754193  1
  Ba  Ba1  1  0.750000  0.277056  0.245126  1
  Ag  Ag2  1  0.750000  0.670615  0.000137  1
  Bi  Bi3  1  0.750000  0.751183  0.501624  1
  Bi  Bi4  1  0.250000  0.248536  0.498413  1
  Bi  Bi5  1  0.250000  0.822802  0.122553  1
  Bi  Bi6  1  0.750000  0.177555  0.878356  1
  Au  Au7  1  0.750000  0.244262  0.643030  1
  Au  Au8  1  0.250000  0.754198  0.357789  1
  Au  Au9  1  0.250000  0.334951  0.998780  1
