# generated using pymatgen
data_DyEr5Mn2(Si4Ru)6
_symmetry_space_group_name_H-M   'P 1'
_cell_length_a   10.07468950
_cell_length_b   10.07468891
_cell_length_c   8.06312104
_cell_angle_alpha   90.02039324
_cell_angle_beta   89.97960485
_cell_angle_gamma   132.75930179
_symmetry_Int_Tables_number   1
_chemical_formula_structural   DyEr5Mn2(Si4Ru)6
_chemical_formula_sum   'Dy1 Er5 Mn2 Si24 Ru6'
_cell_volume   600.88050901
_cell_formula_units_Z   1
loop_
 _symmetry_equiv_pos_site_id
 _symmetry_equiv_pos_as_xyz
  1  'x, y, z'
loop_
 _atom_site_type_symbol
 _atom_site_label
 _atom_site_symmetry_multiplicity
 _atom_site_fract_x
 _atom_site_fract_y
 _atom_site_fract_z
 _atom_site_occupancy
  Dy  Dy0  1  0.497952  0.997952  0.250000  1
  Er  Er1  1  0.002044  0.502044  0.750000  1
  Er  Er2  1  0.502310  0.002310  0.750000  1
  Er  Er3  1  0.997874  0.497874  0.250000  1
  Er  Er4  1  0.502109  0.502125  0.502766  1
  Er  Er5  1  0.002125  0.002109  0.997234  1
  Mn  Mn6  1  0.624447  0.624544  0.872940  1
  Mn  Mn7  1  0.124544  0.124447  0.627060  1
  Si  Si8  1  0.386732  0.153243  0.005875  1
  Si  Si9  1  0.653243  0.886732  0.494125  1
  Si  Si10  1  0.115163  0.342435  0.512407  1
  Si  Si11  1  0.842435  0.615163  0.987593  1
  Si  Si12  1  0.615478  0.843021  0.987075  1
  Si  Si13  1  0.343021  0.115478  0.512925  1
  Si  Si14  1  0.886769  0.653518  0.493557  1
  Si  Si15  1  0.153518  0.386769  0.006443  1
  Si  Si16  1  0.610694  0.377118  0.230121  1
  Si  Si17  1  0.877118  0.110694  0.269879  1
  Si  Si18  1  0.897775  0.124886  0.728192  1
  Si  Si19  1  0.624886  0.397775  0.771808  1
  Si  Si20  1  0.398022  0.625210  0.771690  1
  Si  Si21  1  0.125210  0.898022  0.728310  1
  Si  Si22  1  0.703880  0.294949  0.999851  1
  Si  Si23  1  0.794949  0.203880  0.500149  1
  Si  Si24  1  0.294165  0.703078  0.999763  1
  Si  Si25  1  0.203078  0.794165  0.500237  1
  Si  Si26  1  0.166963  0.166820  0.339400  1
  Si  Si27  1  0.666820  0.666963  0.160600  1
  Si  Si28  1  0.331932  0.331945  0.826554  1
  Si  Si29  1  0.831945  0.831932  0.673446  1
  Si  Si30  1  0.376077  0.609743  0.230281  1
  Si  Si31  1  0.109743  0.876077  0.269719  1
  Ru  Ru32  1  0.871512  0.871615  0.373686  1
  Ru  Ru33  1  0.371615  0.371512  0.126314  1
  Ru  Ru34  1  0.327861  0.667995  0.503330  1
  Ru  Ru35  1  0.167995  0.827861  0.996670  1
  Ru  Ru36  1  0.669026  0.328973  0.503265  1
  Ru  Ru37  1  0.828973  0.169026  0.996735  1
