# generated using pymatgen
data_Ta5Nb(MoH8)2
_symmetry_space_group_name_H-M   'P 1'
_cell_length_a   6.39294408
_cell_length_b   6.38301673
_cell_length_c   6.38301673
_cell_angle_alpha   60.10292286
_cell_angle_beta   59.94853916
_cell_angle_gamma   59.94853859
_symmetry_Int_Tables_number   1
_chemical_formula_structural   Ta5Nb(MoH8)2
_chemical_formula_sum   'Ta5 Nb1 Mo2 H16'
_cell_volume   184.17715955
_cell_formula_units_Z   1
loop_
 _symmetry_equiv_pos_site_id
 _symmetry_equiv_pos_as_xyz
  1  'x, y, z'
loop_
 _atom_site_type_symbol
 _atom_site_label
 _atom_site_symmetry_multiplicity
 _atom_site_fract_x
 _atom_site_fract_y
 _atom_site_fract_z
 _atom_site_occupancy
  Ta  Ta0  1  0.000000  0.000000  0.500000  1
  Ta  Ta1  1  0.500000  0.000000  0.500000  1
  Ta  Ta2  1  0.500000  0.500000  0.000000  1
  Ta  Ta3  1  0.000000  0.500000  0.000000  1
  Ta  Ta4  1  0.500000  0.500000  0.500000  1
  Nb  Nb5  1  0.000000  0.000000  0.000000  1
  Mo  Mo6  1  0.000000  0.500000  0.500000  1
  Mo  Mo7  1  0.500000  0.000000  0.000000  1
  H  H8  1  0.876658  0.866877  0.379809  1
  H  H9  1  0.876658  0.379809  0.866877  1
  H  H10  1  0.379809  0.876658  0.876658  1
  H  H11  1  0.866877  0.876658  0.876658  1
  H  H12  1  0.123342  0.133123  0.620191  1
  H  H13  1  0.123342  0.620191  0.133123  1
  H  H14  1  0.620191  0.123342  0.123342  1
  H  H15  1  0.133123  0.123342  0.123342  1
  H  H16  1  0.622501  0.631950  0.123048  1
  H  H17  1  0.622501  0.123048  0.631950  1
  H  H18  1  0.123048  0.622501  0.622501  1
  H  H19  1  0.631950  0.622501  0.622501  1
  H  H20  1  0.377499  0.368050  0.876952  1
  H  H21  1  0.377499  0.876952  0.368050  1
  H  H22  1  0.876952  0.377499  0.377499  1
  H  H23  1  0.368050  0.377499  0.377499  1
