# generated using pymatgen
data_La7PI12
_symmetry_space_group_name_H-M   'P 1'
_cell_length_a   10.12992656
_cell_length_b   10.12992768
_cell_length_c   10.12992872
_cell_angle_alpha   107.89400801
_cell_angle_beta   107.89400996
_cell_angle_gamma   107.89400108
_symmetry_Int_Tables_number   1
_chemical_formula_structural   La7PI12
_chemical_formula_sum   'La7 P1 I12'
_cell_volume   843.69263083
_cell_formula_units_Z   1
loop_
 _symmetry_equiv_pos_site_id
 _symmetry_equiv_pos_as_xyz
  1  'x, y, z'
loop_
 _atom_site_type_symbol
 _atom_site_label
 _atom_site_symmetry_multiplicity
 _atom_site_fract_x
 _atom_site_fract_y
 _atom_site_fract_z
 _atom_site_occupancy
  La  La0  1  0.533929  0.604805  0.807810  1
  La  La1  1  0.807810  0.533929  0.604805  1
  La  La2  1  0.604805  0.807810  0.533929  1
  La  La3  1  0.470553  0.398219  0.190708  1
  La  La4  1  0.190708  0.470553  0.398219  1
  La  La5  1  0.398219  0.190708  0.470553  1
  La  La6  1  0.984623  0.984623  0.984623  1
  P  P7  1  0.497371  0.497371  0.497371  1
  I  I8  1  0.272057  0.814213  0.423607  1
  I  I9  1  0.423607  0.272057  0.814213  1
  I  I10  1  0.814213  0.423607  0.272057  1
  I  I11  1  0.729022  0.185929  0.574859  1
  I  I12  1  0.574859  0.729022  0.185929  1
  I  I13  1  0.185929  0.574859  0.729022  1
  I  I14  1  0.030905  0.110875  0.339972  1
  I  I15  1  0.339972  0.030905  0.110875  1
  I  I16  1  0.110875  0.339972  0.030905  1
  I  I17  1  0.970805  0.887486  0.647622  1
  I  I18  1  0.647622  0.970805  0.887486  1
  I  I19  1  0.887486  0.647622  0.970805  1
