# generated using pymatgen
data_Ho4ZrPd13Pt2
_symmetry_space_group_name_H-M   'P 1'
_cell_length_a   4.10521900
_cell_length_b   4.09892600
_cell_length_c   20.48326200
_cell_angle_alpha   90.00000000
_cell_angle_beta   90.00000000
_cell_angle_gamma   90.00000000
_symmetry_Int_Tables_number   1
_chemical_formula_structural   Ho4ZrPd13Pt2
_chemical_formula_sum   'Ho4 Zr1 Pd13 Pt2'
_cell_volume   344.67162220
_cell_formula_units_Z   1
loop_
 _symmetry_equiv_pos_site_id
 _symmetry_equiv_pos_as_xyz
  1  'x, y, z'
loop_
 _atom_site_type_symbol
 _atom_site_label
 _atom_site_symmetry_multiplicity
 _atom_site_fract_x
 _atom_site_fract_y
 _atom_site_fract_z
 _atom_site_occupancy
  Ho  Ho0  1  0.000000  0.000000  0.198347  1
  Ho  Ho1  1  0.000000  0.000000  0.398623  1
  Ho  Ho2  1  0.000000  0.000000  0.601409  1
  Ho  Ho3  1  0.000000  0.000000  0.801643  1
  Zr  Zr4  1  0.000000  0.000000  0.000397  1
  Pd  Pd5  1  0.500000  0.500000  0.196848  1
  Pd  Pd6  1  0.500000  0.500000  0.399051  1
  Pd  Pd7  1  0.500000  0.500000  0.600975  1
  Pd  Pd8  1  0.500000  0.500000  0.803131  1
  Pd  Pd9  1  0.500000  0.000000  0.297771  1
  Pd  Pd10  1  0.500000  0.000000  0.499994  1
  Pd  Pd11  1  0.500000  0.000000  0.702249  1
  Pd  Pd12  1  0.500000  0.000000  0.904401  1
  Pd  Pd13  1  0.000000  0.500000  0.095717  1
  Pd  Pd14  1  0.000000  0.500000  0.297896  1
  Pd  Pd15  1  0.000000  0.500000  0.500005  1
  Pd  Pd16  1  0.000000  0.500000  0.702224  1
  Pd  Pd17  1  0.000000  0.500000  0.904231  1
  Pt  Pt18  1  0.500000  0.500000  0.999825  1
  Pt  Pt19  1  0.500000  0.000000  0.095265  1
