# generated using pymatgen
data_Ca9Pt5Au
_symmetry_space_group_name_H-M   'P 1'
_cell_length_a   7.68791515
_cell_length_b   7.66433331
_cell_length_c   7.64587849
_cell_angle_alpha   71.02843024
_cell_angle_beta   70.84899221
_cell_angle_gamma   70.70550537
_symmetry_Int_Tables_number   1
_chemical_formula_structural   Ca9Pt5Au
_chemical_formula_sum   'Ca9 Pt5 Au1'
_cell_volume   389.63489493
_cell_formula_units_Z   1
loop_
 _symmetry_equiv_pos_site_id
 _symmetry_equiv_pos_as_xyz
  1  'x, y, z'
loop_
 _atom_site_type_symbol
 _atom_site_label
 _atom_site_symmetry_multiplicity
 _atom_site_fract_x
 _atom_site_fract_y
 _atom_site_fract_z
 _atom_site_occupancy
  Ca  Ca0  1  0.002451  0.993395  0.999472  1
  Ca  Ca1  1  0.392345  0.672285  0.153578  1
  Ca  Ca2  1  0.205115  0.197400  0.201577  1
  Ca  Ca3  1  0.848693  0.605887  0.336564  1
  Ca  Ca4  1  0.665014  0.146306  0.405131  1
  Ca  Ca5  1  0.331745  0.847652  0.601793  1
  Ca  Ca6  1  0.157629  0.397528  0.662971  1
  Ca  Ca7  1  0.800298  0.808074  0.795978  1
  Ca  Ca8  1  0.597953  0.328938  0.844090  1
  Pt  Pt9  1  0.588304  0.952995  0.160207  1
  Pt  Pt10  1  0.045496  0.840504  0.412775  1
  Pt  Pt11  1  0.952860  0.162581  0.586512  1
  Pt  Pt12  1  0.412383  0.046532  0.839334  1
  Pt  Pt13  1  0.161844  0.586730  0.953500  1
  Au  Au14  1  0.837871  0.413192  0.046519  1
