# generated using pymatgen
data_Er2Si7Pd12
_symmetry_space_group_name_H-M   'P 1'
_cell_length_a   9.98179500
_cell_length_b   9.98179521
_cell_length_c   3.85156900
_cell_angle_alpha   90.00000000
_cell_angle_beta   90.00000000
_cell_angle_gamma   120.00000262
_symmetry_Int_Tables_number   1
_chemical_formula_structural   Er2Si7Pd12
_chemical_formula_sum   'Er2 Si7 Pd12'
_cell_volume   332.34228742
_cell_formula_units_Z   1
loop_
 _symmetry_equiv_pos_site_id
 _symmetry_equiv_pos_as_xyz
  1  'x, y, z'
loop_
 _atom_site_type_symbol
 _atom_site_label
 _atom_site_symmetry_multiplicity
 _atom_site_fract_x
 _atom_site_fract_y
 _atom_site_fract_z
 _atom_site_occupancy
  Er  Er0  1  0.666667  0.333333  0.246817  1
  Er  Er1  1  0.000000  0.000000  0.750668  1
  Si  Si2  1  0.333333  0.666667  0.467953  1
  Si  Si3  1  0.741741  0.785690  0.250353  1
  Si  Si4  1  0.043949  0.258259  0.250353  1
  Si  Si5  1  0.214310  0.956051  0.250353  1
  Si  Si6  1  0.924682  0.548210  0.748116  1
  Si  Si7  1  0.623527  0.075318  0.748116  1
  Si  Si8  1  0.451790  0.376473  0.748116  1
  Pd  Pd9  1  0.776916  0.046273  0.248620  1
  Pd  Pd10  1  0.269357  0.223084  0.248620  1
  Pd  Pd11  1  0.953727  0.730643  0.248620  1
  Pd  Pd12  1  0.890431  0.286167  0.749698  1
  Pd  Pd13  1  0.395734  0.109569  0.749698  1
  Pd  Pd14  1  0.713833  0.604266  0.749698  1
  Pd  Pd15  1  0.481523  0.554382  0.247650  1
  Pd  Pd16  1  0.072860  0.518477  0.247650  1
  Pd  Pd17  1  0.445618  0.927140  0.247650  1
  Pd  Pd18  1  0.188578  0.775249  0.750923  1
  Pd  Pd19  1  0.586671  0.811422  0.750923  1
  Pd  Pd20  1  0.224751  0.413329  0.750923  1
