# generated using pymatgen
data_Ho4Er4Re(B8Ir)3
_symmetry_space_group_name_H-M   'P 1'
_cell_length_a   3.64342300
_cell_length_b   9.14859665
_cell_length_c   11.48267400
_cell_angle_alpha   90.13100599
_cell_angle_beta   90.00000000
_cell_angle_gamma   90.00000000
_symmetry_Int_Tables_number   1
_chemical_formula_structural   Ho4Er4Re(B8Ir)3
_chemical_formula_sum   'Ho4 Er4 Re1 B24 Ir3'
_cell_volume   382.74187131
_cell_formula_units_Z   1
loop_
 _symmetry_equiv_pos_site_id
 _symmetry_equiv_pos_as_xyz
  1  'x, y, z'
loop_
 _atom_site_type_symbol
 _atom_site_label
 _atom_site_symmetry_multiplicity
 _atom_site_fract_x
 _atom_site_fract_y
 _atom_site_fract_z
 _atom_site_occupancy
  Ho  Ho0  1  0.000000  0.320800  0.413528  1
  Ho  Ho1  1  0.000000  0.683221  0.590674  1
  Ho  Ho2  1  0.000000  0.820828  0.082875  1
  Ho  Ho3  1  0.000000  0.175877  0.912131  1
  Er  Er4  1  0.000000  0.943745  0.373202  1
  Er  Er5  1  0.000000  0.053914  0.626146  1
  Er  Er6  1  0.000000  0.443506  0.126010  1
  Er  Er7  1  0.000000  0.557342  0.875182  1
  Re  Re8  1  0.000000  0.862539  0.821201  1
  B  B9  1  0.500000  0.553431  0.434333  1
  B  B10  1  0.500000  0.447730  0.566604  1
  B  B11  1  0.500000  0.053168  0.066321  1
  B  B12  1  0.500000  0.946917  0.933269  1
  B  B13  1  0.500000  0.750212  0.420698  1
  B  B14  1  0.500000  0.250649  0.579001  1
  B  B15  1  0.500000  0.248915  0.078947  1
  B  B16  1  0.500000  0.751937  0.920076  1
  B  B17  1  0.500000  0.792046  0.265219  1
  B  B18  1  0.500000  0.207820  0.733204  1
  B  B19  1  0.500000  0.292811  0.234801  1
  B  B20  1  0.500000  0.707933  0.766358  1
  B  B21  1  0.500000  0.631057  0.184582  1
  B  B22  1  0.500000  0.368282  0.815620  1
  B  B23  1  0.500000  0.131980  0.315433  1
  B  B24  1  0.500000  0.868956  0.685556  1
  B  B25  1  0.500000  0.981441  0.212798  1
  B  B26  1  0.500000  0.017621  0.786496  1
  B  B27  1  0.500000  0.481090  0.287418  1
  B  B28  1  0.500000  0.518246  0.714042  1
  B  B29  1  0.500000  0.608513  0.031342  1
  B  B30  1  0.500000  0.389067  0.970090  1
  B  B31  1  0.500000  0.109578  0.469149  1
  B  B32  1  0.500000  0.891448  0.528776  1
  Ir  Ir33  1  0.000000  0.637135  0.322612  1
  Ir  Ir34  1  0.000000  0.362800  0.678050  1
  Ir  Ir35  1  0.000000  0.137444  0.178254  1
