# generated using pymatgen
data_Sm5Dy5(SiHg)4
_symmetry_space_group_name_H-M   'P 1'
_cell_length_a   9.05524013
_cell_length_b   8.73526312
_cell_length_c   7.61319422
_cell_angle_alpha   90.07693755
_cell_angle_beta   89.98277012
_cell_angle_gamma   129.41582193
_symmetry_Int_Tables_number   1
_chemical_formula_structural   Sm5Dy5(SiHg)4
_chemical_formula_sum   'Sm5 Dy5 Si4 Hg4'
_cell_volume   465.23632160
_cell_formula_units_Z   1
loop_
 _symmetry_equiv_pos_site_id
 _symmetry_equiv_pos_as_xyz
  1  'x, y, z'
loop_
 _atom_site_type_symbol
 _atom_site_label
 _atom_site_symmetry_multiplicity
 _atom_site_fract_x
 _atom_site_fract_y
 _atom_site_fract_z
 _atom_site_occupancy
  Sm  Sm0  1  0.064838  0.330629  0.322524  1
  Sm  Sm1  1  0.934630  0.670702  0.677080  1
  Sm  Sm2  1  0.434571  0.172528  0.821075  1
  Sm  Sm3  1  0.798554  0.547576  0.179904  1
  Sm  Sm4  1  0.564975  0.829619  0.179609  1
  Dy  Dy5  1  0.206570  0.452771  0.822763  1
  Dy  Dy6  1  0.704959  0.949379  0.678051  1
  Dy  Dy7  1  0.292312  0.047194  0.322549  1
  Dy  Dy8  1  0.999917  0.000301  0.999991  1
  Dy  Dy9  1  0.498595  0.499754  0.500070  1
  Si  Si10  1  0.381260  0.384376  0.119984  1
  Si  Si11  1  0.616812  0.615344  0.880710  1
  Si  Si12  1  0.116637  0.116571  0.619671  1
  Si  Si13  1  0.882984  0.886451  0.381385  1
  Hg  Hg14  1  0.804998  0.240476  0.977684  1
  Hg  Hg15  1  0.201793  0.761511  0.011584  1
  Hg  Hg16  1  0.689971  0.248363  0.486268  1
  Hg  Hg17  1  0.305624  0.746455  0.519099  1
