# generated using pymatgen
data_Ce2Be(SiRh2)3
_symmetry_space_group_name_H-M   'P 1'
_cell_length_a   5.58858496
_cell_length_b   6.66225899
_cell_length_c   6.66226010
_cell_angle_alpha   65.52380599
_cell_angle_beta   65.26182164
_cell_angle_gamma   65.26182238
_symmetry_Int_Tables_number   1
_chemical_formula_structural   Ce2Be(SiRh2)3
_chemical_formula_sum   'Ce2 Be1 Si3 Rh6'
_cell_volume   195.82289544
_cell_formula_units_Z   1
loop_
 _symmetry_equiv_pos_site_id
 _symmetry_equiv_pos_as_xyz
  1  'x, y, z'
loop_
 _atom_site_type_symbol
 _atom_site_label
 _atom_site_symmetry_multiplicity
 _atom_site_fract_x
 _atom_site_fract_y
 _atom_site_fract_z
 _atom_site_occupancy
  Ce  Ce0  1  0.545549  0.745264  0.745264  1
  Ce  Ce1  1  0.449563  0.255021  0.255021  1
  Be  Be2  1  0.231415  0.573533  0.573533  1
  Si  Si3  1  0.769295  0.422571  0.422571  1
  Si  Si4  1  0.117614  0.079452  0.079452  1
  Si  Si5  1  0.880127  0.921825  0.921825  1
  Rh  Rh6  1  0.499419  0.217725  0.782194  1
  Rh  Rh7  1  0.000573  0.717200  0.286313  1
  Rh  Rh8  1  0.499419  0.782194  0.217725  1
  Rh  Rh9  1  0.000573  0.286313  0.717200  1
  Rh  Rh10  1  0.003226  0.502347  0.996555  1
  Rh  Rh11  1  0.003226  0.996555  0.502347  1
