# generated using pymatgen
data_DyHo5MgCo17P12
_symmetry_space_group_name_H-M   'P 1'
_cell_length_a   3.70544200
_cell_length_b   10.54707800
_cell_length_c   12.20761100
_cell_angle_alpha   90.00000000
_cell_angle_beta   90.00000000
_cell_angle_gamma   90.00000000
_symmetry_Int_Tables_number   1
_chemical_formula_structural   DyHo5MgCo17P12
_chemical_formula_sum   'Dy1 Ho5 Mg1 Co17 P12'
_cell_volume   477.09279669
_cell_formula_units_Z   1
loop_
 _symmetry_equiv_pos_site_id
 _symmetry_equiv_pos_as_xyz
  1  'x, y, z'
loop_
 _atom_site_type_symbol
 _atom_site_label
 _atom_site_symmetry_multiplicity
 _atom_site_fract_x
 _atom_site_fract_y
 _atom_site_fract_z
 _atom_site_occupancy
  Dy  Dy0  1  0.000000  0.500000  0.525399  1
  Ho  Ho1  1  0.500000  0.000000  0.478318  1
  Ho  Ho2  1  0.500000  0.821512  0.207310  1
  Ho  Ho3  1  0.500000  0.178488  0.207310  1
  Ho  Ho4  1  0.000000  0.682674  0.794607  1
  Ho  Ho5  1  0.000000  0.317326  0.794607  1
  Mg  Mg6  1  0.500000  0.500000  0.153554  1
  Co  Co7  1  0.000000  0.000000  0.838567  1
  Co  Co8  1  0.500000  0.500000  0.704438  1
  Co  Co9  1  0.000000  0.000000  0.296171  1
  Co  Co10  1  0.000000  0.500000  0.985825  1
  Co  Co11  1  0.500000  0.000000  0.012514  1
  Co  Co12  1  0.500000  0.329237  0.992865  1
  Co  Co13  1  0.500000  0.670763  0.992865  1
  Co  Co14  1  0.000000  0.163284  0.001834  1
  Co  Co15  1  0.000000  0.836716  0.001834  1
  Co  Co16  1  0.500000  0.295496  0.432890  1
  Co  Co17  1  0.500000  0.704504  0.432890  1
  Co  Co18  1  0.000000  0.201845  0.570456  1
  Co  Co19  1  0.000000  0.798155  0.570456  1
  Co  Co20  1  0.500000  0.879917  0.708670  1
  Co  Co21  1  0.500000  0.120083  0.708670  1
  Co  Co22  1  0.000000  0.623041  0.293179  1
  Co  Co23  1  0.000000  0.376959  0.293179  1
  P  P24  1  0.500000  0.500000  0.883018  1
  P  P25  1  0.000000  0.000000  0.116593  1
  P  P26  1  0.500000  0.500000  0.353986  1
  P  P27  1  0.000000  0.000000  0.654849  1
  P  P28  1  0.500000  0.309535  0.617458  1
  P  P29  1  0.500000  0.690465  0.617458  1
  P  P30  1  0.000000  0.188837  0.385614  1
  P  P31  1  0.000000  0.811163  0.385614  1
  P  P32  1  0.500000  0.849519  0.890020  1
  P  P33  1  0.500000  0.150481  0.890020  1
  P  P34  1  0.000000  0.663013  0.103482  1
  P  P35  1  0.000000  0.336987  0.103482  1
