# generated using pymatgen
data_Li3Th3GaIr2
_symmetry_space_group_name_H-M   'P 1'
_cell_length_a   7.48672300
_cell_length_b   7.48672162
_cell_length_c   3.93938700
_cell_angle_alpha   90.00000000
_cell_angle_beta   90.00000000
_cell_angle_gamma   120.00000170
_symmetry_Int_Tables_number   1
_chemical_formula_structural   Li3Th3GaIr2
_chemical_formula_sum   'Li3 Th3 Ga1 Ir2'
_cell_volume   191.22414223
_cell_formula_units_Z   1
loop_
 _symmetry_equiv_pos_site_id
 _symmetry_equiv_pos_as_xyz
  1  'x, y, z'
loop_
 _atom_site_type_symbol
 _atom_site_label
 _atom_site_symmetry_multiplicity
 _atom_site_fract_x
 _atom_site_fract_y
 _atom_site_fract_z
 _atom_site_occupancy
  Li  Li0  1  0.764825  0.000000  0.000000  1
  Li  Li1  1  0.000000  0.764825  0.000000  1
  Li  Li2  1  0.235175  0.235175  0.000000  1
  Th  Th3  1  0.427157  0.000000  0.500000  1
  Th  Th4  1  0.000000  0.427157  0.500000  1
  Th  Th5  1  0.572843  0.572843  0.500000  1
  Ga  Ga6  1  0.000000  0.000000  0.500000  1
  Ir  Ir7  1  0.333333  0.666667  0.000000  1
  Ir  Ir8  1  0.666667  0.333333  0.000000  1
