# generated using pymatgen
data_TaMn2Nb3(P2O7)6
_symmetry_space_group_name_H-M   'P 1'
_cell_length_a   8.11386134
_cell_length_b   6.69304021
_cell_length_c   17.05424438
_cell_angle_alpha   67.37305271
_cell_angle_beta   89.96961181
_cell_angle_gamma   90.00013018
_symmetry_Int_Tables_number   1
_chemical_formula_structural   TaMn2Nb3(P2O7)6
_chemical_formula_sum   'Ta1 Mn2 Nb3 P12 O42'
_cell_volume   854.86777700
_cell_formula_units_Z   1
loop_
 _symmetry_equiv_pos_site_id
 _symmetry_equiv_pos_as_xyz
  1  'x, y, z'
loop_
 _atom_site_type_symbol
 _atom_site_label
 _atom_site_symmetry_multiplicity
 _atom_site_fract_x
 _atom_site_fract_y
 _atom_site_fract_z
 _atom_site_occupancy
  Ta  Ta0  1  0.520978  0.701118  0.333191  1
  Mn  Mn1  1  0.499946  0.999904  0.000141  1
  Mn  Mn2  1  0.000089  0.000238  0.499895  1
  Nb  Nb3  1  0.978495  0.702246  0.833211  1
  Nb  Nb4  1  0.021162  0.298176  0.167034  1
  Nb  Nb5  1  0.478547  0.298402  0.666525  1
  P  P6  1  0.396536  0.819184  0.836552  1
  P  P7  1  0.603255  0.179231  0.164038  1
  P  P8  1  0.896553  0.181227  0.663334  1
  P  P9  1  0.104550  0.818849  0.336536  1
  P  P10  1  0.109018  0.544503  0.669081  1
  P  P11  1  0.890253  0.456318  0.331027  1
  P  P12  1  0.608911  0.455683  0.830801  1
  P  P13  1  0.391445  0.543613  0.169755  1
  P  P14  1  0.889984  0.793116  0.016927  1
  P  P15  1  0.109896  0.207102  0.983267  1
  P  P16  1  0.390209  0.207718  0.482690  1
  P  P17  1  0.609521  0.793425  0.515944  1
  O  O18  1  0.776676  0.821762  0.545030  1
  O  O19  1  0.223459  0.178222  0.453461  1
  O  O20  1  0.276733  0.177707  0.953947  1
  O  O21  1  0.723243  0.822240  0.046415  1
  O  O22  1  0.396173  0.233879  0.569539  1
  O  O23  1  0.602529  0.766283  0.429301  1
  O  O24  1  0.895532  0.766472  0.930152  1
  O  O25  1  0.104088  0.233848  0.070051  1
  O  O26  1  0.447663  0.599976  0.825319  1
  O  O27  1  0.551957  0.397739  0.175739  1
  O  O28  1  0.947676  0.400292  0.674648  1
  O  O29  1  0.051759  0.600508  0.325137  1
  O  O30  1  0.256943  0.384371  0.694229  1
  O  O31  1  0.741891  0.615770  0.306539  1
  O  O32  1  0.756968  0.615679  0.805659  1
  O  O33  1  0.242473  0.385161  0.194934  1
  O  O34  1  0.426355  0.999397  0.746522  1
  O  O35  1  0.573082  0.998047  0.253774  1
  O  O36  1  0.926193  0.001064  0.753352  1
  O  O37  1  0.074715  0.999669  0.246752  1
  O  O38  1  0.207350  0.791806  0.851021  1
  O  O39  1  0.792545  0.206756  0.149839  1
  O  O40  1  0.707435  0.208666  0.648834  1
  O  O41  1  0.293788  0.790091  0.350419  1
  O  O42  1  0.131245  0.721405  0.584589  1
  O  O43  1  0.868755  0.278990  0.415454  1
  O  O44  1  0.631025  0.278700  0.915289  1
  O  O45  1  0.369933  0.720637  0.085276  1
  O  O46  1  0.076880  0.623719  0.742027  1
  O  O47  1  0.921734  0.377673  0.257858  1
  O  O48  1  0.576764  0.376710  0.757784  1
  O  O49  1  0.424675  0.622508  0.242694  1
  O  O50  1  0.490412  0.853412  0.904768  1
  O  O51  1  0.509726  0.146280  0.095480  1
  O  O52  1  0.990611  0.146732  0.595190  1
  O  O53  1  0.011764  0.853221  0.405009  1
  O  O54  1  0.984499  0.601340  0.083337  1
  O  O55  1  0.015429  0.398643  0.916734  1
  O  O56  1  0.484039  0.400413  0.416186  1
  O  O57  1  0.514903  0.602283  0.582786  1
  O  O58  1  0.501003  0.001882  0.498878  1
  O  O59  1  0.000031  0.999996  0.000099  1
