# generated using pymatgen
data_Tb4Dy4Re3TcB24
_symmetry_space_group_name_H-M   'P 1'
_cell_length_a   3.69587000
_cell_length_b   9.19556817
_cell_length_c   11.58977300
_cell_angle_alpha   90.03033192
_cell_angle_beta   90.00000000
_cell_angle_gamma   90.00000000
_symmetry_Int_Tables_number   1
_chemical_formula_structural   Tb4Dy4Re3TcB24
_chemical_formula_sum   'Tb4 Dy4 Re3 Tc1 B24'
_cell_volume   393.88561843
_cell_formula_units_Z   1
loop_
 _symmetry_equiv_pos_site_id
 _symmetry_equiv_pos_as_xyz
  1  'x, y, z'
loop_
 _atom_site_type_symbol
 _atom_site_label
 _atom_site_symmetry_multiplicity
 _atom_site_fract_x
 _atom_site_fract_y
 _atom_site_fract_z
 _atom_site_occupancy
  Tb  Tb0  1  0.000000  0.323856  0.413860  1
  Tb  Tb1  1  0.000000  0.676364  0.585950  1
  Tb  Tb2  1  0.000000  0.823773  0.085967  1
  Tb  Tb3  1  0.000000  0.176545  0.913974  1
  Dy  Dy4  1  0.000000  0.941806  0.369546  1
  Dy  Dy5  1  0.000000  0.057095  0.629887  1
  Dy  Dy6  1  0.000000  0.443384  0.130842  1
  Dy  Dy7  1  0.000000  0.557156  0.870113  1
  Re  Re8  1  0.000000  0.361641  0.679218  1
  Re  Re9  1  0.000000  0.138411  0.179345  1
  Re  Re10  1  0.000000  0.861660  0.820706  1
  Tc  Tc11  1  0.000000  0.638515  0.320667  1
  B  B12  1  0.500000  0.553509  0.432495  1
  B  B13  1  0.500000  0.446683  0.567249  1
  B  B14  1  0.500000  0.053506  0.067293  1
  B  B15  1  0.500000  0.946750  0.932618  1
  B  B16  1  0.500000  0.748355  0.418117  1
  B  B17  1  0.500000  0.251219  0.581664  1
  B  B18  1  0.500000  0.248959  0.081836  1
  B  B19  1  0.500000  0.751364  0.918261  1
  B  B20  1  0.500000  0.791261  0.265527  1
  B  B21  1  0.500000  0.208396  0.734272  1
  B  B22  1  0.500000  0.291542  0.234547  1
  B  B23  1  0.500000  0.708409  0.765665  1
  B  B24  1  0.500000  0.630877  0.186049  1
  B  B25  1  0.500000  0.369344  0.814095  1
  B  B26  1  0.500000  0.130444  0.314138  1
  B  B27  1  0.500000  0.869269  0.685842  1
  B  B28  1  0.500000  0.982495  0.211816  1
  B  B29  1  0.500000  0.017455  0.787975  1
  B  B30  1  0.500000  0.482829  0.288258  1
  B  B31  1  0.500000  0.517481  0.712000  1
  B  B32  1  0.500000  0.600271  0.028182  1
  B  B33  1  0.500000  0.400023  0.972283  1
  B  B34  1  0.500000  0.099676  0.471807  1
  B  B35  1  0.500000  0.899680  0.527935  1
