# generated using pymatgen
data_LaZn3Ga
_symmetry_space_group_name_H-M   'P 1'
_cell_length_a   6.08976154
_cell_length_b   6.08976214
_cell_length_c   6.05412900
_cell_angle_alpha   90.00000000
_cell_angle_beta   90.00000000
_cell_angle_gamma   117.31550015
_symmetry_Int_Tables_number   1
_chemical_formula_structural   LaZn3Ga
_chemical_formula_sum   'La2 Zn6 Ga2'
_cell_volume   199.48321454
_cell_formula_units_Z   2
loop_
 _symmetry_equiv_pos_site_id
 _symmetry_equiv_pos_as_xyz
  1  'x, y, z'
loop_
 _atom_site_type_symbol
 _atom_site_label
 _atom_site_symmetry_multiplicity
 _atom_site_fract_x
 _atom_site_fract_y
 _atom_site_fract_z
 _atom_site_occupancy
  La  La0  1  0.266202  0.733798  0.750000  1
  La  La1  1  0.733798  0.266202  0.250000  1
  Zn  Zn2  1  0.607718  0.392282  0.750000  1
  Zn  Zn3  1  0.392282  0.607718  0.250000  1
  Zn  Zn4  1  0.778399  0.778399  0.000000  1
  Zn  Zn5  1  0.778399  0.778399  0.500000  1
  Zn  Zn6  1  0.221601  0.221601  0.000000  1
  Zn  Zn7  1  0.221601  0.221601  0.500000  1
  Ga  Ga8  1  0.848757  0.151243  0.750000  1
  Ga  Ga9  1  0.151243  0.848757  0.250000  1
