# generated using pymatgen
data_Nd8Ti(Pd7Pt)3
_symmetry_space_group_name_H-M   'P 1'
_cell_length_a   8.51865500
_cell_length_b   8.52123300
_cell_length_c   8.52565900
_cell_angle_alpha   90.00000000
_cell_angle_beta   90.00000000
_cell_angle_gamma   90.00000000
_symmetry_Int_Tables_number   1
_chemical_formula_structural   Nd8Ti(Pd7Pt)3
_chemical_formula_sum   'Nd8 Ti1 Pd21 Pt3'
_cell_volume   618.87284741
_cell_formula_units_Z   1
loop_
 _symmetry_equiv_pos_site_id
 _symmetry_equiv_pos_as_xyz
  1  'x, y, z'
loop_
 _atom_site_type_symbol
 _atom_site_label
 _atom_site_symmetry_multiplicity
 _atom_site_fract_x
 _atom_site_fract_y
 _atom_site_fract_z
 _atom_site_occupancy
  Nd  Nd0  1  0.251128  0.251389  0.251332  1
  Nd  Nd1  1  0.747957  0.748081  0.747669  1
  Nd  Nd2  1  0.747957  0.748081  0.252331  1
  Nd  Nd3  1  0.748872  0.251389  0.748668  1
  Nd  Nd4  1  0.251128  0.251389  0.748668  1
  Nd  Nd5  1  0.252043  0.748081  0.252331  1
  Nd  Nd6  1  0.252043  0.748081  0.747669  1
  Nd  Nd7  1  0.748872  0.251389  0.251332  1
  Ti  Ti8  1  0.000000  0.006717  0.000000  1
  Pd  Pd9  1  0.263680  0.499894  0.000000  1
  Pd  Pd10  1  0.736320  0.499894  0.000000  1
  Pd  Pd11  1  0.000000  0.263381  0.500000  1
  Pd  Pd12  1  0.500000  0.262254  0.000000  1
  Pd  Pd13  1  0.000000  0.735383  0.500000  1
  Pd  Pd14  1  0.500000  0.736066  0.000000  1
  Pd  Pd15  1  0.500000  0.000016  0.263121  1
  Pd  Pd16  1  0.263971  0.000130  0.500000  1
  Pd  Pd17  1  0.500000  0.000016  0.736879  1
  Pd  Pd18  1  0.736029  0.000130  0.500000  1
  Pd  Pd19  1  0.000000  0.499987  0.263678  1
  Pd  Pd20  1  0.000000  0.499987  0.736322  1
  Pd  Pd21  1  0.254319  0.499780  0.500000  1
  Pd  Pd22  1  0.745681  0.499780  0.500000  1
  Pd  Pd23  1  0.500000  0.254380  0.500000  1
  Pd  Pd24  1  0.500000  0.745754  0.500000  1
  Pd  Pd25  1  0.500000  0.499802  0.254277  1
  Pd  Pd26  1  0.500000  0.499802  0.745723  1
  Pd  Pd27  1  0.000000  0.703832  0.000000  1
  Pd  Pd28  1  0.000000  0.998744  0.300381  1
  Pd  Pd29  1  0.000000  0.998744  0.699619  1
  Pt  Pt30  1  0.296101  0.998317  0.000000  1
  Pt  Pt31  1  0.703899  0.998317  0.000000  1
  Pt  Pt32  1  0.000000  0.301011  0.000000  1
