# generated using pymatgen
data_Yb8Cu3Si12Pd
_symmetry_space_group_name_H-M   'P 1'
_cell_length_a   8.11234500
_cell_length_b   8.11234451
_cell_length_c   8.36156000
_cell_angle_alpha   90.00000000
_cell_angle_beta   90.00000000
_cell_angle_gamma   120.00000608
_symmetry_Int_Tables_number   1
_chemical_formula_structural   Yb8Cu3Si12Pd
_chemical_formula_sum   'Yb8 Cu3 Si12 Pd1'
_cell_volume   476.55245730
_cell_formula_units_Z   1
loop_
 _symmetry_equiv_pos_site_id
 _symmetry_equiv_pos_as_xyz
  1  'x, y, z'
loop_
 _atom_site_type_symbol
 _atom_site_label
 _atom_site_symmetry_multiplicity
 _atom_site_fract_x
 _atom_site_fract_y
 _atom_site_fract_z
 _atom_site_occupancy
  Yb  Yb0  1  0.499434  0.998868  0.252103  1
  Yb  Yb1  1  0.499702  0.999404  0.747989  1
  Yb  Yb2  1  0.001132  0.500566  0.252103  1
  Yb  Yb3  1  0.000596  0.500298  0.747989  1
  Yb  Yb4  1  0.499434  0.500566  0.252103  1
  Yb  Yb5  1  0.499702  0.500298  0.747989  1
  Yb  Yb6  1  0.000000  0.000000  0.249834  1
  Yb  Yb7  1  0.000000  0.000000  0.750080  1
  Cu  Cu8  1  0.333333  0.666667  0.000259  1
  Cu  Cu9  1  0.666667  0.333333  0.000126  1
  Cu  Cu10  1  0.666667  0.333333  0.498987  1
  Si  Si11  1  0.167529  0.335059  0.999737  1
  Si  Si12  1  0.832555  0.665108  0.000345  1
  Si  Si13  1  0.664941  0.832471  0.999737  1
  Si  Si14  1  0.833839  0.667677  0.500149  1
  Si  Si15  1  0.334892  0.167445  0.000345  1
  Si  Si16  1  0.165310  0.330620  0.499669  1
  Si  Si17  1  0.167529  0.832471  0.999737  1
  Si  Si18  1  0.332323  0.166161  0.500149  1
  Si  Si19  1  0.832555  0.167445  0.000345  1
  Si  Si20  1  0.669380  0.834690  0.499669  1
  Si  Si21  1  0.833839  0.166161  0.500149  1
  Si  Si22  1  0.165310  0.834690  0.499669  1
  Pd  Pd23  1  0.333333  0.666667  0.500737  1
