# generated using pymatgen
data_InAg3(SeO4)4
_symmetry_space_group_name_H-M   'P 1'
_cell_length_a   5.29828995
_cell_length_b   7.64585598
_cell_length_c   9.44008024
_cell_angle_alpha   91.40571365
_cell_angle_beta   91.24608757
_cell_angle_gamma   85.62089185
_symmetry_Int_Tables_number   1
_chemical_formula_structural   InAg3(SeO4)4
_chemical_formula_sum   'In1 Ag3 Se4 O16'
_cell_volume   381.11036194
_cell_formula_units_Z   1
loop_
 _symmetry_equiv_pos_site_id
 _symmetry_equiv_pos_as_xyz
  1  'x, y, z'
loop_
 _atom_site_type_symbol
 _atom_site_label
 _atom_site_symmetry_multiplicity
 _atom_site_fract_x
 _atom_site_fract_y
 _atom_site_fract_z
 _atom_site_occupancy
  In  In0  1  0.500000  0.500000  0.500000  1
  Ag  Ag1  1  0.000000  0.000000  0.000000  1
  Ag  Ag2  1  0.500000  0.000000  0.500000  1
  Ag  Ag3  1  0.000000  0.500000  0.000000  1
  Se  Se4  1  0.532922  0.758102  0.814871  1
  Se  Se5  1  0.037360  0.276498  0.681657  1
  Se  Se6  1  0.467078  0.241898  0.185129  1
  Se  Se7  1  0.962640  0.723502  0.318343  1
  O  O8  1  0.186893  0.452123  0.634746  1
  O  O9  1  0.669813  0.567657  0.877346  1
  O  O10  1  0.832620  0.917640  0.370821  1
  O  O11  1  0.325664  0.060157  0.144905  1
  O  O12  1  0.813107  0.547877  0.365254  1
  O  O13  1  0.330187  0.432343  0.122654  1
  O  O14  1  0.167380  0.082360  0.629179  1
  O  O15  1  0.674336  0.939843  0.855095  1
  O  O16  1  0.232823  0.771227  0.863971  1
  O  O17  1  0.735104  0.300870  0.621587  1
  O  O18  1  0.767177  0.228773  0.136029  1
  O  O19  1  0.264896  0.699130  0.378413  1
  O  O20  1  0.554998  0.734419  0.632044  1
  O  O21  1  0.046530  0.270554  0.862316  1
  O  O22  1  0.445002  0.265581  0.367956  1
  O  O23  1  0.953470  0.729446  0.137684  1
