# generated using pymatgen
data_Hf10CuSi(SnSb)3
_symmetry_space_group_name_H-M   'P 1'
_cell_length_a   8.58554900
_cell_length_b   8.58554915
_cell_length_c   5.78908500
_cell_angle_alpha   90.00000000
_cell_angle_beta   90.00000000
_cell_angle_gamma   119.99999557
_symmetry_Int_Tables_number   1
_chemical_formula_structural   Hf10CuSi(SnSb)3
_chemical_formula_sum   'Hf10 Cu1 Si1 Sn3 Sb3'
_cell_volume   369.55299581
_cell_formula_units_Z   1
loop_
 _symmetry_equiv_pos_site_id
 _symmetry_equiv_pos_as_xyz
  1  'x, y, z'
loop_
 _atom_site_type_symbol
 _atom_site_label
 _atom_site_symmetry_multiplicity
 _atom_site_fract_x
 _atom_site_fract_y
 _atom_site_fract_z
 _atom_site_occupancy
  Hf  Hf0  1  0.666667  0.333333  0.997362  1
  Hf  Hf1  1  0.333333  0.666667  0.997362  1
  Hf  Hf2  1  0.333333  0.666667  0.503100  1
  Hf  Hf3  1  0.666667  0.333333  0.503100  1
  Hf  Hf4  1  0.728476  0.728476  0.750747  1
  Hf  Hf5  1  0.271524  0.000000  0.750747  1
  Hf  Hf6  1  0.000000  0.271524  0.750747  1
  Hf  Hf7  1  0.252474  0.252474  0.251975  1
  Hf  Hf8  1  0.747526  0.000000  0.251975  1
  Hf  Hf9  1  0.000000  0.747526  0.251975  1
  Cu  Cu10  1  0.000000  0.000000  0.967045  1
  Si  Si11  1  0.000000  0.000000  0.523202  1
  Sn  Sn12  1  0.383521  0.383521  0.752589  1
  Sn  Sn13  1  0.616479  0.000000  0.752589  1
  Sn  Sn14  1  0.000000  0.616479  0.752589  1
  Sb  Sb15  1  0.604358  0.604358  0.247632  1
  Sb  Sb16  1  0.395642  0.000000  0.247632  1
  Sb  Sb17  1  0.000000  0.395642  0.247632  1
