# generated using pymatgen
data_Nd16CoNi3Hg4
_symmetry_space_group_name_H-M   'P 1'
_cell_length_a   9.81267142
_cell_length_b   9.81267071
_cell_length_c   9.81267139
_cell_angle_alpha   60.03947887
_cell_angle_beta   60.03947349
_cell_angle_gamma   60.03948518
_symmetry_Int_Tables_number   1
_chemical_formula_structural   Nd16CoNi3Hg4
_chemical_formula_sum   'Nd16 Co1 Ni3 Hg4'
_cell_volume   668.70597252
_cell_formula_units_Z   1
loop_
 _symmetry_equiv_pos_site_id
 _symmetry_equiv_pos_as_xyz
  1  'x, y, z'
loop_
 _atom_site_type_symbol
 _atom_site_label
 _atom_site_symmetry_multiplicity
 _atom_site_fract_x
 _atom_site_fract_y
 _atom_site_fract_z
 _atom_site_occupancy
  Nd  Nd0  1  0.598376  0.598376  0.598376  1
  Nd  Nd1  1  0.598252  0.598252  0.202587  1
  Nd  Nd2  1  0.598252  0.202587  0.598252  1
  Nd  Nd3  1  0.202587  0.598252  0.598252  1
  Nd  Nd4  1  0.065137  0.439598  0.439598  1
  Nd  Nd5  1  0.439757  0.058925  0.058925  1
  Nd  Nd6  1  0.439598  0.065137  0.439598  1
  Nd  Nd7  1  0.058925  0.439757  0.058925  1
  Nd  Nd8  1  0.439598  0.439598  0.065137  1
  Nd  Nd9  1  0.058925  0.058925  0.439757  1
  Nd  Nd10  1  0.189859  0.812311  0.812311  1
  Nd  Nd11  1  0.809453  0.187764  0.187764  1
  Nd  Nd12  1  0.812311  0.189859  0.812311  1
  Nd  Nd13  1  0.187764  0.809453  0.187764  1
  Nd  Nd14  1  0.812311  0.812311  0.189859  1
  Nd  Nd15  1  0.187764  0.187764  0.809453  1
  Co  Co16  1  0.392695  0.392695  0.392695  1
  Ni  Ni17  1  0.392507  0.392507  0.823732  1
  Ni  Ni18  1  0.392507  0.823732  0.392507  1
  Ni  Ni19  1  0.823732  0.392507  0.392507  1
  Hg  Hg20  1  0.833356  0.833356  0.833356  1
  Hg  Hg21  1  0.833621  0.833621  0.499089  1
  Hg  Hg22  1  0.833621  0.499089  0.833621  1
  Hg  Hg23  1  0.499089  0.833621  0.833621  1
