# generated using pymatgen
data_K3Y(PO4)2
_symmetry_space_group_name_H-M   'P 1'
_cell_length_a   5.71352000
_cell_length_b   5.71351873
_cell_length_c   7.78215800
_cell_angle_alpha   90.00000000
_cell_angle_beta   90.00000000
_cell_angle_gamma   120.00000735
_symmetry_Int_Tables_number   1
_chemical_formula_structural   K3Y(PO4)2
_chemical_formula_sum   'K3 Y1 P2 O8'
_cell_volume   220.00778618
_cell_formula_units_Z   1
loop_
 _symmetry_equiv_pos_site_id
 _symmetry_equiv_pos_as_xyz
  1  'x, y, z'
loop_
 _atom_site_type_symbol
 _atom_site_label
 _atom_site_symmetry_multiplicity
 _atom_site_fract_x
 _atom_site_fract_y
 _atom_site_fract_z
 _atom_site_occupancy
  K  K0  1  0.333333  0.666667  0.733879  1
  K  K1  1  0.666667  0.333333  0.266121  1
  K  K2  1  0.000000  0.000000  0.000000  1
  Y  Y3  1  0.000000  0.000000  0.500000  1
  P  P4  1  0.333333  0.666667  0.257930  1
  P  P5  1  0.666667  0.333333  0.742070  1
  O  O6  1  0.333333  0.666667  0.062882  1
  O  O7  1  0.666667  0.333333  0.937118  1
  O  O8  1  0.185047  0.814953  0.330012  1
  O  O9  1  0.814953  0.185047  0.669988  1
  O  O10  1  0.185047  0.370094  0.330012  1
  O  O11  1  0.814953  0.629906  0.669988  1
  O  O12  1  0.629906  0.814953  0.330012  1
  O  O13  1  0.370094  0.185047  0.669988  1
