# generated using pymatgen
data_Ce2Dy3Co2
_symmetry_space_group_name_H-M   'P 1'
_cell_length_a   8.75835329
_cell_length_b   8.75835379
_cell_length_c   6.76908814
_cell_angle_alpha   85.96165307
_cell_angle_beta   85.96165198
_cell_angle_gamma   42.16340068
_symmetry_Int_Tables_number   1
_chemical_formula_structural   Ce2Dy3Co2
_chemical_formula_sum   'Ce4 Dy6 Co4'
_cell_volume   347.54983743
_cell_formula_units_Z   2
loop_
 _symmetry_equiv_pos_site_id
 _symmetry_equiv_pos_as_xyz
  1  'x, y, z'
loop_
 _atom_site_type_symbol
 _atom_site_label
 _atom_site_symmetry_multiplicity
 _atom_site_fract_x
 _atom_site_fract_y
 _atom_site_fract_z
 _atom_site_occupancy
  Ce  Ce0  1  0.014021  0.798881  0.898199  1
  Ce  Ce1  1  0.201119  0.985979  0.601801  1
  Ce  Ce2  1  0.985979  0.201119  0.101801  1
  Ce  Ce3  1  0.798881  0.014021  0.398199  1
  Dy  Dy4  1  0.354835  0.215891  0.826571  1
  Dy  Dy5  1  0.784109  0.645165  0.673429  1
  Dy  Dy6  1  0.645165  0.784109  0.173429  1
  Dy  Dy7  1  0.215891  0.354835  0.326571  1
  Dy  Dy8  1  0.581752  0.418248  0.750000  1
  Dy  Dy9  1  0.418248  0.581752  0.250000  1
  Co  Co10  1  0.152381  0.627512  0.597359  1
  Co  Co11  1  0.372488  0.847619  0.902641  1
  Co  Co12  1  0.847619  0.372488  0.402641  1
  Co  Co13  1  0.627512  0.152381  0.097359  1
