# generated using pymatgen
data_Dy7Sn22HgOs6
_symmetry_space_group_name_H-M   'P 1'
_cell_length_a   9.83926400
_cell_length_b   9.83926386
_cell_length_c   10.15006000
_cell_angle_alpha   90.00000000
_cell_angle_beta   90.00000000
_cell_angle_gamma   119.99999373
_symmetry_Int_Tables_number   1
_chemical_formula_structural   Dy7Sn22HgOs6
_chemical_formula_sum   'Dy7 Sn22 Hg1 Os6'
_cell_volume   850.99006421
_cell_formula_units_Z   1
loop_
 _symmetry_equiv_pos_site_id
 _symmetry_equiv_pos_as_xyz
  1  'x, y, z'
loop_
 _atom_site_type_symbol
 _atom_site_label
 _atom_site_symmetry_multiplicity
 _atom_site_fract_x
 _atom_site_fract_y
 _atom_site_fract_z
 _atom_site_occupancy
  Dy  Dy0  1  0.000000  0.000000  0.000000  1
  Dy  Dy1  1  0.484214  0.515786  0.304764  1
  Dy  Dy2  1  0.515786  0.484214  0.695236  1
  Dy  Dy3  1  0.484214  0.968428  0.304764  1
  Dy  Dy4  1  0.515786  0.031572  0.695236  1
  Dy  Dy5  1  0.031572  0.515786  0.304764  1
  Dy  Dy6  1  0.968428  0.484214  0.695236  1
  Sn  Sn7  1  0.349507  0.000000  0.000000  1
  Sn  Sn8  1  0.650493  0.000000  0.000000  1
  Sn  Sn9  1  0.000000  0.349507  0.000000  1
  Sn  Sn10  1  0.000000  0.650493  0.000000  1
  Sn  Sn11  1  0.650493  0.650493  0.000000  1
  Sn  Sn12  1  0.349507  0.349507  0.000000  1
  Sn  Sn13  1  0.333333  0.666667  0.827632  1
  Sn  Sn14  1  0.666667  0.333333  0.172368  1
  Sn  Sn15  1  0.778650  0.221350  0.462641  1
  Sn  Sn16  1  0.221350  0.778650  0.537359  1
  Sn  Sn17  1  0.778650  0.557300  0.462641  1
  Sn  Sn18  1  0.221350  0.442700  0.537359  1
  Sn  Sn19  1  0.442700  0.221350  0.462641  1
  Sn  Sn20  1  0.557300  0.778650  0.537359  1
  Sn  Sn21  1  0.333333  0.666667  0.128356  1
  Sn  Sn22  1  0.666667  0.333333  0.871644  1
  Sn  Sn23  1  0.122134  0.877866  0.268907  1
  Sn  Sn24  1  0.877866  0.122134  0.731093  1
  Sn  Sn25  1  0.122134  0.244268  0.268907  1
  Sn  Sn26  1  0.877866  0.755732  0.731093  1
  Sn  Sn27  1  0.755732  0.877866  0.268907  1
  Sn  Sn28  1  0.244268  0.122134  0.731093  1
  Hg  Hg29  1  0.000000  0.000000  0.500000  1
  Os  Os30  1  0.831016  0.168984  0.204633  1
  Os  Os31  1  0.168984  0.831016  0.795367  1
  Os  Os32  1  0.831016  0.662031  0.204633  1
  Os  Os33  1  0.168984  0.337969  0.795367  1
  Os  Os34  1  0.337969  0.168984  0.204633  1
  Os  Os35  1  0.662031  0.831016  0.795367  1
