# generated using pymatgen
data_Ho12Tc3Pd
_symmetry_space_group_name_H-M   'P 1'
_cell_length_a   7.38663026
_cell_length_b   9.14629900
_cell_length_c   6.28564527
_cell_angle_alpha   90.00000000
_cell_angle_beta   90.14711773
_cell_angle_gamma   90.00000000
_symmetry_Int_Tables_number   1
_chemical_formula_structural   Ho12Tc3Pd
_chemical_formula_sum   'Ho12 Tc3 Pd1'
_cell_volume   424.65886227
_cell_formula_units_Z   1
loop_
 _symmetry_equiv_pos_site_id
 _symmetry_equiv_pos_as_xyz
  1  'x, y, z'
loop_
 _atom_site_type_symbol
 _atom_site_label
 _atom_site_symmetry_multiplicity
 _atom_site_fract_x
 _atom_site_fract_y
 _atom_site_fract_z
 _atom_site_occupancy
  Ho  Ho0  1  0.465557  0.250000  0.131582  1
  Ho  Ho1  1  0.176720  0.568484  0.170822  1
  Ho  Ho2  1  0.176720  0.931516  0.170822  1
  Ho  Ho3  1  0.677845  0.564333  0.335065  1
  Ho  Ho4  1  0.677845  0.935667  0.335065  1
  Ho  Ho5  1  0.954331  0.250000  0.372431  1
  Ho  Ho6  1  0.042948  0.750000  0.628790  1
  Ho  Ho7  1  0.328896  0.058555  0.659731  1
  Ho  Ho8  1  0.328896  0.441445  0.659731  1
  Ho  Ho9  1  0.815762  0.057820  0.834198  1
  Ho  Ho10  1  0.815762  0.442180  0.834198  1
  Ho  Ho11  1  0.538771  0.750000  0.875581  1
  Tc  Tc12  1  0.887074  0.750000  0.035321  1
  Tc  Tc13  1  0.385272  0.750000  0.462807  1
  Tc  Tc14  1  0.615120  0.250000  0.543233  1
  Pd  Pd15  1  0.112476  0.250000  0.950620  1
