# generated using pymatgen
data_Nb8Fe8Si13As
_symmetry_space_group_name_H-M   'P 1'
_cell_length_a   9.37337729
_cell_length_b   9.37339948
_cell_length_c   9.37341300
_cell_angle_alpha   93.95932472
_cell_angle_beta   94.23373969
_cell_angle_gamma   148.99529800
_symmetry_Int_Tables_number   1
_chemical_formula_structural   Nb8Fe8Si13As
_chemical_formula_sum   'Nb8 Fe8 Si13 As1'
_cell_volume   408.78415009
_cell_formula_units_Z   1
loop_
 _symmetry_equiv_pos_site_id
 _symmetry_equiv_pos_as_xyz
  1  'x, y, z'
loop_
 _atom_site_type_symbol
 _atom_site_label
 _atom_site_symmetry_multiplicity
 _atom_site_fract_x
 _atom_site_fract_y
 _atom_site_fract_z
 _atom_site_occupancy
  Nb  Nb0  1  0.134140  0.135490  0.269777  1
  Nb  Nb1  1  0.865953  0.864923  0.730750  1
  Nb  Nb2  1  0.865893  0.135575  0.001491  1
  Nb  Nb3  1  0.134133  0.864909  0.999013  1
  Nb  Nb4  1  0.499835  0.310709  0.810575  1
  Nb  Nb5  1  0.500203  0.689402  0.189478  1
  Nb  Nb6  1  0.690633  0.500125  0.190702  1
  Nb  Nb7  1  0.309207  0.499696  0.809080  1
  Fe  Fe8  1  0.399629  0.898985  0.799572  1
  Fe  Fe9  1  0.101424  0.602214  0.202041  1
  Fe  Fe10  1  0.099590  0.899337  0.499318  1
  Fe  Fe11  1  0.399910  0.601986  0.500652  1
  Fe  Fe12  1  0.600101  0.399682  0.499355  1
  Fe  Fe13  1  0.898663  0.100708  0.500677  1
  Fe  Fe14  1  0.900540  0.399866  0.799488  1
  Fe  Fe15  1  0.599937  0.100675  0.202069  1
  Si  Si16  1  0.500176  0.901007  0.401337  1
  Si  Si17  1  0.905753  0.500097  0.405713  1
  Si  Si18  1  0.094555  0.499749  0.594207  1
  Si  Si19  1  0.750705  0.750934  0.000342  1
  Si  Si20  1  0.249431  0.249630  0.000349  1
  Si  Si21  1  0.291785  0.292169  0.583819  1
  Si  Si22  1  0.707645  0.708053  0.415862  1
  Si  Si23  1  0.707754  0.291992  0.999829  1
  Si  Si24  1  0.292324  0.707844  0.000060  1
  Si  Si25  1  0.000084  0.294273  0.294324  1
  Si  Si26  1  0.000189  0.708352  0.708526  1
  Si  Si27  1  0.710063  0.999678  0.709812  1
  Si  Si28  1  0.289792  0.999577  0.289369  1
  As  As29  1  0.499951  0.092363  0.592416  1
