# generated using pymatgen
data_La2Pr(SiIr)2
_symmetry_space_group_name_H-M   'P 1'
_cell_length_a   5.83530300
_cell_length_b   5.83530348
_cell_length_c   13.47636500
_cell_angle_alpha   90.00000000
_cell_angle_beta   90.00000000
_cell_angle_gamma   138.16170302
_symmetry_Int_Tables_number   1
_chemical_formula_structural   La2Pr(SiIr)2
_chemical_formula_sum   'La4 Pr2 Si4 Ir4'
_cell_volume   306.08735197
_cell_formula_units_Z   2
loop_
 _symmetry_equiv_pos_site_id
 _symmetry_equiv_pos_as_xyz
  1  'x, y, z'
loop_
 _atom_site_type_symbol
 _atom_site_label
 _atom_site_symmetry_multiplicity
 _atom_site_fract_x
 _atom_site_fract_y
 _atom_site_fract_z
 _atom_site_occupancy
  La  La0  1  0.771629  0.228371  0.602803  1
  La  La1  1  0.228371  0.771629  0.397197  1
  La  La2  1  0.771629  0.228371  0.897197  1
  La  La3  1  0.228371  0.771629  0.102803  1
  Pr  Pr4  1  0.518508  0.481492  0.250000  1
  Pr  Pr5  1  0.481492  0.518508  0.750000  1
  Si  Si6  1  0.059331  0.940669  0.588091  1
  Si  Si7  1  0.059331  0.940669  0.911909  1
  Si  Si8  1  0.940669  0.059331  0.411909  1
  Si  Si9  1  0.940669  0.059331  0.088091  1
  Ir  Ir10  1  0.814987  0.185013  0.250000  1
  Ir  Ir11  1  0.185013  0.814987  0.750000  1
  Ir  Ir12  1  0.500000  0.500000  0.000000  1
  Ir  Ir13  1  0.500000  0.500000  0.500000  1
