# generated using pymatgen
data_Lu20Bi7Sb5
_symmetry_space_group_name_H-M   'P 1'
_cell_length_a   8.03370677
_cell_length_b   9.30151712
_cell_length_c   11.70870513
_cell_angle_alpha   89.94448865
_cell_angle_beta   89.92154622
_cell_angle_gamma   90.05397422
_symmetry_Int_Tables_number   1
_chemical_formula_structural   Lu20Bi7Sb5
_chemical_formula_sum   'Lu20 Bi7 Sb5'
_cell_volume   874.93911104
_cell_formula_units_Z   1
loop_
 _symmetry_equiv_pos_site_id
 _symmetry_equiv_pos_as_xyz
  1  'x, y, z'
loop_
 _atom_site_type_symbol
 _atom_site_label
 _atom_site_symmetry_multiplicity
 _atom_site_fract_x
 _atom_site_fract_y
 _atom_site_fract_z
 _atom_site_occupancy
  Lu  Lu0  1  0.191323  0.564519  0.443438  1
  Lu  Lu1  1  0.689939  0.934718  0.058552  1
  Lu  Lu2  1  0.808815  0.065298  0.559183  1
  Lu  Lu3  1  0.311911  0.435340  0.938484  1
  Lu  Lu4  1  0.807620  0.435879  0.559364  1
  Lu  Lu5  1  0.309877  0.065682  0.941127  1
  Lu  Lu6  1  0.190698  0.934437  0.441869  1
  Lu  Lu7  1  0.690164  0.565075  0.058619  1
  Lu  Lu8  1  0.027910  0.749935  0.988783  1
  Lu  Lu9  1  0.526894  0.747405  0.512433  1
  Lu  Lu10  1  0.972880  0.250276  0.010714  1
  Lu  Lu11  1  0.471124  0.252473  0.490894  1
  Lu  Lu12  1  0.188203  0.745512  0.716043  1
  Lu  Lu13  1  0.682214  0.746832  0.782238  1
  Lu  Lu14  1  0.815645  0.249894  0.283373  1
  Lu  Lu15  1  0.315322  0.250067  0.216517  1
  Lu  Lu16  1  0.854565  0.749924  0.285010  1
  Lu  Lu17  1  0.354363  0.750319  0.215440  1
  Lu  Lu18  1  0.148914  0.253147  0.714612  1
  Lu  Lu19  1  0.641680  0.253970  0.783750  1
  Bi  Bi20  1  0.933252  0.496774  0.825181  1
  Bi  Bi21  1  0.433551  0.002831  0.675310  1
  Bi  Bi22  1  0.066482  0.996885  0.175169  1
  Bi  Bi23  1  0.566495  0.503173  0.324711  1
  Bi  Bi24  1  0.066770  0.503175  0.175294  1
  Bi  Bi25  1  0.566214  0.996957  0.326277  1
  Bi  Bi26  1  0.933440  0.003206  0.824122  1
  Sb  Sb27  1  0.434180  0.496204  0.673110  1
  Sb  Sb28  1  0.905709  0.750296  0.542192  1
  Sb  Sb29  1  0.405210  0.750320  0.958387  1
  Sb  Sb30  1  0.093515  0.249584  0.458227  1
  Sb  Sb31  1  0.595121  0.249891  0.041577  1
