# generated using pymatgen
data_DyHo3Al24Pt7Au2
_symmetry_space_group_name_H-M   'P 1'
_cell_length_a   7.56098855
_cell_length_b   7.57460489
_cell_length_c   13.14572503
_cell_angle_alpha   84.53469406
_cell_angle_beta   78.99736380
_cell_angle_gamma   59.93053156
_symmetry_Int_Tables_number   1
_chemical_formula_structural   DyHo3Al24Pt7Au2
_chemical_formula_sum   'Dy1 Ho3 Al24 Pt7 Au2'
_cell_volume   639.57569355
_cell_formula_units_Z   1
loop_
 _symmetry_equiv_pos_site_id
 _symmetry_equiv_pos_as_xyz
  1  'x, y, z'
loop_
 _atom_site_type_symbol
 _atom_site_label
 _atom_site_symmetry_multiplicity
 _atom_site_fract_x
 _atom_site_fract_y
 _atom_site_fract_z
 _atom_site_occupancy
  Dy  Dy0  1  0.392979  0.169236  0.808828  1
  Ho  Ho1  1  0.607022  0.830759  0.191192  1
  Ho  Ho2  1  0.733444  0.499150  0.809523  1
  Ho  Ho3  1  0.266545  0.500861  0.190478  1
  Al  Al4  1  0.683006  0.834253  0.944886  1
  Al  Al5  1  0.317018  0.165706  0.055159  1
  Al  Al6  1  0.145810  0.839266  0.562353  1
  Al  Al7  1  0.854186  0.160737  0.437647  1
  Al  Al8  1  0.488166  0.159526  0.559506  1
  Al  Al9  1  0.511842  0.840469  0.440481  1
  Al  Al10  1  0.223216  0.160633  0.325361  1
  Al  Al11  1  0.776829  0.839338  0.674612  1
  Al  Al12  1  0.439870  0.506799  0.674639  1
  Al  Al13  1  0.560143  0.493239  0.325339  1
  Al  Al14  1  0.108890  0.155104  0.673250  1
  Al  Al15  1  0.891082  0.844887  0.326725  1
  Al  Al16  1  0.353291  0.498756  0.944727  1
  Al  Al17  1  0.646705  0.501275  0.055301  1
  Al  Al18  1  0.015566  0.167683  0.953306  1
  Al  Al19  1  0.984388  0.832324  0.046719  1
  Al  Al20  1  0.195517  0.499166  0.437618  1
  Al  Al21  1  0.804483  0.500843  0.562377  1
  Al  Al22  1  0.732611  0.164486  0.183142  1
  Al  Al23  1  0.267354  0.835486  0.816856  1
  Al  Al24  1  0.060313  0.633734  0.817823  1
  Al  Al25  1  0.939641  0.366336  0.182183  1
  Al  Al26  1  0.854034  0.042727  0.816376  1
  Al  Al27  1  0.146027  0.957242  0.183626  1
  Pt  Pt28  1  0.657016  0.171589  0.999813  1
  Pt  Pt29  1  0.343003  0.828392  0.000183  1
  Pt  Pt30  1  0.537356  0.166563  0.361937  1
  Pt  Pt31  1  0.462639  0.833402  0.638057  1
  Pt  Pt32  1  0.779549  0.175532  0.636710  1
  Pt  Pt33  1  0.220497  0.824470  0.363275  1
  Pt  Pt34  1  0.999995  0.500006  0.999998  1
  Au  Au35  1  0.119891  0.491002  0.638149  1
  Au  Au36  1  0.880080  0.509023  0.361847  1
