# generated using pymatgen
data_Tb11Dy(Zn3C)4
_symmetry_space_group_name_H-M   'P 1'
_cell_length_a   9.21836501
_cell_length_b   9.21736117
_cell_length_c   9.21736040
_cell_angle_alpha   59.96664808
_cell_angle_beta   59.99639250
_cell_angle_gamma   59.99639687
_symmetry_Int_Tables_number   1
_chemical_formula_structural   Tb11Dy(Zn3C)4
_chemical_formula_sum   'Tb11 Dy1 Zn12 C4'
_cell_volume   553.62900268
_cell_formula_units_Z   1
loop_
 _symmetry_equiv_pos_site_id
 _symmetry_equiv_pos_as_xyz
  1  'x, y, z'
loop_
 _atom_site_type_symbol
 _atom_site_label
 _atom_site_symmetry_multiplicity
 _atom_site_fract_x
 _atom_site_fract_y
 _atom_site_fract_z
 _atom_site_occupancy
  Tb  Tb0  1  0.447325  0.447490  0.052541  1
  Tb  Tb1  1  0.052644  0.447490  0.052541  1
  Tb  Tb2  1  0.447393  0.052607  0.052607  1
  Tb  Tb3  1  0.052644  0.052541  0.447490  1
  Tb  Tb4  1  0.447325  0.052541  0.447490  1
  Tb  Tb5  1  0.052676  0.447324  0.447324  1
  Tb  Tb6  1  0.802663  0.802660  0.197276  1
  Tb  Tb7  1  0.197401  0.802660  0.197276  1
  Tb  Tb8  1  0.802604  0.197396  0.197396  1
  Tb  Tb9  1  0.197401  0.197276  0.802660  1
  Tb  Tb10  1  0.802663  0.197276  0.802660  1
  Dy  Dy11  1  0.197169  0.802831  0.802831  1
  Zn  Zn12  1  0.826091  0.826037  0.521781  1
  Zn  Zn13  1  0.826091  0.521781  0.826037  1
  Zn  Zn14  1  0.521696  0.826076  0.826076  1
  Zn  Zn15  1  0.826153  0.826076  0.826076  1
  Zn  Zn16  1  0.423856  0.424058  0.728229  1
  Zn  Zn17  1  0.423856  0.728229  0.424058  1
  Zn  Zn18  1  0.728186  0.423926  0.423926  1
  Zn  Zn19  1  0.423962  0.423926  0.423926  1
  Zn  Zn20  1  0.624995  0.625014  0.124997  1
  Zn  Zn21  1  0.624995  0.124997  0.625014  1
  Zn  Zn22  1  0.125008  0.625065  0.625065  1
  Zn  Zn23  1  0.624862  0.625065  0.625065  1
  C  C24  1  0.125156  0.124392  0.625296  1
  C  C25  1  0.125156  0.625296  0.124392  1
  C  C26  1  0.625027  0.124986  0.124986  1
  C  C27  1  0.125002  0.124986  0.124986  1
