# generated using pymatgen
data_ReOsOF10
_symmetry_space_group_name_H-M   'P 1'
_cell_length_a   6.69146600
_cell_length_b   8.17628953
_cell_length_c   8.19685401
_cell_angle_alpha   85.49006143
_cell_angle_beta   90.00000000
_cell_angle_gamma   90.00000000
_symmetry_Int_Tables_number   1
_chemical_formula_structural   ReOsOF10
_chemical_formula_sum   'Re2 Os2 O2 F20'
_cell_volume   447.07249274
_cell_formula_units_Z   2
loop_
 _symmetry_equiv_pos_site_id
 _symmetry_equiv_pos_as_xyz
  1  'x, y, z'
loop_
 _atom_site_type_symbol
 _atom_site_label
 _atom_site_symmetry_multiplicity
 _atom_site_fract_x
 _atom_site_fract_y
 _atom_site_fract_z
 _atom_site_occupancy
  Re  Re0  1  0.010846  0.807282  0.190774  1
  Re  Re1  1  0.010846  0.192718  0.809226  1
  Os  Os2  1  0.513822  0.331275  0.327432  1
  Os  Os3  1  0.513822  0.668725  0.672568  1
  O  O4  1  0.025469  0.344708  0.658347  1
  O  O5  1  0.025469  0.655292  0.341653  1
  F  F6  1  0.284071  0.767146  0.572370  1
  F  F7  1  0.004395  0.014818  0.682379  1
  F  F8  1  0.990749  0.000000  0.000000  1
  F  F9  1  0.349664  0.475817  0.194626  1
  F  F10  1  0.014274  0.318086  0.988131  1
  F  F11  1  0.282527  0.154904  0.841071  1
  F  F12  1  0.506429  0.500000  0.500000  1
  F  F13  1  0.734578  0.819619  0.172261  1
  F  F14  1  0.004395  0.985182  0.317621  1
  F  F15  1  0.518425  0.178064  0.170883  1
  F  F16  1  0.743418  0.561567  0.763746  1
  F  F17  1  0.282527  0.845096  0.158929  1
  F  F18  1  0.678722  0.198890  0.471563  1
  F  F19  1  0.014274  0.681914  0.011869  1
  F  F20  1  0.734578  0.180381  0.827739  1
  F  F21  1  0.518425  0.821936  0.829117  1
  F  F22  1  0.678722  0.801110  0.528437  1
  F  F23  1  0.349664  0.524183  0.805374  1
  F  F24  1  0.743418  0.438433  0.236254  1
  F  F25  1  0.284071  0.232854  0.427630  1
