# generated using pymatgen
data_HoTaP7Ru12
_symmetry_space_group_name_H-M   'P 1'
_cell_length_a   9.38212000
_cell_length_b   9.38211927
_cell_length_c   3.89893600
_cell_angle_alpha   90.00000000
_cell_angle_beta   90.00000000
_cell_angle_gamma   120.00000162
_symmetry_Int_Tables_number   1
_chemical_formula_structural   HoTaP7Ru12
_chemical_formula_sum   'Ho1 Ta1 P7 Ru12'
_cell_volume   297.22043415
_cell_formula_units_Z   1
loop_
 _symmetry_equiv_pos_site_id
 _symmetry_equiv_pos_as_xyz
  1  'x, y, z'
loop_
 _atom_site_type_symbol
 _atom_site_label
 _atom_site_symmetry_multiplicity
 _atom_site_fract_x
 _atom_site_fract_y
 _atom_site_fract_z
 _atom_site_occupancy
  Ho  Ho0  1  0.333333  0.666667  0.000000  1
  Ta  Ta1  1  0.666667  0.333333  0.500000  1
  P  P2  1  0.597767  0.719335  0.500000  1
  P  P3  1  0.000000  0.000000  0.000000  1
  P  P4  1  0.280665  0.878432  0.500000  1
  P  P5  1  0.121568  0.402233  0.500000  1
  P  P6  1  0.886428  0.574347  0.000000  1
  P  P7  1  0.425653  0.312082  0.000000  1
  P  P8  1  0.687918  0.113572  0.000000  1
  Ru  Ru9  1  0.558071  0.956868  0.500000  1
  Ru  Ru10  1  0.398798  0.441929  0.500000  1
  Ru  Ru11  1  0.912611  0.124231  0.500000  1
  Ru  Ru12  1  0.211620  0.087389  0.500000  1
  Ru  Ru13  1  0.875769  0.788380  0.500000  1
  Ru  Ru14  1  0.725416  0.887596  0.000000  1
  Ru  Ru15  1  0.112404  0.837820  0.000000  1
  Ru  Ru16  1  0.162180  0.274584  0.000000  1
  Ru  Ru17  1  0.432781  0.079574  0.000000  1
  Ru  Ru18  1  0.920426  0.353208  0.000000  1
  Ru  Ru19  1  0.646792  0.567219  0.000000  1
  Ru  Ru20  1  0.043132  0.601202  0.500000  1
