# generated using pymatgen
data_Th8Pd3Ru5
_symmetry_space_group_name_H-M   'P 1'
_cell_length_a   4.13777200
_cell_length_b   6.09267585
_cell_length_c   14.98554787
_cell_angle_alpha   90.39599215
_cell_angle_beta   90.00000000
_cell_angle_gamma   90.00000000
_symmetry_Int_Tables_number   1
_chemical_formula_structural   Th8Pd3Ru5
_chemical_formula_sum   'Th8 Pd3 Ru5'
_cell_volume   377.77819060
_cell_formula_units_Z   1
loop_
 _symmetry_equiv_pos_site_id
 _symmetry_equiv_pos_as_xyz
  1  'x, y, z'
loop_
 _atom_site_type_symbol
 _atom_site_label
 _atom_site_symmetry_multiplicity
 _atom_site_fract_x
 _atom_site_fract_y
 _atom_site_fract_z
 _atom_site_occupancy
  Th  Th0  1  0.250000  0.552046  0.287101  1
  Th  Th1  1  0.750000  0.461175  0.718601  1
  Th  Th2  1  0.250000  0.958115  0.778298  1
  Th  Th3  1  0.250000  0.759770  0.532508  1
  Th  Th4  1  0.250000  0.739171  0.042268  1
  Th  Th5  1  0.750000  0.262816  0.958881  1
  Th  Th6  1  0.750000  0.039831  0.221226  1
  Th  Th7  1  0.750000  0.246151  0.457614  1
  Pd  Pd8  1  0.750000  0.770925  0.900683  1
  Pd  Pd9  1  0.250000  0.229704  0.100613  1
  Pd  Pd10  1  0.250000  0.265480  0.599779  1
  Ru  Ru11  1  0.250000  0.065180  0.349820  1
  Ru  Ru12  1  0.750000  0.573016  0.146656  1
  Ru  Ru13  1  0.750000  0.715476  0.404069  1
  Ru  Ru14  1  0.250000  0.428733  0.850487  1
  Ru  Ru15  1  0.750000  0.932413  0.651396  1
