# generated using pymatgen
data_La8Ir3WO24
_symmetry_space_group_name_H-M   'P 1'
_cell_length_a   5.52507129
_cell_length_b   9.54962741
_cell_length_c   10.34361348
_cell_angle_alpha   89.84088860
_cell_angle_beta   89.93959958
_cell_angle_gamma   89.88354683
_symmetry_Int_Tables_number   1
_chemical_formula_structural   La8Ir3WO24
_chemical_formula_sum   'La8 Ir3 W1 O24'
_cell_volume   545.75005274
_cell_formula_units_Z   1
loop_
 _symmetry_equiv_pos_site_id
 _symmetry_equiv_pos_as_xyz
  1  'x, y, z'
loop_
 _atom_site_type_symbol
 _atom_site_label
 _atom_site_symmetry_multiplicity
 _atom_site_fract_x
 _atom_site_fract_y
 _atom_site_fract_z
 _atom_site_occupancy
  La  La0  1  0.032439  0.218605  0.134294  1
  La  La1  1  0.468194  0.780614  0.635597  1
  La  La2  1  0.968677  0.719591  0.364873  1
  La  La3  1  0.532839  0.282378  0.864295  1
  La  La4  1  0.025100  0.102092  0.539054  1
  La  La5  1  0.474986  0.898763  0.039101  1
  La  La6  1  0.975497  0.604521  0.963095  1
  La  La7  1  0.527235  0.395921  0.456642  1
  Ir  Ir8  1  0.543699  0.002634  0.357667  1
  Ir  Ir9  1  0.956876  0.997751  0.857875  1
  Ir  Ir10  1  0.457056  0.503159  0.141543  1
  W  W11  1  0.042170  0.495636  0.644837  1
  O  O12  1  0.432779  0.147208  0.478290  1
  O  O13  1  0.066597  0.853203  0.979751  1
  O  O14  1  0.565258  0.649068  0.021290  1
  O  O15  1  0.928384  0.349818  0.524080  1
  O  O16  1  0.722594  0.388030  0.067135  1
  O  O17  1  0.779592  0.610170  0.565041  1
  O  O18  1  0.279647  0.886645  0.433801  1
  O  O19  1  0.221661  0.113595  0.932686  1
  O  O20  1  0.251477  0.413769  0.005607  1
  O  O21  1  0.248057  0.586380  0.507864  1
  O  O22  1  0.750461  0.912568  0.493577  1
  O  O23  1  0.750098  0.088308  0.993328  1
  O  O24  1  0.189307  0.630931  0.179939  1
  O  O25  1  0.307059  0.365405  0.675452  1
  O  O26  1  0.809264  0.131788  0.320429  1
  O  O27  1  0.690514  0.869012  0.821421  1
  O  O28  1  0.337115  0.057030  0.217121  1
  O  O29  1  0.162908  0.942974  0.717461  1
  O  O30  1  0.662518  0.557500  0.282219  1
  O  O31  1  0.837169  0.446956  0.786263  1
  O  O32  1  0.323171  0.361401  0.255167  1
  O  O33  1  0.179075  0.635837  0.757119  1
  O  O34  1  0.678400  0.862837  0.242799  1
  O  O35  1  0.822128  0.137901  0.743288  1
