# generated using pymatgen
data_Tb4Dy3Y5Co5Bi
_symmetry_space_group_name_H-M   'P 1'
_cell_length_a   8.36134817
_cell_length_b   8.36816679
_cell_length_c   8.36134746
_cell_angle_alpha   110.73795716
_cell_angle_beta   110.57396218
_cell_angle_gamma   107.09523201
_symmetry_Int_Tables_number   1
_chemical_formula_structural   Tb4Dy3Y5Co5Bi
_chemical_formula_sum   'Tb4 Dy3 Y5 Co5 Bi1'
_cell_volume   449.96605608
_cell_formula_units_Z   1
loop_
 _symmetry_equiv_pos_site_id
 _symmetry_equiv_pos_as_xyz
  1  'x, y, z'
loop_
 _atom_site_type_symbol
 _atom_site_label
 _atom_site_symmetry_multiplicity
 _atom_site_fract_x
 _atom_site_fract_y
 _atom_site_fract_z
 _atom_site_occupancy
  Tb  Tb0  1  0.601109  0.795871  0.806054  1
  Tb  Tb1  1  0.398592  0.204353  0.194078  1
  Tb  Tb2  1  0.989818  0.795871  0.194761  1
  Tb  Tb3  1  0.010274  0.204353  0.805762  1
  Dy  Dy4  1  0.311728  0.621940  0.310214  1
  Dy  Dy5  1  0.688126  0.998532  0.310406  1
  Dy  Dy6  1  0.311754  0.001442  0.689688  1
  Y  Y7  1  0.815805  0.708957  0.524499  1
  Y  Y8  1  0.183990  0.291154  0.475407  1
  Y  Y9  1  0.184458  0.708957  0.893152  1
  Y  Y10  1  0.815747  0.291154  0.107164  1
  Y  Y11  1  0.688083  0.379535  0.691451  1
  Co  Co12  1  0.621942  0.998815  0.621452  1
  Co  Co13  1  0.377363  0.998815  0.376874  1
  Co  Co14  1  0.111664  0.611845  0.500181  1
  Co  Co15  1  0.889570  0.388795  0.499224  1
  Co  Co16  1  0.999946  0.999678  0.999732  1
  Bi  Bi17  1  0.500031  0.499933  0.999902  1
