# generated using pymatgen
data_YTi2Zn3Au
_symmetry_space_group_name_H-M   'P 1'
_cell_length_a   5.55335646
_cell_length_b   5.55335493
_cell_length_c   5.57917683
_cell_angle_alpha   101.50460580
_cell_angle_beta   101.50459699
_cell_angle_gamma   126.81634410
_symmetry_Int_Tables_number   1
_chemical_formula_structural   YTi2Zn3Au
_chemical_formula_sum   'Y1 Ti2 Zn3 Au1'
_cell_volume   123.31634086
_cell_formula_units_Z   1
loop_
 _symmetry_equiv_pos_site_id
 _symmetry_equiv_pos_as_xyz
  1  'x, y, z'
loop_
 _atom_site_type_symbol
 _atom_site_label
 _atom_site_symmetry_multiplicity
 _atom_site_fract_x
 _atom_site_fract_y
 _atom_site_fract_z
 _atom_site_occupancy
  Y  Y0  1  0.001869  0.998131  0.000000  1
  Ti  Ti1  1  0.250731  0.749269  0.500000  1
  Ti  Ti2  1  0.750731  0.249269  0.500000  1
  Zn  Zn3  1  0.693491  0.696517  0.390010  1
  Zn  Zn4  1  0.303483  0.306509  0.609990  1
  Zn  Zn5  1  0.308520  0.691480  0.000000  1
  Au  Au6  1  0.691176  0.308824  0.000000  1
