# generated using pymatgen
data_Ce3Tm(Si5Os3)2
_symmetry_space_group_name_H-M   'P 1'
_cell_length_a   8.16370873
_cell_length_b   8.15801160
_cell_length_c   5.81897667
_cell_angle_alpha   70.59402046
_cell_angle_beta   70.44835992
_cell_angle_gamma   93.70300326
_symmetry_Int_Tables_number   1
_chemical_formula_structural   Ce3Tm(Si5Os3)2
_chemical_formula_sum   'Ce3 Tm1 Si10 Os6'
_cell_volume   337.64532669
_cell_formula_units_Z   1
loop_
 _symmetry_equiv_pos_site_id
 _symmetry_equiv_pos_as_xyz
  1  'x, y, z'
loop_
 _atom_site_type_symbol
 _atom_site_label
 _atom_site_symmetry_multiplicity
 _atom_site_fract_x
 _atom_site_fract_y
 _atom_site_fract_z
 _atom_site_occupancy
  Ce  Ce0  1  0.867624  0.600703  0.757782  1
  Ce  Ce1  1  0.399498  0.133016  0.742270  1
  Ce  Ce2  1  0.132543  0.399321  0.241621  1
  Tm  Tm3  1  0.600212  0.867606  0.258445  1
  Si  Si4  1  0.062482  0.262937  0.834551  1
  Si  Si5  1  0.738029  0.936814  0.664550  1
  Si  Si6  1  0.933764  0.739591  0.165459  1
  Si  Si7  1  0.260899  0.060700  0.336136  1
  Si  Si8  1  0.205745  0.791875  0.755311  1
  Si  Si9  1  0.791520  0.204678  0.248008  1
  Si  Si10  1  0.513946  0.487787  0.750913  1
  Si  Si11  1  0.489073  0.516454  0.246148  1
  Si  Si12  1  0.774153  0.224069  0.753667  1
  Si  Si13  1  0.228027  0.773355  0.247920  1
  Os  Os14  1  0.257382  0.544643  0.632827  1
  Os  Os15  1  0.458968  0.745600  0.864460  1
  Os  Os16  1  0.745054  0.455809  0.367124  1
  Os  Os17  1  0.540707  0.253780  0.135296  1
  Os  Os18  1  0.002719  0.997962  0.749059  1
  Os  Os19  1  0.997656  0.003300  0.248454  1
