# generated using pymatgen
data_Dy5GaSe4
_symmetry_space_group_name_H-M   'P 1'
_cell_length_a   7.11673851
_cell_length_b   7.11673982
_cell_length_c   7.11673897
_cell_angle_alpha   99.54090245
_cell_angle_beta   99.54089998
_cell_angle_gamma   131.95115698
_symmetry_Int_Tables_number   1
_chemical_formula_structural   Dy5GaSe4
_chemical_formula_sum   'Dy5 Ga1 Se4'
_cell_volume   244.84843032
_cell_formula_units_Z   1
loop_
 _symmetry_equiv_pos_site_id
 _symmetry_equiv_pos_as_xyz
  1  'x, y, z'
loop_
 _atom_site_type_symbol
 _atom_site_label
 _atom_site_symmetry_multiplicity
 _atom_site_fract_x
 _atom_site_fract_y
 _atom_site_fract_z
 _atom_site_occupancy
  Dy  Dy0  1  0.403149  0.793598  0.196746  1
  Dy  Dy1  1  0.000000  0.000000  0.000000  1
  Dy  Dy2  1  0.596851  0.206402  0.803254  1
  Dy  Dy3  1  0.206402  0.403149  0.609551  1
  Dy  Dy4  1  0.793598  0.596851  0.390449  1
  Ga  Ga5  1  0.500000  0.500000  0.000000  1
  Se  Se6  1  0.097377  0.697050  0.794427  1
  Se  Se7  1  0.697050  0.902623  0.599674  1
  Se  Se8  1  0.302950  0.097377  0.400326  1
  Se  Se9  1  0.902623  0.302950  0.205573  1
