# generated using pymatgen
data_Tb5(PrS4)2
_symmetry_space_group_name_H-M   'P 1'
_cell_length_a   7.93661927
_cell_length_b   7.94619524
_cell_length_c   7.98550929
_cell_angle_alpha   119.83727735
_cell_angle_beta   90.03957231
_cell_angle_gamma   120.03992249
_symmetry_Int_Tables_number   1
_chemical_formula_structural   Tb5(PrS4)2
_chemical_formula_sum   'Tb5 Pr2 S8'
_cell_volume   356.64491128
_cell_formula_units_Z   1
loop_
 _symmetry_equiv_pos_site_id
 _symmetry_equiv_pos_as_xyz
  1  'x, y, z'
loop_
 _atom_site_type_symbol
 _atom_site_label
 _atom_site_symmetry_multiplicity
 _atom_site_fract_x
 _atom_site_fract_y
 _atom_site_fract_z
 _atom_site_occupancy
  Tb  Tb0  1  0.750011  0.000005  0.250000  1
  Tb  Tb1  1  0.249996  0.499996  0.749997  1
  Tb  Tb2  1  0.249996  0.000002  0.750009  1
  Tb  Tb3  1  0.750006  0.000004  0.750004  1
  Tb  Tb4  1  0.750006  0.500007  0.750004  1
  Pr  Pr5  1  0.249997  0.000007  0.249995  1
  Pr  Pr6  1  0.249997  0.499984  0.249995  1
  S  S7  1  0.990251  0.990179  0.990108  1
  S  S8  1  0.509743  0.009817  0.509890  1
  S  S9  1  0.997123  0.003852  0.506909  1
  S  S10  1  0.997123  0.500180  0.506909  1
  S  S11  1  0.507629  0.510091  0.512553  1
  S  S12  1  0.992372  0.489917  0.987462  1
  S  S13  1  0.502876  0.499827  0.993087  1
  S  S14  1  0.502876  0.996136  0.993087  1
