# generated using pymatgen
data_TbY(Si2Ni9)2
_symmetry_space_group_name_H-M   'P 1'
_cell_length_a   7.55321538
_cell_length_b   7.55097173
_cell_length_c   7.55321503
_cell_angle_alpha   99.58365453
_cell_angle_beta   99.59845138
_cell_angle_gamma   131.83733909
_symmetry_Int_Tables_number   1
_chemical_formula_structural   TbY(Si2Ni9)2
_chemical_formula_sum   'Tb1 Y1 Si4 Ni18'
_cell_volume   292.97975086
_cell_formula_units_Z   1
loop_
 _symmetry_equiv_pos_site_id
 _symmetry_equiv_pos_as_xyz
  1  'x, y, z'
loop_
 _atom_site_type_symbol
 _atom_site_label
 _atom_site_symmetry_multiplicity
 _atom_site_fract_x
 _atom_site_fract_y
 _atom_site_fract_z
 _atom_site_occupancy
  Tb  Tb0  1  0.499997  0.499814  0.999817  1
  Y  Y1  1  0.749995  0.250203  0.500208  1
  Si  Si2  1  0.624996  0.874439  0.750517  1
  Si  Si3  1  0.125593  0.375061  0.249468  1
  Si  Si4  1  0.125494  0.876039  0.750545  1
  Si  Si5  1  0.123922  0.874439  0.249443  1
  Ni  Ni6  1  0.250003  0.750027  0.500024  1
  Ni  Ni7  1  0.000001  0.999972  0.999970  1
  Ni  Ni8  1  0.686441  0.013301  0.078989  1
  Ni  Ni9  1  0.686500  0.607436  0.673254  1
  Ni  Ni10  1  0.263399  0.436781  0.578898  1
  Ni  Ni11  1  0.263313  0.684499  0.826584  1
  Ni  Ni12  1  0.934312  0.013301  0.326860  1
  Ni  Ni13  1  0.934182  0.607436  0.920936  1
  Ni  Ni14  1  0.857882  0.436781  0.173382  1
  Ni  Ni15  1  0.857915  0.684499  0.421186  1
  Ni  Ni16  1  0.563260  0.736623  0.421160  1
  Ni  Ni17  1  0.563230  0.142109  0.826562  1
  Ni  Ni18  1  0.986717  0.313531  0.920942  1
  Ni  Ni19  1  0.986732  0.065723  0.673207  1
  Ni  Ni20  1  0.315462  0.736623  0.173363  1
  Ni  Ni21  1  0.315547  0.142109  0.578880  1
  Ni  Ni22  1  0.392589  0.313531  0.326814  1
  Ni  Ni23  1  0.392517  0.065723  0.078992  1
