# generated using pymatgen
data_Tm6MnCo16TcP12
_symmetry_space_group_name_H-M   'P 1'
_cell_length_a   3.67609500
_cell_length_b   10.48489500
_cell_length_c   12.14887200
_cell_angle_alpha   90.00000000
_cell_angle_beta   90.00000000
_cell_angle_gamma   90.00000000
_symmetry_Int_Tables_number   1
_chemical_formula_structural   Tm6MnCo16TcP12
_chemical_formula_sum   'Tm6 Mn1 Co16 Tc1 P12'
_cell_volume   468.25968450
_cell_formula_units_Z   1
loop_
 _symmetry_equiv_pos_site_id
 _symmetry_equiv_pos_as_xyz
  1  'x, y, z'
loop_
 _atom_site_type_symbol
 _atom_site_label
 _atom_site_symmetry_multiplicity
 _atom_site_fract_x
 _atom_site_fract_y
 _atom_site_fract_z
 _atom_site_occupancy
  Tm  Tm0  1  0.000000  0.500000  0.524808  1
  Tm  Tm1  1  0.500000  0.000000  0.476937  1
  Tm  Tm2  1  0.500000  0.818233  0.206206  1
  Tm  Tm3  1  0.500000  0.181767  0.206206  1
  Tm  Tm4  1  0.000000  0.681850  0.794754  1
  Tm  Tm5  1  0.000000  0.318150  0.794754  1
  Mn  Mn6  1  0.000000  0.000000  0.840409  1
  Co  Co7  1  0.500000  0.500000  0.702372  1
  Co  Co8  1  0.000000  0.000000  0.297318  1
  Co  Co9  1  0.000000  0.500000  0.987147  1
  Co  Co10  1  0.500000  0.000000  0.014939  1
  Co  Co11  1  0.500000  0.331799  0.990235  1
  Co  Co12  1  0.500000  0.668201  0.990235  1
  Co  Co13  1  0.000000  0.166630  0.006394  1
  Co  Co14  1  0.000000  0.833370  0.006394  1
  Co  Co15  1  0.500000  0.296607  0.431217  1
  Co  Co16  1  0.500000  0.703393  0.431217  1
  Co  Co17  1  0.000000  0.203087  0.568977  1
  Co  Co18  1  0.000000  0.796913  0.568977  1
  Co  Co19  1  0.500000  0.878131  0.708526  1
  Co  Co20  1  0.500000  0.121869  0.708526  1
  Co  Co21  1  0.000000  0.621569  0.292621  1
  Co  Co22  1  0.000000  0.378431  0.292621  1
  Tc  Tc23  1  0.500000  0.500000  0.157316  1
  P  P24  1  0.500000  0.500000  0.880632  1
  P  P25  1  0.000000  0.000000  0.118415  1
  P  P26  1  0.500000  0.500000  0.350180  1
  P  P27  1  0.000000  0.000000  0.653364  1
  P  P28  1  0.500000  0.312250  0.616910  1
  P  P29  1  0.500000  0.687750  0.616910  1
  P  P30  1  0.000000  0.187431  0.383770  1
  P  P31  1  0.000000  0.812569  0.383770  1
  P  P32  1  0.500000  0.848524  0.891184  1
  P  P33  1  0.500000  0.151476  0.891184  1
  P  P34  1  0.000000  0.656109  0.107284  1
  P  P35  1  0.000000  0.343891  0.107284  1
