# generated using pymatgen
data_Y6Er4Si5Ge
_symmetry_space_group_name_H-M   'P 1'
_cell_length_a   8.42570900
_cell_length_b   8.42702981
_cell_length_c   6.32582300
_cell_angle_alpha   90.00000000
_cell_angle_beta   90.00000000
_cell_angle_gamma   119.99480363
_symmetry_Int_Tables_number   1
_chemical_formula_structural   Y6Er4Si5Ge
_chemical_formula_sum   'Y6 Er4 Si5 Ge1'
_cell_volume   389.00160355
_cell_formula_units_Z   1
loop_
 _symmetry_equiv_pos_site_id
 _symmetry_equiv_pos_as_xyz
  1  'x, y, z'
loop_
 _atom_site_type_symbol
 _atom_site_label
 _atom_site_symmetry_multiplicity
 _atom_site_fract_x
 _atom_site_fract_y
 _atom_site_fract_z
 _atom_site_occupancy
  Y  Y0  1  0.999304  0.756127  0.750000  1
  Y  Y1  1  0.999857  0.243291  0.250000  1
  Y  Y2  1  0.756566  0.756709  0.250000  1
  Y  Y3  1  0.757178  0.000000  0.750000  1
  Y  Y4  1  0.243178  0.243873  0.750000  1
  Y  Y5  1  0.243105  0.000000  0.250000  1
  Er  Er6  1  0.333151  0.665894  0.499505  1
  Er  Er7  1  0.667259  0.334106  0.000495  1
  Er  Er8  1  0.667259  0.334106  0.499505  1
  Er  Er9  1  0.333151  0.665894  0.000495  1
  Si  Si10  1  0.394852  0.394830  0.250000  1
  Si  Si11  1  0.000021  0.605170  0.250000  1
  Si  Si12  1  0.999913  0.394900  0.750000  1
  Si  Si13  1  0.605012  0.605100  0.750000  1
  Si  Si14  1  0.605196  0.000000  0.250000  1
  Ge  Ge15  1  0.395001  0.000000  0.750000  1
