# generated using pymatgen
data_Ce9NdIr6
_symmetry_space_group_name_H-M   'P 1'
_cell_length_a   11.24833507
_cell_length_b   11.17939229
_cell_length_c   6.14553500
_cell_angle_alpha   90.00000000
_cell_angle_beta   90.00000000
_cell_angle_gamma   91.74500755
_symmetry_Int_Tables_number   1
_chemical_formula_structural   Ce9NdIr6
_chemical_formula_sum   'Ce18 Nd2 Ir12'
_cell_volume   772.43987607
_cell_formula_units_Z   2
loop_
 _symmetry_equiv_pos_site_id
 _symmetry_equiv_pos_as_xyz
  1  'x, y, z'
loop_
 _atom_site_type_symbol
 _atom_site_label
 _atom_site_symmetry_multiplicity
 _atom_site_fract_x
 _atom_site_fract_y
 _atom_site_fract_z
 _atom_site_occupancy
  Ce  Ce0  1  0.091717  0.287407  0.130058  1
  Ce  Ce1  1  0.786279  0.411920  0.127098  1
  Ce  Ce2  1  0.213721  0.588080  0.127098  1
  Ce  Ce3  1  0.908283  0.712593  0.130058  1
  Ce  Ce4  1  0.411878  0.785635  0.370655  1
  Ce  Ce5  1  0.588122  0.214365  0.370655  1
  Ce  Ce6  1  0.287109  0.089120  0.370319  1
  Ce  Ce7  1  0.712891  0.910880  0.370319  1
  Ce  Ce8  1  0.411143  0.205949  0.868908  1
  Ce  Ce9  1  0.716531  0.092185  0.874377  1
  Ce  Ce10  1  0.283469  0.907815  0.874377  1
  Ce  Ce11  1  0.588857  0.794051  0.868908  1
  Ce  Ce12  1  0.088966  0.708538  0.628515  1
  Ce  Ce13  1  0.911034  0.291462  0.628515  1
  Ce  Ce14  1  0.000000  0.000000  0.032759  1
  Ce  Ce15  1  0.500000  0.500000  0.969828  1
  Ce  Ce16  1  0.500000  0.500000  0.512696  1
  Ce  Ce17  1  0.000000  0.000000  0.480382  1
  Nd  Nd18  1  0.215129  0.408099  0.633583  1
  Nd  Nd19  1  0.784871  0.591901  0.633583  1
  Ir  Ir20  1  0.161470  0.834949  0.254396  1
  Ir  Ir21  1  0.350185  0.344329  0.234846  1
  Ir  Ir22  1  0.649815  0.655671  0.234846  1
  Ir  Ir23  1  0.838530  0.165051  0.254396  1
  Ir  Ir24  1  0.342735  0.664303  0.751786  1
  Ir  Ir25  1  0.153834  0.143743  0.756635  1
  Ir  Ir26  1  0.846166  0.856257  0.756635  1
  Ir  Ir27  1  0.657265  0.335697  0.751786  1
  Ir  Ir28  1  0.000000  0.500000  0.386397  1
  Ir  Ir29  1  0.500000  0.000000  0.112161  1
  Ir  Ir30  1  0.500000  0.000000  0.609682  1
  Ir  Ir31  1  0.000000  0.500000  0.893743  1
