# generated using pymatgen
data_Tb4Dy3Ho(B6Os)4
_symmetry_space_group_name_H-M   'P 1'
_cell_length_a   3.66301600
_cell_length_b   9.16142902
_cell_length_c   11.53973402
_cell_angle_alpha   90.00744496
_cell_angle_beta   90.00000000
_cell_angle_gamma   90.00000000
_symmetry_Int_Tables_number   1
_chemical_formula_structural   Tb4Dy3Ho(B6Os)4
_chemical_formula_sum   'Tb4 Dy3 Ho1 B24 Os4'
_cell_volume   387.25571187
_cell_formula_units_Z   1
loop_
 _symmetry_equiv_pos_site_id
 _symmetry_equiv_pos_as_xyz
  1  'x, y, z'
loop_
 _atom_site_type_symbol
 _atom_site_label
 _atom_site_symmetry_multiplicity
 _atom_site_fract_x
 _atom_site_fract_y
 _atom_site_fract_z
 _atom_site_occupancy
  Tb  Tb0  1  0.000000  0.322357  0.413796  1
  Tb  Tb1  1  0.000000  0.677636  0.586285  1
  Tb  Tb2  1  0.000000  0.822273  0.086154  1
  Tb  Tb3  1  0.000000  0.177749  0.913760  1
  Dy  Dy4  1  0.000000  0.944051  0.372923  1
  Dy  Dy5  1  0.000000  0.055949  0.627114  1
  Dy  Dy6  1  0.000000  0.444118  0.126927  1
  Ho  Ho7  1  0.000000  0.555963  0.872886  1
  B  B8  1  0.500000  0.554112  0.432680  1
  B  B9  1  0.500000  0.445906  0.567371  1
  B  B10  1  0.500000  0.054097  0.067312  1
  B  B11  1  0.500000  0.945818  0.932664  1
  B  B12  1  0.500000  0.747981  0.419679  1
  B  B13  1  0.500000  0.252044  0.580333  1
  B  B14  1  0.500000  0.248012  0.080309  1
  B  B15  1  0.500000  0.751698  0.919666  1
  B  B16  1  0.500000  0.790732  0.266921  1
  B  B17  1  0.500000  0.209354  0.733111  1
  B  B18  1  0.500000  0.290745  0.233071  1
  B  B19  1  0.500000  0.708966  0.767008  1
  B  B20  1  0.500000  0.631874  0.185549  1
  B  B21  1  0.500000  0.368362  0.814561  1
  B  B22  1  0.500000  0.131901  0.314430  1
  B  B23  1  0.500000  0.868045  0.685606  1
  B  B24  1  0.500000  0.983968  0.213113  1
  B  B25  1  0.500000  0.015999  0.786896  1
  B  B26  1  0.500000  0.483956  0.286881  1
  B  B27  1  0.500000  0.516216  0.713347  1
  B  B28  1  0.500000  0.608235  0.029665  1
  B  B29  1  0.500000  0.392005  0.969818  1
  B  B30  1  0.500000  0.108415  0.470002  1
  B  B31  1  0.500000  0.891578  0.530008  1
  Os  Os32  1  0.000000  0.637763  0.321241  1
  Os  Os33  1  0.000000  0.362457  0.678919  1
  Os  Os34  1  0.000000  0.137792  0.178684  1
  Os  Os35  1  0.000000  0.861873  0.821311  1
