# generated using pymatgen
data_SrY2Cd(Pt2O7)2
_symmetry_space_group_name_H-M   'P 1'
_cell_length_a   7.29559124
_cell_length_b   7.30112667
_cell_length_c   7.29559245
_cell_angle_alpha   60.81020537
_cell_angle_beta   60.71162319
_cell_angle_gamma   60.81020788
_symmetry_Int_Tables_number   1
_chemical_formula_structural   SrY2Cd(Pt2O7)2
_chemical_formula_sum   'Sr1 Y2 Cd1 Pt4 O14'
_cell_volume   279.60491995
_cell_formula_units_Z   1
loop_
 _symmetry_equiv_pos_site_id
 _symmetry_equiv_pos_as_xyz
  1  'x, y, z'
loop_
 _atom_site_type_symbol
 _atom_site_label
 _atom_site_symmetry_multiplicity
 _atom_site_fract_x
 _atom_site_fract_y
 _atom_site_fract_z
 _atom_site_occupancy
  Sr  Sr0  1  0.125000  0.625000  0.125000  1
  Y  Y1  1  0.625000  0.125000  0.125000  1
  Y  Y2  1  0.125000  0.125000  0.625000  1
  Cd  Cd3  1  0.125000  0.125000  0.125000  1
  Pt  Pt4  1  0.125000  0.625000  0.625000  1
  Pt  Pt5  1  0.625000  0.125000  0.625000  1
  Pt  Pt6  1  0.625000  0.625000  0.125000  1
  Pt  Pt7  1  0.625000  0.625000  0.625000  1
  O  O8  1  0.696013  0.722285  0.292573  1
  O  O9  1  0.296509  0.294282  0.692881  1
  O  O10  1  0.712414  0.288666  0.712414  1
  O  O11  1  0.297552  0.710282  0.297552  1
  O  O12  1  0.292573  0.722285  0.696013  1
  O  O13  1  0.692881  0.294282  0.296509  1
  O  O14  1  0.553987  0.527715  0.957427  1
  O  O15  1  0.953491  0.955718  0.557119  1
  O  O16  1  0.537586  0.961334  0.537586  1
  O  O17  1  0.952448  0.539718  0.952448  1
  O  O18  1  0.957427  0.527715  0.553987  1
  O  O19  1  0.557119  0.955718  0.953491  1
  O  O20  1  0.257193  0.225192  0.257193  1
  O  O21  1  0.992807  0.024808  0.992807  1
