# generated using pymatgen
data_Nd5In3
_symmetry_space_group_name_H-M   'P 1'
_cell_length_a   9.47224954
_cell_length_b   9.47224853
_cell_length_c   9.47224963
_cell_angle_alpha   96.22449802
_cell_angle_beta   96.22449556
_cell_angle_gamma   141.54999820
_symmetry_Int_Tables_number   1
_chemical_formula_structural   Nd5In3
_chemical_formula_sum   'Nd10 In6'
_cell_volume   499.01218540
_cell_formula_units_Z   2
loop_
 _symmetry_equiv_pos_site_id
 _symmetry_equiv_pos_as_xyz
  1  'x, y, z'
loop_
 _atom_site_type_symbol
 _atom_site_label
 _atom_site_symmetry_multiplicity
 _atom_site_fract_x
 _atom_site_fract_y
 _atom_site_fract_z
 _atom_site_occupancy
  Nd  Nd0  1  0.750000  0.250000  0.500000  1
  Nd  Nd1  1  0.250000  0.750000  0.500000  1
  Nd  Nd2  1  0.218584  0.916332  0.134916  1
  Nd  Nd3  1  0.083668  0.218584  0.302252  1
  Nd  Nd4  1  0.916332  0.781416  0.697748  1
  Nd  Nd5  1  0.781416  0.083668  0.865084  1
  Nd  Nd6  1  0.416332  0.718584  0.134916  1
  Nd  Nd7  1  0.583668  0.281416  0.865084  1
  Nd  Nd8  1  0.718584  0.583668  0.302252  1
  Nd  Nd9  1  0.281416  0.416332  0.697748  1
  In  In10  1  0.250000  0.250000  0.000000  1
  In  In11  1  0.750000  0.750000  0.000000  1
  In  In12  1  0.661491  0.838509  0.500000  1
  In  In13  1  0.161491  0.661491  0.822982  1
  In  In14  1  0.838509  0.338509  0.177018  1
  In  In15  1  0.338509  0.161491  0.500000  1
