# generated using pymatgen
data_Sc11FeIr2Ru
_symmetry_space_group_name_H-M   'P 1'
_cell_length_a   9.43111871
_cell_length_b   9.43285071
_cell_length_c   9.42257900
_cell_angle_alpha   60.03601145
_cell_angle_beta   60.02994508
_cell_angle_gamma   59.88088973
_symmetry_Int_Tables_number   1
_chemical_formula_structural   Sc11FeIr2Ru
_chemical_formula_sum   'Sc22 Fe2 Ir4 Ru2'
_cell_volume   592.49461232
_cell_formula_units_Z   2
loop_
 _symmetry_equiv_pos_site_id
 _symmetry_equiv_pos_as_xyz
  1  'x, y, z'
loop_
 _atom_site_type_symbol
 _atom_site_label
 _atom_site_symmetry_multiplicity
 _atom_site_fract_x
 _atom_site_fract_y
 _atom_site_fract_z
 _atom_site_occupancy
  Sc  Sc0  1  0.809037  0.808023  0.191470  1
  Sc  Sc1  1  0.191994  0.807767  0.192111  1
  Sc  Sc2  1  0.808006  0.192233  0.191872  1
  Sc  Sc3  1  0.190963  0.191977  0.808530  1
  Sc  Sc4  1  0.808006  0.192233  0.807889  1
  Sc  Sc5  1  0.191994  0.807767  0.808128  1
  Sc  Sc6  1  0.613524  0.615417  0.156097  1
  Sc  Sc7  1  0.613380  0.156479  0.615071  1
  Sc  Sc8  1  0.155952  0.614874  0.614587  1
  Sc  Sc9  1  0.613524  0.615417  0.614962  1
  Sc  Sc10  1  0.386476  0.384583  0.843903  1
  Sc  Sc11  1  0.386620  0.843521  0.384929  1
  Sc  Sc12  1  0.844048  0.385126  0.385413  1
  Sc  Sc13  1  0.386476  0.384583  0.385038  1
  Sc  Sc14  1  0.840908  0.843189  0.472933  1
  Sc  Sc15  1  0.842055  0.473666  0.842140  1
  Sc  Sc16  1  0.472508  0.843904  0.841794  1
  Sc  Sc17  1  0.840908  0.843189  0.842970  1
  Sc  Sc18  1  0.159092  0.156811  0.527067  1
  Sc  Sc19  1  0.157945  0.526334  0.157860  1
  Sc  Sc20  1  0.527492  0.156096  0.158206  1
  Sc  Sc21  1  0.159092  0.156811  0.157030  1
  Fe  Fe22  1  0.000000  0.000000  0.000000  1
  Fe  Fe23  1  0.500000  0.500000  0.500000  1
  Ir  Ir24  1  0.000000  0.000000  0.500000  1
  Ir  Ir25  1  0.000000  0.500000  0.500000  1
  Ir  Ir26  1  0.500000  0.500000  0.000000  1
  Ir  Ir27  1  0.000000  0.500000  0.000000  1
  Ru  Ru28  1  0.500000  0.000000  0.500000  1
  Ru  Ru29  1  0.500000  0.000000  0.000000  1
